#       Name:                AV-unprocessed.smi:1313
#       Creating user name   scv26
#       Creation time:       Fri Mar 27 05:02:25 2020


#       File generated by GOLD software.
#

@<TRIPOS>MOLECULE
AV-unprocessed.smi:1313
    42    43     1
SMALL
NO_CHARGES


@<TRIPOS>ATOM
      1 ****        -5.8599  -1.5343  -1.0029 C.3            1 S1                 0.0000
      2 ****        -4.3476  -1.4703  -1.0157 C.2            1 S1                 0.0000
      3 ****        -3.7700  -0.3467  -1.2106 N.2            1 S1                 0.0000
      4 ****        -2.3662  -0.2831  -1.2226 C.2            1 S1                 0.0000
      5 ****        -1.7692   1.0935  -1.4599 C.3            1 S1                 0.0000
      6 ****        -1.6070  -1.3998  -1.0278 C.2            1 S1                 0.0000
      7 ****        -0.0788  -1.3842  -1.0327 C.3            1 S1                 0.0000
      8 ****         0.5722  -0.9191   0.2708 C.2            1 S1                 0.0000
      9 ****         0.3744  -1.5402   1.3148 O.2            1 S1                 0.0000
     10 ****         1.3417   0.1780   0.1994 N.am           1 S1                 0.0000
     11 ****         2.0215   0.8026   1.3305 C.3            1 S1                 0.0000
     12 ****         2.4070   2.2574   1.0019 C.3            1 S1                 0.0000
     13 ****         3.8579   2.4211   1.4567 C.3            1 S1                 0.0000
     14 ****         4.4646   1.0334   1.2771 C.3            1 S1                 0.0000
     15 ****         3.3385   0.0779   1.6756 C.3            1 S1                 0.0000
     16 ****        -2.3123  -2.6748  -0.8029 C.2            1 S1                 0.0000
     17 ****        -1.6778  -3.7115  -0.6114 O.2            1 S1                 0.0000
     18 ****        -3.6757  -2.6545  -0.8130 N.pl3          1 S1                -1.0000
     19 ****        -6.2971  -0.5380  -1.0818 H              1 S1                 0.0000
     20 ****        -6.2123  -1.9887  -0.0763 H              1 S1                 0.0000
     21 ****        -6.2184  -2.1333  -1.8404 H              1 S1                 0.0000
     22 ****        -1.1083   1.0853  -2.3267 H              1 S1                 0.0000
     23 ****        -1.1997   1.4178  -0.5888 H              1 S1                 0.0000
     24 ****        -2.5485   1.8340  -1.6434 H              1 S1                 0.0000
     25 ****         0.3186  -2.3696  -1.2771 H              1 S1                 0.0000
     26 ****         0.2579  -0.7475  -1.8514 H              1 S1                 0.0000
     27 ****         1.4482   0.6232  -0.7005 H              1 S1                 0.0000
     28 ****         1.3633   0.7923   2.2015 H              1 S1                 0.0000
     29 ****         2.3529   2.4358  -0.0735 H              1 S1                 0.0000
     30 ****         1.7442   2.9787   1.4809 H              1 S1                 0.0000
     31 ****         4.3904   3.1899   0.8961 H              1 S1                 0.0000
     32 ****         3.8839   2.6987   2.5114 H              1 S1                 0.0000
     33 ****         4.7244   0.8800   0.2287 H              1 S1                 0.0000
     34 ****         5.3682   0.8888   1.8702 H              1 S1                 0.0000
     35 ****         3.3785  -0.0964   2.7516 H              1 S1                 0.0000
     36 ****         3.4404  -0.8948   1.1921 H              1 S1                 0.0000
     37 ****        -4.3130   0.4807  -1.3534 LP             1 S1                 0.0000
     38 ****        -0.2125  -2.3499   1.3114 LP             1 S1                 0.0000
     39 ****         0.8006  -1.2352   2.1665 LP             1 S1                 0.0000
     40 ****        -0.6780  -3.6924  -0.6077 LP             1 S1                 0.0000
     41 ****        -2.1619  -4.5732  -0.4595 LP             1 S1                 0.0000
     42 ****        -4.1884  -3.5016  -0.6729 LP             1 S1                 0.0000
@<TRIPOS>BOND
    1    1    2 1     
    2    1   19 1     
    3    1   20 1     
    4    1   21 1     
    5    2   18 1     
    6    2    3 2     
    7    3    4 1     
    8    4    5 1     
    9    4    6 2     
   10    5   22 1     
   11    5   23 1     
   12    5   24 1     
   13    6    7 1     
   14    6   16 1     
   15    7    8 1     
   16    7   25 1     
   17    7   26 1     
   18    8    9 2     
   19    8   10 am    
   20   10   11 1     
   21   10   27 1     
   22   11   15 1     
   23   11   12 1     
   24   11   28 1     
   25   12   13 1     
   26   12   29 1     
   27   12   30 1     
   28   13   14 1     
   29   13   31 1     
   30   13   32 1     
   31   14   15 1     
   32   14   33 1     
   33   14   34 1     
   34   15   35 1     
   35   15   36 1     
   36   16   17 2     
   37   16   18 1     
   38    3   37 1     
   39    9   38 1     
   40    9   39 1     
   41   17   40 1     
   42   17   41 1     
   43   18   42 1     
@<TRIPOS>SUBSTRUCTURE
      1 S1             1
@<TRIPOS>SET
LONE_PAIRS      STATIC     ATOMS    <user>   **** ""
6 37 38 39 40 41 42
DONOR_HYDROGENS      STATIC     ATOMS    <user>   **** ""
1 27
ATOM$BLUE        STATIC     ATOMS    COLORGROUP SYSTEM
6 37 38 39 40 41 42
ATOM$RED        STATIC     ATOMS    COLORGROUP SYSTEM
1 27
