AV-unprocessed.smi:2390|AV-procd|sdf|9475|dock10
  -GOLD-   2272013103D 1   1.00000     0.00000
 Structure written by MMmdl.
 45 46  0  0  0  0  0  0  0  0  1 V2000
  153.7477  141.0413  160.0363 C   0  0  0  0  0  0  0  0  0  0  0  0
  152.9092  142.2056  159.5524 C   0  0  0  0  0  0  0  0  0  0  0  0
  153.0734  143.4933  160.0994 C   0  0  0  0  0  0  0  0  0  0  0  0
  152.2662  144.5322  159.6029 C   0  0  0  0  0  0  0  0  0  0  0  0
  151.3359  144.2433  158.5859 C   0  0  0  0  0  0  0  0  0  0  0  0
  151.2347  142.9236  158.0909 C   0  0  0  0  0  0  0  0  0  0  0  0
  150.2743  142.7389  157.0611 N   0  0  0  0  0  0  0  0  0  0  0  0
  150.1987  141.7400  156.1641 C   0  0  0  0  0  0  0  0  0  0  0  0
  150.9461  140.7622  156.1201 O   0  0  0  0  0  0  0  0  0  0  0  0
  149.1850  141.9360  155.3081 N   0  0  0  0  0  0  0  0  0  0  0  0
  148.8158  141.0452  154.2083 C   0  0  2  0  0  0  0  0  0  0  0  0
  147.6378  141.6693  153.4394 C   0  0  0  0  0  0  0  0  0  0  0  0
  148.5316  139.5902  154.7059 C   0  0  1  0  0  0  0  0  0  0  0  0
  147.6252  138.8498  153.6874 C   0  0  0  0  0  0  0  0  0  0  0  0
  149.7534  138.8262  155.0555 N   0  0  0  0  0  0  0  0  0  0  0  0
  149.4819  137.4103  155.3298 C   0  0  0  0  0  0  0  0  0  0  0  0
  150.7539  136.6149  155.6717 C   0  0  0  0  0  0  0  0  0  0  0  0
  151.6985  136.7394  154.6174 O   0  0  0  0  0  0  0  0  0  0  0  0
  152.0467  138.0944  154.3701 C   0  0  0  0  0  0  0  0  0  0  0  0
  150.7827  138.8950  154.0125 C   0  0  0  0  0  0  0  0  0  0  0  0
  152.0173  141.9283  158.5771 N   0  0  0  0  0  0  0  0  0  0  0  0
  154.2780  141.2915  160.9555 H   0  0  0  0  0  0  0  0  0  0  0  0
  154.4841  140.7676  159.2804 H   0  0  0  0  0  0  0  0  0  0  0  0
  153.1188  140.1726  160.2342 H   0  0  0  0  0  0  0  0  0  0  0  0
  153.7981  143.6829  160.8777 H   0  0  0  0  0  0  0  0  0  0  0  0
  152.3590  145.5346  159.9938 H   0  0  0  0  0  0  0  0  0  0  0  0
  150.7093  145.0306  158.1921 H   0  0  0  0  0  0  0  0  0  0  0  0
  149.5727  143.4606  156.9882 H   0  0  0  0  0  0  0  0  0  0  0  0
  148.6220  142.7659  155.4230 H   0  0  0  0  0  0  0  0  0  0  0  0
  149.6726  141.0447  153.5357 H   0  0  0  0  0  0  0  0  0  0  0  0
  147.3578  141.0608  152.5794 H   0  0  0  0  0  0  0  0  0  0  0  0
  147.8998  142.6585  153.0628 H   0  0  0  0  0  0  0  0  0  0  0  0
  146.7555  141.7821  154.0697 H   0  0  0  0  0  0  0  0  0  0  0  0
  147.9413  139.6873  155.6185 H   0  0  0  0  0  0  0  0  0  0  0  0
  146.7789  139.4536  153.3622 H   0  0  0  0  0  0  0  0  0  0  0  0
  147.1857  137.9495  154.1152 H   0  0  0  0  0  0  0  0  0  0  0  0
  148.1810  138.5578  152.7962 H   0  0  0  0  0  0  0  0  0  0  0  0
  148.8069  137.3024  156.1763 H   0  0  0  0  0  0  0  0  0  0  0  0
  148.9888  136.9544  154.4698 H   0  0  0  0  0  0  0  0  0  0  0  0
  151.1909  136.9702  156.6063 H   0  0  0  0  0  0  0  0  0  0  0  0
  150.5144  135.5605  155.8111 H   0  0  0  0  0  0  0  0  0  0  0  0
  152.5387  138.5188  155.2470 H   0  0  0  0  0  0  0  0  0  0  0  0
  152.7646  138.1332  153.5507 H   0  0  0  0  0  0  0  0  0  0  0  0
  150.3774  138.5285  153.0681 H   0  0  0  0  0  0  0  0  0  0  0  0
  151.0929  139.9253  153.8465 H   0  0  0  0  0  0  0  0  0  0  0  0
  1  2  1  0  0  0  0
  1 22  1  0  0  0  0
  1 23  1  0  0  0  0
  1 24  1  0  0  0  0
  2 21  1  0  0  0  0
  2  3  2  0  0  0  0
  3  4  1  0  0  0  0
  3 25  1  0  0  0  0
  4  5  2  0  0  0  0
  4 26  1  0  0  0  0
  5  6  1  0  0  0  0
  5 27  1  0  0  0  0
  6  7  1  0  0  0  0
  6 21  2  0  0  0  0
  7  8  1  0  0  0  0
  7 28  1  0  0  0  0
  8  9  2  0  0  0  0
  8 10  1  0  0  0  0
 10 11  1  0  0  0  0
 10 29  1  0  0  0  0
 11 12  1  0  0  0  0
 11 13  1  0  0  0  0
 11 30  1  0  0  0  0
 12 31  1  0  0  0  0
 12 32  1  0  0  0  0
 12 33  1  0  0  0  0
 13 14  1  0  0  0  0
 13 15  1  0  0  0  0
 13 34  1  0  0  0  0
 14 35  1  0  0  0  0
 14 36  1  0  0  0  0
 14 37  1  0  0  0  0
 15 20  1  0  0  0  0
 15 16  1  0  0  0  0
 16 17  1  0  0  0  0
 16 38  1  0  0  0  0
 16 39  1  0  0  0  0
 17 18  1  0  0  0  0
 17 40  1  0  0  0  0
 17 41  1  0  0  0  0
 18 19  1  0  0  0  0
 19 20  1  0  0  0  0
 19 42  1  0  0  0  0
 19 43  1  0  0  0  0
 20 44  1  0  0  0  0
 20 45  1  0  0  0  0
M  END
> <s_m_source_file>
AV-unprocessed.smi

> <i_m_source_file_index>
2390

> <i_lp_mmshare_version>
43012

> <i_f3d_flags>
0

> <s_epik_input>
W0NIM11jMVtjSF1bY0hdW2NIXWMobjEpW05IXUMoPU8pW05IXVtDQEhdKFtDSDNdKVtDQEhdKFtDSDNdKU4yW0NIMl1bQ0gyXU9bQ0gyXVtDSDJdMg==

> <s_epik_cmdline>
J2VwaWtfcHl0aG9uJywgJy1waCcsICc3LjAnLCAnLXRuJywgJzgnLCAnLW1hJywgJzIwMCcsICctbWV0YWxfYmluZGluZycsICctaW1hZScsICc8aW5maWxlLm1hZT4nLCAnLW9tYWUnLCAnPG91dGZpbGUubWFlPic=

> <r_epik_Ionization_Penalty>
0.266074

> <r_epik_Ionization_Penalty_Charging>
0

> <r_epik_Ionization_Penalty_Neutral>
0.266074

> <r_epik_State_Penalty>
0.257924

> <r_epik_Charging_Adjusted_Penalty>
0.257924

> <i_epik_Tot_Q>
0

> <i_epik_Tot_abs_Q>
0

> <r_epik_Metal_State_Penalty>
0.257919

> <b_epik_Metal_Only>
0

> <s_lp_Force_Field>
OPLS_2005

> <r_lp_Energy>
33.31

> <b_lp_Chiralities_Consistent>
1

> <s_lp_Variant>
AV-unprocessed.smi:2390-3

> <Gold.Version>
5.8.1

> <Gold.Id.Protein>
6NUR|6NUR_protein|mol2

> <Gold.PLP.Fitness>
49.1045

> <Gold.PLP.PLP>
-42.2696

> <Gold.PLP.part.hbond>
-3.0000

> <Gold.PLP.part.metal>
0.0000

> <Gold.PLP.part.buried>
-7.0652

> <Gold.PLP.part.nonpolar>
-33.2053

> <Gold.PLP.part.repulsive>
0.4425

> <Gold.PLP.ligand.clash>
0.0000

> <Gold.PLP.ligand.torsion>
0.6713

> <Gold.PLP.Chemscore.Hbond>
2.6960

> <Gold.PLP.Chemscore.CHOScore>
0.0000

> <Gold.PLP.Chemscore.Metal>
0.0000

> <Gold.Chemscore.Hbonds>
donor molecule, donor type, donor heavy atom, donor atom, acceptor molecule, acceptor atom, score
      L1  H     7    28       P1  8028  0.80
      L1  H    10    29       P1  8028  0.78
      P1  H 10752 10765       L1    18  1.00

> <Gold.PLP.Chemscore.Internal.Correction>
0.0895

> <Gold.Rescore>
     Score         DG    S(hbond)    S(metal)    S(lipo)     H(rot)  DE(clash)    DE(int)     intcor
     16.28     -21.56       2.13        0.00     108.01       1.44       0.41       4.86       ----

> <Gold.Chemscore.Fitness>
16.2839

> <Gold.Chemscore.DG>
-21.5570

> <Gold.Chemscore.ZeroCoef>
-5.4800

> <Gold.Chemscore.Hbond>
2.1333

> <Gold.Chemscore.Metal>
0.0000

> <Gold.Chemscore.Lipo>
108.0117

> <Gold.Chemscore.Internal_Hbond>
0.0000

> <Gold.Chemscore.DEClash>
0.4098

> <Gold.Chemscore.DEInternal>
4.8634

> <Gold.Chemscore.Rot>
1.4396

> <Gold.Chemscore.Internal.Correction>
   9.000000E+99

> <Gold.Chemscore.Hbonds>
donor molecule, donor type, donor heavy atom, donor atom, acceptor molecule, acceptor atom, score
      L1  H     7    28       P1  8028  0.76
      L1  H    10    29       P1  8028  0.76
      P1  H 10752 10765       L1    18  0.90

> <Gold.Chemscore.Hbond.Weighted>
-7.1251

> <Gold.Chemscore.Metal.Weighted>
-0.0000

> <Gold.Chemscore.Lipo.Weighted>
-12.6374

> <Gold.Chemscore.Internal_Hbond.Weighted>
0.0000

> <Gold.Chemscore.DEClash.Weighted>
0.4098

> <Gold.Chemscore.DEInternal.Weighted>
4.8634

> <Gold.Chemscore.Rot.Weighted>
3.6855

> <Gold.Chemscore.Internal.Correction.Weighted>
   9.000000E+99

> <Gold.Protein.RotatedTorsions>
[ 6907 6896 6895 6894 ] final -168.44 input  -60.11 | X-H torsion
[ 7974 7965 7964 7962 ] final  -60.21 input  175.53 | X-H torsion
[ 8008 7997 7996 7995 ] final   71.46 input   59.86 | X-H torsion
[ 10167 10162 10161 10158 ] final -170.69 input  -65.29 | X-H torsion
[ 10718 10713 10712 10709 ] final   98.48 input   66.30 | X-H torsion
[ 10763 10752 10751 10750 ] final  166.83 input  -60.55 | X-H torsion
[ 11005 11000 10999 10996 ] final  -94.81 input  -57.11 | X-H torsion

> <Gold.Protein.ActiveResidues>
 VAL166  LYS551  ARG553  GLY616  TRP617  ASP618  TYR619  PRO620  LYS621  CYS622 
 ASP623  PHE694  ASN695  SER759  ASP760  ASP761  ALA762  ILE779  LEU786  VAL792 
 PHE793  MET794  SER795  GLU796  ALA797  LYS798  CYS799  TRP800  GLU811  SER814 

> <Gold.Protein.RotatedAtoms>
  151.4756  133.3558  159.2829 H   0  0  0  0  0  0  0  0  0  0  0  0  # atno 6907 bound_to 6896
  150.8932  134.8339  159.7318 H   0  0  0  0  0  0  0  0  0  0  0  0  # atno 6908 bound_to 6896
  152.4835  134.4668  159.9674 H   0  0  0  0  0  0  0  0  0  0  0  0  # atno 6909 bound_to 6896
  145.8182  140.8556  143.0146 H   0  0  0  0  0  0  0  0  0  0  0  0  # atno 7974 bound_to 7965
  155.7542  140.3488  155.5165 H   0  0  0  0  0  0  0  0  0  0  0  0  # atno 8008 bound_to 7997
  155.8976  140.1028  157.1394 H   0  0  0  0  0  0  0  0  0  0  0  0  # atno 8009 bound_to 7997
  154.4040  140.1292  156.4382 H   0  0  0  0  0  0  0  0  0  0  0  0  # atno 8010 bound_to 7997
  139.5846  144.1346  152.1559 H   0  0  0  0  0  0  0  0  0  0  0  0  # atno 10167 bound_to 10162
  157.6895  131.0641  150.4802 H   0  0  0  0  0  0  0  0  0  0  0  0  # atno 10718 bound_to 10713
  154.3448  135.2753  155.2403 H   0  0  0  0  0  0  0  0  0  0  0  0  # atno 10763 bound_to 10752
  154.4658  135.5895  153.6291 H   0  0  0  0  0  0  0  0  0  0  0  0  # atno 10764 bound_to 10752
  152.9854  135.6076  154.3652 H   0  0  0  0  0  0  0  0  0  0  0  0  # atno 10765 bound_to 10752
  141.1460  133.7982  157.0349 H   0  0  0  0  0  0  0  0  0  0  0  0  # atno 11005 bound_to 11000
  144.6750  140.0495  143.7479 LP  0  0  0  0  0  0  0  0  0  0  0  0  # atno 17320 bound_to 7965
  145.9703  139.2865  143.1102 LP  0  0  0  0  0  0  0  0  0  0  0  0  # atno 17321 bound_to 7965
  140.0907  144.5623  150.7057 LP  0  0  0  0  0  0  0  0  0  0  0  0  # atno 17342 bound_to 10162
  140.7120  143.2513  151.4552 LP  0  0  0  0  0  0  0  0  0  0  0  0  # atno 17343 bound_to 10162
  156.5134  130.4145  149.6289 LP  0  0  0  0  0  0  0  0  0  0  0  0  # atno 17370 bound_to 10713
  156.3220  130.7285  151.2199 LP  0  0  0  0  0  0  0  0  0  0  0  0  # atno 17371 bound_to 10713
  140.0730  134.9691  157.1499 LP  0  0  0  0  0  0  0  0  0  0  0  0  # atno 17394 bound_to 11000
  140.3684  134.2417  155.7180 LP  0  0  0  0  0  0  0  0  0  0  0  0  # atno 17395 bound_to 11000

$$$$
