AV-unprocessed.smi:114|AV-procd|sdf|1113|dock10
  -GOLD-   2262018233D 1   1.00000     0.00000
 Structure written by MMmdl.
 32 34  0  0  0  0  0  0  0  0  1 V2000
  145.2426  133.2371  152.7684 N   0  0  0  0  0  0  0  0  0  0  0  0
  146.0654  134.0917  153.3925 C   0  0  0  0  0  0  0  0  0  0  0  0
  147.1929  133.6029  153.9590 N   0  0  0  0  0  0  0  0  0  0  0  0
  148.0393  134.4223  154.5946 C   0  0  0  0  0  0  0  0  0  0  0  0
  149.1405  133.8481  155.1333 F   0  0  0  0  0  0  0  0  0  0  0  0
  147.9179  135.7438  154.7588 N   0  0  0  0  0  0  0  0  0  0  0  0
  146.7827  136.2427  154.1890 C   0  0  0  0  0  0  0  0  0  0  0  0
  145.8082  135.4810  153.4895 C   0  0  0  0  0  0  0  0  0  0  0  0
  144.7861  136.3091  153.0470 N   0  0  0  0  0  0  0  0  0  0  0  0
  145.1398  137.4940  153.4667 C   0  0  0  0  0  0  0  0  0  0  0  0
  146.3246  137.5465  154.1680 N   0  0  0  0  0  0  0  0  0  0  0  0
  146.9641  138.7623  154.7707 C   0  0  2  0  0  0  0  0  0  0  0  0
  146.1682  139.8833  154.5183 O   0  0  0  0  0  0  0  0  0  0  0  0
  146.8951  140.8604  153.7729 C   0  0  1  0  0  0  0  0  0  0  0  0
  146.4266  142.2695  154.1674 C   0  0  0  0  0  0  0  0  0  0  0  0
  146.9073  142.5992  155.4530 O   0  0  0  0  0  0  0  0  0  0  0  0
  148.3484  140.5711  154.1537 C   0  0  2  0  0  0  0  0  0  0  0  0
  149.2836  141.1058  153.2356 O   0  0  0  0  0  0  0  0  0  0  0  0
  148.3737  139.0505  154.2186 C   0  0  2  0  0  0  0  0  0  0  0  0
  148.6289  138.4491  152.9585 O   0  0  0  0  0  0  0  0  0  0  0  0
  146.9643  138.5699  155.8443 H   0  0  0  0  0  0  0  0  0  0  0  0
  146.7590  140.6859  152.7043 H   0  0  0  0  0  0  0  0  0  0  0  0
  148.5554  140.9737  155.1466 H   0  0  0  0  0  0  0  0  0  0  0  0
  149.1220  138.6897  154.9249 H   0  0  0  0  0  0  0  0  0  0  0  0
  144.3941  133.5785  152.3403 H   0  0  0  0  0  0  0  0  0  0  0  0
  145.4720  132.2546  152.7289 H   0  0  0  0  0  0  0  0  0  0  0  0
  144.5371  138.3707  153.2788 H   0  0  0  0  0  0  0  0  0  0  0  0
  146.7477  143.0144  153.4386 H   0  0  0  0  0  0  0  0  0  0  0  0
  145.3376  142.3048  154.2083 H   0  0  0  0  0  0  0  0  0  0  0  0
  147.6093  143.2249  155.3608 H   0  0  0  0  0  0  0  0  0  0  0  0
  149.4950  140.4399  152.5996 H   0  0  0  0  0  0  0  0  0  0  0  0
  148.9621  139.1111  152.3724 H   0  0  0  0  0  0  0  0  0  0  0  0
  1  2  1  0  0  0  0
  1 25  1  0  0  0  0
  1 26  1  0  0  0  0
  2  8  1  0  0  0  0
  2  3  2  0  0  0  0
  3  4  1  0  0  0  0
  4  5  1  0  0  0  0
  4  6  2  0  0  0  0
  6  7  1  0  0  0  0
  7 11  1  0  0  0  0
  7  8  2  0  0  0  0
  8  9  1  0  0  0  0
  9 10  2  0  0  0  0
 10 11  1  0  0  0  0
 10 27  1  0  0  0  0
 11 12  1  0  0  0  0
 12 21  1  0  0  0  0
 12 19  1  0  0  0  0
 12 13  1  0  0  0  0
 13 14  1  0  0  0  0
 14 22  1  0  0  0  0
 14 15  1  0  0  0  0
 14 17  1  0  0  0  0
 15 16  1  0  0  0  0
 15 28  1  0  0  0  0
 15 29  1  0  0  0  0
 16 30  1  0  0  0  0
 17 23  1  0  0  0  0
 17 18  1  0  0  0  0
 17 19  1  0  0  0  0
 18 31  1  0  0  0  0
 19 24  1  0  0  0  0
 19 20  1  0  0  0  0
 20 32  1  0  0  0  0
M  END
> <s_m_source_file>
AV-unprocessed.smi

> <i_m_source_file_index>
114

> <i_lp_mmshare_version>
43012

> <i_f3d_flags>
0

> <s_epik_input>
RmMobjEpbmMoW05IMl0pYyhjMTIpbltjSF1uMltDQEBIXTNPW0NASF0oW0NIMl1bT0hdKVtDQEBIXShbT0hdKVtDQEBIXTNbT0hd

> <s_epik_cmdline>
J2VwaWtfcHl0aG9uJywgJy1waCcsICc3LjAnLCAnLXRuJywgJzgnLCAnLW1hJywgJzIwMCcsICctbWV0YWxfYmluZGluZycsICctaW1hZScsICc8aW5maWxlLm1hZT4nLCAnLW9tYWUnLCAnPG91dGZpbGUubWFlPic=

> <r_lp_tautomer_probability>
1

> <r_epik_Ionization_Penalty>
1.13199e-05

> <r_epik_Ionization_Penalty_Charging>
0

> <r_epik_Ionization_Penalty_Neutral>
1.13199e-05

> <r_epik_State_Penalty>
-0

> <r_epik_Charging_Adjusted_Penalty>
0

> <i_epik_Tot_Q>
0

> <i_epik_Tot_abs_Q>
0

> <r_epik_Metal_State_Penalty>
-0

> <b_epik_Metal_Only>
0

> <s_epik_Chemistry_Notes>
This compound contains an acetal/aminal-like group ( X-CH(R)-Y where X, Y are N, S, or O) that may be acid/base labile, releasing an aldehyde.

> <s_lp_Force_Field>
OPLS_2005

> <r_lp_Energy>
45.5286

> <b_lp_Chiralities_Consistent>
1

> <s_lp_Variant>
AV-unprocessed.smi:114-7

> <Gold.Version>
5.8.1

> <Gold.Id.Protein>
6NUR|6NUR_protein|mol2

> <Gold.PLP.Fitness>
36.0311

> <Gold.PLP.PLP>
-22.0482

> <Gold.PLP.part.hbond>
-5.1618

> <Gold.PLP.part.metal>
0.0000

> <Gold.PLP.part.buried>
-4.4422

> <Gold.PLP.part.nonpolar>
-14.0922

> <Gold.PLP.part.repulsive>
0.6702

> <Gold.PLP.ligand.clash>
0.0000

> <Gold.PLP.ligand.torsion>
0.1221

> <Gold.PLP.Chemscore.Hbond>
3.7397

> <Gold.PLP.Chemscore.CHOScore>
1.0000

> <Gold.PLP.Chemscore.Metal>
0.0000

> <Gold.Chemscore.Hbonds>
donor molecule, donor type, donor heavy atom, donor atom, acceptor molecule, acceptor atom, score
      L1  H    16    30       P1  8028  1.00
      L1  H    18    31       P1  7957  0.87
      L1  H    20    32       P1  7957  1.00
      P1  H  8011  8017       L1    18  0.80
      L1  C    10    27       P1 10175  1.00

> <Gold.PLP.Chemscore.Internal.Correction>
0.0080

> <Gold.Rescore>
     Score         DG    S(hbond)    S(metal)    S(lipo)     H(rot)  DE(clash)    DE(int)     intcor
      8.40      -8.58       3.03        0.00      28.18       4.03       0.03       0.15       ----

> <Gold.Chemscore.Fitness>
8.4047

> <Gold.Chemscore.DG>
-8.5785

> <Gold.Chemscore.ZeroCoef>
-5.4800

> <Gold.Chemscore.Hbond>
3.0276

> <Gold.Chemscore.Metal>
0.0000

> <Gold.Chemscore.Lipo>
28.1831

> <Gold.Chemscore.Internal_Hbond>
0.0000

> <Gold.Chemscore.DEClash>
0.0280

> <Gold.Chemscore.DEInternal>
0.1457

> <Gold.Chemscore.Rot>
4.0277

> <Gold.Chemscore.Internal.Correction>
   9.000000E+99

> <Gold.Chemscore.Hbonds>
donor molecule, donor type, donor heavy atom, donor atom, acceptor molecule, acceptor atom, score
      L1  H    16    30       P1  8028  0.30
      L1  H    18    31       P1  7957  0.80
      L1  H    20    32       P1  7957  0.99
      P1  H  8011  8017       L1    18  0.12

> <Gold.Chemscore.Hbond.Weighted>
-10.1120

> <Gold.Chemscore.Metal.Weighted>
-0.0000

> <Gold.Chemscore.Lipo.Weighted>
-3.2974

> <Gold.Chemscore.Internal_Hbond.Weighted>
0.0000

> <Gold.Chemscore.DEClash.Weighted>
0.0280

> <Gold.Chemscore.DEInternal.Weighted>
0.1457

> <Gold.Chemscore.Rot.Weighted>
10.3110

> <Gold.Chemscore.Internal.Correction.Weighted>
   9.000000E+99

> <Gold.Protein.RotatedTorsions>
[ 6907 6896 6895 6894 ] final  178.39 input  -60.11 | X-H torsion
[ 7974 7965 7964 7962 ] final  -60.96 input  175.53 | X-H torsion
[ 8008 7997 7996 7995 ] final  110.57 input   59.86 | X-H torsion
[ 10167 10162 10161 10158 ] final -100.08 input  -65.29 | X-H torsion
[ 10718 10713 10712 10709 ] final -167.34 input   66.30 | X-H torsion
[ 10763 10752 10751 10750 ] final   41.87 input  -60.55 | X-H torsion
[ 11005 11000 10999 10996 ] final  111.03 input  -57.11 | X-H torsion

> <Gold.Protein.ActiveResidues>
 VAL166  LYS551  ARG553  GLY616  TRP617  ASP618  TYR619  PRO620  LYS621  CYS622 
 ASP623  PHE694  ASN695  SER759  ASP760  ASP761  ALA762  ILE779  LEU786  VAL792 
 PHE793  MET794  SER795  GLU796  ALA797  LYS798  CYS799  TRP800  GLU811  SER814 

> <Gold.Protein.RotatedAtoms>
  151.6886  133.3311  159.3236 H   0  0  0  0  0  0  0  0  0  0  0  0  # atno 6907 bound_to 6896
  150.7789  134.6718  159.6405 H   0  0  0  0  0  0  0  0  0  0  0  0  # atno 6908 bound_to 6896
  152.3840  134.6549  160.0184 H   0  0  0  0  0  0  0  0  0  0  0  0  # atno 6909 bound_to 6896
  145.8092  140.8609  143.0191 H   0  0  0  0  0  0  0  0  0  0  0  0  # atno 7974 bound_to 7965
  156.2062  140.3036  155.9633 H   0  0  0  0  0  0  0  0  0  0  0  0  # atno 8008 bound_to 7997
  155.2835  140.0439  157.3034 H   0  0  0  0  0  0  0  0  0  0  0  0  # atno 8009 bound_to 7997
  154.5637  140.2328  155.8305 H   0  0  0  0  0  0  0  0  0  0  0  0  # atno 8010 bound_to 7997
  140.2557  143.3442  152.0673 H   0  0  0  0  0  0  0  0  0  0  0  0  # atno 10167 bound_to 10162
  156.6810  130.9122  151.3057 H   0  0  0  0  0  0  0  0  0  0  0  0  # atno 10718 bound_to 10713
  152.9897  135.6149  154.2858 H   0  0  0  0  0  0  0  0  0  0  0  0  # atno 10763 bound_to 10752
  154.2585  135.2783  155.2789 H   0  0  0  0  0  0  0  0  0  0  0  0  # atno 10764 bound_to 10752
  154.5226  135.5810  153.6750 H   0  0  0  0  0  0  0  0  0  0  0  0  # atno 10765 bound_to 10752
  139.8894  134.9498  156.6369 H   0  0  0  0  0  0  0  0  0  0  0  0  # atno 11005 bound_to 11000
  144.6759  140.0371  143.7481 LP  0  0  0  0  0  0  0  0  0  0  0  0  # atno 17320 bound_to 7965
  145.9796  139.2931  143.1050 LP  0  0  0  0  0  0  0  0  0  0  0  0  # atno 17321 bound_to 7965
  139.5032  144.6751  151.6149 LP  0  0  0  0  0  0  0  0  0  0  0  0  # atno 17342 bound_to 10162
  140.6005  143.9618  150.6383 LP  0  0  0  0  0  0  0  0  0  0  0  0  # atno 17343 bound_to 10162
  157.7043  130.9368  150.0883 LP  0  0  0  0  0  0  0  0  0  0  0  0  # atno 17370 bound_to 10713
  156.1867  130.3652  149.8963 LP  0  0  0  0  0  0  0  0  0  0  0  0  # atno 17371 bound_to 10713
  140.7623  133.8807  155.8428 LP  0  0  0  0  0  0  0  0  0  0  0  0  # atno 17394 bound_to 11000
  140.9911  134.1277  157.4407 LP  0  0  0  0  0  0  0  0  0  0  0  0  # atno 17395 bound_to 11000

$$$$
