AV-unprocessed.smi:1489|AV-procd|sdf|6027|dock7
  -GOLD-   22720 6133D 1   1.00000     0.00000
 Structure written by MMmdl.
 47 49  0  0  0  0  0  0  0  0  2 V2000
  149.9671  136.7418  156.4334 O   0  0  0  0  0  0  0  0  0  0  0  0
  149.2009  137.2518  155.6162 C   0  0  0  0  0  0  0  0  0  0  0  0
  149.0686  138.5715  155.3964 N   0  0  0  0  0  0  0  0  0  0  0  0
  149.7129  139.6457  156.0674 C   0  0  0  0  0  0  0  0  0  0  0  0
  150.7292  139.4739  157.0402 C   0  0  0  0  0  0  0  0  0  0  0  0
  151.2945  140.6063  157.6612 C   0  0  0  0  0  0  0  0  0  0  0  0
  150.8337  141.8966  157.3104 C   0  0  0  0  0  0  0  0  0  0  0  0
  151.3368  143.0823  157.8650 N   0  0  0  0  0  0  0  0  0  0  0  0
  152.4321  142.8915  158.8017 C   0  0  0  0  0  0  0  0  0  0  0  0
  152.5278  144.1934  159.6029 C   0  0  0  0  0  0  0  0  0  0  0  0
  151.1708  144.8797  159.4084 C   0  0  0  0  0  0  0  0  0  0  0  0
  150.3568  143.9038  158.5559 C   0  0  0  0  0  0  0  0  0  0  0  0
  149.8532  142.0149  156.3887 N   0  3  0  0  0  0  0  0  0  0  0  0
  149.2837  140.9567  155.7717 C   0  0  0  0  0  0  0  0  0  0  0  0
  148.3973  136.5413  154.8113 N   0  0  0  0  0  0  0  0  0  0  0  0
  148.3032  135.0841  154.7845 C   0  0  2  0  0  0  0  0  0  0  0  0
  149.6903  134.4856  154.4809 C   0  0  0  0  0  0  0  0  0  0  0  0
  149.6351  132.9524  154.3814 C   0  0  0  0  0  0  0  0  0  0  0  0
  148.6046  132.5029  153.3317 C   0  0  1  0  0  0  0  0  0  0  0  0
  148.5329  131.0930  153.3135 O   0  0  0  0  0  0  0  0  0  0  0  0
  147.2147  133.0864  153.6382 C   0  0  0  0  0  0  0  0  0  0  0  0
  147.2666  134.6196  153.7387 C   0  0  0  0  0  0  0  0  0  0  0  0
  148.4716  138.8357  154.6262 H   0  0  0  0  0  0  0  0  0  0  0  0
  151.0779  138.4956  157.3326 H   0  0  0  0  0  0  0  0  0  0  0  0
  152.0724  140.4780  158.3995 H   0  0  0  0  0  0  0  0  0  0  0  0
  152.2258  142.0547  159.4705 H   0  0  0  0  0  0  0  0  0  0  0  0
  153.3626  142.6779  158.2748 H   0  0  0  0  0  0  0  0  0  0  0  0
  152.7452  143.9984  160.6536 H   0  0  0  0  0  0  0  0  0  0  0  0
  153.3252  144.8264  159.2118 H   0  0  0  0  0  0  0  0  0  0  0  0
  150.6755  145.1010  160.3544 H   0  0  0  0  0  0  0  0  0  0  0  0
  151.3068  145.8224  158.8768 H   0  0  0  0  0  0  0  0  0  0  0  0
  149.7164  144.4301  157.8475 H   0  0  0  0  0  0  0  0  0  0  0  0
  149.7196  143.2912  159.1947 H   0  0  0  0  0  0  0  0  0  0  0  0
  148.5090  141.1933  155.0566 H   0  0  0  0  0  0  0  0  0  0  0  0
  147.8065  137.0435  154.1650 H   0  0  0  0  0  0  0  0  0  0  0  0
  147.9914  134.7334  155.7704 H   0  0  0  0  0  0  0  0  0  0  0  0
  150.0713  134.8925  153.5429 H   0  0  0  0  0  0  0  0  0  0  0  0
  150.4014  134.7765  155.2552 H   0  0  0  0  0  0  0  0  0  0  0  0
  150.6223  132.5638  154.1287 H   0  0  0  0  0  0  0  0  0  0  0  0
  149.3782  132.5361  155.3567 H   0  0  0  0  0  0  0  0  0  0  0  0
  148.9263  132.8342  152.3434 H   0  0  0  0  0  0  0  0  0  0  0  0
  148.6894  130.7950  152.4304 H   0  0  0  0  0  0  0  0  0  0  0  0
  146.5049  132.7917  152.8644 H   0  0  0  0  0  0  0  0  0  0  0  0
  146.8382  132.6759  154.5764 H   0  0  0  0  0  0  0  0  0  0  0  0
  146.2760  134.9989  153.9921 H   0  0  0  0  0  0  0  0  0  0  0  0
  147.5157  135.0367  152.7617 H   0  0  0  0  0  0  0  0  0  0  0  0
  149.5261  142.9504  156.1464 H   0  0  0  0  0  0  0  0  0  0  0  0
  1  2  2  0  0  0  0
  2  3  1  0  0  0  0
  2 15  1  0  0  0  0
  3  4  1  0  0  0  0
  3 23  1  0  0  0  0
  4 14  1  0  0  0  0
  4  5  2  0  0  0  0
  5  6  1  0  0  0  0
  5 24  1  0  0  0  0
  6  7  2  0  0  0  0
  6 25  1  0  0  0  0
  7  8  1  0  0  0  0
  7 13  1  0  0  0  0
  8 12  1  0  0  0  0
  8  9  1  0  0  0  0
  9 10  1  0  0  0  0
  9 26  1  0  0  0  0
  9 27  1  0  0  0  0
 10 11  1  0  0  0  0
 10 28  1  0  0  0  0
 10 29  1  0  0  0  0
 11 12  1  0  0  0  0
 11 30  1  0  0  0  0
 11 31  1  0  0  0  0
 12 32  1  0  0  0  0
 12 33  1  0  0  0  0
 13 14  2  0  0  0  0
 13 47  1  0  0  0  0
 14 34  1  0  0  0  0
 15 16  1  0  0  0  0
 15 35  1  0  0  0  0
 16 22  1  0  0  0  0
 16 17  1  0  0  0  0
 16 36  1  0  0  0  0
 17 18  1  0  0  0  0
 17 37  1  0  0  0  0
 17 38  1  0  0  0  0
 18 19  1  0  0  0  0
 18 39  1  0  0  0  0
 18 40  1  0  0  0  0
 19 20  1  0  0  0  0
 19 21  1  0  0  0  0
 19 41  1  0  0  0  0
 20 42  1  0  0  0  0
 21 22  1  0  0  0  0
 21 43  1  0  0  0  0
 21 44  1  0  0  0  0
 22 45  1  0  0  0  0
 22 46  1  0  0  0  0
M  CHG  1  13   1
M  END
> <s_m_source_file>
AV-unprocessed.smi

> <i_m_source_file_index>
1489

> <i_lp_mmshare_version>
43012

> <i_f3d_flags>
0

> <s_epik_input>
W0NIMl0xW0NIMl1bQ0BIXShbT0hdKVtDSDJdW0NIMl1bQ0BIXTFbTkhdQyg9TylbTkhdYzJbY0hdW2NIXWMobltjSF0yKU4zW0NIMl1bQ0gyXVtDSDJdW0NIMl0z

> <s_epik_cmdline>
J2VwaWtfcHl0aG9uJywgJy1waCcsICc3LjAnLCAnLXRuJywgJzgnLCAnLW1hJywgJzIwMCcsICctbWV0YWxfYmluZGluZycsICctaW1hZScsICc8aW5maWxlLm1hZT4nLCAnLW9tYWUnLCAnPG91dGZpbGUubWFlPic=

> <r_lp_tautomer_probability>
0.999994

> <r_epik_Ionization_Penalty>
1.08454

> <r_epik_Ionization_Penalty_Charging>
1.08452

> <r_epik_Ionization_Penalty_Neutral>
2.18252e-05

> <r_epik_State_Penalty>
1.14025

> <r_epik_Charging_Adjusted_Penalty>
2.22477

> <i_epik_Tot_Q>
1

> <i_epik_Tot_abs_Q>
1

> <r_epik_Metal_State_Penalty>
1.22975

> <b_epik_Metal_Only>
0

> <s_lp_Force_Field>
OPLS_2005

> <r_lp_Energy>
44.1541

> <b_lp_Chiralities_Consistent>
1

> <s_lp_Variant>
AV-unprocessed.smi:1489-3

> <Gold.Version>
5.8.1

> <Gold.Id.Protein>
6NUR|6NUR_protein|mol2

> <Gold.PLP.Fitness>
41.8771

> <Gold.PLP.PLP>
-32.9046

> <Gold.PLP.part.hbond>
-3.0000

> <Gold.PLP.part.metal>
0.0000

> <Gold.PLP.part.buried>
-1.5904

> <Gold.PLP.part.nonpolar>
-27.9170

> <Gold.PLP.part.repulsive>
0.1778

> <Gold.PLP.ligand.clash>
0.0000

> <Gold.PLP.ligand.torsion>
0.0208

> <Gold.PLP.Chemscore.Hbond>
3.0000

> <Gold.PLP.Chemscore.CHOScore>
0.0000

> <Gold.PLP.Chemscore.Metal>
0.0000

> <Gold.Chemscore.Hbonds>
donor molecule, donor type, donor heavy atom, donor atom, acceptor molecule, acceptor atom, score
      L1  H    13    47       P1  8028  2.00
      L1  H    20    42       P1 10747  0.70

> <Gold.PLP.Chemscore.Internal.Correction>
0.0141

> <Gold.Rescore>
     Score         DG    S(hbond)    S(metal)    S(lipo)     H(rot)  DE(clash)    DE(int)     intcor
     14.22     -18.88       1.93        0.00      96.56       1.69       2.34       2.31       ----

> <Gold.Chemscore.Fitness>
14.2233

> <Gold.Chemscore.DG>
-18.8760

> <Gold.Chemscore.ZeroCoef>
-5.4800

> <Gold.Chemscore.Hbond>
1.9260

> <Gold.Chemscore.Metal>
0.0000

> <Gold.Chemscore.Lipo>
96.5557

> <Gold.Chemscore.Internal_Hbond>
0.0000

> <Gold.Chemscore.DEClash>
2.3380

> <Gold.Chemscore.DEInternal>
2.3146

> <Gold.Chemscore.Rot>
1.6929

> <Gold.Chemscore.Internal.Correction>
   9.000000E+99

> <Gold.Chemscore.Hbonds>
donor molecule, donor type, donor heavy atom, donor atom, acceptor molecule, acceptor atom, score
      L1  H    13    47       P1  8028  0.99
      L1  H    20    42       P1 10747  0.53

> <Gold.Chemscore.Hbond.Weighted>
-6.4327

> <Gold.Chemscore.Metal.Weighted>
-0.0000

> <Gold.Chemscore.Lipo.Weighted>
-11.2970

> <Gold.Chemscore.Internal_Hbond.Weighted>
0.0000

> <Gold.Chemscore.DEClash.Weighted>
2.3380

> <Gold.Chemscore.DEInternal.Weighted>
2.3146

> <Gold.Chemscore.Rot.Weighted>
4.3338

> <Gold.Chemscore.Internal.Correction.Weighted>
   9.000000E+99

> <Gold.Protein.RotatedTorsions>
[ 6907 6896 6895 6894 ] final  -17.41 input  -60.11 | X-H torsion
[ 7974 7965 7964 7962 ] final -100.40 input  175.53 | X-H torsion
[ 8008 7997 7996 7995 ] final -163.65 input   59.86 | X-H torsion
[ 10167 10162 10161 10158 ] final  144.35 input  -65.29 | X-H torsion
[ 10718 10713 10712 10709 ] final  -68.73 input   66.30 | X-H torsion
[ 10763 10752 10751 10750 ] final  105.26 input  -60.55 | X-H torsion
[ 11005 11000 10999 10996 ] final   70.42 input  -57.11 | X-H torsion

> <Gold.Protein.ActiveResidues>
 VAL166  LYS551  ARG553  GLY616  TRP617  ASP618  TYR619  PRO620  LYS621  CYS622 
 ASP623  PHE694  ASN695  SER759  ASP760  ASP761  ALA762  ILE779  LEU786  VAL792 
 PHE793  MET794  SER795  GLU796  ALA797  LYS798  CYS799  TRP800  GLU811  SER814 

> <Gold.Protein.RotatedAtoms>
  151.2938  135.0749  159.9213 H   0  0  0  0  0  0  0  0  0  0  0  0  # atno 6907 bound_to 6896
  152.5311  133.9904  159.7858 H   0  0  0  0  0  0  0  0  0  0  0  0  # atno 6908 bound_to 6896
  151.0179  133.5853  159.2705 H   0  0  0  0  0  0  0  0  0  0  0  0  # atno 6909 bound_to 6896
  145.2950  140.9363  143.2856 H   0  0  0  0  0  0  0  0  0  0  0  0  # atno 7974 bound_to 7965
  155.8244  140.0924  157.1830 H   0  0  0  0  0  0  0  0  0  0  0  0  # atno 8008 bound_to 7997
  154.3979  140.1431  156.3598 H   0  0  0  0  0  0  0  0  0  0  0  0  # atno 8009 bound_to 7997
  155.8233  140.3445  155.5529 H   0  0  0  0  0  0  0  0  0  0  0  0  # atno 8010 bound_to 7997
  139.4949  144.5978  151.6546 H   0  0  0  0  0  0  0  0  0  0  0  0  # atno 10167 bound_to 10162
  156.0490  130.4300  150.2043 H   0  0  0  0  0  0  0  0  0  0  0  0  # atno 10718 bound_to 10713
  153.3770  135.3915  155.1830 H   0  0  0  0  0  0  0  0  0  0  0  0  # atno 10763 bound_to 10752
  154.8702  135.3716  154.4905 H   0  0  0  0  0  0  0  0  0  0  0  0  # atno 10764 bound_to 10752
  153.5378  135.7085  153.5712 H   0  0  0  0  0  0  0  0  0  0  0  0  # atno 10765 bound_to 10752
  139.9599  134.7080  156.0670 H   0  0  0  0  0  0  0  0  0  0  0  0  # atno 11005 bound_to 11000
  144.9141  139.4493  143.6573 LP  0  0  0  0  0  0  0  0  0  0  0  0  # atno 17320 bound_to 7965
  146.3172  139.7965  142.8974 LP  0  0  0  0  0  0  0  0  0  0  0  0  # atno 17321 bound_to 7965
  140.5620  144.0253  150.6174 LP  0  0  0  0  0  0  0  0  0  0  0  0  # atno 17342 bound_to 10162
  140.3342  143.3059  152.0656 LP  0  0  0  0  0  0  0  0  0  0  0  0  # atno 17343 bound_to 10162
  157.0129  130.9956  151.3361 LP  0  0  0  0  0  0  0  0  0  0  0  0  # atno 17370 bound_to 10713
  157.5397  130.8112  149.8015 LP  0  0  0  0  0  0  0  0  0  0  0  0  # atno 17371 bound_to 10713
  141.1274  133.6595  156.3374 LP  0  0  0  0  0  0  0  0  0  0  0  0  # atno 17394 bound_to 11000
  140.5525  134.6014  157.5411 LP  0  0  0  0  0  0  0  0  0  0  0  0  # atno 17395 bound_to 11000

$$$$
