AV-unprocessed.smi:671|AV-procd|sdf|3285|dock9
  -GOLD-   22720 0243D 1   1.00000     0.00000
 Structure written by MMmdl.
 50 51  0  0  0  0  0  0  0  0  2 V2000
  146.7989  129.5265  152.1920 C   0  0  0  0  0  0  0  0  0  0  0  0
  146.2368  130.8970  152.0096 C   0  0  0  0  0  0  0  0  0  0  0  0
  144.9782  131.1571  151.5661 N   0  3  0  0  0  0  0  0  0  0  0  0
  144.7724  132.4801  151.5047 N   0  0  0  0  0  0  0  0  0  0  0  0
  143.4716  132.9678  151.0462 C   0  0  0  0  0  0  0  0  0  0  0  0
  145.8916  133.1511  151.9014 C   0  0  0  0  0  0  0  0  0  0  0  0
  146.0071  134.6405  151.9526 C   0  0  0  0  0  0  0  0  0  0  0  0
  146.8196  132.1513  152.2255 C   0  0  0  0  0  0  0  0  0  0  0  0
  148.2222  132.3667  152.7223 C   0  0  0  0  0  0  0  0  0  0  0  0
  148.2777  132.9878  154.1371 C   0  0  2  0  0  0  0  0  0  0  0  0
  146.9240  132.9280  154.8617 C   0  0  0  0  0  0  0  0  0  0  0  0
  148.7147  134.3847  154.0658 N   0  0  0  0  0  0  0  0  0  0  0  0
  148.9837  135.2253  155.0825 C   0  0  0  0  0  0  0  0  0  0  0  0
  148.8765  134.8788  156.2569 O   0  0  0  0  0  0  0  0  0  0  0  0
  149.3666  136.4554  154.7004 N   0  0  0  0  0  0  0  0  0  0  0  0
  149.6696  137.5830  155.5808 C   0  0  2  0  0  0  0  0  0  0  0  0
  148.4021  138.4357  155.7843 C   0  0  0  0  0  0  0  0  0  0  0  0
  148.6247  139.7565  155.0330 C   0  0  0  0  0  0  0  0  0  0  0  0
  149.8727  139.5469  154.1756 C   0  0  0  0  0  0  0  0  0  0  0  0
  150.7101  138.5423  154.9678 C   0  0  2  0  0  0  0  0  0  0  0  0
  151.8460  137.8979  154.1549 C   0  0  0  0  0  0  0  0  0  0  0  0
  147.3076  129.4482  153.1525 H   0  0  0  0  0  0  0  0  0  0  0  0
  147.5157  129.3080  151.4005 H   0  0  0  0  0  0  0  0  0  0  0  0
  146.0070  128.7779  152.1601 H   0  0  0  0  0  0  0  0  0  0  0  0
  143.3291  133.9980  151.3728 H   0  0  0  0  0  0  0  0  0  0  0  0
  142.6786  132.3469  151.4652 H   0  0  0  0  0  0  0  0  0  0  0  0
  143.4378  132.9230  149.9573 H   0  0  0  0  0  0  0  0  0  0  0  0
  147.0349  134.9510  152.1349 H   0  0  0  0  0  0  0  0  0  0  0  0
  145.3819  135.0363  152.7530 H   0  0  0  0  0  0  0  0  0  0  0  0
  145.6817  135.0770  151.0079 H   0  0  0  0  0  0  0  0  0  0  0  0
  148.7412  131.4078  152.7205 H   0  0  0  0  0  0  0  0  0  0  0  0
  148.7876  132.9879  152.0281 H   0  0  0  0  0  0  0  0  0  0  0  0
  148.9925  132.4323  154.7463 H   0  0  0  0  0  0  0  0  0  0  0  0
  146.5981  131.8991  155.0140 H   0  0  0  0  0  0  0  0  0  0  0  0
  146.1471  133.4441  154.2968 H   0  0  0  0  0  0  0  0  0  0  0  0
  146.9855  133.3950  155.8453 H   0  0  0  0  0  0  0  0  0  0  0  0
  148.8238  134.7614  153.1350 H   0  0  0  0  0  0  0  0  0  0  0  0
  149.4360  136.6330  153.7096 H   0  0  0  0  0  0  0  0  0  0  0  0
  150.0257  137.2167  156.5454 H   0  0  0  0  0  0  0  0  0  0  0  0
  147.5085  137.9267  155.4200 H   0  0  0  0  0  0  0  0  0  0  0  0
  148.2377  138.6339  156.8440 H   0  0  0  0  0  0  0  0  0  0  0  0
  147.7602  140.0440  154.4338 H   0  0  0  0  0  0  0  0  0  0  0  0
  148.8057  140.5572  155.7512 H   0  0  0  0  0  0  0  0  0  0  0  0
  149.5905  139.1206  153.2121 H   0  0  0  0  0  0  0  0  0  0  0  0
  150.4058  140.4784  153.9827 H   0  0  0  0  0  0  0  0  0  0  0  0
  151.1685  139.0864  155.7954 H   0  0  0  0  0  0  0  0  0  0  0  0
  151.4737  137.3912  153.2642 H   0  0  0  0  0  0  0  0  0  0  0  0
  152.3887  137.1671  154.7552 H   0  0  0  0  0  0  0  0  0  0  0  0
  152.5618  138.6518  153.8268 H   0  0  0  0  0  0  0  0  0  0  0  0
  144.2527  130.5019  151.3033 H   0  0  0  0  0  0  0  0  0  0  0  0
  1  2  1  0  0  0  0
  1 22  1  0  0  0  0
  1 23  1  0  0  0  0
  1 24  1  0  0  0  0
  2  8  1  0  0  0  0
  2  3  2  0  0  0  0
  3  4  1  0  0  0  0
  3 50  1  0  0  0  0
  4  5  1  0  0  0  0
  4  6  1  0  0  0  0
  5 25  1  0  0  0  0
  5 26  1  0  0  0  0
  5 27  1  0  0  0  0
  6  7  1  0  0  0  0
  6  8  2  0  0  0  0
  7 28  1  0  0  0  0
  7 29  1  0  0  0  0
  7 30  1  0  0  0  0
  8  9  1  0  0  0  0
  9 10  1  0  0  0  0
  9 31  1  0  0  0  0
  9 32  1  0  0  0  0
 10 11  1  0  0  0  0
 10 12  1  0  0  0  0
 10 33  1  0  0  0  0
 11 34  1  0  0  0  0
 11 35  1  0  0  0  0
 11 36  1  0  0  0  0
 12 13  1  0  0  0  0
 12 37  1  0  0  0  0
 13 14  2  0  0  0  0
 13 15  1  0  0  0  0
 15 16  1  0  0  0  0
 15 38  1  0  0  0  0
 16 20  1  0  0  0  0
 16 17  1  0  0  0  0
 16 39  1  0  0  0  0
 17 18  1  0  0  0  0
 17 40  1  0  0  0  0
 17 41  1  0  0  0  0
 18 19  1  0  0  0  0
 18 42  1  0  0  0  0
 18 43  1  0  0  0  0
 19 20  1  0  0  0  0
 19 44  1  0  0  0  0
 19 45  1  0  0  0  0
 20 21  1  0  0  0  0
 20 46  1  0  0  0  0
 21 47  1  0  0  0  0
 21 48  1  0  0  0  0
 21 49  1  0  0  0  0
M  CHG  1   3   1
M  END
> <s_m_source_file>
AV-unprocessed.smi

> <i_m_source_file_index>
671

> <i_lp_mmshare_version>
43012

> <i_f3d_flags>
0

> <s_epik_input>
W0NIM11jMW5uKFtDSDNdKWMoW0NIM10pYzFbQ0gyXVtDQEhdKFtDSDNdKVtOSF1DKD1PKVtOSF1bQ0BASF0yW0NIMl1bQ0gyXVtDSDJdW0NASF0yW0NIM10=

> <s_epik_cmdline>
J2VwaWtfcHl0aG9uJywgJy1waCcsICc3LjAnLCAnLXRuJywgJzgnLCAnLW1hJywgJzIwMCcsICctbWV0YWxfYmluZGluZycsICctaW1hZScsICc8aW5maWxlLm1hZT4nLCAnLW9tYWUnLCAnPG91dGZpbGUubWFlPic=

> <r_lp_tautomer_probability>
1

> <r_epik_Ionization_Penalty>
2.28705

> <r_epik_Ionization_Penalty_Charging>
2.28698

> <r_epik_Ionization_Penalty_Neutral>
6.23157e-05

> <r_epik_State_Penalty>
2.43671

> <r_epik_Charging_Adjusted_Penalty>
4.72369

> <i_epik_Tot_Q>
1

> <i_epik_Tot_abs_Q>
1

> <r_epik_Metal_State_Penalty>
2.44911

> <b_epik_Metal_Only>
0

> <s_lp_Force_Field>
OPLS_2005

> <r_lp_Energy>
35.629

> <b_lp_Chiralities_Consistent>
1

> <s_lp_Variant>
AV-unprocessed.smi:671-13

> <Gold.Version>
5.8.1

> <Gold.Id.Protein>
6NUR|6NUR_protein|mol2

> <Gold.PLP.Fitness>
34.8303

> <Gold.PLP.PLP>
-31.0079

> <Gold.PLP.part.hbond>
-2.0000

> <Gold.PLP.part.metal>
0.0000

> <Gold.PLP.part.buried>
-0.6636

> <Gold.PLP.part.nonpolar>
-27.6720

> <Gold.PLP.part.repulsive>
0.0782

> <Gold.PLP.ligand.clash>
0.0000

> <Gold.PLP.ligand.torsion>
1.1024

> <Gold.PLP.Chemscore.Hbond>
2.0000

> <Gold.PLP.Chemscore.CHOScore>
0.0000

> <Gold.PLP.Chemscore.Metal>
0.0000

> <Gold.Chemscore.Hbonds>
donor molecule, donor type, donor heavy atom, donor atom, acceptor molecule, acceptor atom, score
      L1  H    12    37       P1  7948  0.90
      L1  H    15    38       P1  7948  1.00

> <Gold.PLP.Chemscore.Internal.Correction>
0.0272

> <Gold.Rescore>
     Score         DG    S(hbond)    S(metal)    S(lipo)     H(rot)  DE(clash)    DE(int)     intcor
     15.01     -16.53       1.68        0.00      79.49       1.51       0.43       1.09       ----

> <Gold.Chemscore.Fitness>
15.0079

> <Gold.Chemscore.DG>
-16.5341

> <Gold.Chemscore.ZeroCoef>
-5.4800

> <Gold.Chemscore.Hbond>
1.6791

> <Gold.Chemscore.Metal>
0.0000

> <Gold.Chemscore.Lipo>
79.4930

> <Gold.Chemscore.Internal_Hbond>
0.0000

> <Gold.Chemscore.DEClash>
0.4336

> <Gold.Chemscore.DEInternal>
1.0926

> <Gold.Chemscore.Rot>
1.5057

> <Gold.Chemscore.Internal.Correction>
   9.000000E+99

> <Gold.Chemscore.Hbonds>
donor molecule, donor type, donor heavy atom, donor atom, acceptor molecule, acceptor atom, score
      L1  H    12    37       P1  7948  0.17
      L1  H    15    38       P1  7948  0.84

> <Gold.Chemscore.Hbond.Weighted>
-5.6081

> <Gold.Chemscore.Metal.Weighted>
-0.0000

> <Gold.Chemscore.Lipo.Weighted>
-9.3007

> <Gold.Chemscore.Internal_Hbond.Weighted>
0.0000

> <Gold.Chemscore.DEClash.Weighted>
0.4336

> <Gold.Chemscore.DEInternal.Weighted>
1.0926

> <Gold.Chemscore.Rot.Weighted>
3.8547

> <Gold.Chemscore.Internal.Correction.Weighted>
   9.000000E+99

> <Gold.Protein.RotatedTorsions>
[ 6907 6896 6895 6894 ] final  -33.80 input  -60.11 | X-H torsion
[ 7974 7965 7964 7962 ] final  -41.39 input  175.53 | X-H torsion
[ 8008 7997 7996 7995 ] final -147.86 input   59.86 | X-H torsion
[ 10167 10162 10161 10158 ] final   42.72 input  -65.29 | X-H torsion
[ 10718 10713 10712 10709 ] final   31.39 input   66.30 | X-H torsion
[ 10763 10752 10751 10750 ] final  -47.22 input  -60.55 | X-H torsion
[ 11005 11000 10999 10996 ] final  -70.28 input  -57.11 | X-H torsion

> <Gold.Protein.ActiveResidues>
 VAL166  LYS551  ARG553  GLY616  TRP617  ASP618  TYR619  PRO620  LYS621  CYS622 
 ASP623  PHE694  ASN695  SER759  ASP760  ASP761  ALA762  ILE779  LEU786  VAL792 
 PHE793  MET794  SER795  GLU796  ALA797  LYS798  CYS799  TRP800  GLU811  SER814 

> <Gold.Protein.RotatedAtoms>
  151.0608  134.9735  159.8259 H   0  0  0  0  0  0  0  0  0  0  0  0  # atno 6907 bound_to 6896
  152.5395  134.2420  159.8875 H   0  0  0  0  0  0  0  0  0  0  0  0  # atno 6908 bound_to 6896
  151.2439  133.4342  159.2642 H   0  0  0  0  0  0  0  0  0  0  0  0  # atno 6909 bound_to 6896
  146.0215  140.6844  142.9176 H   0  0  0  0  0  0  0  0  0  0  0  0  # atno 7974 bound_to 7965
  155.5823  140.0644  157.2780 H   0  0  0  0  0  0  0  0  0  0  0  0  # atno 8008 bound_to 7997
  154.4329  140.1850  156.1036 H   0  0  0  0  0  0  0  0  0  0  0  0  # atno 8009 bound_to 7997
  156.0295  140.3308  155.7128 H   0  0  0  0  0  0  0  0  0  0  0  0  # atno 8010 bound_to 7997
  140.3516  144.2343  150.6145 H   0  0  0  0  0  0  0  0  0  0  0  0  # atno 10167 bound_to 10162
  157.2719  130.7212  149.6509 H   0  0  0  0  0  0  0  0  0  0  0  0  # atno 10718 bound_to 10713
  154.0578  135.6622  153.4808 H   0  0  0  0  0  0  0  0  0  0  0  0  # atno 10763 bound_to 10752
  153.0438  135.5127  154.7688 H   0  0  0  0  0  0  0  0  0  0  0  0  # atno 10764 bound_to 10752
  154.6715  135.3030  154.9702 H   0  0  0  0  0  0  0  0  0  0  0  0  # atno 10765 bound_to 10752
  141.1571  133.6786  156.6729 H   0  0  0  0  0  0  0  0  0  0  0  0  # atno 11005 bound_to 11000
  144.6992  140.3574  143.7170 LP  0  0  0  0  0  0  0  0  0  0  0  0  # atno 17320 bound_to 7965
  145.7185  139.1703  143.2498 LP  0  0  0  0  0  0  0  0  0  0  0  0  # atno 17321 bound_to 7965
  140.5213  143.2265  151.8384 LP  0  0  0  0  0  0  0  0  0  0  0  0  # atno 17342 bound_to 10162
  139.4825  144.4833  151.9279 LP  0  0  0  0  0  0  0  0  0  0  0  0  # atno 17343 bound_to 10162
  155.9663  130.4365  150.5136 LP  0  0  0  0  0  0  0  0  0  0  0  0  # atno 17370 bound_to 10713
  157.3062  131.0655  151.2033 LP  0  0  0  0  0  0  0  0  0  0  0  0  # atno 17371 bound_to 10713
  140.3161  134.8046  157.4215 LP  0  0  0  0  0  0  0  0  0  0  0  0  # atno 17394 bound_to 11000
  140.1137  134.5312  155.8244 LP  0  0  0  0  0  0  0  0  0  0  0  0  # atno 17395 bound_to 11000

$$$$
