AV-unprocessed.smi:176|AV-procd|sdf|1433|dock7
  -GOLD-   2262019213D 1   1.00000     0.00000
 Structure written by MMmdl.
 57 61  0  0  0  0  0  0  0  0  1 V2000
  154.7221  142.3317  171.5211 O   0  0  0  0  0  0  0  0  0  0  0  0
  154.7751  141.1870  170.6949 C   0  0  0  0  0  0  0  0  0  0  0  0
  155.8424  141.3224  169.5948 C   0  0  0  0  0  0  0  0  0  0  0  0
  157.2370  141.0624  170.2036 C   0  0  0  0  0  0  0  0  0  0  0  0
  157.5287  141.9421  171.2700 O   0  0  0  0  0  0  0  0  0  0  0  0
  155.5552  140.4994  168.3182 C   0  0  0  0  0  0  0  0  0  0  0  0
  156.0549  141.6666  167.4637 C   0  0  0  0  0  0  0  0  0  0  0  0
  155.5028  141.9147  166.1646 N   0  0  0  0  0  0  0  0  0  0  0  0
  154.9775  143.0988  165.6967 C   0  0  0  0  0  0  0  0  0  0  0  0
  154.5743  143.0763  164.4557 N   0  0  0  0  0  0  0  0  0  0  0  0
  154.8708  141.7884  164.0252 C   0  0  0  0  0  0  0  0  0  0  0  0
  154.7181  141.0963  162.7908 C   0  0  0  0  0  0  0  0  0  0  0  0
  154.1491  141.6657  161.6982 N   0  0  0  0  0  0  0  0  0  0  0  0
  153.9777  140.8316  160.5074 C   0  0  0  0  0  0  0  0  0  0  0  0
  153.6702  141.6911  159.2661 C   0  0  0  0  0  0  0  0  0  0  0  0
  152.4772  142.6416  159.5026 C   0  0  2  0  0  0  0  0  0  0  0  0
  151.3168  141.8399  159.6549 O   0  0  0  0  0  0  0  0  0  0  0  0
  152.2424  143.5772  158.2957 C   0  0  0  0  0  0  0  0  0  0  0  0
  151.1227  144.6027  158.5595 C   0  0  0  0  0  0  0  0  0  0  0  0
  151.3763  145.4016  159.8481 C   0  0  0  0  0  0  0  0  0  0  0  0
  151.5930  144.4741  161.0554 C   0  0  0  0  0  0  0  0  0  0  0  0
  152.7344  143.4746  160.7858 C   0  0  1  0  0  0  0  0  0  0  0  0
  153.0373  142.5688  161.9946 C   0  0  0  0  0  0  0  0  0  0  0  0
  155.1701  139.8147  162.7324 N   0  0  0  0  0  0  0  0  0  0  0  0
  155.7233  139.2445  163.8068 C   0  0  0  0  0  0  0  0  0  0  0  0
  155.9195  139.7643  165.0200 N   0  0  0  0  0  0  0  0  0  0  0  0
  155.4730  141.0513  165.0838 C   0  0  0  0  0  0  0  0  0  0  0  0
  155.7119  142.5507  168.6646 C   0  0  0  0  0  0  0  0  0  0  0  0
  154.6186  143.0944  170.9731 H   0  0  0  0  0  0  0  0  0  0  0  0
  154.9531  140.3089  171.3163 H   0  0  0  0  0  0  0  0  0  0  0  0
  153.7843  141.0564  170.2589 H   0  0  0  0  0  0  0  0  0  0  0  0
  157.3232  140.0372  170.5647 H   0  0  0  0  0  0  0  0  0  0  0  0
  158.0215  141.1840  169.4566 H   0  0  0  0  0  0  0  0  0  0  0  0
  156.8036  141.9315  171.8757 H   0  0  0  0  0  0  0  0  0  0  0  0
  156.1401  139.5845  168.2176 H   0  0  0  0  0  0  0  0  0  0  0  0
  154.4934  140.2991  168.1626 H   0  0  0  0  0  0  0  0  0  0  0  0
  157.1359  141.6099  167.3246 H   0  0  0  0  0  0  0  0  0  0  0  0
  154.8966  143.9861  166.3076 H   0  0  0  0  0  0  0  0  0  0  0  0
  154.8826  140.2499  160.3267 H   0  0  0  0  0  0  0  0  0  0  0  0
  153.1690  140.1198  160.6797 H   0  0  0  0  0  0  0  0  0  0  0  0
  154.5564  142.2773  159.0182 H   0  0  0  0  0  0  0  0  0  0  0  0
  153.4819  141.0468  158.4064 H   0  0  0  0  0  0  0  0  0  0  0  0
  150.9110  141.7385  158.8076 H   0  0  0  0  0  0  0  0  0  0  0  0
  153.1642  144.1154  158.0708 H   0  0  0  0  0  0  0  0  0  0  0  0
  152.0077  142.9947  157.4036 H   0  0  0  0  0  0  0  0  0  0  0  0
  151.0409  145.2847  157.7128 H   0  0  0  0  0  0  0  0  0  0  0  0
  150.1625  144.0908  158.6312 H   0  0  0  0  0  0  0  0  0  0  0  0
  152.2544  146.0349  159.7154 H   0  0  0  0  0  0  0  0  0  0  0  0
  150.5388  146.0729  160.0401 H   0  0  0  0  0  0  0  0  0  0  0  0
  151.8244  145.0730  161.9368 H   0  0  0  0  0  0  0  0  0  0  0  0
  150.6697  143.9398  161.2828 H   0  0  0  0  0  0  0  0  0  0  0  0
  153.6338  144.0689  160.6135 H   0  0  0  0  0  0  0  0  0  0  0  0
  152.1600  141.9746  162.2538 H   0  0  0  0  0  0  0  0  0  0  0  0
  153.2568  143.1896  162.8624 H   0  0  0  0  0  0  0  0  0  0  0  0
  156.0558  138.2255  163.6752 H   0  0  0  0  0  0  0  0  0  0  0  0
  154.6924  142.9393  168.6237 H   0  0  0  0  0  0  0  0  0  0  0  0
  156.4265  143.3526  168.8521 H   0  0  0  0  0  0  0  0  0  0  0  0
  1  2  1  0  0  0  0
  1 29  1  0  0  0  0
  2  3  1  0  0  0  0
  2 30  1  0  0  0  0
  2 31  1  0  0  0  0
  3 28  1  0  0  0  0
  3  4  1  0  0  0  0
  3  6  1  0  0  0  0
  4  5  1  0  0  0  0
  4 32  1  0  0  0  0
  4 33  1  0  0  0  0
  5 34  1  0  0  0  0
  6  7  1  0  0  0  0
  6 35  1  0  0  0  0
  6 36  1  0  0  0  0
  7  8  1  0  0  0  0
  7 28  1  0  0  0  0
  7 37  1  0  0  0  0
  8 27  1  0  0  0  0
  8  9  1  0  0  0  0
  9 10  2  0  0  0  0
  9 38  1  0  0  0  0
 10 11  1  0  0  0  0
 11 27  2  0  0  0  0
 11 12  1  0  0  0  0
 12 13  1  0  0  0  0
 12 24  2  0  0  0  0
 13 23  1  0  0  0  0
 13 14  1  0  0  0  0
 14 15  1  0  0  0  0
 14 39  1  0  0  0  0
 14 40  1  0  0  0  0
 15 16  1  0  0  0  0
 15 41  1  0  0  0  0
 15 42  1  0  0  0  0
 16 22  1  0  0  0  0
 16 17  1  0  0  0  0
 16 18  1  0  0  0  0
 17 43  1  0  0  0  0
 18 19  1  0  0  0  0
 18 44  1  0  0  0  0
 18 45  1  0  0  0  0
 19 20  1  0  0  0  0
 19 46  1  0  0  0  0
 19 47  1  0  0  0  0
 20 21  1  0  0  0  0
 20 48  1  0  0  0  0
 20 49  1  0  0  0  0
 21 22  1  0  0  0  0
 21 50  1  0  0  0  0
 21 51  1  0  0  0  0
 22 23  1  0  0  0  0
 22 52  1  0  0  0  0
 23 53  1  0  0  0  0
 23 54  1  0  0  0  0
 24 25  1  0  0  0  0
 25 26  2  0  0  0  0
 25 55  1  0  0  0  0
 26 27  1  0  0  0  0
 28 56  1  0  0  0  0
 28 57  1  0  0  0  0
M  END
> <s_m_source_file>
AV-unprocessed.smi

> <i_m_source_file_index>
176

> <i_lp_mmshare_version>
43012

> <i_f3d_flags>
0

> <s_epik_input>
W09IXVtDSDJdQzEoW0NIMl1bT0hdKVtDSDJdW0NIXShbQ0gyXTEpbihbY0hdbjIpYyhjMjMpbltjSF1uYzNOKFtDSDJdW0NIMl00KVtDSDJdW0NAQEhdKFtDQF00NVtPSF0pW0NIMl1bQ0gyXVtDSDJdW0NIMl01

> <s_epik_cmdline>
J2VwaWtfcHl0aG9uJywgJy1waCcsICc3LjAnLCAnLXRuJywgJzgnLCAnLW1hJywgJzIwMCcsICctbWV0YWxfYmluZGluZycsICctaW1hZScsICc8aW5maWxlLm1hZT4nLCAnLW9tYWUnLCAnPG91dGZpbGUubWFlPic=

> <r_lp_tautomer_probability>
1

> <r_epik_Ionization_Penalty>
0.00642876

> <r_epik_Ionization_Penalty_Charging>
0

> <r_epik_Ionization_Penalty_Neutral>
0.00642876

> <r_epik_State_Penalty>
0.00467813

> <r_epik_Charging_Adjusted_Penalty>
0.00467813

> <i_epik_Tot_Q>
0

> <i_epik_Tot_abs_Q>
0

> <r_epik_Metal_State_Penalty>
-0

> <b_epik_Metal_Only>
0

> <s_lp_Force_Field>
OPLS_2005

> <r_lp_Energy>
51.6301

> <b_lp_Chiralities_Consistent>
1

> <s_lp_Variant>
AV-unprocessed.smi:176-1

> <Gold.Version>
5.8.1

> <Gold.Id.Protein>
6NUR|6NUR_protein|mol2

> <Gold.PLP.Fitness>
54.6367

> <Gold.PLP.PLP>
-55.6358

> <Gold.PLP.part.hbond>
-4.3518

> <Gold.PLP.part.metal>
0.0000

> <Gold.PLP.part.buried>
-4.6061

> <Gold.PLP.part.nonpolar>
-46.8962

> <Gold.PLP.part.repulsive>
0.0207

> <Gold.PLP.ligand.clash>
0.0000

> <Gold.PLP.ligand.torsion>
0.9452

> <Gold.PLP.Chemscore.Hbond>
0.0000

> <Gold.PLP.Chemscore.CHOScore>
0.0000

> <Gold.PLP.Chemscore.Metal>
0.0000

> <Gold.PLP.Chemscore.Internal.Correction>
0.8913

> <Gold.Rescore>
     Score         DG    S(hbond)    S(metal)    S(lipo)     H(rot)  DE(clash)    DE(int)     intcor
      9.19     -12.06       0.00        0.00     137.45       3.71       0.83       2.05       ----

> <Gold.Chemscore.Fitness>
9.1863

> <Gold.Chemscore.DG>
-12.0617

> <Gold.Chemscore.ZeroCoef>
-5.4800

> <Gold.Chemscore.Hbond>
0.0000

> <Gold.Chemscore.Metal>
0.0000

> <Gold.Chemscore.Lipo>
137.4506

> <Gold.Chemscore.Internal_Hbond>
0.0000

> <Gold.Chemscore.DEClash>
0.8301

> <Gold.Chemscore.DEInternal>
2.0453

> <Gold.Chemscore.Rot>
3.7109

> <Gold.Chemscore.Internal.Correction>
   9.000000E+99

> <Gold.Chemscore.Hbond.Weighted>
-0.0000

> <Gold.Chemscore.Metal.Weighted>
-0.0000

> <Gold.Chemscore.Lipo.Weighted>
-16.0817

> <Gold.Chemscore.Internal_Hbond.Weighted>
0.0000

> <Gold.Chemscore.DEClash.Weighted>
0.8301

> <Gold.Chemscore.DEInternal.Weighted>
2.0453

> <Gold.Chemscore.Rot.Weighted>
9.5000

> <Gold.Chemscore.Internal.Correction.Weighted>
   9.000000E+99

> <Gold.Protein.RotatedTorsions>
[ 6907 6896 6895 6894 ] final   14.35 input  -60.11 | X-H torsion
[ 7974 7965 7964 7962 ] final   70.73 input  175.53 | X-H torsion
[ 8008 7997 7996 7995 ] final  103.18 input   59.86 | X-H torsion
[ 10167 10162 10161 10158 ] final   20.42 input  -65.29 | X-H torsion
[ 10718 10713 10712 10709 ] final   -6.00 input   66.30 | X-H torsion
[ 10763 10752 10751 10750 ] final  -49.36 input  -60.55 | X-H torsion
[ 11005 11000 10999 10996 ] final  106.41 input  -57.11 | X-H torsion

> <Gold.Protein.ActiveResidues>
 VAL166  LYS551  ARG553  GLY616  TRP617  ASP618  TYR619  PRO620  LYS621  CYS622 
 ASP623  PHE694  ASN695  SER759  ASP760  ASP761  ALA762  ILE779  LEU786  VAL792 
 PHE793  MET794  SER795  GLU796  ALA797  LYS798  CYS799  TRP800  GLU811  SER814 

> <Gold.Protein.RotatedAtoms>
  151.8008  135.0709  160.0399 H   0  0  0  0  0  0  0  0  0  0  0  0  # atno 6907 bound_to 6896
  152.3090  133.5728  159.5676 H   0  0  0  0  0  0  0  0  0  0  0  0  # atno 6908 bound_to 6896
  150.7310  134.0096  159.3707 H   0  0  0  0  0  0  0  0  0  0  0  0  # atno 6909 bound_to 6896
  145.7746  139.2859  143.1301 H   0  0  0  0  0  0  0  0  0  0  0  0  # atno 7974 bound_to 7965
  156.1460  140.3169  155.8571 H   0  0  0  0  0  0  0  0  0  0  0  0  # atno 8008 bound_to 7997
  155.4062  140.0503  157.3051 H   0  0  0  0  0  0  0  0  0  0  0  0  # atno 8009 bound_to 7997
  154.5017  140.2132  155.9345 H   0  0  0  0  0  0  0  0  0  0  0  0  # atno 8010 bound_to 7997
  140.5505  143.9518  150.6575 H   0  0  0  0  0  0  0  0  0  0  0  0  # atno 10167 bound_to 10162
  156.7383  130.5201  149.5830 H   0  0  0  0  0  0  0  0  0  0  0  0  # atno 10718 bound_to 10713
  154.0928  135.6575  153.4855 H   0  0  0  0  0  0  0  0  0  0  0  0  # atno 10763 bound_to 10752
  153.0316  135.5206  154.7364 H   0  0  0  0  0  0  0  0  0  0  0  0  # atno 10764 bound_to 10752
  154.6492  135.2999  154.9976 H   0  0  0  0  0  0  0  0  0  0  0  0  # atno 10765 bound_to 10752
  139.8814  134.9368  156.5662 H   0  0  0  0  0  0  0  0  0  0  0  0  # atno 11005 bound_to 11000
  146.0136  140.8413  142.9958 LP  0  0  0  0  0  0  0  0  0  0  0  0  # atno 17320 bound_to 7965
  144.6807  140.2525  143.7329 LP  0  0  0  0  0  0  0  0  0  0  0  0  # atno 17321 bound_to 7965
  140.2943  143.3303  152.1033 LP  0  0  0  0  0  0  0  0  0  0  0  0  # atno 17342 bound_to 10162
  139.5025  144.6736  151.6182 LP  0  0  0  0  0  0  0  0  0  0  0  0  # atno 17343 bound_to 10162
  156.1482  130.6292  151.0560 LP  0  0  0  0  0  0  0  0  0  0  0  0  # atno 17370 bound_to 10713
  157.6829  131.0833  150.7320 LP  0  0  0  0  0  0  0  0  0  0  0  0  # atno 17371 bound_to 10713
  140.8133  133.8412  155.8829 LP  0  0  0  0  0  0  0  0  0  0  0  0  # atno 17394 bound_to 11000
  140.9486  134.1808  157.4744 LP  0  0  0  0  0  0  0  0  0  0  0  0  # atno 17395 bound_to 11000

$$$$
