AV-unprocessed.smi:148|AV-procd|sdf|1224|dock9
  -GOLD-   2262018423D 1   1.00000     0.00000
 Structure written by MMmdl.
 63 67  0  0  0  0  0  0  0  0  1 V2000
  148.8014  134.1562  153.8145 O   0  0  0  0  0  0  0  0  0  0  0  0
  148.4619  132.9783  153.1141 C   0  0  0  0  0  0  0  0  0  0  0  0
  146.9481  132.6570  153.2201 C   0  0  2  0  0  0  0  0  0  0  0  0
  146.6696  131.6023  154.3229 C   0  0  0  0  0  0  0  0  0  0  0  0
  146.7647  132.1291  155.6735 N   0  0  0  0  0  0  0  0  0  0  0  0
  145.7218  132.3716  156.5399 C   0  0  0  0  0  0  0  0  0  0  0  0
  146.0648  132.8503  157.7047 N   0  0  0  0  0  0  0  0  0  0  0  0
  147.4475  132.9525  157.6295 C   0  0  0  0  0  0  0  0  0  0  0  0
  148.4523  133.4013  158.5250 C   0  0  0  0  0  0  0  0  0  0  0  0
  148.1534  133.8505  159.7632 N   0  0  0  0  0  0  0  0  0  0  0  0
  148.0863  135.3136  159.7663 C   0  0  0  0  0  0  0  0  0  0  0  0
  148.0621  135.8680  161.1937 C   0  0  0  0  0  0  0  0  0  0  0  0
  146.8967  135.2501  161.9674 C   0  0  0  0  0  0  0  0  0  0  0  0
  147.0008  133.7199  161.9342 C   0  0  0  0  0  0  0  0  0  0  0  0
  147.0734  133.1517  160.4903 C   0  0  2  0  0  0  0  0  0  0  0  0
  147.2365  131.5908  160.5232 C   0  0  1  0  0  0  0  0  0  0  0  0
  148.2157  131.0551  161.5856 C   0  0  0  0  0  0  0  0  0  0  0  0
  147.9037  129.5636  161.7531 C   0  0  0  0  0  0  0  0  0  0  0  0
  146.5108  129.3486  161.1512 C   0  0  0  0  0  0  0  0  0  0  0  0
  145.9750  130.7431  160.8101 C   0  0  1  0  0  0  0  0  0  0  0  0
  145.2619  131.2431  161.9259 O   0  0  0  0  0  0  0  0  0  0  0  0
  149.7453  133.3617  158.1074 N   0  0  0  0  0  0  0  0  0  0  0  0
  150.0335  132.9207  156.8787 C   0  0  0  0  0  0  0  0  0  0  0  0
  149.2010  132.4785  155.9326 N   0  0  0  0  0  0  0  0  0  0  0  0
  147.9051  132.5099  156.3578 C   0  0  0  0  0  0  0  0  0  0  0  0
  146.3508  132.1876  151.8641 C   0  0  1  0  0  0  0  0  0  0  0  0
  144.8540  131.9224  151.8812 C   0  0  0  0  0  0  0  0  0  0  0  0
  144.4989  131.9338  150.3986 C   0  0  0  0  0  0  0  0  0  0  0  0
  145.4076  132.8438  149.7912 O   0  0  0  0  0  0  0  0  0  0  0  0
  146.4254  133.2045  150.7190 C   0  0  0  0  0  0  0  0  0  0  0  0
  148.6180  134.0244  154.7323 H   0  0  0  0  0  0  0  0  0  0  0  0
  148.7661  133.0723  152.0713 H   0  0  0  0  0  0  0  0  0  0  0  0
  149.0725  132.1883  153.5482 H   0  0  0  0  0  0  0  0  0  0  0  0
  146.4351  133.5726  153.5181 H   0  0  0  0  0  0  0  0  0  0  0  0
  145.6690  131.1840  154.2144 H   0  0  0  0  0  0  0  0  0  0  0  0
  147.3661  130.7683  154.2275 H   0  0  0  0  0  0  0  0  0  0  0  0
  144.6917  132.1741  156.2816 H   0  0  0  0  0  0  0  0  0  0  0  0
  148.9422  135.7289  159.2314 H   0  0  0  0  0  0  0  0  0  0  0  0
  147.1906  135.6383  159.2345 H   0  0  0  0  0  0  0  0  0  0  0  0
  149.0040  135.6418  161.6952 H   0  0  0  0  0  0  0  0  0  0  0  0
  147.9689  136.9540  161.1738 H   0  0  0  0  0  0  0  0  0  0  0  0
  146.8984  135.6059  162.9980 H   0  0  0  0  0  0  0  0  0  0  0  0
  145.9502  135.5660  161.5269 H   0  0  0  0  0  0  0  0  0  0  0  0
  147.8846  133.4091  162.4936 H   0  0  0  0  0  0  0  0  0  0  0  0
  146.1401  133.3181  162.4677 H   0  0  0  0  0  0  0  0  0  0  0  0
  146.1317  133.3992  159.9993 H   0  0  0  0  0  0  0  0  0  0  0  0
  147.6317  131.2781  159.5548 H   0  0  0  0  0  0  0  0  0  0  0  0
  149.2590  131.2157  161.3118 H   0  0  0  0  0  0  0  0  0  0  0  0
  148.0437  131.5618  162.5364 H   0  0  0  0  0  0  0  0  0  0  0  0
  148.6385  128.9520  161.2282 H   0  0  0  0  0  0  0  0  0  0  0  0
  147.9334  129.2785  162.8051 H   0  0  0  0  0  0  0  0  0  0  0  0
  146.6076  128.7673  160.2333 H   0  0  0  0  0  0  0  0  0  0  0  0
  145.8485  128.7897  161.8143 H   0  0  0  0  0  0  0  0  0  0  0  0
  145.2957  130.6785  159.9630 H   0  0  0  0  0  0  0  0  0  0  0  0
  144.7360  131.9751  161.6421 H   0  0  0  0  0  0  0  0  0  0  0  0
  151.0811  132.9237  156.6165 H   0  0  0  0  0  0  0  0  0  0  0  0
  146.8549  131.2731  151.5465 H   0  0  0  0  0  0  0  0  0  0  0  0
  144.5859  130.9801  152.3597 H   0  0  0  0  0  0  0  0  0  0  0  0
  144.3308  132.7288  152.3973 H   0  0  0  0  0  0  0  0  0  0  0  0
  144.6544  130.9463  149.9624 H   0  0  0  0  0  0  0  0  0  0  0  0
  143.4634  132.2244  150.2206 H   0  0  0  0  0  0  0  0  0  0  0  0
  146.2136  134.2115  151.0816 H   0  0  0  0  0  0  0  0  0  0  0  0
  147.4012  133.2172  150.2330 H   0  0  0  0  0  0  0  0  0  0  0  0
  1  2  1  0  0  0  0
  1 31  1  0  0  0  0
  2  3  1  0  0  0  0
  2 32  1  0  0  0  0
  2 33  1  0  0  0  0
  3  4  1  0  0  0  0
  3 26  1  0  0  0  0
  3 34  1  0  0  0  0
  4  5  1  0  0  0  0
  4 35  1  0  0  0  0
  4 36  1  0  0  0  0
  5 25  1  0  0  0  0
  5  6  1  0  0  0  0
  6  7  2  0  0  0  0
  6 37  1  0  0  0  0
  7  8  1  0  0  0  0
  8 25  2  0  0  0  0
  8  9  1  0  0  0  0
  9 10  1  0  0  0  0
  9 22  2  0  0  0  0
 10 15  1  0  0  0  0
 10 11  1  0  0  0  0
 11 12  1  0  0  0  0
 11 38  1  0  0  0  0
 11 39  1  0  0  0  0
 12 13  1  0  0  0  0
 12 40  1  0  0  0  0
 12 41  1  0  0  0  0
 13 14  1  0  0  0  0
 13 42  1  0  0  0  0
 13 43  1  0  0  0  0
 14 15  1  0  0  0  0
 14 44  1  0  0  0  0
 14 45  1  0  0  0  0
 15 16  1  0  0  0  0
 15 46  1  0  0  0  0
 16 20  1  0  0  0  0
 16 17  1  0  0  0  0
 16 47  1  0  0  0  0
 17 18  1  0  0  0  0
 17 48  1  0  0  0  0
 17 49  1  0  0  0  0
 18 19  1  0  0  0  0
 18 50  1  0  0  0  0
 18 51  1  0  0  0  0
 19 20  1  0  0  0  0
 19 52  1  0  0  0  0
 19 53  1  0  0  0  0
 20 21  1  0  0  0  0
 20 54  1  0  0  0  0
 21 55  1  0  0  0  0
 22 23  1  0  0  0  0
 23 24  2  0  0  0  0
 23 56  1  0  0  0  0
 24 25  1  0  0  0  0
 26 30  1  0  0  0  0
 26 27  1  0  0  0  0
 26 57  1  0  0  0  0
 27 28  1  0  0  0  0
 27 58  1  0  0  0  0
 27 59  1  0  0  0  0
 28 29  1  0  0  0  0
 28 60  1  0  0  0  0
 28 61  1  0  0  0  0
 29 30  1  0  0  0  0
 30 62  1  0  0  0  0
 30 63  1  0  0  0  0
M  END
> <s_m_source_file>
AV-unprocessed.smi

> <i_m_source_file_index>
148

> <i_lp_mmshare_version>
43012

> <i_f3d_flags>
0

> <s_epik_input>
W0NIMl0xT1tDSDJdW0NIMl1bQ0BIXTFbQ0BIXShbQ0gyXVtPSF0pW0NIMl1uKFtjSF1uMiljKGMyMyluW2NIXW5jM040W0NIMl1bQ0gyXVtDSDJdW0NIMl1bQ0BIXTRbQ0BASF01W0NIMl1bQ0gyXVtDSDJdW0NASF01W09IXQ==

> <s_epik_cmdline>
J2VwaWtfcHl0aG9uJywgJy1waCcsICc3LjAnLCAnLXRuJywgJzgnLCAnLW1hJywgJzIwMCcsICctbWV0YWxfYmluZGluZycsICctaW1hZScsICc8aW5maWxlLm1hZT4nLCAnLW9tYWUnLCAnPG91dGZpbGUubWFlPic=

> <r_lp_tautomer_probability>
1

> <r_epik_Ionization_Penalty>
0.00556303

> <r_epik_Ionization_Penalty_Charging>
0

> <r_epik_Ionization_Penalty_Neutral>
0.00556303

> <r_epik_State_Penalty>
0.00401767

> <r_epik_Charging_Adjusted_Penalty>
0.00401767

> <i_epik_Tot_Q>
0

> <i_epik_Tot_abs_Q>
0

> <r_epik_Metal_State_Penalty>
-0

> <b_epik_Metal_Only>
0

> <s_lp_Force_Field>
OPLS_2005

> <r_lp_Energy>
70.7604

> <b_lp_Chiralities_Consistent>
1

> <s_lp_Variant>
AV-unprocessed.smi:148-23

> <Gold.Version>
5.8.1

> <Gold.Id.Protein>
6NUR|6NUR_protein|mol2

> <Gold.PLP.Fitness>
42.1217

> <Gold.PLP.PLP>
-39.1405

> <Gold.PLP.part.hbond>
-2.6982

> <Gold.PLP.part.metal>
0.0000

> <Gold.PLP.part.buried>
-5.6825

> <Gold.PLP.part.nonpolar>
-31.6674

> <Gold.PLP.part.repulsive>
0.8085

> <Gold.PLP.ligand.clash>
0.0000

> <Gold.PLP.ligand.torsion>
1.8396

> <Gold.PLP.Chemscore.Hbond>
1.0000

> <Gold.PLP.Chemscore.CHOScore>
0.9923

> <Gold.PLP.Chemscore.Metal>
0.0000

> <Gold.Chemscore.Hbonds>
donor molecule, donor type, donor heavy atom, donor atom, acceptor molecule, acceptor atom, score
      P1  H  6896  6909       L1    22  1.00
      L1  C     6    37       P1 10957  1.00

> <Gold.PLP.Chemscore.Internal.Correction>
0.6834

> <Gold.Rescore>
     Score         DG    S(hbond)    S(metal)    S(lipo)     H(rot)  DE(clash)    DE(int)     intcor
      7.65     -11.79       0.89        0.00     101.26       3.32       0.02       4.11       ----

> <Gold.Chemscore.Fitness>
7.6545

> <Gold.Chemscore.DG>
-11.7865

> <Gold.Chemscore.ZeroCoef>
-5.4800

> <Gold.Chemscore.Hbond>
0.8861

> <Gold.Chemscore.Metal>
0.0000

> <Gold.Chemscore.Lipo>
101.2552

> <Gold.Chemscore.Internal_Hbond>
0.0000

> <Gold.Chemscore.DEClash>
0.0202

> <Gold.Chemscore.DEInternal>
4.1118

> <Gold.Chemscore.Rot>
3.3203

> <Gold.Chemscore.Internal.Correction>
   9.000000E+99

> <Gold.Chemscore.Hbonds>
donor molecule, donor type, donor heavy atom, donor atom, acceptor molecule, acceptor atom, score
      P1  H  6896  6909       L1    22  0.78

> <Gold.Chemscore.Hbond.Weighted>
-2.9596

> <Gold.Chemscore.Metal.Weighted>
-0.0000

> <Gold.Chemscore.Lipo.Weighted>
-11.8469

> <Gold.Chemscore.Internal_Hbond.Weighted>
0.0000

> <Gold.Chemscore.DEClash.Weighted>
0.0202

> <Gold.Chemscore.DEInternal.Weighted>
4.1118

> <Gold.Chemscore.Rot.Weighted>
8.5000

> <Gold.Chemscore.Internal.Correction.Weighted>
   9.000000E+99

> <Gold.Protein.RotatedTorsions>
[ 6907 6896 6895 6894 ] final    5.05 input  -60.11 | X-H torsion
[ 7974 7965 7964 7962 ] final   90.57 input  175.53 | X-H torsion
[ 8008 7997 7996 7995 ] final -163.40 input   59.86 | X-H torsion
[ 10167 10162 10161 10158 ] final -141.42 input  -65.29 | X-H torsion
[ 10718 10713 10712 10709 ] final -118.81 input   66.30 | X-H torsion
[ 10763 10752 10751 10750 ] final    9.81 input  -60.55 | X-H torsion
[ 11005 11000 10999 10996 ] final  -76.85 input  -57.11 | X-H torsion

> <Gold.Protein.ActiveResidues>
 VAL166  LYS551  ARG553  GLY616  TRP617  ASP618  TYR619  PRO620  LYS621  CYS622 
 ASP623  PHE694  ASN695  SER759  ASP760  ASP761  ALA762  ILE779  LEU786  VAL792 
 PHE793  MET794  SER795  GLU796  ALA797  LYS798  CYS799  TRP800  GLU811  SER814 

> <Gold.Protein.RotatedAtoms>
  151.6512  135.1001  160.0160 H   0  0  0  0  0  0  0  0  0  0  0  0  # atno 6907 bound_to 6896
  152.3999  133.6799  159.6316 H   0  0  0  0  0  0  0  0  0  0  0  0  # atno 6908 bound_to 6896
  150.7901  133.8725  159.3304 H   0  0  0  0  0  0  0  0  0  0  0  0  # atno 6909 bound_to 6896
  145.5173  139.2278  143.2691 H   0  0  0  0  0  0  0  0  0  0  0  0  # atno 7974 bound_to 7965
  155.8208  140.0919  157.1850 H   0  0  0  0  0  0  0  0  0  0  0  0  # atno 8008 bound_to 7997
  154.3979  140.1437  156.3557 H   0  0  0  0  0  0  0  0  0  0  0  0  # atno 8009 bound_to 7997
  155.8269  140.3444  155.5550 H   0  0  0  0  0  0  0  0  0  0  0  0  # atno 8010 bound_to 7997
  139.8186  143.7605  152.2665 H   0  0  0  0  0  0  0  0  0  0  0  0  # atno 10167 bound_to 10162
  156.1134  130.6267  150.9338 H   0  0  0  0  0  0  0  0  0  0  0  0  # atno 10718 bound_to 10713
  153.2099  135.6867  153.8126 H   0  0  0  0  0  0  0  0  0  0  0  0  # atno 10763 bound_to 10752
  153.7362  135.3245  155.3296 H   0  0  0  0  0  0  0  0  0  0  0  0  # atno 10764 bound_to 10752
  154.8217  135.4647  154.0902 H   0  0  0  0  0  0  0  0  0  0  0  0  # atno 10765 bound_to 10752
  141.1657  133.7000  156.7732 H   0  0  0  0  0  0  0  0  0  0  0  0  # atno 11005 bound_to 11000
  146.2129  140.5983  142.9051 LP  0  0  0  0  0  0  0  0  0  0  0  0  # atno 17320 bound_to 7965
  144.7695  140.5606  143.6680 LP  0  0  0  0  0  0  0  0  0  0  0  0  # atno 17321 bound_to 7965
  139.7776  144.7455  151.0134 LP  0  0  0  0  0  0  0  0  0  0  0  0  # atno 17342 bound_to 10162
  140.7814  143.4577  151.0322 LP  0  0  0  0  0  0  0  0  0  0  0  0  # atno 17343 bound_to 10162
  157.6316  131.0920  150.8429 LP  0  0  0  0  0  0  0  0  0  0  0  0  # atno 17370 bound_to 10713
  156.8537  130.5089  149.5309 LP  0  0  0  0  0  0  0  0  0  0  0  0  # atno 17371 bound_to 10713
  140.2449  134.8585  157.3610 LP  0  0  0  0  0  0  0  0  0  0  0  0  # atno 17394 bound_to 11000
  140.1760  134.4549  155.7802 LP  0  0  0  0  0  0  0  0  0  0  0  0  # atno 17395 bound_to 11000

$$$$
