AV-unprocessed.smi:2887|AV-procd|sdf|11099|dock5
  -GOLD-   2272015563D 1   1.00000     0.00000
 Structure written by MMmdl.
 38 39  0  0  0  0  0  0  0  0  3 V2000
  150.7388  139.9954  154.4950 O   0  0  0  0  0  0  0  0  0  0  0  0
  149.8256  140.6641  154.9773 C   0  0  0  0  0  0  0  0  0  0  0  0
  148.4391  140.6161  154.3153 C   0  0  0  0  0  0  0  0  0  0  0  0
  147.4961  141.6174  154.8111 N   0  0  0  0  0  0  0  0  0  0  0  0
  147.0086  142.6279  153.9890 C   0  0  0  0  0  0  0  0  0  0  0  0
  146.0850  143.5294  154.3713 C   0  0  0  0  0  0  0  0  0  0  0  0
  145.5320  143.4668  155.7394 C   0  0  0  0  0  0  0  0  0  0  0  0
  144.6705  144.2661  156.1025 O   0  0  0  0  0  0  0  0  0  0  0  0
  146.0572  142.3920  156.6322 C   0  0  0  0  0  0  0  0  0  0  0  0
  145.6540  142.1843  158.0088 N   0  3  0  0  0  0  0  0  0  0  0  0
  146.2276  141.3297  158.6779 O   0  0  0  0  0  0  0  0  0  0  0  0
  144.7498  142.8732  158.4696 O   0  5  0  0  0  0  0  0  0  0  0  0
  146.9881  141.5545  156.1086 C   0  0  0  0  0  0  0  0  0  0  0  0
  149.9859  141.4565  156.0515 N   0  0  0  0  0  0  0  0  0  0  0  0
  151.2407  141.7129  156.7524 C   0  0  0  0  0  0  0  0  0  0  0  0
  151.2183  143.0884  157.4423 C   0  0  0  0  0  0  0  0  0  0  0  0
  151.6366  143.0391  158.9010 C   0  0  0  0  0  0  0  0  0  0  0  0
  152.1053  141.9783  159.5564 C   0  0  0  0  0  0  0  0  0  0  0  0
  152.4141  142.2773  160.9974 C   0  0  0  0  0  0  0  0  0  0  0  0
  152.0439  143.7687  161.1578 C   0  0  0  0  0  0  0  0  0  0  0  0
  151.5488  144.2604  159.7790 C   0  0  0  0  0  0  0  0  0  0  0  0
  148.5632  140.7401  153.2383 H   0  0  0  0  0  0  0  0  0  0  0  0
  148.0240  139.6171  154.4559 H   0  0  0  0  0  0  0  0  0  0  0  0
  147.4336  142.6400  152.9958 H   0  0  0  0  0  0  0  0  0  0  0  0
  145.7358  144.2978  153.6972 H   0  0  0  0  0  0  0  0  0  0  0  0
  147.4215  140.7531  156.6904 H   0  0  0  0  0  0  0  0  0  0  0  0
  149.1762  141.9620  156.3811 H   0  0  0  0  0  0  0  0  0  0  0  0
  151.3822  140.9305  157.4982 H   0  0  0  0  0  0  0  0  0  0  0  0
  152.0974  141.6495  156.0798 H   0  0  0  0  0  0  0  0  0  0  0  0
  151.8856  143.7694  156.9120 H   0  0  0  0  0  0  0  0  0  0  0  0
  150.2199  143.5219  157.3777 H   0  0  0  0  0  0  0  0  0  0  0  0
  152.2523  140.9967  159.1302 H   0  0  0  0  0  0  0  0  0  0  0  0
  151.8176  141.6411  161.6516 H   0  0  0  0  0  0  0  0  0  0  0  0
  153.4698  142.0972  161.2022 H   0  0  0  0  0  0  0  0  0  0  0  0
  151.2639  143.8904  161.9104 H   0  0  0  0  0  0  0  0  0  0  0  0
  152.9061  144.3485  161.4891 H   0  0  0  0  0  0  0  0  0  0  0  0
  152.1812  145.0558  159.3836 H   0  0  0  0  0  0  0  0  0  0  0  0
  150.5230  144.6256  159.8309 H   0  0  0  0  0  0  0  0  0  0  0  0
  1  2  2  0  0  0  0
  2  3  1  0  0  0  0
  2 14  1  0  0  0  0
  3  4  1  0  0  0  0
  3 22  1  0  0  0  0
  3 23  1  0  0  0  0
  4 13  1  0  0  0  0
  4  5  1  0  0  0  0
  5  6  2  0  0  0  0
  5 24  1  0  0  0  0
  6  7  1  0  0  0  0
  6 25  1  0  0  0  0
  7  8  2  0  0  0  0
  7  9  1  0  0  0  0
  9 10  1  0  0  0  0
  9 13  2  0  0  0  0
 10 11  2  0  0  0  0
 10 12  1  0  0  0  0
 13 26  1  0  0  0  0
 14 15  1  0  0  0  0
 14 27  1  0  0  0  0
 15 16  1  0  0  0  0
 15 28  1  0  0  0  0
 15 29  1  0  0  0  0
 16 17  1  0  0  0  0
 16 30  1  0  0  0  0
 16 31  1  0  0  0  0
 17 21  1  0  0  0  0
 17 18  2  0  0  0  0
 18 19  1  0  0  0  0
 18 32  1  0  0  0  0
 19 20  1  0  0  0  0
 19 33  1  0  0  0  0
 19 34  1  0  0  0  0
 20 21  1  0  0  0  0
 20 35  1  0  0  0  0
 20 36  1  0  0  0  0
 21 37  1  0  0  0  0
 21 38  1  0  0  0  0
M  CHG  1  10   1
M  CHG  1  12  -1
M  END
> <s_m_source_file>
AV-unprocessed.smi

> <i_m_source_file_index>
2887

> <i_lp_mmshare_version>
43012

> <i_f3d_flags>
0

> <s_epik_input>
W0NIMl0xW0NIMl1bQ0gyXVtDSF09QzFbQ0gyXVtDSDJdW05IXUMoPU8pW0NIMl1uMltjSF1bY0hdYyg9TyljKFtOK10oPU8pW08tXSlbY0hdMg==

> <s_epik_cmdline>
J2VwaWtfcHl0aG9uJywgJy1waCcsICc3LjAnLCAnLXRuJywgJzgnLCAnLW1hJywgJzIwMCcsICctbWV0YWxfYmluZGluZycsICctaW1hZScsICc8aW5maWxlLm1hZT4nLCAnLW9tYWUnLCAnPG91dGZpbGUubWFlPic=

> <r_lp_tautomer_probability>
1

> <r_epik_Ionization_Penalty>
2.85916e-08

> <r_epik_Ionization_Penalty_Charging>
1.01785e-08

> <r_epik_Ionization_Penalty_Neutral>
1.84131e-08

> <r_epik_State_Penalty>
-0

> <r_epik_Charging_Adjusted_Penalty>
1.01785e-08

> <i_epik_Tot_Q>
0

> <i_epik_Tot_abs_Q>
2

> <r_epik_Metal_State_Penalty>
-0

> <b_epik_Metal_Only>
0

> <s_lp_Force_Field>
OPLS_2005

> <r_lp_Energy>
18.7972

> <b_lp_Chiralities_Consistent>
1

> <s_lp_Variant>
AV-unprocessed.smi:2887-1

> <Gold.Version>
5.8.1

> <Gold.Id.Protein>
6NUR|6NUR_protein|mol2

> <Gold.PLP.Fitness>
46.2043

> <Gold.PLP.PLP>
-42.6410

> <Gold.PLP.part.hbond>
-2.0000

> <Gold.PLP.part.metal>
0.0000

> <Gold.PLP.part.buried>
-6.1436

> <Gold.PLP.part.nonpolar>
-34.7538

> <Gold.PLP.part.repulsive>
0.3274

> <Gold.PLP.ligand.clash>
0.0010

> <Gold.PLP.ligand.torsion>
0.7187

> <Gold.PLP.Chemscore.Hbond>
1.6560

> <Gold.PLP.Chemscore.CHOScore>
0.0000

> <Gold.PLP.Chemscore.Metal>
0.0000

> <Gold.Chemscore.Hbonds>
donor molecule, donor type, donor heavy atom, donor atom, acceptor molecule, acceptor atom, score
      P1  H  6934  6946       L1    11  0.39
      P1  H  7989  7998       L1     1  1.00

> <Gold.PLP.Chemscore.Internal.Correction>
0.0339

> <Gold.Rescore>
     Score         DG    S(hbond)    S(metal)    S(lipo)     H(rot)  DE(clash)    DE(int)     intcor
     14.38     -17.65       1.78        0.00      96.98       2.00       0.16       3.11       ----

> <Gold.Chemscore.Fitness>
14.3772

> <Gold.Chemscore.DG>
-17.6494

> <Gold.Chemscore.ZeroCoef>
-5.4800

> <Gold.Chemscore.Hbond>
1.7787

> <Gold.Chemscore.Metal>
0.0000

> <Gold.Chemscore.Lipo>
96.9750

> <Gold.Chemscore.Internal_Hbond>
0.0000

> <Gold.Chemscore.DEClash>
0.1606

> <Gold.Chemscore.DEInternal>
3.1115

> <Gold.Chemscore.Rot>
1.9991

> <Gold.Chemscore.Internal.Correction>
   9.000000E+99

> <Gold.Chemscore.Hbonds>
donor molecule, donor type, donor heavy atom, donor atom, acceptor molecule, acceptor atom, score
      P1  H  6934  6946       L1    11  0.39
      P1  H  7989  7998       L1     1  0.77

> <Gold.Chemscore.Hbond.Weighted>
-5.9410

> <Gold.Chemscore.Metal.Weighted>
-0.0000

> <Gold.Chemscore.Lipo.Weighted>
-11.3461

> <Gold.Chemscore.Internal_Hbond.Weighted>
0.0000

> <Gold.Chemscore.DEClash.Weighted>
0.1606

> <Gold.Chemscore.DEInternal.Weighted>
3.1115

> <Gold.Chemscore.Rot.Weighted>
5.1177

> <Gold.Chemscore.Internal.Correction.Weighted>
   9.000000E+99

> <Gold.Protein.RotatedTorsions>
[ 6907 6896 6895 6894 ] final  120.04 input  -60.11 | X-H torsion
[ 7974 7965 7964 7962 ] final -176.70 input  175.53 | X-H torsion
[ 8008 7997 7996 7995 ] final   26.04 input   59.86 | X-H torsion
[ 10167 10162 10161 10158 ] final   75.96 input  -65.29 | X-H torsion
[ 10718 10713 10712 10709 ] final   66.63 input   66.30 | X-H torsion
[ 10763 10752 10751 10750 ] final  161.41 input  -60.55 | X-H torsion
[ 11005 11000 10999 10996 ] final  -21.02 input  -57.11 | X-H torsion

> <Gold.Protein.ActiveResidues>
 VAL166  LYS551  ARG553  GLY616  TRP617  ASP618  TYR619  PRO620  LYS621  CYS622 
 ASP623  PHE694  ASN695  SER759  ASP760  ASP761  ALA762  ILE779  LEU786  VAL792 
 PHE793  MET794  SER795  GLU796  ALA797  LYS798  CYS799  TRP800  GLU811  SER814 

> <Gold.Protein.RotatedAtoms>
  152.4428  133.7479  159.6677 H   0  0  0  0  0  0  0  0  0  0  0  0  # atno 6907 bound_to 6896
  150.8321  133.8063  159.3100 H   0  0  0  0  0  0  0  0  0  0  0  0  # atno 6908 bound_to 6896
  151.5713  135.1065  160.0047 H   0  0  0  0  0  0  0  0  0  0  0  0  # atno 6909 bound_to 6896
  144.7127  140.1131  143.6410 H   0  0  0  0  0  0  0  0  0  0  0  0  # atno 7974 bound_to 7965
  155.0211  140.3148  155.4793 H   0  0  0  0  0  0  0  0  0  0  0  0  # atno 8008 bound_to 7997
  156.2892  140.2197  156.5272 H   0  0  0  0  0  0  0  0  0  0  0  0  # atno 8009 bound_to 7997
  154.7451  140.0470  157.0833 H   0  0  0  0  0  0  0  0  0  0  0  0  # atno 8010 bound_to 7997
  139.9973  144.5712  150.7766 H   0  0  0  0  0  0  0  0  0  0  0  0  # atno 10167 bound_to 10162
  157.6181  130.9278  150.0134 H   0  0  0  0  0  0  0  0  0  0  0  0  # atno 10718 bound_to 10713
  154.2626  135.2768  155.2772 H   0  0  0  0  0  0  0  0  0  0  0  0  # atno 10763 bound_to 10752
  154.5371  135.5713  153.6811 H   0  0  0  0  0  0  0  0  0  0  0  0  # atno 10764 bound_to 10752
  152.9959  135.6242  154.2777 H   0  0  0  0  0  0  0  0  0  0  0  0  # atno 10765 bound_to 10752
  140.8521  133.7849  155.9978 H   0  0  0  0  0  0  0  0  0  0  0  0  # atno 11005 bound_to 11000
  145.9437  139.2686  143.1253 LP  0  0  0  0  0  0  0  0  0  0  0  0  # atno 17320 bound_to 7965
  145.9396  140.8989  143.0314 LP  0  0  0  0  0  0  0  0  0  0  0  0  # atno 17321 bound_to 7965
  140.7432  143.2843  151.3509 LP  0  0  0  0  0  0  0  0  0  0  0  0  # atno 17342 bound_to 10162
  139.6296  144.0746  152.2465 LP  0  0  0  0  0  0  0  0  0  0  0  0  # atno 17343 bound_to 10162
  156.1312  130.3643  149.9729 LP  0  0  0  0  0  0  0  0  0  0  0  0  # atno 17370 bound_to 10713
  156.7789  130.9214  151.3645 LP  0  0  0  0  0  0  0  0  0  0  0  0  # atno 17371 bound_to 10713
  140.8778  134.2648  157.5159 LP  0  0  0  0  0  0  0  0  0  0  0  0  # atno 17394 bound_to 11000
  139.8704  134.9600  156.4350 LP  0  0  0  0  0  0  0  0  0  0  0  0  # atno 17395 bound_to 11000

$$$$
