AV-unprocessed.smi:1812|AV-procd|sdf|7338|dock3
  -GOLD-   22720 8593D 1   1.00000     0.00000
 Structure written by MMmdl.
 33 35  0  0  0  0  0  0  0  0  2 V2000
  151.4353  139.9605  154.9391 O   0  0  0  0  0  0  0  0  0  0  0  0
  150.4894  139.9724  155.7301 C   0  0  0  0  0  0  0  0  0  0  0  0
  150.2165  141.0829  156.4269 N   0  0  0  0  0  0  0  0  0  0  0  0
  150.9580  142.3343  156.3392 C   0  0  0  0  0  0  0  0  0  0  0  0
  151.1015  142.9847  157.7226 C   0  0  2  0  0  0  0  0  0  0  0  0
  151.8459  144.3204  157.7258 C   0  0  0  0  0  0  0  0  0  0  0  0
  152.3436  144.3841  159.1514 C   0  0  0  0  0  0  0  0  0  0  0  0
  152.7116  142.9274  159.4190 C   0  0  0  0  0  0  0  0  0  0  0  0
  151.8524  142.1435  158.5944 O   0  0  0  0  0  0  0  0  0  0  0  0
  149.6511  138.9445  155.9951 N   0  5  0  0  0  0  0  0  0  0  0  0
  149.9584  137.7030  155.5844 C   0  0  0  0  0  0  0  0  0  0  0  0
  151.1580  137.3901  155.0741 N   0  0  0  0  0  0  0  0  0  0  0  0
  151.2608  136.0574  154.7030 N   0  0  0  0  0  0  0  0  0  0  0  0
  150.1316  135.3823  154.9308 C   0  0  0  0  0  0  0  0  0  0  0  0
  149.9891  133.9319  154.6094 C   0  0  0  0  0  0  0  0  0  0  0  0
  149.0435  133.4719  153.5236 C   0  0  0  0  0  0  0  0  0  0  0  0
  148.7389  133.1579  154.9664 C   0  0  0  0  0  0  0  0  0  0  0  0
  148.8378  136.3426  155.6303 S   0  0  0  0  0  0  0  0  0  0  0  0
  149.4346  141.0543  157.0647 H   0  0  0  0  0  0  0  0  0  0  0  0
  151.9459  142.1402  155.9193 H   0  0  0  0  0  0  0  0  0  0  0  0
  150.4458  143.0130  155.6554 H   0  0  0  0  0  0  0  0  0  0  0  0
  150.1166  143.1233  158.1719 H   0  0  0  0  0  0  0  0  0  0  0  0
  152.6908  144.2931  157.0359 H   0  0  0  0  0  0  0  0  0  0  0  0
  151.2102  145.1644  157.4563 H   0  0  0  0  0  0  0  0  0  0  0  0
  153.1819  145.0682  159.2849 H   0  0  0  0  0  0  0  0  0  0  0  0
  151.5361  144.6967  159.8151 H   0  0  0  0  0  0  0  0  0  0  0  0
  153.7433  142.7346  159.1224 H   0  0  0  0  0  0  0  0  0  0  0  0
  152.6065  142.6604  160.4708 H   0  0  0  0  0  0  0  0  0  0  0  0
  150.9461  133.4221  154.7024 H   0  0  0  0  0  0  0  0  0  0  0  0
  148.4302  134.2266  153.0349 H   0  0  0  0  0  0  0  0  0  0  0  0
  149.3706  132.6521  152.8875 H   0  0  0  0  0  0  0  0  0  0  0  0
  148.8645  132.1282  155.2944 H   0  0  0  0  0  0  0  0  0  0  0  0
  147.9135  133.6959  155.4286 H   0  0  0  0  0  0  0  0  0  0  0  0
  1  2  2  0  0  0  0
  2  3  1  0  0  0  0
  2 10  1  0  0  0  0
  3  4  1  0  0  0  0
  3 19  1  0  0  0  0
  4  5  1  0  0  0  0
  4 20  1  0  0  0  0
  4 21  1  0  0  0  0
  5  9  1  0  0  0  0
  5  6  1  0  0  0  0
  5 22  1  0  0  0  0
  6  7  1  0  0  0  0
  6 23  1  0  0  0  0
  6 24  1  0  0  0  0
  7  8  1  0  0  0  0
  7 25  1  0  0  0  0
  7 26  1  0  0  0  0
  8  9  1  0  0  0  0
  8 27  1  0  0  0  0
  8 28  1  0  0  0  0
 10 11  1  0  0  0  0
 11 18  1  0  0  0  0
 11 12  2  0  0  0  0
 12 13  1  0  0  0  0
 13 14  2  0  0  0  0
 14 15  1  0  0  0  0
 14 18  1  0  0  0  0
 15 17  1  0  0  0  0
 15 16  1  0  0  0  0
 15 29  1  0  0  0  0
 16 17  1  0  0  0  0
 16 30  1  0  0  0  0
 16 31  1  0  0  0  0
 17 32  1  0  0  0  0
 17 33  1  0  0  0  0
M  CHG  1  10  -1
M  END
> <s_m_source_file>
AV-unprocessed.smi

> <i_m_source_file_index>
1812

> <i_lp_mmshare_version>
43012

> <i_f3d_flags>
0

> <s_epik_input>
TzFbQ0gyXVtDSDJdW0NIMl1bQ0BIXTFbQ0gyXVtOSF1DKD1PKVtOSF1jMm5uYyhzMilbQ0hdM1tDSDJdW0NIMl0z

> <s_epik_cmdline>
J2VwaWtfcHl0aG9uJywgJy1waCcsICc3LjAnLCAnLXRuJywgJzgnLCAnLW1hJywgJzIwMCcsICctbWV0YWxfYmluZGluZycsICctaW1hZScsICc8aW5maWxlLm1hZT4nLCAnLW9tYWUnLCAnPG91dGZpbGUubWFlPic=

> <r_lp_tautomer_probability>
1

> <r_epik_Ionization_Penalty>
4.72991

> <r_epik_Ionization_Penalty_Charging>
4.58249

> <r_epik_Ionization_Penalty_Neutral>
0.147417

> <r_epik_State_Penalty>
4.58223

> <r_epik_Charging_Adjusted_Penalty>
9.16473

> <i_epik_Tot_Q>
-1

> <i_epik_Tot_abs_Q>
1

> <r_epik_Metal_State_Penalty>
0.861876

> <b_epik_Metal_Only>
1

> <s_lp_Force_Field>
OPLS_2005

> <r_lp_Energy>
13.803

> <b_lp_Chiralities_Consistent>
1

> <s_lp_Variant>
AV-unprocessed.smi:1812-3

> <Gold.Version>
5.8.1

> <Gold.Id.Protein>
6NUR|6NUR_protein|mol2

> <Gold.PLP.Fitness>
39.0816

> <Gold.PLP.PLP>
-33.5010

> <Gold.PLP.part.hbond>
-2.0000

> <Gold.PLP.part.metal>
0.0000

> <Gold.PLP.part.buried>
-5.3847

> <Gold.PLP.part.nonpolar>
-26.5311

> <Gold.PLP.part.repulsive>
0.3548

> <Gold.PLP.ligand.clash>
0.0000

> <Gold.PLP.ligand.torsion>
0.2802

> <Gold.PLP.Chemscore.Hbond>
2.0000

> <Gold.PLP.Chemscore.CHOScore>
0.0000

> <Gold.PLP.Chemscore.Metal>
0.0000

> <Gold.Chemscore.Hbonds>
donor molecule, donor type, donor heavy atom, donor atom, acceptor molecule, acceptor atom, score
      P1  H  7989  7998       L1     1  1.00
      P1  H 10752 10765       L1    13  1.00

> <Gold.PLP.Chemscore.Internal.Correction>
0.1409

> <Gold.Rescore>
     Score         DG    S(hbond)    S(metal)    S(lipo)     H(rot)  DE(clash)    DE(int)     intcor
     16.09     -17.91       1.91        0.00      83.24       1.45       0.02       1.80       ----

> <Gold.Chemscore.Fitness>
16.0923

> <Gold.Chemscore.DG>
-17.9122

> <Gold.Chemscore.ZeroCoef>
-5.4800

> <Gold.Chemscore.Hbond>
1.9140

> <Gold.Chemscore.Metal>
0.0000

> <Gold.Chemscore.Lipo>
83.2394

> <Gold.Chemscore.Internal_Hbond>
0.0000

> <Gold.Chemscore.DEClash>
0.0201

> <Gold.Chemscore.DEInternal>
1.7999

> <Gold.Chemscore.Rot>
1.4451

> <Gold.Chemscore.Internal.Correction>
   9.000000E+99

> <Gold.Chemscore.Hbonds>
donor molecule, donor type, donor heavy atom, donor atom, acceptor molecule, acceptor atom, score
      P1  H  7989  7998       L1     1  0.99
      P1  H 10752 10765       L1    13  0.78

> <Gold.Chemscore.Hbond.Weighted>
-6.3928

> <Gold.Chemscore.Metal.Weighted>
-0.0000

> <Gold.Chemscore.Lipo.Weighted>
-9.7390

> <Gold.Chemscore.Internal_Hbond.Weighted>
0.0000

> <Gold.Chemscore.DEClash.Weighted>
0.0201

> <Gold.Chemscore.DEInternal.Weighted>
1.7999

> <Gold.Chemscore.Rot.Weighted>
3.6995

> <Gold.Chemscore.Internal.Correction.Weighted>
   9.000000E+99

> <Gold.Protein.RotatedTorsions>
[ 6907 6896 6895 6894 ] final  109.63 input  -60.11 | X-H torsion
[ 7974 7965 7964 7962 ] final  101.02 input  175.53 | X-H torsion
[ 8008 7997 7996 7995 ] final -104.62 input   59.86 | X-H torsion
[ 10167 10162 10161 10158 ] final -138.46 input  -65.29 | X-H torsion
[ 10718 10713 10712 10709 ] final  -53.55 input   66.30 | X-H torsion
[ 10763 10752 10751 10750 ] final -179.92 input  -60.55 | X-H torsion
[ 11005 11000 10999 10996 ] final   18.03 input  -57.11 | X-H torsion

> <Gold.Protein.ActiveResidues>
 VAL166  LYS551  ARG553  GLY616  TRP617  ASP618  TYR619  PRO620  LYS621  CYS622 
 ASP623  PHE694  ASN695  SER759  ASP760  ASP761  ALA762  ILE779  LEU786  VAL792 
 PHE793  MET794  SER795  GLU796  ALA797  LYS798  CYS799  TRP800  GLU811  SER814 

> <Gold.Protein.RotatedAtoms>
  152.5058  133.8917  159.7396 H   0  0  0  0  0  0  0  0  0  0  0  0  # atno 6907 bound_to 6896
  150.9354  133.6709  159.2808 H   0  0  0  0  0  0  0  0  0  0  0  0  # atno 6908 bound_to 6896
  151.4039  135.0980  159.9617 H   0  0  0  0  0  0  0  0  0  0  0  0  # atno 6909 bound_to 6896
  145.3779  139.2385  143.3419 H   0  0  0  0  0  0  0  0  0  0  0  0  # atno 7974 bound_to 7965
  154.8879  140.0417  157.1821 H   0  0  0  0  0  0  0  0  0  0  0  0  # atno 8008 bound_to 7997
  154.8571  140.2938  155.5541 H   0  0  0  0  0  0  0  0  0  0  0  0  # atno 8009 bound_to 7997
  156.2997  140.2454  156.3539 H   0  0  0  0  0  0  0  0  0  0  0  0  # atno 8010 bound_to 7997
  139.8476  143.7240  152.2660 H   0  0  0  0  0  0  0  0  0  0  0  0  # atno 10167 bound_to 10162
  156.1526  130.4151  149.9921 H   0  0  0  0  0  0  0  0  0  0  0  0  # atno 10718 bound_to 10713
  154.5289  135.2798  155.1197 H   0  0  0  0  0  0  0  0  0  0  0  0  # atno 10763 bound_to 10752
  154.2725  135.6301  153.5319 H   0  0  0  0  0  0  0  0  0  0  0  0  # atno 10764 bound_to 10752
  152.9952  135.5632  154.5798 H   0  0  0  0  0  0  0  0  0  0  0  0  # atno 10765 bound_to 10752
  140.4294  134.1436  155.7679 H   0  0  0  0  0  0  0  0  0  0  0  0  # atno 11005 bound_to 11000
  146.2856  140.4441  142.8759 LP  0  0  0  0  0  0  0  0  0  0  0  0  # atno 17320 bound_to 7965
  144.8529  140.7027  143.6157 LP  0  0  0  0  0  0  0  0  0  0  0  0  # atno 17321 bound_to 7965
  139.7497  144.7537  151.0525 LP  0  0  0  0  0  0  0  0  0  0  0  0  # atno 17342 bound_to 10162
  140.7791  143.4875  150.9937 LP  0  0  0  0  0  0  0  0  0  0  0  0  # atno 17343 bound_to 10162
  156.7774  130.9209  151.3645 LP  0  0  0  0  0  0  0  0  0  0  0  0  # atno 17370 bound_to 10713
  157.6669  130.9015  149.9952 LP  0  0  0  0  0  0  0  0  0  0  0  0  # atno 17371 bound_to 10713
  141.1752  133.8529  157.1445 LP  0  0  0  0  0  0  0  0  0  0  0  0  # atno 17394 bound_to 11000
  140.0145  134.9973  157.0464 LP  0  0  0  0  0  0  0  0  0  0  0  0  # atno 17395 bound_to 11000

$$$$
