AV-unprocessed.smi:2402|AV-procd|sdf|9506|dock1
  -GOLD-   2272013133D 1   1.00000     0.00000
 Structure written by MMmdl.
 38 39  0  0  0  0  0  0  0  0  1 V2000
  151.8843  145.8930  160.1270 C   0  0  0  0  0  0  0  0  0  0  0  0
  151.9905  144.5053  159.5304 C   0  0  0  0  0  0  0  0  0  0  0  0
  152.8941  143.5605  160.0534 C   0  0  0  0  0  0  0  0  0  0  0  0
  152.9461  142.2876  159.4525 C   0  0  0  0  0  0  0  0  0  0  0  0
  153.8950  141.2231  159.9616 C   0  0  0  0  0  0  0  0  0  0  0  0
  152.1744  141.9371  158.4018 N   0  0  0  0  0  0  0  0  0  0  0  0
  151.3022  142.8395  157.8877 C   0  0  0  0  0  0  0  0  0  0  0  0
  150.4558  142.5730  156.7786 N   0  0  0  0  0  0  0  0  0  0  0  0
  150.3546  141.4367  156.0664 C   0  0  0  0  0  0  0  0  0  0  0  0
  150.9683  140.3939  156.2958 O   0  0  0  0  0  0  0  0  0  0  0  0
  149.4913  141.5748  155.0498 N   0  0  0  0  0  0  0  0  0  0  0  0
  149.1846  140.5357  154.0729 C   0  0  1  0  0  0  0  0  0  0  0  0
  148.7659  139.2651  154.7632 C   0  0  0  0  0  0  0  0  0  0  0  0
  147.5497  138.8596  154.4037 C   0  0  0  0  0  0  0  0  0  0  0  0
  146.8969  139.7906  153.4151 C   0  0  2  0  0  0  0  0  0  0  0  0
  146.4151  139.0832  152.1342 C   0  0  0  0  0  0  0  0  0  0  0  0
  147.4781  138.4461  151.4539 O   0  0  0  0  0  0  0  0  0  0  0  0
  147.9643  140.8904  153.1811 C   0  0  0  0  0  0  0  0  0  0  0  0
  151.1845  144.1373  158.4340 C   0  0  0  0  0  0  0  0  0  0  0  0
  150.0633  140.3229  153.4613 H   0  0  0  0  0  0  0  0  0  0  0  0
  146.0336  140.2342  153.9124 H   0  0  0  0  0  0  0  0  0  0  0  0
  152.5195  145.9960  161.0072 H   0  0  0  0  0  0  0  0  0  0  0  0
  150.8557  146.1003  160.4230 H   0  0  0  0  0  0  0  0  0  0  0  0
  152.1899  146.6418  159.3959 H   0  0  0  0  0  0  0  0  0  0  0  0
  153.5311  143.8047  160.8912 H   0  0  0  0  0  0  0  0  0  0  0  0
  154.4125  141.5524  160.8631 H   0  0  0  0  0  0  0  0  0  0  0  0
  154.6436  140.9914  159.2037 H   0  0  0  0  0  0  0  0  0  0  0  0
  153.3498  140.3090  160.1977 H   0  0  0  0  0  0  0  0  0  0  0  0
  149.8807  143.3450  156.4764 H   0  0  0  0  0  0  0  0  0  0  0  0
  149.0264  142.4630  154.9324 H   0  0  0  0  0  0  0  0  0  0  0  0
  149.4105  138.7505  155.4605 H   0  0  0  0  0  0  0  0  0  0  0  0
  147.0550  137.9734  154.7728 H   0  0  0  0  0  0  0  0  0  0  0  0
  145.6599  138.3352  152.3779 H   0  0  0  0  0  0  0  0  0  0  0  0
  145.9455  139.8013  151.4613 H   0  0  0  0  0  0  0  0  0  0  0  0
  147.7329  137.6797  151.9446 H   0  0  0  0  0  0  0  0  0  0  0  0
  147.5521  141.8703  153.4268 H   0  0  0  0  0  0  0  0  0  0  0  0
  148.2691  140.9385  152.1351 H   0  0  0  0  0  0  0  0  0  0  0  0
  150.4857  144.8477  158.0155 H   0  0  0  0  0  0  0  0  0  0  0  0
  1  2  1  0  0  0  0
  1 22  1  0  0  0  0
  1 23  1  0  0  0  0
  1 24  1  0  0  0  0
  2 19  1  0  0  0  0
  2  3  2  0  0  0  0
  3  4  1  0  0  0  0
  3 25  1  0  0  0  0
  4  5  1  0  0  0  0
  4  6  2  0  0  0  0
  5 26  1  0  0  0  0
  5 27  1  0  0  0  0
  5 28  1  0  0  0  0
  6  7  1  0  0  0  0
  7  8  1  0  0  0  0
  7 19  2  0  0  0  0
  8  9  1  0  0  0  0
  8 29  1  0  0  0  0
  9 10  2  0  0  0  0
  9 11  1  0  0  0  0
 11 12  1  0  0  0  0
 11 30  1  0  0  0  0
 12 20  1  0  0  0  0
 12 18  1  0  0  0  0
 12 13  1  0  0  0  0
 13 14  2  0  0  0  0
 13 31  1  0  0  0  0
 14 15  1  0  0  0  0
 14 32  1  0  0  0  0
 15 21  1  0  0  0  0
 15 16  1  0  0  0  0
 15 18  1  0  0  0  0
 16 17  1  0  0  0  0
 16 33  1  0  0  0  0
 16 34  1  0  0  0  0
 17 35  1  0  0  0  0
 18 36  1  0  0  0  0
 18 37  1  0  0  0  0
 19 38  1  0  0  0  0
M  END
> <s_m_source_file>
AV-unprocessed.smi

> <i_m_source_file_index>
2402

> <i_lp_mmshare_version>
43012

> <i_f3d_flags>
0

> <s_epik_input>
W0NIM11jMVtjSF1jKFtDSDNdKW5jKFtjSF0xKVtOSF1DKD1PKVtOSF1bQ0BASF0yW0NIXT1bQ0hdW0NAQEhdKFtDSDJdMilbQ0gyXVtPSF0=

> <s_epik_cmdline>
J2VwaWtfcHl0aG9uJywgJy1waCcsICc3LjAnLCAnLXRuJywgJzgnLCAnLW1hJywgJzIwMCcsICctbWV0YWxfYmluZGluZycsICctaW1hZScsICc8aW5maWxlLm1hZT4nLCAnLW9tYWUnLCAnPG91dGZpbGUubWFlPic=

> <r_lp_tautomer_probability>
1

> <r_epik_Ionization_Penalty>
0.000257495

> <r_epik_Ionization_Penalty_Charging>
0

> <r_epik_Ionization_Penalty_Neutral>
0.000257495

> <r_epik_State_Penalty>
-0

> <r_epik_Charging_Adjusted_Penalty>
0

> <i_epik_Tot_Q>
0

> <i_epik_Tot_abs_Q>
0

> <r_epik_Metal_State_Penalty>
-0

> <b_epik_Metal_Only>
0

> <s_lp_Force_Field>
OPLS_2005

> <r_lp_Energy>
20.4004

> <b_lp_Chiralities_Consistent>
1

> <s_lp_Variant>
AV-unprocessed.smi:2402-2

> <Gold.Version>
5.8.1

> <Gold.Id.Protein>
6NUR|6NUR_protein|mol2

> <Gold.PLP.Fitness>
50.2200

> <Gold.PLP.PLP>
-42.0594

> <Gold.PLP.part.hbond>
-4.1012

> <Gold.PLP.part.metal>
0.0000

> <Gold.PLP.part.buried>
-0.1617

> <Gold.PLP.part.nonpolar>
-38.0272

> <Gold.PLP.part.repulsive>
0.2220

> <Gold.PLP.ligand.clash>
0.0000

> <Gold.PLP.ligand.torsion>
0.0742

> <Gold.PLP.Chemscore.Hbond>
2.7654

> <Gold.PLP.Chemscore.CHOScore>
0.0000

> <Gold.PLP.Chemscore.Metal>
0.0000

> <Gold.Chemscore.Hbonds>
donor molecule, donor type, donor heavy atom, donor atom, acceptor molecule, acceptor atom, score
      L1  H     8    29       P1  8028  1.00
      L1  H    11    30       P1  8028  0.15
      L1  H    17    35       P1  7948  0.77
      P1  H  7954  7966       L1    17  0.75

> <Gold.PLP.Chemscore.Internal.Correction>
0.0129

> <Gold.Rescore>
     Score         DG    S(hbond)    S(metal)    S(lipo)     H(rot)  DE(clash)    DE(int)     intcor
     18.57     -21.68       2.33        0.00     111.05       1.78       1.79       1.32       ----

> <Gold.Chemscore.Fitness>
18.5743

> <Gold.Chemscore.DG>
-21.6822

> <Gold.Chemscore.ZeroCoef>
-5.4800

> <Gold.Chemscore.Hbond>
2.3286

> <Gold.Chemscore.Metal>
0.0000

> <Gold.Chemscore.Lipo>
111.0495

> <Gold.Chemscore.Internal_Hbond>
0.0000

> <Gold.Chemscore.DEClash>
1.7898

> <Gold.Chemscore.DEInternal>
1.3182

> <Gold.Chemscore.Rot>
1.7844

> <Gold.Chemscore.Internal.Correction>
   9.000000E+99

> <Gold.Chemscore.Hbonds>
donor molecule, donor type, donor heavy atom, donor atom, acceptor molecule, acceptor atom, score
      L1  H     8    29       P1  8028  1.00
      L1  H    11    30       P1  8028  0.16
      L1  H    17    35       P1  7948  0.78
      P1  H  7954  7966       L1    17  0.09

> <Gold.Chemscore.Hbond.Weighted>
-7.7776

> <Gold.Chemscore.Metal.Weighted>
-0.0000

> <Gold.Chemscore.Lipo.Weighted>
-12.9928

> <Gold.Chemscore.Internal_Hbond.Weighted>
0.0000

> <Gold.Chemscore.DEClash.Weighted>
1.7898

> <Gold.Chemscore.DEInternal.Weighted>
1.3182

> <Gold.Chemscore.Rot.Weighted>
4.5681

> <Gold.Chemscore.Internal.Correction.Weighted>
   9.000000E+99

> <Gold.Protein.RotatedTorsions>
[ 6907 6896 6895 6894 ] final    1.38 input  -60.11 | X-H torsion
[ 7974 7965 7964 7962 ] final  137.19 input  175.53 | X-H torsion
[ 8008 7997 7996 7995 ] final   84.47 input   59.86 | X-H torsion
[ 10167 10162 10161 10158 ] final  132.18 input  -65.29 | X-H torsion
[ 10718 10713 10712 10709 ] final -125.92 input   66.30 | X-H torsion
[ 10763 10752 10751 10750 ] final  116.34 input  -60.55 | X-H torsion
[ 11005 11000 10999 10996 ] final  141.08 input  -57.11 | X-H torsion

> <Gold.Protein.ActiveResidues>
 VAL166  LYS551  ARG553  GLY616  TRP617  ASP618  TYR619  PRO620  LYS621  CYS622 
 ASP623  PHE694  ASN695  SER759  ASP760  ASP761  ALA762  ILE779  LEU786  VAL792 
 PHE793  MET794  SER795  GLU796  ALA797  LYS798  CYS799  TRP800  GLU811  SER814 

> <Gold.Protein.RotatedAtoms>
  151.5917  135.1053  160.0040 H   0  0  0  0  0  0  0  0  0  0  0  0  # atno 6907 bound_to 6896
  152.4303  133.7262  159.6572 H   0  0  0  0  0  0  0  0  0  0  0  0  # atno 6908 bound_to 6896
  150.8195  133.8207  159.3168 H   0  0  0  0  0  0  0  0  0  0  0  0  # atno 6909 bound_to 6896
  144.9492  139.4839  143.5534 H   0  0  0  0  0  0  0  0  0  0  0  0  # atno 7974 bound_to 7965
  155.9374  140.3410  155.6299 H   0  0  0  0  0  0  0  0  0  0  0  0  # atno 8008 bound_to 7997
  155.7082  140.0768  157.2401 H   0  0  0  0  0  0  0  0  0  0  0  0  # atno 8009 bound_to 7997
  154.4096  140.1627  156.2254 H   0  0  0  0  0  0  0  0  0  0  0  0  # atno 8010 bound_to 7997
  139.5351  144.6673  151.4814 H   0  0  0  0  0  0  0  0  0  0  0  0  # atno 10167 bound_to 10162
  156.1718  130.6673  151.0190 H   0  0  0  0  0  0  0  0  0  0  0  0  # atno 10718 bound_to 10713
  153.5357  135.3569  155.2696 H   0  0  0  0  0  0  0  0  0  0  0  0  # atno 10763 bound_to 10752
  154.8722  135.4079  154.3100 H   0  0  0  0  0  0  0  0  0  0  0  0  # atno 10764 bound_to 10752
  153.3798  135.7067  153.6642 H   0  0  0  0  0  0  0  0  0  0  0  0  # atno 10765 bound_to 10752
  140.0375  134.9321  157.0780 H   0  0  0  0  0  0  0  0  0  0  0  0  # atno 11005 bound_to 11000
  146.3315  139.8565  142.8864 LP  0  0  0  0  0  0  0  0  0  0  0  0  # atno 17320 bound_to 7965
  145.2870  141.0156  143.3684 LP  0  0  0  0  0  0  0  0  0  0  0  0  # atno 17321 bound_to 7965
  140.6553  143.8613  150.6828 LP  0  0  0  0  0  0  0  0  0  0  0  0  # atno 17342 bound_to 10162
  140.1990  143.3974  152.1806 LP  0  0  0  0  0  0  0  0  0  0  0  0  # atno 17343 bound_to 10162
  157.6808  131.0838  150.7374 LP  0  0  0  0  0  0  0  0  0  0  0  0  # atno 17370 bound_to 10713
  156.7433  130.4746  149.5472 LP  0  0  0  0  0  0  0  0  0  0  0  0  # atno 17371 bound_to 10713
  140.4124  134.1967  155.7163 LP  0  0  0  0  0  0  0  0  0  0  0  0  # atno 17394 bound_to 11000
  141.1865  133.8301  157.1066 LP  0  0  0  0  0  0  0  0  0  0  0  0  # atno 17395 bound_to 11000

$$$$
