AV-unprocessed.smi:3032|AV-procd|sdf|11571|dock5
  -GOLD-   2272016533D 1   1.00000     0.00000
 Structure written by MMmdl.
 36 37  0  0  0  0  0  0  0  0  2 V2000
  153.2329  143.1761  162.3846 C   0  0  0  0  0  0  0  0  0  0  0  0
  153.1945  142.9888  160.8611 C   0  0  2  0  0  0  0  0  0  0  0  0
  152.1703  143.9334  160.2030 C   0  0  0  0  0  0  0  0  0  0  0  0
  152.1247  143.7419  158.6788 C   0  0  0  0  0  0  0  0  0  0  0  0
  151.8315  142.2792  158.3104 C   0  0  0  0  0  0  0  0  0  0  0  0
  152.8604  141.3249  158.9510 C   0  0  2  0  0  0  0  0  0  0  0  0
  152.5467  139.8659  158.5933 C   0  0  0  0  0  0  0  0  0  0  0  0
  153.3615  139.1917  157.9616 O   0  0  0  0  0  0  0  0  0  0  0  0
  151.3629  139.3903  159.0073 N   0  0  0  0  0  0  0  0  0  0  0  0
  150.9009  138.0182  158.8245 C   0  0  0  0  0  0  0  0  0  0  0  0
  149.3657  137.9053  158.8648 C   0  0  0  0  0  0  0  0  0  0  0  0
  148.8694  136.8339  159.8156 C   0  0  0  0  0  0  0  0  0  0  0  0
  148.1530  137.0531  160.9375 N   0  5  0  0  0  0  0  0  0  0  0  0
  147.9140  135.9120  161.5538 N   0  0  0  0  0  0  0  0  0  0  0  0
  148.5095  134.9935  160.7842 C   0  0  0  0  0  0  0  0  0  0  0  0
  149.1085  135.5281  159.7151 N   0  0  0  0  0  0  0  0  0  0  0  0
  152.8978  141.5242  160.4818 C   0  0  0  0  0  0  0  0  0  0  0  0
  152.2731  142.9277  162.8389 H   0  0  0  0  0  0  0  0  0  0  0  0
  153.4697  144.2073  162.6481 H   0  0  0  0  0  0  0  0  0  0  0  0
  153.9915  142.5380  162.8394 H   0  0  0  0  0  0  0  0  0  0  0  0
  154.1825  143.2426  160.4741 H   0  0  0  0  0  0  0  0  0  0  0  0
  151.1789  143.7520  160.6209 H   0  0  0  0  0  0  0  0  0  0  0  0
  152.4165  144.9706  160.4326 H   0  0  0  0  0  0  0  0  0  0  0  0
  151.3653  144.3928  158.2449 H   0  0  0  0  0  0  0  0  0  0  0  0
  153.0775  144.0448  158.2427 H   0  0  0  0  0  0  0  0  0  0  0  0
  150.8229  142.0218  158.6385 H   0  0  0  0  0  0  0  0  0  0  0  0
  151.8409  142.1677  157.2251 H   0  0  0  0  0  0  0  0  0  0  0  0
  153.8464  141.5715  158.5521 H   0  0  0  0  0  0  0  0  0  0  0  0
  150.7602  140.0063  159.5334 H   0  0  0  0  0  0  0  0  0  0  0  0
  151.2648  137.6718  157.8568 H   0  0  0  0  0  0  0  0  0  0  0  0
  151.3490  137.3640  159.5739 H   0  0  0  0  0  0  0  0  0  0  0  0
  148.9336  138.8613  159.1616 H   0  0  0  0  0  0  0  0  0  0  0  0
  148.9803  137.6902  157.8676 H   0  0  0  0  0  0  0  0  0  0  0  0
  148.5087  133.9335  161.0056 H   0  0  0  0  0  0  0  0  0  0  0  0
  153.6564  140.8731  160.9189 H   0  0  0  0  0  0  0  0  0  0  0  0
  151.9452  141.2235  160.9217 H   0  0  0  0  0  0  0  0  0  0  0  0
  1  2  1  0  0  0  0
  1 18  1  0  0  0  0
  1 19  1  0  0  0  0
  1 20  1  0  0  0  0
  2 17  1  0  0  0  0
  2  3  1  0  0  0  0
  2 21  1  0  0  0  0
  3  4  1  0  0  0  0
  3 22  1  0  0  0  0
  3 23  1  0  0  0  0
  4  5  1  0  0  0  0
  4 24  1  0  0  0  0
  4 25  1  0  0  0  0
  5  6  1  0  0  0  0
  5 26  1  0  0  0  0
  5 27  1  0  0  0  0
  6  7  1  0  0  0  0
  6 17  1  0  0  0  0
  6 28  1  0  0  0  0
  7  8  2  0  0  0  0
  7  9  1  0  0  0  0
  9 10  1  0  0  0  0
  9 29  1  0  0  0  0
 10 11  1  0  0  0  0
 10 30  1  0  0  0  0
 10 31  1  0  0  0  0
 11 32  1  0  0  0  0
 11 33  1  0  0  0  0
 11 12  1  0  0  0  0
 12 16  2  0  0  0  0
 12 13  1  0  0  0  0
 13 14  1  0  0  0  0
 14 15  2  0  0  0  0
 15 16  1  0  0  0  0
 15 34  1  0  0  0  0
 17 35  1  0  0  0  0
 17 36  1  0  0  0  0
M  CHG  1  13  -1
M  END
> <s_m_source_file>
AV-unprocessed.smi

> <i_m_source_file_index>
3032

> <i_lp_mmshare_version>
43012

> <i_f3d_flags>
0

> <s_epik_input>
W0NIM11bQ0BASF0xW0NIMl1bQ0gyXVtDSDJdW0NASF0oW0NIMl0xKUMoPU8pW05IXVtDSDJdW0NIMl1jMm5uW2NIXVtuSF0y

> <s_epik_cmdline>
J2VwaWtfcHl0aG9uJywgJy1waCcsICc3LjAnLCAnLXRuJywgJzgnLCAnLW1hJywgJzIwMCcsICctbWV0YWxfYmluZGluZycsICctaW1hZScsICc8aW5maWxlLm1hZT4nLCAnLW9tYWUnLCAnPG91dGZpbGUubWFlPic=

> <r_lp_tautomer_probability>
0.948284

> <r_epik_Ionization_Penalty>
12.042

> <r_epik_Ionization_Penalty_Charging>
12.042

> <r_epik_Ionization_Penalty_Neutral>
4.36781e-08

> <r_epik_State_Penalty>
4.67286

> <r_epik_Charging_Adjusted_Penalty>
16.7149

> <i_epik_Tot_Q>
-1

> <i_epik_Tot_abs_Q>
1

> <r_epik_Metal_State_Penalty>
0.981637

> <b_epik_Metal_Only>
1

> <s_lp_Force_Field>
OPLS_2005

> <r_lp_Energy>
10.3443

> <b_lp_Chiralities_Consistent>
1

> <s_lp_Variant>
AV-unprocessed.smi:3032-15

> <Gold.Version>
5.8.1

> <Gold.Id.Protein>
6NUR|6NUR_protein|mol2

> <Gold.PLP.Fitness>
49.1583

> <Gold.PLP.PLP>
-34.6204

> <Gold.PLP.part.hbond>
-4.0000

> <Gold.PLP.part.metal>
0.0000

> <Gold.PLP.part.buried>
-5.3014

> <Gold.PLP.part.nonpolar>
-24.9221

> <Gold.PLP.part.repulsive>
0.1590

> <Gold.PLP.ligand.clash>
0.0000

> <Gold.PLP.ligand.torsion>
0.5419

> <Gold.PLP.Chemscore.Hbond>
5.2000

> <Gold.PLP.Chemscore.CHOScore>
0.0000

> <Gold.PLP.Chemscore.Metal>
0.0000

> <Gold.Chemscore.Hbonds>
donor molecule, donor type, donor heavy atom, donor atom, acceptor molecule, acceptor atom, score
      P1  H  6896  6907       L1    16  1.00
      P1  H  6931  6943       L1    13  1.98
      P1  H  6934  6947       L1    13  0.85
      P1  H  7997  8009       L1     8  1.00

> <Gold.PLP.Chemscore.Internal.Correction>
0.0217

> <Gold.Rescore>
     Score         DG    S(hbond)    S(metal)    S(lipo)     H(rot)  DE(clash)    DE(int)     intcor
     17.93     -18.51       2.67        0.00      83.62       2.21       0.01       0.57       ----

> <Gold.Chemscore.Fitness>
17.9309

> <Gold.Chemscore.DG>
-18.5095

> <Gold.Chemscore.ZeroCoef>
-5.4800

> <Gold.Chemscore.Hbond>
2.6694

> <Gold.Chemscore.Metal>
0.0000

> <Gold.Chemscore.Lipo>
83.6244

> <Gold.Chemscore.Internal_Hbond>
0.0000

> <Gold.Chemscore.DEClash>
0.0089

> <Gold.Chemscore.DEInternal>
0.5697

> <Gold.Chemscore.Rot>
2.2149

> <Gold.Chemscore.Internal.Correction>
   9.000000E+99

> <Gold.Chemscore.Hbonds>
donor molecule, donor type, donor heavy atom, donor atom, acceptor molecule, acceptor atom, score
      P1  H  6896  6907       L1    16  0.49
      P1  H  6931  6943       L1    13  0.52
      P1  H  6934  6947       L1    13  0.35
      P1  H  7997  8009       L1     8  0.96

> <Gold.Chemscore.Hbond.Weighted>
-8.9157

> <Gold.Chemscore.Metal.Weighted>
-0.0000

> <Gold.Chemscore.Lipo.Weighted>
-9.7841

> <Gold.Chemscore.Internal_Hbond.Weighted>
0.0000

> <Gold.Chemscore.DEClash.Weighted>
0.0089

> <Gold.Chemscore.DEInternal.Weighted>
0.5697

> <Gold.Chemscore.Rot.Weighted>
5.6702

> <Gold.Chemscore.Internal.Correction.Weighted>
   9.000000E+99

> <Gold.Protein.RotatedTorsions>
[ 6907 6896 6895 6894 ] final  -54.78 input  -60.11 | X-H torsion
[ 7974 7965 7964 7962 ] final   72.52 input  175.53 | X-H torsion
[ 8008 7997 7996 7995 ] final  167.05 input   59.86 | X-H torsion
[ 10167 10162 10161 10158 ] final -170.78 input  -65.29 | X-H torsion
[ 10718 10713 10712 10709 ] final  -46.04 input   66.30 | X-H torsion
[ 10763 10752 10751 10750 ] final  179.57 input  -60.55 | X-H torsion
[ 11005 11000 10999 10996 ] final   97.79 input  -57.11 | X-H torsion

> <Gold.Protein.ActiveResidues>
 VAL166  LYS551  ARG553  GLY616  TRP617  ASP618  TYR619  PRO620  LYS621  CYS622 
 ASP623  PHE694  ASN695  SER759  ASP760  ASP761  ALA762  ILE779  LEU786  VAL792 
 PHE793  MET794  SER795  GLU796  ALA797  LYS798  CYS799  TRP800  GLU811  SER814 

> <Gold.Protein.RotatedAtoms>
  150.8308  134.7560  159.6851 H   0  0  0  0  0  0  0  0  0  0  0  0  # atno 6907 bound_to 6896
  152.4413  134.5582  159.9896 H   0  0  0  0  0  0  0  0  0  0  0  0  # atno 6908 bound_to 6896
  151.5744  133.3348  159.3032 H   0  0  0  0  0  0  0  0  0  0  0  0  # atno 6909 bound_to 6896
  145.7523  139.2765  143.1424 H   0  0  0  0  0  0  0  0  0  0  0  0  # atno 7974 bound_to 7965
  156.1667  140.1627  156.8519 H   0  0  0  0  0  0  0  0  0  0  0  0  # atno 8008 bound_to 7997
  154.5215  140.0777  156.8215 H   0  0  0  0  0  0  0  0  0  0  0  0  # atno 8009 bound_to 7997
  155.3597  140.3394  155.4243 H   0  0  0  0  0  0  0  0  0  0  0  0  # atno 8010 bound_to 7997
  139.5841  144.1357  152.1553 H   0  0  0  0  0  0  0  0  0  0  0  0  # atno 10167 bound_to 10162
  156.2223  130.4167  149.8977 H   0  0  0  0  0  0  0  0  0  0  0  0  # atno 10718 bound_to 10713
  154.5223  135.2794  155.1252 H   0  0  0  0  0  0  0  0  0  0  0  0  # atno 10763 bound_to 10752
  154.2804  135.6286  153.5348 H   0  0  0  0  0  0  0  0  0  0  0  0  # atno 10764 bound_to 10752
  152.9939  135.5650  154.5715 H   0  0  0  0  0  0  0  0  0  0  0  0  # atno 10765 bound_to 10752
  139.8774  134.9018  156.4360 H   0  0  0  0  0  0  0  0  0  0  0  0  # atno 11005 bound_to 11000
  146.0344  140.8226  142.9859 LP  0  0  0  0  0  0  0  0  0  0  0  0  # atno 17320 bound_to 7965
  144.6847  140.2817  143.7291 LP  0  0  0  0  0  0  0  0  0  0  0  0  # atno 17321 bound_to 7965
  140.0916  144.5615  150.7050 LP  0  0  0  0  0  0  0  0  0  0  0  0  # atno 17342 bound_to 10162
  140.7116  143.2509  151.4564 LP  0  0  0  0  0  0  0  0  0  0  0  0  # atno 17343 bound_to 10162
  156.6620  130.8786  151.3549 LP  0  0  0  0  0  0  0  0  0  0  0  0  # atno 17370 bound_to 10713
  157.7093  130.9422  150.1036 LP  0  0  0  0  0  0  0  0  0  0  0  0  # atno 17371 bound_to 10713
  140.9033  133.7764  155.9705 LP  0  0  0  0  0  0  0  0  0  0  0  0  # atno 17394 bound_to 11000
  140.8627  134.2821  157.5227 LP  0  0  0  0  0  0  0  0  0  0  0  0  # atno 17395 bound_to 11000

$$$$
