AV-unprocessed.smi:1548|AV-procd|sdf|6221|dock4
  -GOLD-   22720 6393D 1   1.00000     0.00000
 Structure written by MMmdl.
 45 46  0  0  0  0  0  0  0  0  1 V2000
  146.1105  133.3249  151.0693 C   0  0  0  0  0  0  0  0  0  0  0  0
  146.5532  132.5683  152.3240 C   0  0  0  0  0  0  0  0  0  0  0  0
  147.4962  133.3688  153.0304 O   0  0  0  0  0  0  0  0  0  0  0  0
  148.2709  132.7747  154.0087 C   0  0  0  0  0  0  0  0  0  0  0  0
  148.0866  131.4554  154.2665 N   0  0  0  0  0  0  0  0  0  0  0  0
  148.8450  130.8739  155.2185 C   0  0  0  0  0  0  0  0  0  0  0  0
  149.8232  131.5675  155.9544 C   0  0  0  0  0  0  0  0  0  0  0  0
  150.0153  132.9360  155.6902 C   0  0  0  0  0  0  0  0  0  0  0  0
  149.2172  133.5635  154.7035 C   0  0  0  0  0  0  0  0  0  0  0  0
  149.3522  134.9327  154.3455 N   0  0  0  0  0  0  0  0  0  0  0  0
  149.7267  135.9607  155.1252 C   0  0  0  0  0  0  0  0  0  0  0  0
  149.9670  135.8847  156.3301 O   0  0  0  0  0  0  0  0  0  0  0  0
  149.7843  137.1023  154.4248 N   0  0  0  0  0  0  0  0  0  0  0  0
  150.1369  138.4141  154.9617 C   0  0  0  0  0  0  0  0  0  0  0  0
  151.6593  138.5260  155.1346 C   0  0  0  0  0  0  0  0  0  0  0  0
  152.0537  139.8657  155.7810 C   0  0  0  0  0  0  0  0  0  0  0  0
  151.3319  140.0938  157.0493 N   0  0  0  0  0  0  0  0  0  0  0  0
  152.1328  139.8154  158.5691 S   0  0  0  0  0  0  0  0  0  0  0  0
  151.3227  138.3037  159.2339 C   0  0  0  0  0  0  0  0  0  0  0  0
  153.5398  139.4946  158.2841 O   0  0  0  0  0  0  0  0  0  0  0  0
  151.8076  140.9390  159.4608 O   0  0  0  0  0  0  0  0  0  0  0  0
  149.8640  139.9635  156.9547 C   0  0  0  0  0  0  0  0  0  0  0  0
  149.4518  138.6240  156.3194 C   0  0  0  0  0  0  0  0  0  0  0  0
  145.3755  132.7492  150.5066 H   0  0  0  0  0  0  0  0  0  0  0  0
  146.9572  133.5206  150.4113 H   0  0  0  0  0  0  0  0  0  0  0  0
  145.6581  134.2822  151.3286 H   0  0  0  0  0  0  0  0  0  0  0  0
  145.6845  132.3616  152.9511 H   0  0  0  0  0  0  0  0  0  0  0  0
  146.9997  131.6149  152.0376 H   0  0  0  0  0  0  0  0  0  0  0  0
  148.6714  129.8227  155.3938 H   0  0  0  0  0  0  0  0  0  0  0  0
  150.4169  131.0603  156.7005 H   0  0  0  0  0  0  0  0  0  0  0  0
  150.7777  133.4729  156.2337 H   0  0  0  0  0  0  0  0  0  0  0  0
  149.0755  135.1626  153.4023 H   0  0  0  0  0  0  0  0  0  0  0  0
  149.5631  137.0627  153.4406 H   0  0  0  0  0  0  0  0  0  0  0  0
  149.8016  139.2038  154.2864 H   0  0  0  0  0  0  0  0  0  0  0  0
  152.0262  137.6990  155.7421 H   0  0  0  0  0  0  0  0  0  0  0  0
  152.1511  138.4321  154.1657 H   0  0  0  0  0  0  0  0  0  0  0  0
  153.1305  139.9069  155.9432 H   0  0  0  0  0  0  0  0  0  0  0  0
  151.8149  140.6821  155.0986 H   0  0  0  0  0  0  0  0  0  0  0  0
  151.7646  138.0592  160.1994 H   0  0  0  0  0  0  0  0  0  0  0  0
  151.4787  137.4690  158.5529 H   0  0  0  0  0  0  0  0  0  0  0  0
  150.2575  138.4820  159.3693 H   0  0  0  0  0  0  0  0  0  0  0  0
  149.4082  140.0727  157.9384 H   0  0  0  0  0  0  0  0  0  0  0  0
  149.4846  140.7864  156.3478 H   0  0  0  0  0  0  0  0  0  0  0  0
  148.3684  138.6003  156.1952 H   0  0  0  0  0  0  0  0  0  0  0  0
  149.6978  137.8025  156.9914 H   0  0  0  0  0  0  0  0  0  0  0  0
  1  2  1  0  0  0  0
  1 24  1  0  0  0  0
  1 25  1  0  0  0  0
  1 26  1  0  0  0  0
  2  3  1  0  0  0  0
  2 27  1  0  0  0  0
  2 28  1  0  0  0  0
  3  4  1  0  0  0  0
  4  9  1  0  0  0  0
  4  5  2  0  0  0  0
  5  6  1  0  0  0  0
  6  7  2  0  0  0  0
  6 29  1  0  0  0  0
  7  8  1  0  0  0  0
  7 30  1  0  0  0  0
  8  9  2  0  0  0  0
  8 31  1  0  0  0  0
  9 10  1  0  0  0  0
 10 11  1  0  0  0  0
 10 32  1  0  0  0  0
 11 12  2  0  0  0  0
 11 13  1  0  0  0  0
 13 14  1  0  0  0  0
 13 33  1  0  0  0  0
 14 23  1  0  0  0  0
 14 15  1  0  0  0  0
 14 34  1  0  0  0  0
 15 16  1  0  0  0  0
 15 35  1  0  0  0  0
 15 36  1  0  0  0  0
 16 17  1  0  0  0  0
 16 37  1  0  0  0  0
 16 38  1  0  0  0  0
 17 18  1  0  0  0  0
 17 22  1  0  0  0  0
 18 19  1  0  0  0  0
 18 20  2  0  0  0  0
 18 21  2  0  0  0  0
 19 39  1  0  0  0  0
 19 40  1  0  0  0  0
 19 41  1  0  0  0  0
 22 23  1  0  0  0  0
 22 42  1  0  0  0  0
 22 43  1  0  0  0  0
 23 44  1  0  0  0  0
 23 45  1  0  0  0  0
M  END
> <s_m_source_file>
AV-unprocessed.smi

> <i_m_source_file_index>
1548

> <i_lp_mmshare_version>
43012

> <i_f3d_flags>
0

> <s_epik_input>
W0NIM11bQ0gyXU9jMW5bY0hdW2NIXVtjSF1jMVtOSF1DKD1PKVtOSF1bQ0hdMltDSDJdW0NIMl1OKFMoPU8pKD1PKVtDSDNdKVtDSDJdW0NIMl0y

> <s_epik_cmdline>
J2VwaWtfcHl0aG9uJywgJy1waCcsICc3LjAnLCAnLXRuJywgJzgnLCAnLW1hJywgJzIwMCcsICctbWV0YWxfYmluZGluZycsICctaW1hZScsICc8aW5maWxlLm1hZT4nLCAnLW9tYWUnLCAnPG91dGZpbGUubWFlPic=

> <r_lp_tautomer_probability>
1

> <r_epik_Ionization_Penalty>
0.000113093

> <r_epik_Ionization_Penalty_Charging>
0

> <r_epik_Ionization_Penalty_Neutral>
0.000113093

> <r_epik_State_Penalty>
-0

> <r_epik_Charging_Adjusted_Penalty>
0

> <i_epik_Tot_Q>
0

> <i_epik_Tot_abs_Q>
0

> <r_epik_Metal_State_Penalty>
-0

> <b_epik_Metal_Only>
0

> <s_lp_Force_Field>
OPLS_2005

> <r_lp_Energy>
3.39389

> <b_lp_Chiralities_Consistent>
1

> <s_lp_Variant>
AV-unprocessed.smi:1548-1

> <Gold.Version>
5.8.1

> <Gold.Id.Protein>
6NUR|6NUR_protein|mol2

> <Gold.PLP.Fitness>
42.0280

> <Gold.PLP.PLP>
-34.6886

> <Gold.PLP.part.hbond>
-3.1834

> <Gold.PLP.part.metal>
0.0000

> <Gold.PLP.part.buried>
-4.1066

> <Gold.PLP.part.nonpolar>
-28.3064

> <Gold.PLP.part.repulsive>
0.3448

> <Gold.PLP.ligand.clash>
0.0000

> <Gold.PLP.ligand.torsion>
1.5739

> <Gold.PLP.Chemscore.Hbond>
2.8000

> <Gold.PLP.Chemscore.CHOScore>
0.0000

> <Gold.PLP.Chemscore.Metal>
0.0000

> <Gold.Chemscore.Hbonds>
donor molecule, donor type, donor heavy atom, donor atom, acceptor molecule, acceptor atom, score
      L1  H    10    32       P1  7948  1.00
      L1  H    13    33       P1  7948  1.00
      P1  H  7997  8009       L1    20  1.00

> <Gold.PLP.Chemscore.Internal.Correction>
2.0872

> <Gold.Rescore>
     Score         DG    S(hbond)    S(metal)    S(lipo)     H(rot)  DE(clash)    DE(int)     intcor
     13.91     -17.44       2.65        0.00      58.33       1.45       0.01       3.52       ----

> <Gold.Chemscore.Fitness>
13.9064

> <Gold.Chemscore.DG>
-17.4379

> <Gold.Chemscore.ZeroCoef>
-5.4800

> <Gold.Chemscore.Hbond>
2.6518

> <Gold.Chemscore.Metal>
0.0000

> <Gold.Chemscore.Lipo>
58.3346

> <Gold.Chemscore.Internal_Hbond>
0.0000

> <Gold.Chemscore.DEClash>
0.0106

> <Gold.Chemscore.DEInternal>
3.5208

> <Gold.Chemscore.Rot>
1.4549

> <Gold.Chemscore.Internal.Correction>
   9.000000E+99

> <Gold.Chemscore.Hbonds>
donor molecule, donor type, donor heavy atom, donor atom, acceptor molecule, acceptor atom, score
      L1  H    10    32       P1  7948  0.30
      L1  H    13    33       P1  7948  0.81
      P1  H  7997  8009       L1    20  0.98

> <Gold.Chemscore.Hbond.Weighted>
-8.8572

> <Gold.Chemscore.Metal.Weighted>
-0.0000

> <Gold.Chemscore.Lipo.Weighted>
-6.8251

> <Gold.Chemscore.Internal_Hbond.Weighted>
0.0000

> <Gold.Chemscore.DEClash.Weighted>
0.0106

> <Gold.Chemscore.DEInternal.Weighted>
3.5208

> <Gold.Chemscore.Rot.Weighted>
3.7244

> <Gold.Chemscore.Internal.Correction.Weighted>
   9.000000E+99

> <Gold.Protein.RotatedTorsions>
[ 6907 6896 6895 6894 ] final -151.78 input  -60.11 | X-H torsion
[ 7974 7965 7964 7962 ] final -142.59 input  175.53 | X-H torsion
[ 8008 7997 7996 7995 ] final  164.29 input   59.86 | X-H torsion
[ 10167 10162 10161 10158 ] final  132.25 input  -65.29 | X-H torsion
[ 10718 10713 10712 10709 ] final  -92.08 input   66.30 | X-H torsion
[ 10763 10752 10751 10750 ] final  -83.69 input  -60.55 | X-H torsion
[ 11005 11000 10999 10996 ] final  -65.58 input  -57.11 | X-H torsion

> <Gold.Protein.ActiveResidues>
 VAL166  LYS551  ARG553  GLY616  TRP617  ASP618  TYR619  PRO620  LYS621  CYS622 
 ASP623  PHE694  ASN695  SER759  ASP760  ASP761  ALA762  ILE779  LEU786  VAL792 
 PHE793  MET794  SER795  GLU796  ALA797  LYS798  CYS799  TRP800  GLU811  SER814 

> <Gold.Protein.RotatedAtoms>
  151.2181  133.4518  159.2599 H   0  0  0  0  0  0  0  0  0  0  0  0  # atno 6907 bound_to 6896
  151.0912  134.9917  159.8413 H   0  0  0  0  0  0  0  0  0  0  0  0  # atno 6908 bound_to 6896
  152.5434  134.2114  159.8804 H   0  0  0  0  0  0  0  0  0  0  0  0  # atno 6909 bound_to 6896
  144.8432  140.5940  143.5438 H   0  0  0  0  0  0  0  0  0  0  0  0  # atno 7974 bound_to 7965
  156.1891  140.1700  156.8127 H   0  0  0  0  0  0  0  0  0  0  0  0  # atno 8008 bound_to 7997
  154.5450  140.0729  156.8605 H   0  0  0  0  0  0  0  0  0  0  0  0  # atno 8009 bound_to 7997
  155.3140  140.3369  155.4245 H   0  0  0  0  0  0  0  0  0  0  0  0  # atno 8010 bound_to 7997
  139.5348  144.6670  151.4824 H   0  0  0  0  0  0  0  0  0  0  0  0  # atno 10167 bound_to 10162
  155.9999  130.4973  150.5571 H   0  0  0  0  0  0  0  0  0  0  0  0  # atno 10718 bound_to 10713
  154.5907  135.5547  153.7276 H   0  0  0  0  0  0  0  0  0  0  0  0  # atno 10763 bound_to 10752
  153.0116  135.6342  154.1852 H   0  0  0  0  0  0  0  0  0  0  0  0  # atno 10764 bound_to 10752
  154.1793  135.2888  155.3037 H   0  0  0  0  0  0  0  0  0  0  0  0  # atno 10765 bound_to 10752
  141.1458  133.6684  156.6007 H   0  0  0  0  0  0  0  0  0  0  0  0  # atno 11005 bound_to 11000
  145.4650  139.1509  143.3845 LP  0  0  0  0  0  0  0  0  0  0  0  0  # atno 17320 bound_to 7965
  146.2721  140.4782  142.8810 LP  0  0  0  0  0  0  0  0  0  0  0  0  # atno 17321 bound_to 7965
  140.6548  143.8622  150.6823 LP  0  0  0  0  0  0  0  0  0  0  0  0  # atno 17342 bound_to 10162
  140.1998  143.3968  152.1800 LP  0  0  0  0  0  0  0  0  0  0  0  0  # atno 17343 bound_to 10162
  157.3486  131.0729  151.1731 LP  0  0  0  0  0  0  0  0  0  0  0  0  # atno 17370 bound_to 10713
  157.2555  130.6634  149.5951 LP  0  0  0  0  0  0  0  0  0  0  0  0  # atno 17371 bound_to 10713
  140.3690  134.7622  157.4586 LP  0  0  0  0  0  0  0  0  0  0  0  0  # atno 17394 bound_to 11000
  140.0725  134.5843  155.8626 LP  0  0  0  0  0  0  0  0  0  0  0  0  # atno 17395 bound_to 11000

$$$$
