AV-unprocessed.smi:3335|AV-procd|sdf|12842|dock8
  -GOLD-   2272019233D 1   1.00000     0.00000
 Structure written by MMmdl.
 47 48  0  0  0  0  0  0  0  0  2 V2000
  152.1046  141.4964  158.8009 C   0  0  0  0  0  0  0  0  0  0  0  0
  151.3712  141.1623  157.5339 C   0  0  0  0  0  0  0  0  0  0  0  0
  150.2923  141.8720  156.9353 C   0  0  0  0  0  0  0  0  0  0  0  0
  149.8649  141.3081  155.8178 N   0  0  0  0  0  0  0  0  0  0  0  0
  150.6595  140.2268  155.6551 N   0  0  0  0  0  0  0  0  0  0  0  0
  150.4723  139.3363  154.5147 C   0  0  1  0  0  0  0  0  0  0  0  0
  151.6413  138.3356  154.4500 C   0  0  0  0  0  0  0  0  0  0  0  0
  149.0790  138.6502  154.5404 C   0  0  2  0  0  0  0  0  0  0  0  0
  149.1200  137.2662  155.2159 C   0  0  0  0  0  0  0  0  0  0  0  0
  148.5590  138.5131  153.1576 N   0  3  0  0  0  0  0  0  0  0  0  0
  147.0971  138.6849  152.9826 C   0  0  1  0  0  0  0  0  0  0  0  0
  146.7312  140.1801  152.9206 C   0  0  0  0  0  0  0  0  0  0  0  0
  146.6299  137.9787  151.6952 C   0  0  0  0  0  0  0  0  0  0  0  0
  146.9433  138.4630  150.6059 O   0  0  0  0  0  0  0  0  0  0  0  0
  145.8727  136.8624  151.7833 N   0  0  0  0  0  0  0  0  0  0  0  0
  145.3450  136.1646  150.6113 C   0  0  0  0  0  0  0  0  0  0  0  0
  144.3035  135.1819  151.1449 C   0  0  0  0  0  0  0  0  0  0  0  0
  144.7599  134.8974  152.5678 C   0  0  0  0  0  0  0  0  0  0  0  0
  145.4434  136.1916  153.0121 C   0  0  0  0  0  0  0  0  0  0  0  0
  151.5702  140.1110  156.6847 C   0  0  0  0  0  0  0  0  0  0  0  0
  151.4751  142.0488  159.4988 H   0  0  0  0  0  0  0  0  0  0  0  0
  152.9841  142.1101  158.6056 H   0  0  0  0  0  0  0  0  0  0  0  0
  152.4459  140.5999  159.3191 H   0  0  0  0  0  0  0  0  0  0  0  0
  149.8081  142.7742  157.2791 H   0  0  0  0  0  0  0  0  0  0  0  0
  150.5241  139.9590  153.6199 H   0  0  0  0  0  0  0  0  0  0  0  0
  151.6357  137.7657  153.5215 H   0  0  0  0  0  0  0  0  0  0  0  0
  151.6068  137.6272  155.2785 H   0  0  0  0  0  0  0  0  0  0  0  0
  152.6002  138.8527  154.4980 H   0  0  0  0  0  0  0  0  0  0  0  0
  148.4011  139.2849  155.1112 H   0  0  0  0  0  0  0  0  0  0  0  0
  149.4078  137.3388  156.2642 H   0  0  0  0  0  0  0  0  0  0  0  0
  149.8305  136.6042  154.7201 H   0  0  0  0  0  0  0  0  0  0  0  0
  148.1459  136.7782  155.1947 H   0  0  0  0  0  0  0  0  0  0  0  0
  149.0100  139.2062  152.5773 H   0  0  0  0  0  0  0  0  0  0  0  0
  146.6076  138.2298  153.8411 H   0  0  0  0  0  0  0  0  0  0  0  0
  145.6640  140.3254  152.7523 H   0  0  0  0  0  0  0  0  0  0  0  0
  147.2634  140.6866  152.1141 H   0  0  0  0  0  0  0  0  0  0  0  0
  146.9778  140.6952  153.8488 H   0  0  0  0  0  0  0  0  0  0  0  0
  144.9040  136.8487  149.8843 H   0  0  0  0  0  0  0  0  0  0  0  0
  146.1603  135.6296  150.1219 H   0  0  0  0  0  0  0  0  0  0  0  0
  143.3236  135.6611  151.1648 H   0  0  0  0  0  0  0  0  0  0  0  0
  144.2222  134.2800  150.5373 H   0  0  0  0  0  0  0  0  0  0  0  0
  143.9400  134.6047  153.2247 H   0  0  0  0  0  0  0  0  0  0  0  0
  145.4870  134.0840  152.5597 H   0  0  0  0  0  0  0  0  0  0  0  0
  146.2774  135.9663  153.6774 H   0  0  0  0  0  0  0  0  0  0  0  0
  144.7382  136.8284  153.5470 H   0  0  0  0  0  0  0  0  0  0  0  0
  152.2801  139.2979  156.7279 H   0  0  0  0  0  0  0  0  0  0  0  0
  148.8201  137.5993  152.8156 H   0  0  0  0  0  0  0  0  0  0  0  0
  1  2  1  0  0  0  0
  1 21  1  0  0  0  0
  1 22  1  0  0  0  0
  1 23  1  0  0  0  0
  2 20  2  0  0  0  0
  2  3  1  0  0  0  0
  3  4  2  0  0  0  0
  3 24  1  0  0  0  0
  4  5  1  0  0  0  0
  5  6  1  0  0  0  0
  5 20  1  0  0  0  0
  6  7  1  0  0  0  0
  6  8  1  0  0  0  0
  6 25  1  0  0  0  0
  7 26  1  0  0  0  0
  7 27  1  0  0  0  0
  7 28  1  0  0  0  0
  8  9  1  0  0  0  0
  8 10  1  0  0  0  0
  8 29  1  0  0  0  0
  9 30  1  0  0  0  0
  9 31  1  0  0  0  0
  9 32  1  0  0  0  0
 10 11  1  0  0  0  0
 10 33  1  0  0  0  0
 10 47  1  0  0  0  0
 11 12  1  0  0  0  0
 11 13  1  0  0  0  0
 11 34  1  0  0  0  0
 12 35  1  0  0  0  0
 12 36  1  0  0  0  0
 12 37  1  0  0  0  0
 13 14  2  0  0  0  0
 13 15  1  0  0  0  0
 15 19  1  0  0  0  0
 15 16  1  0  0  0  0
 16 17  1  0  0  0  0
 16 38  1  0  0  0  0
 16 39  1  0  0  0  0
 17 18  1  0  0  0  0
 17 40  1  0  0  0  0
 17 41  1  0  0  0  0
 18 19  1  0  0  0  0
 18 42  1  0  0  0  0
 18 43  1  0  0  0  0
 19 44  1  0  0  0  0
 19 45  1  0  0  0  0
 20 46  1  0  0  0  0
M  CHG  1  10   1
M  END
> <s_m_source_file>
AV-unprocessed.smi

> <i_m_source_file_index>
3335

> <i_lp_mmshare_version>
43012

> <i_f3d_flags>
0

> <s_epik_input>
W0NIM11jMVtjSF1ubihbY0hdMSlbQ0BIXShbQ0gzXSlbQ0BIXShbQ0gzXSlbTkhdW0NASF0oW0NIM10pQyg9TylOMltDSDJdW0NIMl1bQ0gyXVtDSDJdMg==

> <s_epik_cmdline>
J2VwaWtfcHl0aG9uJywgJy1waCcsICc3LjAnLCAnLXRuJywgJzgnLCAnLW1hJywgJzIwMCcsICctbWV0YWxfYmluZGluZycsICctaW1hZScsICc8aW5maWxlLm1hZT4nLCAnLW9tYWUnLCAnPG91dGZpbGUubWFlPic=

> <r_lp_tautomer_probability>
1

> <r_epik_Ionization_Penalty>
0.14175

> <r_epik_Ionization_Penalty_Charging>
0.141731

> <r_epik_Ionization_Penalty_Neutral>
1.91261e-05

> <r_epik_State_Penalty>
0.131043

> <r_epik_Charging_Adjusted_Penalty>
0.272773

> <i_epik_Tot_Q>
1

> <i_epik_Tot_abs_Q>
1

> <r_epik_Metal_State_Penalty>
0.131408

> <b_epik_Metal_Only>
0

> <s_lp_Force_Field>
OPLS_2005

> <r_lp_Energy>
36.2431

> <b_lp_Chiralities_Consistent>
1

> <s_lp_Variant>
AV-unprocessed.smi:3335-6

> <Gold.Version>
5.8.1

> <Gold.Id.Protein>
6NUR|6NUR_protein|mol2

> <Gold.PLP.Fitness>
46.4617

> <Gold.PLP.PLP>
-35.0222

> <Gold.PLP.part.hbond>
-3.0000

> <Gold.PLP.part.metal>
0.0000

> <Gold.PLP.part.buried>
-1.0369

> <Gold.PLP.part.nonpolar>
-32.9286

> <Gold.PLP.part.repulsive>
0.9030

> <Gold.PLP.ligand.clash>
0.0000

> <Gold.PLP.ligand.torsion>
1.8339

> <Gold.PLP.Chemscore.Hbond>
4.0000

> <Gold.PLP.Chemscore.CHOScore>
1.0000

> <Gold.PLP.Chemscore.Metal>
0.0000

> <Gold.Chemscore.Hbonds>
donor molecule, donor type, donor heavy atom, donor atom, acceptor molecule, acceptor atom, score
      L1  H    10    33       P1  7957  1.00
      L1  H    10    47       P1  7948  2.00
      P1  H  7954  7966       L1    14  0.89
      L1  C     3    24       P1  8028  0.54

> <Gold.PLP.Chemscore.Internal.Correction>
0.1073

> <Gold.Rescore>
     Score         DG    S(hbond)    S(metal)    S(lipo)     H(rot)  DE(clash)    DE(int)     intcor
     16.41     -20.52       2.83        0.00      84.41       1.68       2.27       1.84       ----

> <Gold.Chemscore.Fitness>
16.4112

> <Gold.Chemscore.DG>
-20.5154

> <Gold.Chemscore.ZeroCoef>
-5.4800

> <Gold.Chemscore.Hbond>
2.8308

> <Gold.Chemscore.Metal>
0.0000

> <Gold.Chemscore.Lipo>
84.4063

> <Gold.Chemscore.Internal_Hbond>
0.0000

> <Gold.Chemscore.DEClash>
2.2654

> <Gold.Chemscore.DEInternal>
1.8388

> <Gold.Chemscore.Rot>
1.6778

> <Gold.Chemscore.Internal.Correction>
   9.000000E+99

> <Gold.Chemscore.Hbonds>
donor molecule, donor type, donor heavy atom, donor atom, acceptor molecule, acceptor atom, score
      L1  H    10    33       P1  7957  1.00
      L1  H    10    47       P1  7948  1.00
      P1  H  7954  7966       L1    14  0.78

> <Gold.Chemscore.Hbond.Weighted>
-9.4550

> <Gold.Chemscore.Metal.Weighted>
-0.0000

> <Gold.Chemscore.Lipo.Weighted>
-9.8755

> <Gold.Chemscore.Internal_Hbond.Weighted>
0.0000

> <Gold.Chemscore.DEClash.Weighted>
2.2654

> <Gold.Chemscore.DEInternal.Weighted>
1.8388

> <Gold.Chemscore.Rot.Weighted>
4.2952

> <Gold.Chemscore.Internal.Correction.Weighted>
   9.000000E+99

> <Gold.Protein.RotatedTorsions>
[ 6907 6896 6895 6894 ] final  157.76 input  -60.11 | X-H torsion
[ 7974 7965 7964 7962 ] final   39.25 input  175.53 | X-H torsion
[ 8008 7997 7996 7995 ] final   12.05 input   59.86 | X-H torsion
[ 10167 10162 10161 10158 ] final -156.01 input  -65.29 | X-H torsion
[ 10718 10713 10712 10709 ] final  112.74 input   66.30 | X-H torsion
[ 10763 10752 10751 10750 ] final  -41.60 input  -60.55 | X-H torsion
[ 11005 11000 10999 10996 ] final  102.00 input  -57.11 | X-H torsion

> <Gold.Protein.ActiveResidues>
 VAL166  LYS551  ARG553  GLY616  TRP617  ASP618  TYR619  PRO620  LYS621  CYS622 
 ASP623  PHE694  ASN695  SER759  ASP760  ASP761  ALA762  ILE779  LEU786  VAL792 
 PHE793  MET794  SER795  GLU796  ALA797  LYS798  CYS799  TRP800  GLU811  SER814 

> <Gold.Protein.RotatedAtoms>
  152.0104  133.3859  159.4216 H   0  0  0  0  0  0  0  0  0  0  0  0  # atno 6907 bound_to 6896
  150.6900  134.3737  159.5012 H   0  0  0  0  0  0  0  0  0  0  0  0  # atno 6908 bound_to 6896
  152.1497  134.8998  160.0599 H   0  0  0  0  0  0  0  0  0  0  0  0  # atno 6909 bound_to 6896
  146.0999  139.5674  142.9421 H   0  0  0  0  0  0  0  0  0  0  0  0  # atno 7974 bound_to 7965
  154.8152  140.2875  155.5825 H   0  0  0  0  0  0  0  0  0  0  0  0  # atno 8008 bound_to 7997
  156.2992  140.2560  156.2979 H   0  0  0  0  0  0  0  0  0  0  0  0  # atno 8009 bound_to 7997
  154.9401  140.0381  157.2082 H   0  0  0  0  0  0  0  0  0  0  0  0  # atno 8010 bound_to 7997
  139.6884  143.9461  152.2373 H   0  0  0  0  0  0  0  0  0  0  0  0  # atno 10167 bound_to 10162
  157.6376  131.0972  150.6940 H   0  0  0  0  0  0  0  0  0  0  0  0  # atno 10718 bound_to 10713
  153.9652  135.6735  153.4746 H   0  0  0  0  0  0  0  0  0  0  0  0  # atno 10763 bound_to 10752
  153.0819  135.4919  154.8517 H   0  0  0  0  0  0  0  0  0  0  0  0  # atno 10764 bound_to 10752
  154.7250  135.3125  154.8945 H   0  0  0  0  0  0  0  0  0  0  0  0  # atno 10765 bound_to 10752
  139.8775  134.9206  156.4992 H   0  0  0  0  0  0  0  0  0  0  0  0  # atno 11005 bound_to 11000
  145.5876  141.0374  143.2088 LP  0  0  0  0  0  0  0  0  0  0  0  0  # atno 17320 bound_to 7965
  144.7424  139.7412  143.7305 LP  0  0  0  0  0  0  0  0  0  0  0  0  # atno 17321 bound_to 7965
  139.9271  144.6764  150.8401 LP  0  0  0  0  0  0  0  0  0  0  0  0  # atno 17342 bound_to 10162
  140.7675  143.3334  151.2360 LP  0  0  0  0  0  0  0  0  0  0  0  0  # atno 17343 bound_to 10162
  156.7269  130.4697  149.5509 LP  0  0  0  0  0  0  0  0  0  0  0  0  # atno 17370 bound_to 10713
  156.1628  130.6385  151.0740 LP  0  0  0  0  0  0  0  0  0  0  0  0  # atno 17371 bound_to 10713
  140.8602  133.8065  155.9257 LP  0  0  0  0  0  0  0  0  0  0  0  0  # atno 17394 bound_to 11000
  140.9057  134.2323  157.5016 LP  0  0  0  0  0  0  0  0  0  0  0  0  # atno 17395 bound_to 11000

$$$$
