AV-unprocessed.smi:1068|AV-procd|sdf|4674|dock2
  -GOLD-   22720 3183D 1   1.00000     0.00000
 Structure written by MMmdl.
 51 52  0  0  0  0  0  0  0  0  1 V2000
  143.7782  132.1268  148.8663 C   0  0  0  0  0  0  0  0  0  0  0  0
  144.9145  132.2351  149.9105 C   0  0  0  0  0  0  0  0  0  0  0  0
  144.5936  131.1871  151.0019 C   0  0  0  0  0  0  0  0  0  0  0  0
  146.2601  131.8925  149.2452 C   0  0  0  0  0  0  0  0  0  0  0  0
  144.9856  133.6512  150.5077 C   0  0  0  0  0  0  0  0  0  0  0  0
  144.1015  134.5499  150.0549 N   0  0  0  0  0  0  0  0  0  0  0  0
  144.2340  135.8253  150.4743 C   0  0  0  0  0  0  0  0  0  0  0  0
  145.2765  136.2250  151.3338 C   0  0  0  0  0  0  0  0  0  0  0  0
  145.3620  137.5899  151.7188 N   0  0  0  0  0  0  0  0  0  0  0  0
  146.4584  138.3197  151.9839 C   0  0  0  0  0  0  0  0  0  0  0  0
  147.6143  137.8985  151.9817 O   0  0  0  0  0  0  0  0  0  0  0  0
  146.1368  139.5917  152.2620 N   0  0  0  0  0  0  0  0  0  0  0  0
  147.0909  140.6550  152.5797 C   0  0  0  0  0  0  0  0  0  0  0  0
  147.8958  140.4386  153.8718 C   0  0  0  0  0  0  0  0  0  0  0  0
  147.4228  140.8243  154.9400 O   0  0  0  0  0  0  0  0  0  0  0  0
  149.0938  139.8357  153.7818 N   0  0  0  0  0  0  0  0  0  0  0  0
  149.9827  139.5351  154.8990 C   0  0  0  0  0  0  0  0  0  0  0  0
  150.4854  140.8354  155.5596 C   0  0  0  0  0  0  0  0  0  0  0  0
  151.4907  140.5422  156.6850 C   0  0  0  0  0  0  0  0  0  0  0  0
  152.6658  139.6928  156.1767 C   0  0  0  0  0  0  0  0  0  0  0  0
  152.1691  138.3932  155.5239 C   0  0  0  0  0  0  0  0  0  0  0  0
  151.1646  138.6837  154.3972 C   0  0  0  0  0  0  0  0  0  0  0  0
  146.1851  135.2071  151.7113 C   0  0  0  0  0  0  0  0  0  0  0  0
  146.0401  133.9348  151.2834 N   0  0  0  0  0  0  0  0  0  0  0  0
  143.6910  131.1115  148.4778 H   0  0  0  0  0  0  0  0  0  0  0  0
  143.9484  132.7776  148.0079 H   0  0  0  0  0  0  0  0  0  0  0  0
  142.8137  132.3955  149.2989 H   0  0  0  0  0  0  0  0  0  0  0  0
  143.6573  131.4182  151.5115 H   0  0  0  0  0  0  0  0  0  0  0  0
  145.3769  131.1311  151.7586 H   0  0  0  0  0  0  0  0  0  0  0  0
  144.4965  130.1877  150.5766 H   0  0  0  0  0  0  0  0  0  0  0  0
  146.2462  130.8926  148.8101 H   0  0  0  0  0  0  0  0  0  0  0  0
  147.0782  131.9266  149.9657 H   0  0  0  0  0  0  0  0  0  0  0  0
  146.4971  132.5959  148.4462 H   0  0  0  0  0  0  0  0  0  0  0  0
  143.5027  136.5339  150.1131 H   0  0  0  0  0  0  0  0  0  0  0  0
  144.4767  138.0634  151.8265 H   0  0  0  0  0  0  0  0  0  0  0  0
  145.1609  139.8496  152.2453 H   0  0  0  0  0  0  0  0  0  0  0  0
  147.7932  140.7345  151.7498 H   0  0  0  0  0  0  0  0  0  0  0  0
  146.5758  141.6153  152.6386 H   0  0  0  0  0  0  0  0  0  0  0  0
  149.4055  139.5485  152.8655 H   0  0  0  0  0  0  0  0  0  0  0  0
  149.4358  138.9497  155.6410 H   0  0  0  0  0  0  0  0  0  0  0  0
  150.9581  141.4713  154.8097 H   0  0  0  0  0  0  0  0  0  0  0  0
  149.6457  141.4038  155.9608 H   0  0  0  0  0  0  0  0  0  0  0  0
  151.8620  141.4774  157.1049 H   0  0  0  0  0  0  0  0  0  0  0  0
  150.9857  140.0177  157.4972 H   0  0  0  0  0  0  0  0  0  0  0  0
  153.2462  140.2669  155.4534 H   0  0  0  0  0  0  0  0  0  0  0  0
  153.3411  139.4605  157.0008 H   0  0  0  0  0  0  0  0  0  0  0  0
  153.0147  137.8281  155.1308 H   0  0  0  0  0  0  0  0  0  0  0  0
  151.6987  137.7612  156.2782 H   0  0  0  0  0  0  0  0  0  0  0  0
  150.7983  137.7441  153.9814 H   0  0  0  0  0  0  0  0  0  0  0  0
  151.6755  139.2022  153.5845 H   0  0  0  0  0  0  0  0  0  0  0  0
  147.0478  135.3893  152.3324 H   0  0  0  0  0  0  0  0  0  0  0  0
  1  2  1  0  0  0  0
  1 25  1  0  0  0  0
  1 26  1  0  0  0  0
  1 27  1  0  0  0  0
  2  3  1  0  0  0  0
  2  4  1  0  0  0  0
  2  5  1  0  0  0  0
  3 28  1  0  0  0  0
  3 29  1  0  0  0  0
  3 30  1  0  0  0  0
  4 31  1  0  0  0  0
  4 32  1  0  0  0  0
  4 33  1  0  0  0  0
  5 24  1  0  0  0  0
  5  6  2  0  0  0  0
  6  7  1  0  0  0  0
  7  8  2  0  0  0  0
  7 34  1  0  0  0  0
  8  9  1  0  0  0  0
  8 23  1  0  0  0  0
  9 10  1  0  0  0  0
  9 35  1  0  0  0  0
 10 11  2  0  0  0  0
 10 12  1  0  0  0  0
 12 13  1  0  0  0  0
 12 36  1  0  0  0  0
 13 14  1  0  0  0  0
 13 37  1  0  0  0  0
 13 38  1  0  0  0  0
 14 15  2  0  0  0  0
 14 16  1  0  0  0  0
 16 17  1  0  0  0  0
 16 39  1  0  0  0  0
 17 22  1  0  0  0  0
 17 18  1  0  0  0  0
 17 40  1  0  0  0  0
 18 19  1  0  0  0  0
 18 41  1  0  0  0  0
 18 42  1  0  0  0  0
 19 20  1  0  0  0  0
 19 43  1  0  0  0  0
 19 44  1  0  0  0  0
 20 21  1  0  0  0  0
 20 45  1  0  0  0  0
 20 46  1  0  0  0  0
 21 22  1  0  0  0  0
 21 47  1  0  0  0  0
 21 48  1  0  0  0  0
 22 49  1  0  0  0  0
 22 50  1  0  0  0  0
 23 24  2  0  0  0  0
 23 51  1  0  0  0  0
M  END
> <s_m_source_file>
AV-unprocessed.smi

> <i_m_source_file_index>
1068

> <i_lp_mmshare_version>
43012

> <i_f3d_flags>
0

> <s_epik_input>
W0NIM11DKFtDSDNdKShbQ0gzXSljMW5bY0hdYyhbY0hdbjEpW05IXUMoPU8pW05IXVtDSDJdQyg9TylbTkhdW0NIXTJbQ0gyXVtDSDJdW0NIMl1bQ0gyXVtDSDJdMg==

> <s_epik_cmdline>
J2VwaWtfcHl0aG9uJywgJy1waCcsICc3LjAnLCAnLXRuJywgJzgnLCAnLW1hJywgJzIwMCcsICctbWV0YWxfYmluZGluZycsICctaW1hZScsICc8aW5maWxlLm1hZT4nLCAnLW9tYWUnLCAnPG91dGZpbGUubWFlPic=

> <r_lp_tautomer_probability>
1

> <r_epik_Ionization_Penalty>
2.47974e-05

> <r_epik_Ionization_Penalty_Charging>
0

> <r_epik_Ionization_Penalty_Neutral>
2.47974e-05

> <r_epik_State_Penalty>
-0

> <r_epik_Charging_Adjusted_Penalty>
0

> <i_epik_Tot_Q>
0

> <i_epik_Tot_abs_Q>
0

> <r_epik_Metal_State_Penalty>
-0

> <b_epik_Metal_Only>
0

> <s_lp_Force_Field>
OPLS_2005

> <r_lp_Energy>
3.00881

> <b_lp_Chiralities_Consistent>
1

> <s_lp_Variant>
AV-unprocessed.smi:1068-1

> <Gold.Version>
5.8.1

> <Gold.Id.Protein>
6NUR|6NUR_protein|mol2

> <Gold.PLP.Fitness>
44.7967

> <Gold.PLP.PLP>
-32.2405

> <Gold.PLP.part.hbond>
-3.7351

> <Gold.PLP.part.metal>
0.0000

> <Gold.PLP.part.buried>
7.3781

> <Gold.PLP.part.nonpolar>
-42.3017

> <Gold.PLP.part.repulsive>
8.1530

> <Gold.PLP.ligand.clash>
0.0000

> <Gold.PLP.ligand.torsion>
0.7684

> <Gold.PLP.Chemscore.Hbond>
2.7176

> <Gold.PLP.Chemscore.CHOScore>
1.9179

> <Gold.PLP.Chemscore.Metal>
0.0000

> <Gold.Chemscore.Hbonds>
donor molecule, donor type, donor heavy atom, donor atom, acceptor molecule, acceptor atom, score
      L1  H     9    35       P1 10171  0.07
      L1  H    12    36       P1 10175  1.00
      L1  H    16    39       P1  7957  0.93
      P1  H  7954  7966       L1    11  0.70
      L1  C     7    34       P1 10171  0.92
      L1  C    23    51       P1  7948  1.00

> <Gold.PLP.Chemscore.Internal.Correction>
0.1864

> <Gold.Rescore>
     Score         DG    S(hbond)    S(metal)    S(lipo)     H(rot)  DE(clash)    DE(int)     intcor
     17.31     -24.31       2.63        0.00     121.82       1.64       6.16       0.83       ----

> <Gold.Chemscore.Fitness>
17.3137

> <Gold.Chemscore.DG>
-24.3090

> <Gold.Chemscore.ZeroCoef>
-5.4800

> <Gold.Chemscore.Hbond>
2.6296

> <Gold.Chemscore.Metal>
0.0000

> <Gold.Chemscore.Lipo>
121.8167

> <Gold.Chemscore.Internal_Hbond>
0.0000

> <Gold.Chemscore.DEClash>
6.1609

> <Gold.Chemscore.DEInternal>
0.8344

> <Gold.Chemscore.Rot>
1.6431

> <Gold.Chemscore.Internal.Correction>
   9.000000E+99

> <Gold.Chemscore.Hbonds>
donor molecule, donor type, donor heavy atom, donor atom, acceptor molecule, acceptor atom, score
      L1  H     9    35       P1 10171  0.09
      L1  H    12    36       P1 10175  0.93
      L1  H    16    39       P1  7957  0.90
      P1  H  7954  7966       L1    11  0.35

> <Gold.Chemscore.Hbond.Weighted>
-8.7828

> <Gold.Chemscore.Metal.Weighted>
-0.0000

> <Gold.Chemscore.Lipo.Weighted>
-14.2526

> <Gold.Chemscore.Internal_Hbond.Weighted>
0.0000

> <Gold.Chemscore.DEClash.Weighted>
6.1609

> <Gold.Chemscore.DEInternal.Weighted>
0.8344

> <Gold.Chemscore.Rot.Weighted>
4.2063

> <Gold.Chemscore.Internal.Correction.Weighted>
   9.000000E+99

> <Gold.Protein.RotatedTorsions>
[ 6907 6896 6895 6894 ] final   21.92 input  -60.11 | X-H torsion
[ 7974 7965 7964 7962 ] final   91.59 input  175.53 | X-H torsion
[ 8008 7997 7996 7995 ] final  -21.55 input   59.86 | X-H torsion
[ 10167 10162 10161 10158 ] final   62.67 input  -65.29 | X-H torsion
[ 10718 10713 10712 10709 ] final  133.86 input   66.30 | X-H torsion
[ 10763 10752 10751 10750 ] final -150.46 input  -60.55 | X-H torsion
[ 11005 11000 10999 10996 ] final  171.06 input  -57.11 | X-H torsion

> <Gold.Protein.ActiveResidues>
 VAL166  LYS551  ARG553  GLY616  TRP617  ASP618  TYR619  PRO620  LYS621  CYS622 
 ASP623  PHE694  ASN695  SER759  ASP760  ASP761  ALA762  ILE779  LEU786  VAL792 
 PHE793  MET794  SER795  GLU796  ALA797  LYS798  CYS799  TRP800  GLU811  SER814 

> <Gold.Protein.RotatedAtoms>
  151.9193  135.0305  160.0520 H   0  0  0  0  0  0  0  0  0  0  0  0  # atno 6907 bound_to 6896
  152.2213  133.4981  159.5172 H   0  0  0  0  0  0  0  0  0  0  0  0  # atno 6908 bound_to 6896
  150.7000  134.1255  159.4093 H   0  0  0  0  0  0  0  0  0  0  0  0  # atno 6909 bound_to 6896
  145.5036  139.2276  143.2764 H   0  0  0  0  0  0  0  0  0  0  0  0  # atno 7974 bound_to 7965
  154.4698  140.2031  156.0023 H   0  0  0  0  0  0  0  0  0  0  0  0  # atno 8008 bound_to 7997
  156.0991  140.3246  155.7889 H   0  0  0  0  0  0  0  0  0  0  0  0  # atno 8009 bound_to 7997
  155.4827  140.0540  157.2955 H   0  0  0  0  0  0  0  0  0  0  0  0  # atno 8010 bound_to 7997
  140.1414  144.4550  150.6809 H   0  0  0  0  0  0  0  0  0  0  0  0  # atno 10167 bound_to 10162
  157.4731  131.1081  150.9778 H   0  0  0  0  0  0  0  0  0  0  0  0  # atno 10718 bound_to 10713
  154.8117  135.3284  154.7286 H   0  0  0  0  0  0  0  0  0  0  0  0  # atno 10763 bound_to 10752
  153.7934  135.6909  153.4872 H   0  0  0  0  0  0  0  0  0  0  0  0  # atno 10764 bound_to 10752
  153.1902  135.4554  155.0085 H   0  0  0  0  0  0  0  0  0  0  0  0  # atno 10765 bound_to 10752
  140.3150  134.7485  157.4020 H   0  0  0  0  0  0  0  0  0  0  0  0  # atno 11005 bound_to 11000
  146.2211  140.5838  142.9017 LP  0  0  0  0  0  0  0  0  0  0  0  0  # atno 17320 bound_to 7965
  144.7766  140.5753  143.6634 LP  0  0  0  0  0  0  0  0  0  0  0  0  # atno 17321 bound_to 7965
  140.6758  143.2304  151.5511 LP  0  0  0  0  0  0  0  0  0  0  0  0  # atno 17342 bound_to 10162
  139.5470  144.2495  152.1461 LP  0  0  0  0  0  0  0  0  0  0  0  0  # atno 17343 bound_to 10162
  157.0536  130.5797  149.5374 LP  0  0  0  0  0  0  0  0  0  0  0  0  # atno 17370 bound_to 10713
  156.0083  130.5172  150.7904 LP  0  0  0  0  0  0  0  0  0  0  0  0  # atno 17371 bound_to 10713
  140.0991  134.5496  155.8370 LP  0  0  0  0  0  0  0  0  0  0  0  0  # atno 17394 bound_to 11000
  141.2099  133.6689  156.6475 LP  0  0  0  0  0  0  0  0  0  0  0  0  # atno 17395 bound_to 11000

$$$$
