AV-unprocessed.smi:148|AV-procd|sdf|1211|dock3
  -GOLD-   2262018383D 1   1.00000     0.00000
 Structure written by MMmdl.
 63 67  0  0  0  0  0  0  0  0  1 V2000
  147.7331  131.4013  152.3310 O   0  0  0  0  0  0  0  0  0  0  0  0
  147.3897  132.7674  152.2282 C   0  0  0  0  0  0  0  0  0  0  0  0
  146.0174  133.0364  152.8898 C   0  0  1  0  0  0  0  0  0  0  0  0
  146.1278  134.1952  153.9118 C   0  0  0  0  0  0  0  0  0  0  0  0
  146.3263  133.7426  155.2772 N   0  0  0  0  0  0  0  0  0  0  0  0
  145.4539  132.9954  156.0362 C   0  0  0  0  0  0  0  0  0  0  0  0
  145.8671  132.7142  157.2417 N   0  0  0  0  0  0  0  0  0  0  0  0
  147.1150  133.3206  157.3218 C   0  0  0  0  0  0  0  0  0  0  0  0
  148.1113  133.4207  158.3336 C   0  0  0  0  0  0  0  0  0  0  0  0
  148.0163  132.8734  159.5661 N   0  0  0  0  0  0  0  0  0  0  0  0
  148.1064  131.4165  159.4738 C   0  0  0  0  0  0  0  0  0  0  0  0
  148.2618  130.7776  160.8591 C   0  0  0  0  0  0  0  0  0  0  0  0
  147.1194  131.2209  161.7777 C   0  0  0  0  0  0  0  0  0  0  0  0
  147.0716  132.7529  161.8517 C   0  0  0  0  0  0  0  0  0  0  0  0
  146.9531  133.3982  160.4441 C   0  0  1  0  0  0  0  0  0  0  0  0
  146.9112  134.9644  160.4793 C   0  0  2  0  0  0  0  0  0  0  0  0
  147.9964  135.6004  161.3796 C   0  0  0  0  0  0  0  0  0  0  0  0
  147.2740  136.4961  162.3963 C   0  0  0  0  0  0  0  0  0  0  0  0
  145.8200  136.0278  162.3952 C   0  0  0  0  0  0  0  0  0  0  0  0
  145.5879  135.6123  160.9439 C   0  0  2  0  0  0  0  0  0  0  0  0
  144.4311  134.8194  160.7678 O   0  0  0  0  0  0  0  0  0  0  0  0
  149.2454  134.1053  158.0464 N   0  0  0  0  0  0  0  0  0  0  0  0
  149.3960  134.6732  156.8461 C   0  0  0  0  0  0  0  0  0  0  0  0
  148.5545  134.6715  155.8096 N   0  0  0  0  0  0  0  0  0  0  0  0
  147.4176  133.9739  156.0949 C   0  0  0  0  0  0  0  0  0  0  0  0
  144.8672  133.2501  151.8663 C   0  0  2  0  0  0  0  0  0  0  0  0
  144.4636  132.0126  151.0622 C   0  0  0  0  0  0  0  0  0  0  0  0
  144.5500  132.4683  149.6067 C   0  0  0  0  0  0  0  0  0  0  0  0
  144.3650  133.8721  149.6818 O   0  0  0  0  0  0  0  0  0  0  0  0
  145.1222  134.3193  150.7940 C   0  0  0  0  0  0  0  0  0  0  0  0
  148.1571  131.1356  151.5293 H   0  0  0  0  0  0  0  0  0  0  0  0
  148.1766  133.3607  152.6933 H   0  0  0  0  0  0  0  0  0  0  0  0
  147.3837  133.0236  151.1699 H   0  0  0  0  0  0  0  0  0  0  0  0
  145.7529  132.1372  153.4486 H   0  0  0  0  0  0  0  0  0  0  0  0
  146.9610  134.8514  153.6579 H   0  0  0  0  0  0  0  0  0  0  0  0
  145.2298  134.8134  153.8805 H   0  0  0  0  0  0  0  0  0  0  0  0
  144.4981  132.6568  155.6634 H   0  0  0  0  0  0  0  0  0  0  0  0
  147.2100  131.0276  158.9880 H   0  0  0  0  0  0  0  0  0  0  0  0
  148.9545  131.1341  158.8479 H   0  0  0  0  0  0  0  0  0  0  0  0
  148.2743  129.6911  160.7712 H   0  0  0  0  0  0  0  0  0  0  0  0
  149.2194  131.0684  161.2930 H   0  0  0  0  0  0  0  0  0  0  0  0
  146.1703  130.8392  161.3996 H   0  0  0  0  0  0  0  0  0  0  0  0
  147.2522  130.7999  162.7746 H   0  0  0  0  0  0  0  0  0  0  0  0
  146.2306  133.0370  162.4816 H   0  0  0  0  0  0  0  0  0  0  0  0
  147.9670  133.1055  162.3627 H   0  0  0  0  0  0  0  0  0  0  0  0
  146.0079  133.0562  160.0224 H   0  0  0  0  0  0  0  0  0  0  0  0
  147.0606  135.3261  159.4617 H   0  0  0  0  0  0  0  0  0  0  0  0
  148.5846  134.8439  161.8977 H   0  0  0  0  0  0  0  0  0  0  0  0
  148.7039  136.1828  160.7880 H   0  0  0  0  0  0  0  0  0  0  0  0
  147.7242  136.4479  163.3881 H   0  0  0  0  0  0  0  0  0  0  0  0
  147.3215  137.5340  162.0643 H   0  0  0  0  0  0  0  0  0  0  0  0
  145.7050  135.1777  163.0674 H   0  0  0  0  0  0  0  0  0  0  0  0
  145.1302  136.8057  162.7238 H   0  0  0  0  0  0  0  0  0  0  0  0
  145.4358  136.5234  160.3624 H   0  0  0  0  0  0  0  0  0  0  0  0
  143.8706  134.9346  161.5196 H   0  0  0  0  0  0  0  0  0  0  0  0
  150.3240  135.2044  156.6939 H   0  0  0  0  0  0  0  0  0  0  0  0
  143.9688  133.5464  152.4088 H   0  0  0  0  0  0  0  0  0  0  0  0
  145.0808  131.1349  151.2518 H   0  0  0  0  0  0  0  0  0  0  0  0
  143.4363  131.7373  151.3048 H   0  0  0  0  0  0  0  0  0  0  0  0
  145.5369  132.2540  149.1928 H   0  0  0  0  0  0  0  0  0  0  0  0
  143.8015  131.9951  148.9709 H   0  0  0  0  0  0  0  0  0  0  0  0
  144.8097  135.3138  151.1129 H   0  0  0  0  0  0  0  0  0  0  0  0
  146.1706  134.3737  150.5018 H   0  0  0  0  0  0  0  0  0  0  0  0
  1  2  1  0  0  0  0
  1 31  1  0  0  0  0
  2  3  1  0  0  0  0
  2 32  1  0  0  0  0
  2 33  1  0  0  0  0
  3  4  1  0  0  0  0
  3 26  1  0  0  0  0
  3 34  1  0  0  0  0
  4  5  1  0  0  0  0
  4 35  1  0  0  0  0
  4 36  1  0  0  0  0
  5 25  1  0  0  0  0
  5  6  1  0  0  0  0
  6  7  2  0  0  0  0
  6 37  1  0  0  0  0
  7  8  1  0  0  0  0
  8 25  2  0  0  0  0
  8  9  1  0  0  0  0
  9 10  1  0  0  0  0
  9 22  2  0  0  0  0
 10 15  1  0  0  0  0
 10 11  1  0  0  0  0
 11 12  1  0  0  0  0
 11 38  1  0  0  0  0
 11 39  1  0  0  0  0
 12 13  1  0  0  0  0
 12 40  1  0  0  0  0
 12 41  1  0  0  0  0
 13 14  1  0  0  0  0
 13 42  1  0  0  0  0
 13 43  1  0  0  0  0
 14 15  1  0  0  0  0
 14 44  1  0  0  0  0
 14 45  1  0  0  0  0
 15 16  1  0  0  0  0
 15 46  1  0  0  0  0
 16 20  1  0  0  0  0
 16 17  1  0  0  0  0
 16 47  1  0  0  0  0
 17 18  1  0  0  0  0
 17 48  1  0  0  0  0
 17 49  1  0  0  0  0
 18 19  1  0  0  0  0
 18 50  1  0  0  0  0
 18 51  1  0  0  0  0
 19 20  1  0  0  0  0
 19 52  1  0  0  0  0
 19 53  1  0  0  0  0
 20 21  1  0  0  0  0
 20 54  1  0  0  0  0
 21 55  1  0  0  0  0
 22 23  1  0  0  0  0
 23 24  2  0  0  0  0
 23 56  1  0  0  0  0
 24 25  1  0  0  0  0
 26 30  1  0  0  0  0
 26 27  1  0  0  0  0
 26 57  1  0  0  0  0
 27 28  1  0  0  0  0
 27 58  1  0  0  0  0
 27 59  1  0  0  0  0
 28 29  1  0  0  0  0
 28 60  1  0  0  0  0
 28 61  1  0  0  0  0
 29 30  1  0  0  0  0
 30 62  1  0  0  0  0
 30 63  1  0  0  0  0
M  END
> <s_m_source_file>
AV-unprocessed.smi

> <i_m_source_file_index>
148

> <i_lp_mmshare_version>
43012

> <i_f3d_flags>
0

> <s_epik_input>
W0NIMl0xT1tDSDJdW0NIMl1bQ0BIXTFbQ0BIXShbQ0gyXVtPSF0pW0NIMl1uKFtjSF1uMiljKGMyMyluW2NIXW5jM040W0NIMl1bQ0gyXVtDSDJdW0NIMl1bQ0BIXTRbQ0BASF01W0NIMl1bQ0gyXVtDSDJdW0NASF01W09IXQ==

> <s_epik_cmdline>
J2VwaWtfcHl0aG9uJywgJy1waCcsICc3LjAnLCAnLXRuJywgJzgnLCAnLW1hJywgJzIwMCcsICctbWV0YWxfYmluZGluZycsICctaW1hZScsICc8aW5maWxlLm1hZT4nLCAnLW9tYWUnLCAnPG91dGZpbGUubWFlPic=

> <r_lp_tautomer_probability>
1

> <r_epik_Ionization_Penalty>
0.00556303

> <r_epik_Ionization_Penalty_Charging>
0

> <r_epik_Ionization_Penalty_Neutral>
0.00556303

> <r_epik_State_Penalty>
0.00401767

> <r_epik_Charging_Adjusted_Penalty>
0.00401767

> <i_epik_Tot_Q>
0

> <i_epik_Tot_abs_Q>
0

> <r_epik_Metal_State_Penalty>
-0

> <b_epik_Metal_Only>
0

> <s_lp_Force_Field>
OPLS_2005

> <r_lp_Energy>
71.509

> <b_lp_Chiralities_Consistent>
1

> <s_lp_Variant>
AV-unprocessed.smi:148-10

> <Gold.Version>
5.8.1

> <Gold.Id.Protein>
6NUR|6NUR_protein|mol2

> <Gold.PLP.Fitness>
42.2349

> <Gold.PLP.PLP>
-36.2422

> <Gold.PLP.part.hbond>
-1.9178

> <Gold.PLP.part.metal>
0.0000

> <Gold.PLP.part.buried>
-7.6055

> <Gold.PLP.part.nonpolar>
-28.3852

> <Gold.PLP.part.repulsive>
0.2909

> <Gold.PLP.ligand.clash>
0.0000

> <Gold.PLP.ligand.torsion>
1.7663

> <Gold.PLP.Chemscore.Hbond>
2.0000

> <Gold.PLP.Chemscore.CHOScore>
1.0000

> <Gold.PLP.Chemscore.Metal>
0.0000

> <Gold.Chemscore.Hbonds>
donor molecule, donor type, donor heavy atom, donor atom, acceptor molecule, acceptor atom, score
      L1  H     1    31       P1 10747  0.98
      P1  H  6896  6908       L1    22  1.00
      L1  C     6    37       P1 10957  1.00

> <Gold.PLP.Chemscore.Internal.Correction>
0.5252

> <Gold.Rescore>
     Score         DG    S(hbond)    S(metal)    S(lipo)     H(rot)  DE(clash)    DE(int)     intcor
     13.58     -15.21       1.84        0.00     103.37       3.32       0.04       1.59       ----

> <Gold.Chemscore.Fitness>
13.5786

> <Gold.Chemscore.DG>
-15.2065

> <Gold.Chemscore.ZeroCoef>
-5.4800

> <Gold.Chemscore.Hbond>
1.8358

> <Gold.Chemscore.Metal>
0.0000

> <Gold.Chemscore.Lipo>
103.3747

> <Gold.Chemscore.Internal_Hbond>
0.0000

> <Gold.Chemscore.DEClash>
0.0406

> <Gold.Chemscore.DEInternal>
1.5874

> <Gold.Chemscore.Rot>
3.3203

> <Gold.Chemscore.Internal.Correction>
   9.000000E+99

> <Gold.Chemscore.Hbonds>
donor molecule, donor type, donor heavy atom, donor atom, acceptor molecule, acceptor atom, score
      L1  H     1    31       P1 10747  0.91
      P1  H  6896  6908       L1    22  0.95

> <Gold.Chemscore.Hbond.Weighted>
-6.1317

> <Gold.Chemscore.Metal.Weighted>
-0.0000

> <Gold.Chemscore.Lipo.Weighted>
-12.0948

> <Gold.Chemscore.Internal_Hbond.Weighted>
0.0000

> <Gold.Chemscore.DEClash.Weighted>
0.0406

> <Gold.Chemscore.DEInternal.Weighted>
1.5874

> <Gold.Chemscore.Rot.Weighted>
8.5000

> <Gold.Chemscore.Internal.Correction.Weighted>
   9.000000E+99

> <Gold.Protein.RotatedTorsions>
[ 6907 6896 6895 6894 ] final  146.50 input  -60.11 | X-H torsion
[ 7974 7965 7964 7962 ] final   84.61 input  175.53 | X-H torsion
[ 8008 7997 7996 7995 ] final   59.94 input   59.86 | X-H torsion
[ 10167 10162 10161 10158 ] final   23.20 input  -65.29 | X-H torsion
[ 10718 10713 10712 10709 ] final  -44.03 input   66.30 | X-H torsion
[ 10763 10752 10751 10750 ] final   54.94 input  -60.55 | X-H torsion
[ 11005 11000 10999 10996 ] final  149.13 input  -57.11 | X-H torsion

> <Gold.Protein.ActiveResidues>
 VAL166  LYS551  ARG553  GLY616  TRP617  ASP618  TYR619  PRO620  LYS621  CYS622 
 ASP623  PHE694  ASN695  SER759  ASP760  ASP761  ALA762  ILE779  LEU786  VAL792 
 PHE793  MET794  SER795  GLU796  ALA797  LYS798  CYS799  TRP800  GLU811  SER814 

> <Gold.Protein.RotatedAtoms>
  152.1671  133.4619  159.4889 H   0  0  0  0  0  0  0  0  0  0  0  0  # atno 6907 bound_to 6896
  150.6914  134.2000  159.4327 H   0  0  0  0  0  0  0  0  0  0  0  0  # atno 6908 bound_to 6896
  151.9905  134.9981  160.0612 H   0  0  0  0  0  0  0  0  0  0  0  0  # atno 6909 bound_to 6896
  145.5965  139.2346  143.2270 H   0  0  0  0  0  0  0  0  0  0  0  0  # atno 7974 bound_to 7965
  155.5743  140.3490  155.4523 H   0  0  0  0  0  0  0  0  0  0  0  0  # atno 8008 bound_to 7997
  156.0421  140.1298  157.0170 H   0  0  0  0  0  0  0  0  0  0  0  0  # atno 8009 bound_to 7997
  154.4396  140.1022  156.6237 H   0  0  0  0  0  0  0  0  0  0  0  0  # atno 8010 bound_to 7997
  140.5288  143.9878  150.6454 H   0  0  0  0  0  0  0  0  0  0  0  0  # atno 10167 bound_to 10162
  156.2428  130.4181  149.8740 H   0  0  0  0  0  0  0  0  0  0  0  0  # atno 10718 bound_to 10713
  152.9810  135.5728  154.4986 H   0  0  0  0  0  0  0  0  0  0  0  0  # atno 10763 bound_to 10752
  154.4509  135.2778  155.1784 H   0  0  0  0  0  0  0  0  0  0  0  0  # atno 10764 bound_to 10752
  154.3412  135.6229  153.5651 H   0  0  0  0  0  0  0  0  0  0  0  0  # atno 10765 bound_to 10752
  140.1019  134.8978  157.1808 H   0  0  0  0  0  0  0  0  0  0  0  0  # atno 11005 bound_to 11000
  146.1608  140.6791  142.9278 LP  0  0  0  0  0  0  0  0  0  0  0  0  # atno 17320 bound_to 7965
  144.7328  140.4722  143.6925 LP  0  0  0  0  0  0  0  0  0  0  0  0  # atno 17321 bound_to 7965
  140.3247  143.3115  152.0749 LP  0  0  0  0  0  0  0  0  0  0  0  0  # atno 17342 bound_to 10162
  139.4947  144.6550  151.6592 LP  0  0  0  0  0  0  0  0  0  0  0  0  # atno 17343 bound_to 10162
  156.6316  130.8668  151.3496 LP  0  0  0  0  0  0  0  0  0  0  0  0  # atno 17370 bound_to 10713
  157.7182  130.9525  150.1337 LP  0  0  0  0  0  0  0  0  0  0  0  0  # atno 17371 bound_to 10713
  140.3208  134.2918  155.7246 LP  0  0  0  0  0  0  0  0  0  0  0  0  # atno 17394 bound_to 11000
  141.2108  133.7709  156.9909 LP  0  0  0  0  0  0  0  0  0  0  0  0  # atno 17395 bound_to 11000

$$$$
