AV-unprocessed.smi:1976|AV-procd|sdf|7990|dock1
  -GOLD-   2272010173D 1   1.00000     0.00000
 Structure written by MMmdl.
 45 47  0  0  0  0  0  0  0  0  2 V2000
  149.2942  134.9449  157.9068 O   0  0  0  0  0  0  0  0  0  0  0  0
  148.6504  135.9663  158.1495 C   0  0  0  0  0  0  0  0  0  0  0  0
  148.5983  136.5439  159.5708 C   0  0  0  0  0  0  0  0  0  0  0  0
  147.9674  135.6335  160.5409 N   0  0  0  0  0  0  0  0  0  0  0  0
  147.7728  134.2980  160.1371 C   0  0  0  0  0  0  0  0  0  0  0  0
  147.1975  133.3703  160.9261 C   0  0  0  0  0  0  0  0  0  0  0  0
  147.0581  131.9213  160.4859 C   0  0  0  0  0  0  0  0  0  0  0  0
  146.6002  131.1597  161.4795 F   0  0  0  0  0  0  0  0  0  0  0  0
  146.2007  131.8375  159.4697 F   0  0  0  0  0  0  0  0  0  0  0  0
  148.2285  131.4254  160.0832 F   0  0  0  0  0  0  0  0  0  0  0  0
  146.8045  133.8053  162.2521 C   0  0  0  0  0  0  0  0  0  0  0  0
  146.9960  135.0754  162.6590 C   0  0  0  0  0  0  0  0  0  0  0  0
  147.6090  136.0766  161.7832 C   0  0  0  0  0  0  0  0  0  0  0  0
  147.7908  137.2401  162.1431 O   0  0  0  0  0  0  0  0  0  0  0  0
  147.9452  136.6247  157.2182 N   0  0  0  0  0  0  0  0  0  0  0  0
  147.8675  136.2418  155.8129 C   0  0  1  0  0  0  0  0  0  0  0  0
  146.9217  135.0570  155.5376 C   0  0  0  0  0  0  0  0  0  0  0  0
  146.2286  135.3904  154.2014 C   0  0  0  0  0  0  0  0  0  0  0  0
  146.8545  136.6440  153.7391 N   0  3  1  0  0  0  0  0  0  0  0  0
  146.0680  137.4929  152.8178 C   0  0  0  0  0  0  0  0  0  0  0  0
  146.9205  138.7051  152.3911 C   0  0  0  0  0  0  0  0  0  0  0  0
  147.4823  139.4689  153.6084 C   0  0  0  0  0  0  0  0  0  0  0  0
  148.2098  138.5159  154.5768 C   0  0  0  0  0  0  0  0  0  0  0  0
  147.2732  137.3571  154.9550 C   0  0  2  0  0  0  0  0  0  0  0  0
  149.6072  136.7994  159.9007 H   0  0  0  0  0  0  0  0  0  0  0  0
  148.0629  137.4935  159.5310 H   0  0  0  0  0  0  0  0  0  0  0  0
  148.1333  134.0716  159.1442 H   0  0  0  0  0  0  0  0  0  0  0  0
  146.3454  133.1016  162.9308 H   0  0  0  0  0  0  0  0  0  0  0  0
  146.6895  135.3644  163.6537 H   0  0  0  0  0  0  0  0  0  0  0  0
  147.4402  137.4523  157.5005 H   0  0  0  0  0  0  0  0  0  0  0  0
  148.8645  136.0006  155.4376 H   0  0  0  0  0  0  0  0  0  0  0  0
  147.4744  134.1183  155.4860 H   0  0  0  0  0  0  0  0  0  0  0  0
  146.1735  134.9535  156.3250 H   0  0  0  0  0  0  0  0  0  0  0  0
  146.3520  134.6009  153.4596 H   0  0  0  0  0  0  0  0  0  0  0  0
  145.1599  135.5408  154.3627 H   0  0  0  0  0  0  0  0  0  0  0  0
  145.7755  136.9112  151.9429 H   0  0  0  0  0  0  0  0  0  0  0  0
  145.1509  137.8233  153.3081 H   0  0  0  0  0  0  0  0  0  0  0  0
  147.7493  138.3615  151.7703 H   0  0  0  0  0  0  0  0  0  0  0  0
  146.3287  139.3768  151.7684 H   0  0  0  0  0  0  0  0  0  0  0  0
  148.1594  140.2572  153.2778 H   0  0  0  0  0  0  0  0  0  0  0  0
  146.6646  139.9640  154.1338 H   0  0  0  0  0  0  0  0  0  0  0  0
  149.1160  138.1306  154.1073 H   0  0  0  0  0  0  0  0  0  0  0  0
  148.5246  139.0563  155.4701 H   0  0  0  0  0  0  0  0  0  0  0  0
  146.3829  137.7546  155.4485 H   0  0  0  0  0  0  0  0  0  0  0  0
  147.7020  136.3803  153.2570 H   0  0  0  0  0  0  0  0  0  0  0  0
  1  2  2  0  0  0  0
  2  3  1  0  0  0  0
  2 15  1  0  0  0  0
  3  4  1  0  0  0  0
  3 25  1  0  0  0  0
  3 26  1  0  0  0  0
  4 13  1  0  0  0  0
  4  5  1  0  0  0  0
  5  6  2  0  0  0  0
  5 27  1  0  0  0  0
  6  7  1  0  0  0  0
  6 11  1  0  0  0  0
  7  8  1  0  0  0  0
  7  9  1  0  0  0  0
  7 10  1  0  0  0  0
 11 12  2  0  0  0  0
 11 28  1  0  0  0  0
 12 13  1  0  0  0  0
 12 29  1  0  0  0  0
 13 14  2  0  0  0  0
 15 16  1  0  0  0  0
 15 30  1  0  0  0  0
 16 24  1  0  0  0  0
 16 17  1  0  0  0  0
 16 31  1  0  0  0  0
 17 18  1  0  0  0  0
 17 32  1  0  0  0  0
 17 33  1  0  0  0  0
 18 19  1  0  0  0  0
 18 34  1  0  0  0  0
 18 35  1  0  0  0  0
 19 24  1  0  0  0  0
 19 20  1  0  0  0  0
 19 45  1  0  0  0  0
 20 21  1  0  0  0  0
 20 36  1  0  0  0  0
 20 37  1  0  0  0  0
 21 22  1  0  0  0  0
 21 38  1  0  0  0  0
 21 39  1  0  0  0  0
 22 23  1  0  0  0  0
 22 40  1  0  0  0  0
 22 41  1  0  0  0  0
 23 24  1  0  0  0  0
 23 42  1  0  0  0  0
 23 43  1  0  0  0  0
 24 44  1  0  0  0  0
M  CHG  1  19   1
M  END
> <s_m_source_file>
AV-unprocessed.smi

> <i_m_source_file_index>
1976

> <i_lp_mmshare_version>
43012

> <i_f3d_flags>
0

> <s_epik_input>
W0NIMl0xW0NIMl1bQ0gyXVtDSDJdW0NASF0oTjEyKVtDQEBIXShbQ0gyXVtDSDJdMilbTkhdQyg9TylbQ0gyXW4zW2NIXWMoQyhGKShGKUYpW2NIXVtjSF1jMz1P

> <s_epik_cmdline>
J2VwaWtfcHl0aG9uJywgJy1waCcsICc3LjAnLCAnLXRuJywgJzgnLCAnLW1hJywgJzIwMCcsICctbWV0YWxfYmluZGluZycsICctaW1hZScsICc8aW5maWxlLm1hZT4nLCAnLW9tYWUnLCAnPG91dGZpbGUubWFlPic=

> <r_lp_tautomer_probability>
1

> <r_epik_Ionization_Penalty>
0.00171506

> <r_epik_Ionization_Penalty_Charging>
0.00171498

> <r_epik_Ionization_Penalty_Neutral>
7.81737e-08

> <r_epik_State_Penalty>
0.00115937

> <r_epik_Charging_Adjusted_Penalty>
0.00287436

> <i_epik_Tot_Q>
1

> <i_epik_Tot_abs_Q>
1

> <r_epik_Metal_State_Penalty>
-0

> <b_epik_Metal_Only>
0

> <s_lp_Force_Field>
OPLS_2005

> <r_lp_Energy>
46.2407

> <b_lp_Chiralities_Consistent>
1

> <s_lp_Variant>
AV-unprocessed.smi:1976-8

> <Gold.Version>
5.8.1

> <Gold.Id.Protein>
6NUR|6NUR_protein|mol2

> <Gold.PLP.Fitness>
46.5443

> <Gold.PLP.PLP>
-35.0096

> <Gold.PLP.part.hbond>
-3.8433

> <Gold.PLP.part.metal>
0.0000

> <Gold.PLP.part.buried>
-2.8733

> <Gold.PLP.part.nonpolar>
-28.6622

> <Gold.PLP.part.repulsive>
0.0000

> <Gold.PLP.ligand.clash>
0.3887

> <Gold.PLP.ligand.torsion>
0.4514

> <Gold.PLP.Chemscore.Hbond>
4.2311

> <Gold.PLP.Chemscore.CHOScore>
0.0000

> <Gold.PLP.Chemscore.Metal>
0.0000

> <Gold.Chemscore.Hbonds>
donor molecule, donor type, donor heavy atom, donor atom, acceptor molecule, acceptor atom, score
      L1  H    19    45       P1  7948  2.00
      P1  H  6896  6907       L1     1  0.75
      P1  H  6931  6943       L1    14  0.98
      P1  H  6934  6947       L1    14  0.28

> <Gold.PLP.Chemscore.Internal.Correction>
0.1330

> <Gold.Rescore>
     Score         DG    S(hbond)    S(metal)    S(lipo)     H(rot)  DE(clash)    DE(int)     intcor
     17.61     -19.61       3.16        0.00      65.04       1.58       0.12       1.88       ----

> <Gold.Chemscore.Fitness>
17.6131

> <Gold.Chemscore.DG>
-19.6051

> <Gold.Chemscore.ZeroCoef>
-5.4800

> <Gold.Chemscore.Hbond>
3.1642

> <Gold.Chemscore.Metal>
0.0000

> <Gold.Chemscore.Lipo>
65.0353

> <Gold.Chemscore.Internal_Hbond>
0.0000

> <Gold.Chemscore.DEClash>
0.1151

> <Gold.Chemscore.DEInternal>
1.8769

> <Gold.Chemscore.Rot>
1.5830

> <Gold.Chemscore.Internal.Correction>
   9.000000E+99

> <Gold.Chemscore.Hbonds>
donor molecule, donor type, donor heavy atom, donor atom, acceptor molecule, acceptor atom, score
      L1  H    19    45       P1  7948  0.99
      P1  H  6896  6907       L1     1  0.61
      P1  H  6931  6943       L1    14  0.92
      P1  H  6934  6947       L1    14  0.28

> <Gold.Chemscore.Hbond.Weighted>
-10.5683

> <Gold.Chemscore.Metal.Weighted>
-0.0000

> <Gold.Chemscore.Lipo.Weighted>
-7.6091

> <Gold.Chemscore.Internal_Hbond.Weighted>
0.0000

> <Gold.Chemscore.DEClash.Weighted>
0.1151

> <Gold.Chemscore.DEInternal.Weighted>
1.8769

> <Gold.Chemscore.Rot.Weighted>
4.0524

> <Gold.Chemscore.Internal.Correction.Weighted>
   9.000000E+99

> <Gold.Protein.RotatedTorsions>
[ 6907 6896 6895 6894 ] final  -78.26 input  -60.11 | X-H torsion
[ 7974 7965 7964 7962 ] final  105.45 input  175.53 | X-H torsion
[ 8008 7997 7996 7995 ] final  -51.56 input   59.86 | X-H torsion
[ 10167 10162 10161 10158 ] final  103.20 input  -65.29 | X-H torsion
[ 10718 10713 10712 10709 ] final  -91.00 input   66.30 | X-H torsion
[ 10763 10752 10751 10750 ] final   64.56 input  -60.55 | X-H torsion
[ 11005 11000 10999 10996 ] final  -33.76 input  -57.11 | X-H torsion

> <Gold.Protein.ActiveResidues>
 VAL166  LYS551  ARG553  GLY616  TRP617  ASP618  TYR619  PRO620  LYS621  CYS622 
 ASP623  PHE694  ASN695  SER759  ASP760  ASP761  ALA762  ILE779  LEU786  VAL792 
 PHE793  MET794  SER795  GLU796  ALA797  LYS798  CYS799  TRP800  GLU811  SER814 

> <Gold.Protein.RotatedAtoms>
  150.6977  134.4299  159.5243 H   0  0  0  0  0  0  0  0  0  0  0  0  # atno 6907 bound_to 6896
  152.2027  134.8570  160.0515 H   0  0  0  0  0  0  0  0  0  0  0  0  # atno 6908 bound_to 6896
  151.9484  133.3624  159.4028 H   0  0  0  0  0  0  0  0  0  0  0  0  # atno 6909 bound_to 6896
  145.3195  139.2517  143.3720 H   0  0  0  0  0  0  0  0  0  0  0  0  # atno 7974 bound_to 7965
  154.4086  140.1245  156.4849 H   0  0  0  0  0  0  0  0  0  0  0  0  # atno 8008 bound_to 7997
  155.7048  140.3494  155.4929 H   0  0  0  0  0  0  0  0  0  0  0  0  # atno 8009 bound_to 7997
  155.9353  140.1077  157.1089 H   0  0  0  0  0  0  0  0  0  0  0  0  # atno 8010 bound_to 7997
  139.7284  144.7042  151.0762 H   0  0  0  0  0  0  0  0  0  0  0  0  # atno 10167 bound_to 10162
  155.9991  130.4931  150.5408 H   0  0  0  0  0  0  0  0  0  0  0  0  # atno 10718 bound_to 10713
  153.0061  135.5388  154.6530 H   0  0  0  0  0  0  0  0  0  0  0  0  # atno 10763 bound_to 10752
  154.5757  135.2845  155.0785 H   0  0  0  0  0  0  0  0  0  0  0  0  # atno 10764 bound_to 10752
  154.1933  135.6496  153.5119 H   0  0  0  0  0  0  0  0  0  0  0  0  # atno 10765 bound_to 10752
  140.9661  133.7136  156.1448 H   0  0  0  0  0  0  0  0  0  0  0  0  # atno 11005 bound_to 11000
  146.3088  140.3749  142.8678 LP  0  0  0  0  0  0  0  0  0  0  0  0  # atno 17320 bound_to 7965
  144.8951  140.7573  143.5902 LP  0  0  0  0  0  0  0  0  0  0  0  0  # atno 17321 bound_to 7965
  140.7767  143.5076  150.9693 LP  0  0  0  0  0  0  0  0  0  0  0  0  # atno 17342 bound_to 10162
  139.8763  143.7128  152.3161 LP  0  0  0  0  0  0  0  0  0  0  0  0  # atno 17343 bound_to 10162
  157.3345  131.0705  151.1836 LP  0  0  0  0  0  0  0  0  0  0  0  0  # atno 17370 bound_to 10713
  157.2705  130.6702  149.6017 LP  0  0  0  0  0  0  0  0  0  0  0  0  # atno 17371 bound_to 10713
  140.7397  134.4164  157.5556 LP  0  0  0  0  0  0  0  0  0  0  0  0  # atno 17394 bound_to 11000
  139.8895  134.8828  156.2417 LP  0  0  0  0  0  0  0  0  0  0  0  0  # atno 17395 bound_to 11000

$$$$
