AV-unprocessed.smi:2919|AV-procd|sdf|11192|dock10
  -GOLD-   2272016 83D 1   1.00000     0.00000
 Structure written by MMmdl.
 34 36  0  0  0  0  0  0  0  0  1 V2000
  152.2178  137.9604  154.8366 C   0  0  0  0  0  0  0  0  0  0  0  0
  151.6459  139.2575  155.3810 C   0  0  0  0  0  0  0  0  0  0  0  0
  152.4481  139.9153  156.2466 N   0  0  0  0  0  0  0  0  0  0  0  0
  152.0541  141.0672  156.7916 N   0  0  0  0  0  0  0  0  0  0  0  0
  150.8451  141.6021  156.4939 C   0  0  0  0  0  0  0  0  0  0  0  0
  150.5009  142.8200  157.1094 N   0  0  0  0  0  0  0  0  0  0  0  0
  150.8053  143.0828  158.5120 C   0  0  2  0  0  0  0  0  0  0  0  0
  150.4591  144.5133  158.9458 C   0  0  0  0  0  0  0  0  0  0  0  0
  151.8025  145.0140  159.4903 C   0  0  1  0  0  0  0  0  0  0  0  0
  152.2014  144.3101  160.7945 C   0  0  0  0  0  0  0  0  0  0  0  0
  152.5999  142.9229  160.2914 C   0  0  0  0  0  0  0  0  0  0  0  0
  152.3181  143.0391  158.7875 C   0  0  2  0  0  0  0  0  0  0  0  0
  152.6863  144.3925  158.5744 O   0  0  0  0  0  0  0  0  0  0  0  0
  149.9532  140.9660  155.5917 C   0  0  0  0  0  0  0  0  0  0  0  0
  148.6507  141.5475  155.2727 C   0  0  0  0  0  0  0  0  0  0  0  0
  147.6195  142.0078  155.0200 N   0  0  0  0  0  0  0  0  0  0  0  0
  150.3682  139.7417  155.0096 C   0  0  0  0  0  0  0  0  0  0  0  0
  149.4735  138.9865  154.0299 C   0  0  0  0  0  0  0  0  0  0  0  0
  152.3097  138.0100  153.7514 H   0  0  0  0  0  0  0  0  0  0  0  0
  151.5731  137.1205  155.0958 H   0  0  0  0  0  0  0  0  0  0  0  0
  153.2087  137.7575  155.2452 H   0  0  0  0  0  0  0  0  0  0  0  0
  149.8717  143.4513  156.6341 H   0  0  0  0  0  0  0  0  0  0  0  0
  150.2984  142.3425  159.1328 H   0  0  0  0  0  0  0  0  0  0  0  0
  150.1462  145.1264  158.0993 H   0  0  0  0  0  0  0  0  0  0  0  0
  149.6676  144.5444  159.6954 H   0  0  0  0  0  0  0  0  0  0  0  0
  151.8866  146.1004  159.5285 H   0  0  0  0  0  0  0  0  0  0  0  0
  153.0528  144.8066  161.2613 H   0  0  0  0  0  0  0  0  0  0  0  0
  151.3835  144.2814  161.5154 H   0  0  0  0  0  0  0  0  0  0  0  0
  153.6601  142.7417  160.4717 H   0  0  0  0  0  0  0  0  0  0  0  0
  152.0313  142.1201  160.7625 H   0  0  0  0  0  0  0  0  0  0  0  0
  152.8691  142.3166  158.1841 H   0  0  0  0  0  0  0  0  0  0  0  0
  148.5331  138.7163  154.5113 H   0  0  0  0  0  0  0  0  0  0  0  0
  149.9213  138.0683  153.6542 H   0  0  0  0  0  0  0  0  0  0  0  0
  149.2471  139.6133  153.1666 H   0  0  0  0  0  0  0  0  0  0  0  0
  1  2  1  0  0  0  0
  1 19  1  0  0  0  0
  1 20  1  0  0  0  0
  1 21  1  0  0  0  0
  2 17  1  0  0  0  0
  2  3  2  0  0  0  0
  3  4  1  0  0  0  0
  4  5  2  0  0  0  0
  5  6  1  0  0  0  0
  5 14  1  0  0  0  0
  6  7  1  0  0  0  0
  6 22  1  0  0  0  0
  7 12  1  0  0  0  0
  7  8  1  0  0  0  0
  7 23  1  0  0  0  0
  8  9  1  0  0  0  0
  8 24  1  0  0  0  0
  8 25  1  0  0  0  0
  9 13  1  0  0  0  0
  9 10  1  0  0  0  0
  9 26  1  0  0  0  0
 10 11  1  0  0  0  0
 10 27  1  0  0  0  0
 10 28  1  0  0  0  0
 11 12  1  0  0  0  0
 11 29  1  0  0  0  0
 11 30  1  0  0  0  0
 12 13  1  0  0  0  0
 12 31  1  0  0  0  0
 14 15  1  0  0  0  0
 14 17  2  0  0  0  0
 15 16  3  0  0  0  0
 17 18  1  0  0  0  0
 18 32  1  0  0  0  0
 18 33  1  0  0  0  0
 18 34  1  0  0  0  0
M  END
> <s_m_source_file>
AV-unprocessed.smi

> <i_m_source_file_index>
2919

> <i_lp_mmshare_version>
43012

> <i_f3d_flags>
0

> <s_epik_input>
W0NIM11jMW5uYyhjKEMjTiljMVtDSDNdKVtOSF1bQ0BIXShbQ0gyXVtDQEBIXTIzKVtDQEBIXShPMylbQ0gyXVtDSDJdMg==

> <s_epik_cmdline>
J2VwaWtfcHl0aG9uJywgJy1waCcsICc3LjAnLCAnLXRuJywgJzgnLCAnLW1hJywgJzIwMCcsICctbWV0YWxfYmluZGluZycsICctaW1hZScsICc8aW5maWxlLm1hZT4nLCAnLW9tYWUnLCAnPG91dGZpbGUubWFlPic=

> <r_lp_tautomer_probability>
1

> <r_epik_Ionization_Penalty>
0.00143865

> <r_epik_Ionization_Penalty_Charging>
0

> <r_epik_Ionization_Penalty_Neutral>
0.00143865

> <r_epik_State_Penalty>
-0

> <r_epik_Charging_Adjusted_Penalty>
0

> <i_epik_Tot_Q>
0

> <i_epik_Tot_abs_Q>
0

> <r_epik_Metal_State_Penalty>
-0

> <b_epik_Metal_Only>
0

> <s_lp_Force_Field>
OPLS_2005

> <r_lp_Energy>
49.0133

> <b_lp_Chiralities_Consistent>
1

> <s_lp_Variant>
AV-unprocessed.smi:2919-1

> <Gold.Version>
5.8.1

> <Gold.Id.Protein>
6NUR|6NUR_protein|mol2

> <Gold.PLP.Fitness>
43.5642

> <Gold.PLP.PLP>
-38.2117

> <Gold.PLP.part.hbond>
-2.2459

> <Gold.PLP.part.metal>
0.0000

> <Gold.PLP.part.buried>
0.0144

> <Gold.PLP.part.nonpolar>
-35.5790

> <Gold.PLP.part.repulsive>
0.7240

> <Gold.PLP.ligand.clash>
0.0000

> <Gold.PLP.ligand.torsion>
0.3337

> <Gold.PLP.Chemscore.Hbond>
2.0000

> <Gold.PLP.Chemscore.CHOScore>
0.0000

> <Gold.PLP.Chemscore.Metal>
0.0000

> <Gold.Chemscore.Hbonds>
donor molecule, donor type, donor heavy atom, donor atom, acceptor molecule, acceptor atom, score
      L1  H     6    22       P1  8028  1.00
      P1  H  7997  8008       L1     3  0.95

> <Gold.PLP.Chemscore.Internal.Correction>
0.0199

> <Gold.Rescore>
     Score         DG    S(hbond)    S(metal)    S(lipo)     H(rot)  DE(clash)    DE(int)     intcor
     16.38     -19.78       1.60        0.00      98.50       1.00       1.69       1.71       ----

> <Gold.Chemscore.Fitness>
16.3822

> <Gold.Chemscore.DG>
-19.7753

> <Gold.Chemscore.ZeroCoef>
-5.4800

> <Gold.Chemscore.Hbond>
1.5961

> <Gold.Chemscore.Metal>
0.0000

> <Gold.Chemscore.Lipo>
98.4984

> <Gold.Chemscore.Internal_Hbond>
0.0000

> <Gold.Chemscore.DEClash>
1.6877

> <Gold.Chemscore.DEInternal>
1.7055

> <Gold.Chemscore.Rot>
1.0000

> <Gold.Chemscore.Internal.Correction>
   9.000000E+99

> <Gold.Chemscore.Hbonds>
donor molecule, donor type, donor heavy atom, donor atom, acceptor molecule, acceptor atom, score
      L1  H     6    22       P1  8028  1.00
      P1  H  7997  8008       L1     3  0.21

> <Gold.Chemscore.Hbond.Weighted>
-5.3310

> <Gold.Chemscore.Metal.Weighted>
-0.0000

> <Gold.Chemscore.Lipo.Weighted>
-11.5243

> <Gold.Chemscore.Internal_Hbond.Weighted>
0.0000

> <Gold.Chemscore.DEClash.Weighted>
1.6877

> <Gold.Chemscore.DEInternal.Weighted>
1.7055

> <Gold.Chemscore.Rot.Weighted>
2.5600

> <Gold.Chemscore.Internal.Correction.Weighted>
   9.000000E+99

> <Gold.Protein.RotatedTorsions>
[ 6907 6896 6895 6894 ] final  -82.83 input  -60.11 | X-H torsion
[ 7974 7965 7964 7962 ] final -136.89 input  175.53 | X-H torsion
[ 8008 7997 7996 7995 ] final  -52.33 input   59.86 | X-H torsion
[ 10167 10162 10161 10158 ] final -164.45 input  -65.29 | X-H torsion
[ 10718 10713 10712 10709 ] final  -35.54 input   66.30 | X-H torsion
[ 10763 10752 10751 10750 ] final   17.64 input  -60.55 | X-H torsion
[ 11005 11000 10999 10996 ] final  -69.15 input  -57.11 | X-H torsion

> <Gold.Protein.ActiveResidues>
 VAL166  LYS551  ARG553  GLY616  TRP617  ASP618  TYR619  PRO620  LYS621  CYS622 
 ASP623  PHE694  ASN695  SER759  ASP760  ASP761  ALA762  ILE779  LEU786  VAL792 
 PHE793  MET794  SER795  GLU796  ALA797  LYS798  CYS799  TRP800  GLU811  SER814 

> <Gold.Protein.RotatedAtoms>
  150.6892  134.3605  159.4948 H   0  0  0  0  0  0  0  0  0  0  0  0  # atno 6907 bound_to 6896
  152.1435  134.9041  160.0561 H   0  0  0  0  0  0  0  0  0  0  0  0  # atno 6908 bound_to 6896
  152.0166  133.3847  159.4278 H   0  0  0  0  0  0  0  0  0  0  0  0  # atno 6909 bound_to 6896
  144.8888  140.6612  143.5159 H   0  0  0  0  0  0  0  0  0  0  0  0  # atno 7974 bound_to 7965
  154.4104  140.1226  156.4974 H   0  0  0  0  0  0  0  0  0  0  0  0  # atno 8008 bound_to 7997
  155.6929  140.3495  155.4881 H   0  0  0  0  0  0  0  0  0  0  0  0  # atno 8009 bound_to 7997
  155.9453  140.1094  157.1012 H   0  0  0  0  0  0  0  0  0  0  0  0  # atno 8010 bound_to 7997
  139.6250  144.0550  152.1967 H   0  0  0  0  0  0  0  0  0  0  0  0  # atno 10167 bound_to 10162
  156.3374  130.4288  149.7818 H   0  0  0  0  0  0  0  0  0  0  0  0  # atno 10718 bound_to 10713
  153.1320  135.6742  153.9162 H   0  0  0  0  0  0  0  0  0  0  0  0  # atno 10763 bound_to 10752
  153.8646  135.3077  155.3440 H   0  0  0  0  0  0  0  0  0  0  0  0  # atno 10764 bound_to 10752
  154.7716  135.4936  153.9741 H   0  0  0  0  0  0  0  0  0  0  0  0  # atno 10765 bound_to 10752
  141.1548  133.6757  156.6555 H   0  0  0  0  0  0  0  0  0  0  0  0  # atno 11005 bound_to 11000
  145.3821  139.1635  143.4275 LP  0  0  0  0  0  0  0  0  0  0  0  0  # atno 17320 bound_to 7965
  146.3041  140.3902  142.8693 LP  0  0  0  0  0  0  0  0  0  0  0  0  # atno 17321 bound_to 7965
  140.0201  144.6159  150.7574 LP  0  0  0  0  0  0  0  0  0  0  0  0  # atno 17342 bound_to 10162
  140.7405  143.2806  151.3611 LP  0  0  0  0  0  0  0  0  0  0  0  0  # atno 17343 bound_to 10162
  156.5067  130.8153  151.3153 LP  0  0  0  0  0  0  0  0  0  0  0  0  # atno 17370 bound_to 10713
  157.7441  130.9927  150.2646 LP  0  0  0  0  0  0  0  0  0  0  0  0  # atno 17371 bound_to 10713
  140.3287  134.7947  157.4309 LP  0  0  0  0  0  0  0  0  0  0  0  0  # atno 17394 bound_to 11000
  140.1035  134.5441  155.8331 LP  0  0  0  0  0  0  0  0  0  0  0  0  # atno 17395 bound_to 11000

$$$$
