AV-unprocessed.smi:3242|AV-procd|sdf|12393|dock2
  -GOLD-   2272018263D 1   1.00000     0.00000
 Structure written by MMmdl.
 40 41  0  0  0  0  0  0  0  0  1 V2000
  146.7764  138.7161  151.9973 C   0  0  0  0  0  0  0  0  0  0  0  0
  146.9658  139.2649  153.3228 N   0  0  0  0  0  0  0  0  0  0  0  0
  147.9915  140.0599  153.7862 C   0  0  0  0  0  0  0  0  0  0  0  0
  147.7349  140.3363  155.1000 C   0  0  0  0  0  0  0  0  0  0  0  0
  148.5331  141.1780  156.0617 C   0  0  0  0  0  0  0  0  0  0  0  0
  149.8364  141.7092  155.4414 C   0  0  0  0  0  0  0  0  0  0  0  0
  150.5709  142.5393  156.3911 N   0  0  0  0  0  0  0  0  0  0  0  0
  151.3116  142.0866  157.4170 C   0  0  0  0  0  0  0  0  0  0  0  0
  151.4130  140.8844  157.6690 O   0  0  0  0  0  0  0  0  0  0  0  0
  151.9912  143.0491  158.0953 N   0  0  0  0  0  0  0  0  0  0  0  0
  151.7167  144.4972  157.9690 C   0  0  0  0  0  0  0  0  0  0  0  0
  151.9001  145.3173  159.2638 C   0  0  0  0  0  0  0  0  0  0  0  0
  151.2787  144.6817  160.5215 C   0  0  0  0  0  0  0  0  0  0  0  0
  152.2212  143.6936  161.2292 C   0  0  0  0  0  0  0  0  0  0  0  0
  152.5151  142.4080  160.4403 C   0  0  0  0  0  0  0  0  0  0  0  0
  153.0640  142.6653  159.0258 C   0  0  0  0  0  0  0  0  0  0  0  0
  146.5134  139.6477  155.3491 C   0  0  0  0  0  0  0  0  0  0  0  0
  146.0552  139.0098  154.2844 N   0  0  0  0  0  0  0  0  0  0  0  0
  147.6167  138.9856  151.3570 H   0  0  0  0  0  0  0  0  0  0  0  0
  145.8582  139.1119  151.5625 H   0  0  0  0  0  0  0  0  0  0  0  0
  146.7078  137.6291  152.0532 H   0  0  0  0  0  0  0  0  0  0  0  0
  148.8073  140.3678  153.1486 H   0  0  0  0  0  0  0  0  0  0  0  0
  147.9383  142.0248  156.4060 H   0  0  0  0  0  0  0  0  0  0  0  0
  148.7744  140.6078  156.9591 H   0  0  0  0  0  0  0  0  0  0  0  0
  150.4701  140.8804  155.1248 H   0  0  0  0  0  0  0  0  0  0  0  0
  149.5953  142.2827  154.5447 H   0  0  0  0  0  0  0  0  0  0  0  0
  150.5519  143.5359  156.2312 H   0  0  0  0  0  0  0  0  0  0  0  0
  152.3460  144.9076  157.1783 H   0  0  0  0  0  0  0  0  0  0  0  0
  150.6858  144.6673  157.6556 H   0  0  0  0  0  0  0  0  0  0  0  0
  152.9561  145.5280  159.4367 H   0  0  0  0  0  0  0  0  0  0  0  0
  151.4414  146.2936  159.1036 H   0  0  0  0  0  0  0  0  0  0  0  0
  151.0462  145.4800  161.2270 H   0  0  0  0  0  0  0  0  0  0  0  0
  150.3259  144.2067  160.2835 H   0  0  0  0  0  0  0  0  0  0  0  0
  153.1603  144.1966  161.4625 H   0  0  0  0  0  0  0  0  0  0  0  0
  151.7872  143.4182  162.1909 H   0  0  0  0  0  0  0  0  0  0  0  0
  153.2470  141.8253  161.0002 H   0  0  0  0  0  0  0  0  0  0  0  0
  151.6189  141.7882  160.3900 H   0  0  0  0  0  0  0  0  0  0  0  0
  153.5665  141.7651  158.6672 H   0  0  0  0  0  0  0  0  0  0  0  0
  153.8490  143.4217  159.0465 H   0  0  0  0  0  0  0  0  0  0  0  0
  145.9461  139.5985  156.2667 H   0  0  0  0  0  0  0  0  0  0  0  0
  1  2  1  0  0  0  0
  1 19  1  0  0  0  0
  1 20  1  0  0  0  0
  1 21  1  0  0  0  0
  2 18  1  0  0  0  0
  2  3  1  0  0  0  0
  3  4  2  0  0  0  0
  3 22  1  0  0  0  0
  4  5  1  0  0  0  0
  4 17  1  0  0  0  0
  5  6  1  0  0  0  0
  5 23  1  0  0  0  0
  5 24  1  0  0  0  0
  6  7  1  0  0  0  0
  6 25  1  0  0  0  0
  6 26  1  0  0  0  0
  7  8  1  0  0  0  0
  7 27  1  0  0  0  0
  8  9  2  0  0  0  0
  8 10  1  0  0  0  0
 10 16  1  0  0  0  0
 10 11  1  0  0  0  0
 11 12  1  0  0  0  0
 11 28  1  0  0  0  0
 11 29  1  0  0  0  0
 12 13  1  0  0  0  0
 12 30  1  0  0  0  0
 12 31  1  0  0  0  0
 13 14  1  0  0  0  0
 13 32  1  0  0  0  0
 13 33  1  0  0  0  0
 14 15  1  0  0  0  0
 14 34  1  0  0  0  0
 14 35  1  0  0  0  0
 15 16  1  0  0  0  0
 15 36  1  0  0  0  0
 15 37  1  0  0  0  0
 16 38  1  0  0  0  0
 16 39  1  0  0  0  0
 17 18  2  0  0  0  0
 17 40  1  0  0  0  0
M  END
> <s_m_source_file>
AV-unprocessed.smi

> <i_m_source_file_index>
3242

> <i_lp_mmshare_version>
43012

> <i_f3d_flags>
0

> <s_epik_input>
W0NIM11uMVtjSF1jKFtjSF1uMSlbQ0gyXVtDSDJdW05IXUMoPU8pTjJbQ0gyXVtDSDJdW0NIMl1bQ0gyXVtDSDJdW0NIMl0y

> <s_epik_cmdline>
J2VwaWtfcHl0aG9uJywgJy1waCcsICc3LjAnLCAnLXRuJywgJzgnLCAnLW1hJywgJzIwMCcsICctbWV0YWxfYmluZGluZycsICctaW1hZScsICc8aW5maWxlLm1hZT4nLCAnLW9tYWUnLCAnPG91dGZpbGUubWFlPic=

> <r_lp_tautomer_probability>
1

> <r_epik_Ionization_Penalty>
0.000572484

> <r_epik_Ionization_Penalty_Charging>
0

> <r_epik_Ionization_Penalty_Neutral>
0.000572484

> <r_epik_State_Penalty>
-0

> <r_epik_Charging_Adjusted_Penalty>
0

> <i_epik_Tot_Q>
0

> <i_epik_Tot_abs_Q>
0

> <r_epik_Metal_State_Penalty>
-0

> <b_epik_Metal_Only>
0

> <s_lp_Force_Field>
OPLS_2005

> <r_lp_Energy>
29.8159

> <b_lp_Chiralities_Consistent>
1

> <s_lp_Variant>
AV-unprocessed.smi:3242-1

> <Gold.Version>
5.8.1

> <Gold.Id.Protein>
6NUR|6NUR_protein|mol2

> <Gold.PLP.Fitness>
45.2235

> <Gold.PLP.PLP>
-41.2514

> <Gold.PLP.part.hbond>
-1.0000

> <Gold.PLP.part.metal>
0.0000

> <Gold.PLP.part.buried>
-3.3824

> <Gold.PLP.part.nonpolar>
-37.0861

> <Gold.PLP.part.repulsive>
0.1951

> <Gold.PLP.ligand.clash>
0.0000

> <Gold.PLP.ligand.torsion>
0.1951

> <Gold.PLP.Chemscore.Hbond>
0.4368

> <Gold.PLP.Chemscore.CHOScore>
1.0000

> <Gold.PLP.Chemscore.Metal>
0.0000

> <Gold.Chemscore.Hbonds>
donor molecule, donor type, donor heavy atom, donor atom, acceptor molecule, acceptor atom, score
      L1  H     7    27       P1  8028  0.46
      L1  C     3    22       P1  7957  1.00

> <Gold.PLP.Chemscore.Internal.Correction>
0.0519

> <Gold.Rescore>
     Score         DG    S(hbond)    S(metal)    S(lipo)     H(rot)  DE(clash)    DE(int)     intcor
     16.34     -16.63       0.65        0.00     106.11       1.34       0.03       0.26       ----

> <Gold.Chemscore.Fitness>
16.3421

> <Gold.Chemscore.DG>
-16.6342

> <Gold.Chemscore.ZeroCoef>
-5.4800

> <Gold.Chemscore.Hbond>
0.6508

> <Gold.Chemscore.Metal>
0.0000

> <Gold.Chemscore.Lipo>
106.1080

> <Gold.Chemscore.Internal_Hbond>
0.0000

> <Gold.Chemscore.DEClash>
0.0309

> <Gold.Chemscore.DEInternal>
0.2612

> <Gold.Chemscore.Rot>
1.3415

> <Gold.Chemscore.Internal.Correction>
   9.000000E+99

> <Gold.Chemscore.Hbonds>
donor molecule, donor type, donor heavy atom, donor atom, acceptor molecule, acceptor atom, score
      L1  H     7    27       P1  8028  0.44

> <Gold.Chemscore.Hbond.Weighted>
-2.1738

> <Gold.Chemscore.Metal.Weighted>
-0.0000

> <Gold.Chemscore.Lipo.Weighted>
-12.4146

> <Gold.Chemscore.Internal_Hbond.Weighted>
0.0000

> <Gold.Chemscore.DEClash.Weighted>
0.0309

> <Gold.Chemscore.DEInternal.Weighted>
0.2612

> <Gold.Chemscore.Rot.Weighted>
3.4342

> <Gold.Chemscore.Internal.Correction.Weighted>
   9.000000E+99

> <Gold.Protein.RotatedTorsions>
[ 6907 6896 6895 6894 ] final -114.69 input  -60.11 | X-H torsion
[ 7974 7965 7964 7962 ] final   76.10 input  175.53 | X-H torsion
[ 8008 7997 7996 7995 ] final  -71.79 input   59.86 | X-H torsion
[ 10167 10162 10161 10158 ] final  -28.31 input  -65.29 | X-H torsion
[ 10718 10713 10712 10709 ] final  167.60 input   66.30 | X-H torsion
[ 10763 10752 10751 10750 ] final  -44.15 input  -60.55 | X-H torsion
[ 11005 11000 10999 10996 ] final  -85.42 input  -57.11 | X-H torsion

> <Gold.Protein.ActiveResidues>
 VAL166  LYS551  ARG553  GLY616  TRP617  ASP618  TYR619  PRO620  LYS621  CYS622 
 ASP623  PHE694  ASN695  SER759  ASP760  ASP761  ALA762  ILE779  LEU786  VAL792 
 PHE793  MET794  SER795  GLU796  ALA797  LYS798  CYS799  TRP800  GLU811  SER814 

> <Gold.Protein.RotatedAtoms>
  150.7921  133.8765  159.3273 H   0  0  0  0  0  0  0  0  0  0  0  0  # atno 6907 bound_to 6896
  151.6600  135.0989  160.0187 H   0  0  0  0  0  0  0  0  0  0  0  0  # atno 6908 bound_to 6896
  152.3997  133.6760  159.6341 H   0  0  0  0  0  0  0  0  0  0  0  0  # atno 6909 bound_to 6896
  145.7071  139.2602  143.1672 H   0  0  0  0  0  0  0  0  0  0  0  0  # atno 7974 bound_to 7965
  154.5115  140.0809  156.7999 H   0  0  0  0  0  0  0  0  0  0  0  0  # atno 8008 bound_to 7997
  155.3774  140.3426  155.4227 H   0  0  0  0  0  0  0  0  0  0  0  0  # atno 8009 bound_to 7997
  156.1579  140.1579  156.8650 H   0  0  0  0  0  0  0  0  0  0  0  0  # atno 8010 bound_to 7997
  140.7271  143.4020  151.1248 H   0  0  0  0  0  0  0  0  0  0  0  0  # atno 10167 bound_to 10162
  157.0492  131.0308  151.2687 H   0  0  0  0  0  0  0  0  0  0  0  0  # atno 10718 bound_to 10713
  154.0073  135.6686  153.4763 H   0  0  0  0  0  0  0  0  0  0  0  0  # atno 10763 bound_to 10752
  153.0636  135.5013  154.8146 H   0  0  0  0  0  0  0  0  0  0  0  0  # atno 10764 bound_to 10752
  154.7017  135.3080  154.9295 H   0  0  0  0  0  0  0  0  0  0  0  0  # atno 10765 bound_to 10752
  141.1641  133.7398  156.9012 H   0  0  0  0  0  0  0  0  0  0  0  0  # atno 11005 bound_to 11000
  146.0745  140.7832  142.9671 LP  0  0  0  0  0  0  0  0  0  0  0  0  # atno 17320 bound_to 7965
  144.6952  140.3394  143.7202 LP  0  0  0  0  0  0  0  0  0  0  0  0  # atno 17321 bound_to 7965
  139.7642  143.8590  152.3107 LP  0  0  0  0  0  0  0  0  0  0  0  0  # atno 17342 bound_to 10162
  139.8487  144.7175  150.9241 LP  0  0  0  0  0  0  0  0  0  0  0  0  # atno 17343 bound_to 10162
  157.5044  130.7899  149.7638 LP  0  0  0  0  0  0  0  0  0  0  0  0  # atno 17370 bound_to 10713
  156.0013  130.3879  150.2595 LP  0  0  0  0  0  0  0  0  0  0  0  0  # atno 17371 bound_to 10713
  140.1581  134.9184  157.2679 LP  0  0  0  0  0  0  0  0  0  0  0  0  # atno 17394 bound_to 11000
  140.2643  134.3534  155.7395 LP  0  0  0  0  0  0  0  0  0  0  0  0  # atno 17395 bound_to 11000

$$$$
