AV-unprocessed.smi:837|AV-procd|sdf|3895|dock8
  -GOLD-   22720 1353D 1   1.00000     0.00000
 Structure written by MMmdl.
 49 51  0  0  0  0  0  0  0  0  1 V2000
  148.6173  139.0440  153.9576 C   0  0  0  0  0  0  0  0  0  0  0  0
  149.8408  139.7330  154.5995 C   0  0  1  0  0  0  0  0  0  0  0  0
  149.4307  141.0983  155.1934 C   0  0  0  0  0  0  0  0  0  0  0  0
  150.6317  141.8528  155.7849 C   0  0  0  0  0  0  0  0  0  0  0  0
  151.3541  141.0089  156.8442 C   0  0  0  0  0  0  0  0  0  0  0  0
  151.7843  139.6524  156.2637 C   0  0  0  0  0  0  0  0  0  0  0  0
  150.5890  138.8725  155.6648 C   0  0  1  0  0  0  0  0  0  0  0  0
  149.7016  138.3958  156.7130 N   0  0  0  0  0  0  0  0  0  0  0  0
  149.6620  137.0597  156.7964 C   0  0  0  0  0  0  0  0  0  0  0  0
  148.9988  136.4205  157.6115 O   0  0  0  0  0  0  0  0  0  0  0  0
  150.4653  136.5527  155.8435 N   0  0  0  0  0  0  0  0  0  0  0  0
  150.7129  135.1206  155.6367 C   0  0  0  0  0  0  0  0  0  0  0  0
  149.4165  134.3208  155.4527 C   0  0  0  0  0  0  0  0  0  0  0  0
  148.6869  134.0761  156.4144 O   0  0  0  0  0  0  0  0  0  0  0  0
  149.1400  133.9250  154.2017 N   0  0  0  0  0  0  0  0  0  0  0  0
  147.9825  133.1272  153.8077 C   0  0  0  0  0  0  0  0  0  0  0  0
  147.7952  133.0495  152.2784 C   0  0  0  0  0  0  0  0  0  0  0  0
  146.3782  133.3540  151.8229 C   0  0  0  0  0  0  0  0  0  0  0  0
  145.5714  132.3517  151.2449 C   0  0  0  0  0  0  0  0  0  0  0  0
  144.2698  132.6865  150.8258 C   0  0  0  0  0  0  0  0  0  0  0  0
  143.8286  134.0128  151.0040 C   0  0  0  0  0  0  0  0  0  0  0  0
  144.5909  134.9803  151.5585 N   0  0  0  0  0  0  0  0  0  0  0  0
  145.8381  134.6504  151.9578 C   0  0  0  0  0  0  0  0  0  0  0  0
  151.0517  137.5236  155.1297 C   0  0  0  0  0  0  0  0  0  0  0  0
  151.8390  137.3857  154.1931 O   0  0  0  0  0  0  0  0  0  0  0  0
  147.8523  138.8090  154.6980 H   0  0  0  0  0  0  0  0  0  0  0  0
  148.8903  138.1166  153.4537 H   0  0  0  0  0  0  0  0  0  0  0  0
  148.1581  139.6890  153.2083 H   0  0  0  0  0  0  0  0  0  0  0  0
  150.5454  139.9371  153.7912 H   0  0  0  0  0  0  0  0  0  0  0  0
  148.9652  141.7139  154.4230 H   0  0  0  0  0  0  0  0  0  0  0  0
  148.6749  140.9550  155.9667 H   0  0  0  0  0  0  0  0  0  0  0  0
  151.3287  142.1128  154.9874 H   0  0  0  0  0  0  0  0  0  0  0  0
  150.2994  142.7941  156.2236 H   0  0  0  0  0  0  0  0  0  0  0  0
  152.2269  141.5470  157.2147 H   0  0  0  0  0  0  0  0  0  0  0  0
  150.6993  140.8555  157.7027 H   0  0  0  0  0  0  0  0  0  0  0  0
  152.5356  139.8235  155.4909 H   0  0  0  0  0  0  0  0  0  0  0  0
  152.2780  139.0636  157.0388 H   0  0  0  0  0  0  0  0  0  0  0  0
  149.1865  139.0190  157.3179 H   0  0  0  0  0  0  0  0  0  0  0  0
  151.3430  134.9643  154.7598 H   0  0  0  0  0  0  0  0  0  0  0  0
  151.2766  134.7212  156.4822 H   0  0  0  0  0  0  0  0  0  0  0  0
  149.7918  134.1724  153.4714 H   0  0  0  0  0  0  0  0  0  0  0  0
  148.0500  132.1261  154.2358 H   0  0  0  0  0  0  0  0  0  0  0  0
  147.1045  133.5941  154.2545 H   0  0  0  0  0  0  0  0  0  0  0  0
  148.4801  133.7427  151.7882 H   0  0  0  0  0  0  0  0  0  0  0  0
  148.0728  132.0559  151.9249 H   0  0  0  0  0  0  0  0  0  0  0  0
  145.9441  131.3460  151.1146 H   0  0  0  0  0  0  0  0  0  0  0  0
  143.6277  131.9456  150.3734 H   0  0  0  0  0  0  0  0  0  0  0  0
  142.8370  134.3048  150.6912 H   0  0  0  0  0  0  0  0  0  0  0  0
  146.4247  135.4464  152.3927 H   0  0  0  0  0  0  0  0  0  0  0  0
  1  2  1  0  0  0  0
  1 26  1  0  0  0  0
  1 27  1  0  0  0  0
  1 28  1  0  0  0  0
  2  7  1  0  0  0  0
  2  3  1  0  0  0  0
  2 29  1  0  0  0  0
  3  4  1  0  0  0  0
  3 30  1  0  0  0  0
  3 31  1  0  0  0  0
  4  5  1  0  0  0  0
  4 32  1  0  0  0  0
  4 33  1  0  0  0  0
  5  6  1  0  0  0  0
  5 34  1  0  0  0  0
  5 35  1  0  0  0  0
  6  7  1  0  0  0  0
  6 36  1  0  0  0  0
  6 37  1  0  0  0  0
  7 24  1  0  0  0  0
  7  8  1  0  0  0  0
  8  9  1  0  0  0  0
  8 38  1  0  0  0  0
  9 10  2  0  0  0  0
  9 11  1  0  0  0  0
 11 12  1  0  0  0  0
 11 24  1  0  0  0  0
 12 13  1  0  0  0  0
 12 39  1  0  0  0  0
 12 40  1  0  0  0  0
 13 14  2  0  0  0  0
 13 15  1  0  0  0  0
 15 16  1  0  0  0  0
 15 41  1  0  0  0  0
 16 17  1  0  0  0  0
 16 42  1  0  0  0  0
 16 43  1  0  0  0  0
 17 18  1  0  0  0  0
 17 44  1  0  0  0  0
 17 45  1  0  0  0  0
 18 23  1  0  0  0  0
 18 19  2  0  0  0  0
 19 20  1  0  0  0  0
 19 46  1  0  0  0  0
 20 21  2  0  0  0  0
 20 47  1  0  0  0  0
 21 22  1  0  0  0  0
 21 48  1  0  0  0  0
 22 23  2  0  0  0  0
 23 49  1  0  0  0  0
 24 25  2  0  0  0  0
M  END
> <s_m_source_file>
AV-unprocessed.smi

> <i_m_source_file_index>
837

> <i_lp_mmshare_version>
43012

> <i_f3d_flags>
0

> <s_epik_input>
W0NIMl0xW0NIMl1bQ0gyXVtDSDJdW0NAQEhdKFtDSDNdKVtDQEBdMTJbTkhdQyg9TylOKEMyPU8pW0NIMl1DKD1PKVtOSF1bQ0gyXVtDSDJdYzNbY0hdW2NIXVtjSF1uW2NIXTM=

> <s_epik_cmdline>
J2VwaWtfcHl0aG9uJywgJy1waCcsICc3LjAnLCAnLXRuJywgJzgnLCAnLW1hJywgJzIwMCcsICctbWV0YWxfYmluZGluZycsICctaW1hZScsICc8aW5maWxlLm1hZT4nLCAnLW9tYWUnLCAnPG91dGZpbGUubWFlPic=

> <r_lp_tautomer_probability>
1

> <r_epik_Ionization_Penalty>
0.0127837

> <r_epik_Ionization_Penalty_Charging>
0

> <r_epik_Ionization_Penalty_Neutral>
0.0127837

> <r_epik_State_Penalty>
0.00987657

> <r_epik_Charging_Adjusted_Penalty>
0.00987657

> <i_epik_Tot_Q>
0

> <i_epik_Tot_abs_Q>
0

> <r_epik_Metal_State_Penalty>
0.0309865

> <b_epik_Metal_Only>
0

> <s_lp_Force_Field>
OPLS_2005

> <r_lp_Energy>
22.8196

> <b_lp_Chiralities_Consistent>
1

> <s_lp_Variant>
AV-unprocessed.smi:837-4

> <Gold.Version>
5.8.1

> <Gold.Id.Protein>
6NUR|6NUR_protein|mol2

> <Gold.PLP.Fitness>
45.8541

> <Gold.PLP.PLP>
-38.2243

> <Gold.PLP.part.hbond>
-1.5580

> <Gold.PLP.part.metal>
0.0000

> <Gold.PLP.part.buried>
-3.3585

> <Gold.PLP.part.nonpolar>
-34.2595

> <Gold.PLP.part.repulsive>
0.6997

> <Gold.PLP.ligand.clash>
0.0000

> <Gold.PLP.ligand.torsion>
0.6772

> <Gold.PLP.Chemscore.Hbond>
0.9920

> <Gold.PLP.Chemscore.CHOScore>
2.0000

> <Gold.PLP.Chemscore.Metal>
0.0000

> <Gold.Chemscore.Hbonds>
donor molecule, donor type, donor heavy atom, donor atom, acceptor molecule, acceptor atom, score
      P1  H 10752 10765       L1    25  0.99
      L1  C    21    48       P1 10186  1.00
      L1  C    23    49       P1  7948  0.62

> <Gold.PLP.Chemscore.Internal.Correction>
0.0082

> <Gold.Rescore>
     Score         DG    S(hbond)    S(metal)    S(lipo)     H(rot)  DE(clash)    DE(int)     intcor
     11.15     -14.47       0.93        0.00      90.92       1.86       0.07       3.25       ----

> <Gold.Chemscore.Fitness>
11.1512

> <Gold.Chemscore.DG>
-14.4723

> <Gold.Chemscore.ZeroCoef>
-5.4800

> <Gold.Chemscore.Hbond>
0.9293

> <Gold.Chemscore.Metal>
0.0000

> <Gold.Chemscore.Lipo>
90.9248

> <Gold.Chemscore.Internal_Hbond>
0.0000

> <Gold.Chemscore.DEClash>
0.0746

> <Gold.Chemscore.DEInternal>
3.2465

> <Gold.Chemscore.Rot>
1.8553

> <Gold.Chemscore.Internal.Correction>
   9.000000E+99

> <Gold.Chemscore.Hbonds>
donor molecule, donor type, donor heavy atom, donor atom, acceptor molecule, acceptor atom, score
      P1  H 10752 10765       L1    25  0.82

> <Gold.Chemscore.Hbond.Weighted>
-3.1038

> <Gold.Chemscore.Metal.Weighted>
-0.0000

> <Gold.Chemscore.Lipo.Weighted>
-10.6382

> <Gold.Chemscore.Internal_Hbond.Weighted>
0.0000

> <Gold.Chemscore.DEClash.Weighted>
0.0746

> <Gold.Chemscore.DEInternal.Weighted>
3.2465

> <Gold.Chemscore.Rot.Weighted>
4.7497

> <Gold.Chemscore.Internal.Correction.Weighted>
   9.000000E+99

> <Gold.Protein.RotatedTorsions>
[ 6907 6896 6895 6894 ] final  -57.35 input  -60.11 | X-H torsion
[ 7974 7965 7964 7962 ] final  172.36 input  175.53 | X-H torsion
[ 8008 7997 7996 7995 ] final  -24.73 input   59.86 | X-H torsion
[ 10167 10162 10161 10158 ] final   57.98 input  -65.29 | X-H torsion
[ 10718 10713 10712 10709 ] final   53.00 input   66.30 | X-H torsion
[ 10763 10752 10751 10750 ] final  156.98 input  -60.55 | X-H torsion
[ 11005 11000 10999 10996 ] final   42.36 input  -57.11 | X-H torsion

> <Gold.Protein.ActiveResidues>
 VAL166  LYS551  ARG553  GLY616  TRP617  ASP618  TYR619  PRO620  LYS621  CYS622 
 ASP623  PHE694  ASN695  SER759  ASP760  ASP761  ALA762  ILE779  LEU786  VAL792 
 PHE793  MET794  SER795  GLU796  ALA797  LYS798  CYS799  TRP800  GLU811  SER814 

> <Gold.Protein.RotatedAtoms>
  150.8093  134.7237  159.6672 H   0  0  0  0  0  0  0  0  0  0  0  0  # atno 6907 bound_to 6896
  152.4213  134.5947  159.9993 H   0  0  0  0  0  0  0  0  0  0  0  0  # atno 6908 bound_to 6896
  151.6162  133.3306  159.3114 H   0  0  0  0  0  0  0  0  0  0  0  0  # atno 6909 bound_to 6896
  144.7270  139.9488  143.6431 H   0  0  0  0  0  0  0  0  0  0  0  0  # atno 7974 bound_to 7965
  154.4513  140.1946  156.0509 H   0  0  0  0  0  0  0  0  0  0  0  0  # atno 8008 bound_to 7997
  156.0655  140.3291  155.7485 H   0  0  0  0  0  0  0  0  0  0  0  0  # atno 8009 bound_to 7997
  155.5345  140.0581  157.2873 H   0  0  0  0  0  0  0  0  0  0  0  0  # atno 8010 bound_to 7997
  140.1921  144.4074  150.6566 H   0  0  0  0  0  0  0  0  0  0  0  0  # atno 10167 bound_to 10162
  157.5127  130.8511  149.8455 H   0  0  0  0  0  0  0  0  0  0  0  0  # atno 10718 bound_to 10713
  154.1930  135.2794  155.3016 H   0  0  0  0  0  0  0  0  0  0  0  0  # atno 10763 bound_to 10752
  154.5914  135.5558  153.7285 H   0  0  0  0  0  0  0  0  0  0  0  0  # atno 10764 bound_to 10752
  153.0107  135.6369  154.2068 H   0  0  0  0  0  0  0  0  0  0  0  0  # atno 10765 bound_to 10752
  140.1746  134.4179  155.8236 H   0  0  0  0  0  0  0  0  0  0  0  0  # atno 11005 bound_to 11000
  146.0728  139.3716  143.0512 LP  0  0  0  0  0  0  0  0  0  0  0  0  # atno 17320 bound_to 7965
  145.7945  140.9799  143.1031 LP  0  0  0  0  0  0  0  0  0  0  0  0  # atno 17321 bound_to 7965
  140.6448  143.2211  151.6210 LP  0  0  0  0  0  0  0  0  0  0  0  0  # atno 17342 bound_to 10162
  139.5251  144.3083  152.1015 LP  0  0  0  0  0  0  0  0  0  0  0  0  # atno 17343 bound_to 10162
  156.0299  130.3768  150.1716 LP  0  0  0  0  0  0  0  0  0  0  0  0  # atno 17370 bound_to 10713
  156.9905  130.9892  151.3416 LP  0  0  0  0  0  0  0  0  0  0  0  0  # atno 17371 bound_to 10713
  141.2219  133.6972  156.7824 LP  0  0  0  0  0  0  0  0  0  0  0  0  # atno 17394 bound_to 11000
  140.2337  134.8666  157.3503 LP  0  0  0  0  0  0  0  0  0  0  0  0  # atno 17395 bound_to 11000

$$$$
