AV-unprocessed.smi:2061|AV-procd|sdf|8366|dock5
  -GOLD-   2272011 43D 1   1.00000     0.00000
 Structure written by MMmdl.
 46 47  0  0  0  0  0  0  0  0  2 V2000
  147.0721  134.7161  162.2646 C   0  0  0  0  0  0  0  0  0  0  0  0
  147.3507  135.7134  161.1929 C   0  0  0  0  0  0  0  0  0  0  0  0
  148.3374  135.8183  160.2537 C   0  0  0  0  0  0  0  0  0  0  0  0
  147.9919  137.0150  159.5604 C   0  0  0  0  0  0  0  0  0  0  0  0
  148.7062  137.5963  158.4812 N   0  0  0  0  0  0  0  0  0  0  0  0
  148.5784  138.8309  157.9671 C   0  0  0  0  0  0  0  0  0  0  0  0
  147.8202  139.7051  158.3874 O   0  0  0  0  0  0  0  0  0  0  0  0
  149.3920  139.0087  156.9161 N   0  0  0  0  0  0  0  0  0  0  0  0
  149.4813  140.2391  156.1353 C   0  0  0  0  0  0  0  0  0  0  0  0
  150.8990  140.8713  156.1561 C   0  0  2  0  0  0  0  0  0  0  0  0
  151.9543  139.8192  155.7362 C   0  0  0  0  0  0  0  0  0  0  0  0
  151.1699  141.4931  157.4934 N   0  3  1  0  0  0  0  0  0  0  0  0
  152.3052  140.9094  158.2592 C   0  0  0  0  0  0  0  0  0  0  0  0
  152.4560  141.5924  159.6324 C   0  0  1  0  0  0  0  0  0  0  0  0
  153.6652  141.0632  160.4115 C   0  0  0  0  0  0  0  0  0  0  0  0
  152.6268  142.9912  159.4468 O   0  0  0  0  0  0  0  0  0  0  0  0
  151.5075  143.5901  158.8077 C   0  0  1  0  0  0  0  0  0  0  0  0
  151.7490  145.1022  158.7423 C   0  0  0  0  0  0  0  0  0  0  0  0
  151.3416  142.9690  157.4090 C   0  0  0  0  0  0  0  0  0  0  0  0
  146.9003  137.5831  160.0383 N   0  0  0  0  0  0  0  0  0  0  0  0
  146.4801  136.7531  161.0842 O   0  0  0  0  0  0  0  0  0  0  0  0
  147.8445  133.9472  162.2919 H   0  0  0  0  0  0  0  0  0  0  0  0
  146.1127  134.2263  162.0971 H   0  0  0  0  0  0  0  0  0  0  0  0
  147.0410  135.1983  163.2418 H   0  0  0  0  0  0  0  0  0  0  0  0
  149.1650  135.1415  160.1048 H   0  0  0  0  0  0  0  0  0  0  0  0
  149.3915  136.9959  158.0464 H   0  0  0  0  0  0  0  0  0  0  0  0
  149.9876  138.2428  156.6357 H   0  0  0  0  0  0  0  0  0  0  0  0
  149.1443  140.0175  155.1235 H   0  0  0  0  0  0  0  0  0  0  0  0
  148.7584  140.9464  156.5427 H   0  0  0  0  0  0  0  0  0  0  0  0
  150.9432  141.6695  155.4133 H   0  0  0  0  0  0  0  0  0  0  0  0
  151.7113  139.3645  154.7760 H   0  0  0  0  0  0  0  0  0  0  0  0
  152.0282  139.0141  156.4680 H   0  0  0  0  0  0  0  0  0  0  0  0
  152.9434  140.2599  155.6095 H   0  0  0  0  0  0  0  0  0  0  0  0
  152.1447  139.8469  158.4389 H   0  0  0  0  0  0  0  0  0  0  0  0
  153.2254  141.0104  157.6808 H   0  0  0  0  0  0  0  0  0  0  0  0
  151.5588  141.4165  160.2286 H   0  0  0  0  0  0  0  0  0  0  0  0
  153.5822  139.9898  160.5842 H   0  0  0  0  0  0  0  0  0  0  0  0
  153.7450  141.5500  161.3837 H   0  0  0  0  0  0  0  0  0  0  0  0
  154.5948  141.2448  159.8711 H   0  0  0  0  0  0  0  0  0  0  0  0
  150.6100  143.4080  159.4017 H   0  0  0  0  0  0  0  0  0  0  0  0
  150.9114  145.6141  158.2674 H   0  0  0  0  0  0  0  0  0  0  0  0
  152.6493  145.3342  158.1726 H   0  0  0  0  0  0  0  0  0  0  0  0
  151.8697  145.5214  159.7415 H   0  0  0  0  0  0  0  0  0  0  0  0
  152.2154  143.1964  156.7959 H   0  0  0  0  0  0  0  0  0  0  0  0
  150.4885  143.4362  156.9208 H   0  0  0  0  0  0  0  0  0  0  0  0
  150.3469  141.3233  158.0538 H   0  0  0  0  0  0  0  0  0  0  0  0
  1  2  1  0  0  0  0
  1 22  1  0  0  0  0
  1 23  1  0  0  0  0
  1 24  1  0  0  0  0
  2 21  1  0  0  0  0
  2  3  2  0  0  0  0
  3  4  1  0  0  0  0
  3 25  1  0  0  0  0
  4  5  1  0  0  0  0
  4 20  2  0  0  0  0
  5  6  1  0  0  0  0
  5 26  1  0  0  0  0
  6  7  2  0  0  0  0
  6  8  1  0  0  0  0
  8  9  1  0  0  0  0
  8 27  1  0  0  0  0
  9 10  1  0  0  0  0
  9 28  1  0  0  0  0
  9 29  1  0  0  0  0
 10 11  1  0  0  0  0
 10 12  1  0  0  0  0
 10 30  1  0  0  0  0
 11 31  1  0  0  0  0
 11 32  1  0  0  0  0
 11 33  1  0  0  0  0
 12 19  1  0  0  0  0
 12 13  1  0  0  0  0
 12 46  1  0  0  0  0
 13 14  1  0  0  0  0
 13 34  1  0  0  0  0
 13 35  1  0  0  0  0
 14 15  1  0  0  0  0
 14 16  1  0  0  0  0
 14 36  1  0  0  0  0
 15 37  1  0  0  0  0
 15 38  1  0  0  0  0
 15 39  1  0  0  0  0
 16 17  1  0  0  0  0
 17 18  1  0  0  0  0
 17 19  1  0  0  0  0
 17 40  1  0  0  0  0
 18 41  1  0  0  0  0
 18 42  1  0  0  0  0
 18 43  1  0  0  0  0
 19 44  1  0  0  0  0
 19 45  1  0  0  0  0
 20 21  1  0  0  0  0
M  CHG  1  12   1
M  END
> <s_m_source_file>
AV-unprocessed.smi

> <i_m_source_file_index>
2061

> <i_lp_mmshare_version>
43012

> <i_f3d_flags>
0

> <s_epik_input>
W0NIM11jMVtjSF1jKG5vMSlbTkhdQyg9TylbTkhdW0NIMl1bQ0BIXShbQ0gzXSlOMltDSDJdW0NAQEhdKFtDSDNdKU9bQ0BASF0oW0NIM10pW0NIMl0y

> <s_epik_cmdline>
J2VwaWtfcHl0aG9uJywgJy1waCcsICc3LjAnLCAnLXRuJywgJzgnLCAnLW1hJywgJzIwMCcsICctbWV0YWxfYmluZGluZycsICctaW1hZScsICc8aW5maWxlLm1hZT4nLCAnLW9tYWUnLCAnPG91dGZpbGUubWFlPic=

> <r_epik_Ionization_Penalty>
0.707076

> <r_epik_Ionization_Penalty_Charging>
0.707039

> <r_epik_Ionization_Penalty_Neutral>
3.6548e-05

> <r_epik_State_Penalty>
0.730276

> <r_epik_Charging_Adjusted_Penalty>
1.43732

> <i_epik_Tot_Q>
1

> <i_epik_Tot_abs_Q>
1

> <r_epik_Metal_State_Penalty>
0.743132

> <b_epik_Metal_Only>
0

> <s_lp_Force_Field>
OPLS_2005

> <r_lp_Energy>
18.102

> <b_lp_Chiralities_Consistent>
1

> <s_lp_Variant>
AV-unprocessed.smi:2061-7

> <Gold.Version>
5.8.1

> <Gold.Id.Protein>
6NUR|6NUR_protein|mol2

> <Gold.PLP.Fitness>
37.3251

> <Gold.PLP.PLP>
-37.4289

> <Gold.PLP.part.hbond>
-2.0000

> <Gold.PLP.part.metal>
0.0000

> <Gold.PLP.part.buried>
-6.1194

> <Gold.PLP.part.nonpolar>
-30.6493

> <Gold.PLP.part.repulsive>
0.2051

> <Gold.PLP.ligand.clash>
0.0000

> <Gold.PLP.ligand.torsion>
1.5791

> <Gold.PLP.Chemscore.Hbond>
1.0000

> <Gold.PLP.Chemscore.CHOScore>
0.0000

> <Gold.PLP.Chemscore.Metal>
0.0000

> <Gold.Chemscore.Hbonds>
donor molecule, donor type, donor heavy atom, donor atom, acceptor molecule, acceptor atom, score
      P1  H  6934  6947       L1    20  1.00

> <Gold.PLP.Chemscore.Internal.Correction>
0.0543

> <Gold.Rescore>
     Score         DG    S(hbond)    S(metal)    S(lipo)     H(rot)  DE(clash)    DE(int)     intcor
     12.86     -15.85       0.90        0.00      97.63       1.58       0.03       2.95       ----

> <Gold.Chemscore.Fitness>
12.8646

> <Gold.Chemscore.DG>
-15.8464

> <Gold.Chemscore.ZeroCoef>
-5.4800

> <Gold.Chemscore.Hbond>
0.8974

> <Gold.Chemscore.Metal>
0.0000

> <Gold.Chemscore.Lipo>
97.6277

> <Gold.Chemscore.Internal_Hbond>
0.0000

> <Gold.Chemscore.DEClash>
0.0270

> <Gold.Chemscore.DEInternal>
2.9548

> <Gold.Chemscore.Rot>
1.5834

> <Gold.Chemscore.Internal.Correction>
   9.000000E+99

> <Gold.Chemscore.Hbonds>
donor molecule, donor type, donor heavy atom, donor atom, acceptor molecule, acceptor atom, score
      P1  H  6934  6947       L1    20  0.23

> <Gold.Chemscore.Hbond.Weighted>
-2.9974

> <Gold.Chemscore.Metal.Weighted>
-0.0000

> <Gold.Chemscore.Lipo.Weighted>
-11.4224

> <Gold.Chemscore.Internal_Hbond.Weighted>
0.0000

> <Gold.Chemscore.DEClash.Weighted>
0.0270

> <Gold.Chemscore.DEInternal.Weighted>
2.9548

> <Gold.Chemscore.Rot.Weighted>
4.0535

> <Gold.Chemscore.Internal.Correction.Weighted>
   9.000000E+99

> <Gold.Protein.RotatedTorsions>
[ 6907 6896 6895 6894 ] final  -51.91 input  -60.11 | X-H torsion
[ 7974 7965 7964 7962 ] final -100.27 input  175.53 | X-H torsion
[ 8008 7997 7996 7995 ] final  -58.20 input   59.86 | X-H torsion
[ 10167 10162 10161 10158 ] final  123.96 input  -65.29 | X-H torsion
[ 10718 10713 10712 10709 ] final  170.95 input   66.30 | X-H torsion
[ 10763 10752 10751 10750 ] final   64.78 input  -60.55 | X-H torsion
[ 11005 11000 10999 10996 ] final  -83.89 input  -57.11 | X-H torsion

> <Gold.Protein.ActiveResidues>
 VAL166  LYS551  ARG553  GLY616  TRP617  ASP618  TYR619  PRO620  LYS621  CYS622 
 ASP623  PHE694  ASN695  SER759  ASP760  ASP761  ALA762  ILE779  LEU786  VAL792 
 PHE793  MET794  SER795  GLU796  ALA797  LYS798  CYS799  TRP800  GLU811  SER814 

> <Gold.Protein.RotatedAtoms>
  150.8567  134.7908  159.7050 H   0  0  0  0  0  0  0  0  0  0  0  0  # atno 6907 bound_to 6896
  152.4616  134.5167  159.9780 H   0  0  0  0  0  0  0  0  0  0  0  0  # atno 6908 bound_to 6896
  151.5278  133.3416  159.2948 H   0  0  0  0  0  0  0  0  0  0  0  0  # atno 6909 bound_to 6896
  145.2967  140.9367  143.2847 H   0  0  0  0  0  0  0  0  0  0  0  0  # atno 7974 bound_to 7965
  154.4299  140.1089  156.5919 H   0  0  0  0  0  0  0  0  0  0  0  0  # atno 8008 bound_to 7997
  155.6003  140.3493  155.4573 H   0  0  0  0  0  0  0  0  0  0  0  0  # atno 8009 bound_to 7997
  156.0178  140.1233  157.0378 H   0  0  0  0  0  0  0  0  0  0  0  0  # atno 8010 bound_to 7997
  139.5769  144.6968  151.3630 H   0  0  0  0  0  0  0  0  0  0  0  0  # atno 10167 bound_to 10162
  157.0007  131.0175  151.2831 H   0  0  0  0  0  0  0  0  0  0  0  0  # atno 10718 bound_to 10713
  153.0069  135.5380  154.6564 H   0  0  0  0  0  0  0  0  0  0  0  0  # atno 10763 bound_to 10752
  154.5783  135.2847  155.0760 H   0  0  0  0  0  0  0  0  0  0  0  0  # atno 10764 bound_to 10752
  154.1899  135.6502  153.5109 H   0  0  0  0  0  0  0  0  0  0  0  0  # atno 10765 bound_to 10752
  141.1654  133.7317  156.8787 H   0  0  0  0  0  0  0  0  0  0  0  0  # atno 11005 bound_to 11000
  144.9127  139.4508  143.6579 LP  0  0  0  0  0  0  0  0  0  0  0  0  # atno 17320 bound_to 7965
  146.3166  139.7945  142.8978 LP  0  0  0  0  0  0  0  0  0  0  0  0  # atno 17321 bound_to 7965
  140.7051  143.7534  150.7468 LP  0  0  0  0  0  0  0  0  0  0  0  0  # atno 17342 bound_to 10162
  140.1056  143.4746  152.2400 LP  0  0  0  0  0  0  0  0  0  0  0  0  # atno 17343 bound_to 10162
  157.5392  130.8109  149.8008 LP  0  0  0  0  0  0  0  0  0  0  0  0  # atno 17370 bound_to 10713
  156.0172  130.3809  150.2073 LP  0  0  0  0  0  0  0  0  0  0  0  0  # atno 17371 bound_to 10713
  140.1730  134.9087  157.2856 LP  0  0  0  0  0  0  0  0  0  0  0  0  # atno 17394 bound_to 11000
  140.2480  134.3716  155.7453 LP  0  0  0  0  0  0  0  0  0  0  0  0  # atno 17395 bound_to 11000

$$$$
