#       Name:                AV-unprocessed.smi:87
#       Creating user name   scv26
#       Creation time:       Thu Mar 26 17:22:57 2020


#       File generated by GOLD software.
#

@<TRIPOS>MOLECULE
AV-unprocessed.smi:87
    66    68     1
SMALL
NO_CHARGES


@<TRIPOS>ATOM
      1 ****        -3.5594  -0.7880  -1.8866 C.3            1 S1                 0.0000
      2 ****        -2.9182  -0.1525  -3.1294 C.3            1 S1                 0.0000
      3 ****        -1.3744  -0.0923  -3.0826 C.3            1 S1                 0.0000
      4 ****        -0.8097   0.8049  -4.2091 C.3            1 S1                 0.0000
      5 ****        -1.0676   2.3057  -4.0108 C.3            1 S1                 0.0000
      6 ****        -0.7656  -1.5167  -3.1624 C.3            1 S1                 0.0000
      7 ****         0.6793  -1.5698  -2.9313 N.pl3          1 S1                 0.0000
      8 ****         1.3913  -2.7586  -3.3914 C.3            1 S1                 0.0000
      9 ****         1.0772  -4.0017  -2.5457 C.3            1 S1                 0.0000
     10 ****         1.7743  -5.2013  -3.0321 C.1            1 S1                 0.0000
     11 ****         2.3228  -6.1453  -3.4151 N.1            1 S1                 0.0000
     12 ****         1.1818  -1.0413  -1.7881 C.ar           1 S1                 0.0000
     13 ****         2.3743  -0.3999  -1.8787 N.ar           1 S1                 0.0000
     14 ****         2.9235   0.1577  -0.7959 C.ar           1 S1                 0.0000
     15 ****         2.4592   0.1854   0.4547 N.ar           1 S1                 0.0000
     16 ****         1.2683  -0.4709   0.5552 C.ar           1 S1                 0.0000
     17 ****         0.5646  -1.1113  -0.5044 C.ar           1 S1                 0.0000
     18 ****        -0.6040  -1.6818  -0.0117 N.2            1 S1                 0.0000
     19 ****        -0.5999  -1.3821   1.2578 C.2            1 S1                 0.0000
     20 ****         0.4876  -0.6549   1.6826 N.pl3          1 S1                 0.0000
     21 ****         0.7438  -0.1899   3.0345 C.3            1 S1                 0.0000
     22 ****        -0.0219   1.1060   3.3665 C.3            1 S1                 0.0000
     23 ****         0.3720   2.1280   2.4694 O.3            1 S1                 0.0000
     24 ****         0.2096   1.5546   4.8242 C.3            1 S1                 0.0000
     25 ****         1.5837   2.1650   5.1564 C.3            1 S1                 0.0000
     26 ****         1.2420   3.4876   5.8228 C.3            1 S1                 0.0000
     27 ****        -0.2055   3.2940   6.2585 C.3            1 S1                 0.0000
     28 ****        -0.7580   2.5271   5.2017 O.3            1 S1                 0.0000
     29 ****        -4.6458  -0.7122  -1.9345 H              1 S1                 0.0000
     30 ****        -3.2338  -0.2860  -0.9750 H              1 S1                 0.0000
     31 ****        -3.3140  -1.8455  -1.7946 H              1 S1                 0.0000
     32 ****        -3.2433  -0.6859  -4.0234 H              1 S1                 0.0000
     33 ****        -3.3241   0.8540  -3.2191 H              1 S1                 0.0000
     34 ****        -1.1000   0.3615  -2.1304 H              1 S1                 0.0000
     35 ****         0.2705   0.6731  -4.2753 H              1 S1                 0.0000
     36 ****        -1.2067   0.4859  -5.1735 H              1 S1                 0.0000
     37 ****        -0.5691   2.8852  -4.7881 H              1 S1                 0.0000
     38 ****        -0.6839   2.6470  -3.0489 H              1 S1                 0.0000
     39 ****        -2.1281   2.5497  -4.0571 H              1 S1                 0.0000
     40 ****        -1.2493  -2.1896  -2.4577 H              1 S1                 0.0000
     41 ****        -0.9723  -1.9324  -4.1493 H              1 S1                 0.0000
     42 ****         1.1175  -2.9454  -4.4302 H              1 S1                 0.0000
     43 ****         2.4664  -2.5740  -3.3939 H              1 S1                 0.0000
     44 ****         1.3705  -3.8480  -1.5069 H              1 S1                 0.0000
     45 ****         0.0085  -4.2160  -2.5535 H              1 S1                 0.0000
     46 ****         3.8692   0.6545  -0.9547 H              1 S1                 0.0000
     47 ****        -1.3953  -1.6847   1.9234 H              1 S1                 0.0000
     48 ****         0.4568  -0.9844   3.7244 H              1 S1                 0.0000
     49 ****         1.8178  -0.0453   3.1590 H              1 S1                 0.0000
     50 ****        -1.0881   0.9251   3.2228 H              1 S1                 0.0000
     51 ****         0.2049   1.8341   1.5870 H              1 S1                 0.0000
     52 ****         0.0451   0.7004   5.4836 H              1 S1                 0.0000
     53 ****         2.1233   1.5134   5.8449 H              1 S1                 0.0000
     54 ****         2.2209   2.3152   4.2848 H              1 S1                 0.0000
     55 ****         1.9061   3.7335   6.6519 H              1 S1                 0.0000
     56 ****         1.2997   4.2945   5.0910 H              1 S1                 0.0000
     57 ****        -0.2612   2.7287   7.1904 H              1 S1                 0.0000
     58 ****        -0.7354   4.2373   6.3928 H              1 S1                 0.0000
     59 ****         2.7969  -6.9612  -3.7461 LP             1 S1                 0.0000
     60 ****         2.8441  -0.3444  -2.7598 LP             1 S1                 0.0000
     61 ****         2.9248   0.6302   1.2198 LP             1 S1                 0.0000
     62 ****        -1.2917  -2.2037  -0.5163 LP             1 S1                 0.0000
     63 ****         1.3472   2.3183   2.5824 LP             1 S1                 0.0000
     64 ****        -0.1532   2.9588   2.6532 LP             1 S1                 0.0000
     65 ****        -1.5943   2.0740   5.5103 LP             1 S1                 0.0000
     66 ****        -0.9674   3.1195   4.4238 LP             1 S1                 0.0000
@<TRIPOS>BOND
    1    1    2 1     
    2    1   29 1     
    3    1   30 1     
    4    1   31 1     
    5    2    3 1     
    6    2   32 1     
    7    2   33 1     
    8    3    4 1     
    9    3    6 1     
   10    3   34 1     
   11    4    5 1     
   12    4   35 1     
   13    4   36 1     
   14    5   37 1     
   15    5   38 1     
   16    5   39 1     
   17    6    7 1     
   18    6   40 1     
   19    6   41 1     
   20    7    8 1     
   21    7   12 1     
   22    8    9 1     
   23    8   42 1     
   24    8   43 1     
   25    9   10 1     
   26    9   44 1     
   27    9   45 1     
   28   10   11 3     
   29   12   17 ar    
   30   12   13 ar    
   31   13   14 ar    
   32   14   15 ar    
   33   14   46 1     
   34   15   16 ar    
   35   16   20 1     
   36   16   17 ar    
   37   17   18 1     
   38   18   19 2     
   39   19   20 1     
   40   19   47 1     
   41   20   21 1     
   42   21   22 1     
   43   21   48 1     
   44   21   49 1     
   45   22   23 1     
   46   22   24 1     
   47   22   50 1     
   48   23   51 1     
   49   24   28 1     
   50   24   25 1     
   51   24   52 1     
   52   25   26 1     
   53   25   53 1     
   54   25   54 1     
   55   26   27 1     
   56   26   55 1     
   57   26   56 1     
   58   27   28 1     
   59   27   57 1     
   60   27   58 1     
   61   11   59 1     
   62   13   60 1     
   63   15   61 1     
   64   18   62 1     
   65   23   63 1     
   66   23   64 1     
   67   28   65 1     
   68   28   66 1     
@<TRIPOS>SUBSTRUCTURE
      1 S1             1
@<TRIPOS>SET
LONE_PAIRS      STATIC     ATOMS    <user>   **** ""
8 59 60 61 62 63 64 65 66
DONOR_HYDROGENS      STATIC     ATOMS    <user>   **** ""
1 51
ATOM$BLUE        STATIC     ATOMS    COLORGROUP SYSTEM
8 59 60 61 62 63 64 65 66
ATOM$RED        STATIC     ATOMS    COLORGROUP SYSTEM
1 51
