AV-unprocessed.smi:67|AV-procd|sdf|634|dock8
  -GOLD-   2262016533D 1   1.00000     0.00000
 Structure written by MMmdl.
 48 50  0  0  0  0  0  0  0  0  2 V2000
  147.7382  137.1252  153.8813 O   0  0  0  0  0  0  0  0  0  0  0  0
  146.6242  137.9726  153.6628 C   0  0  2  0  0  0  0  0  0  0  0  0
  146.5907  138.9496  154.8636 C   0  0  0  0  0  0  0  0  0  0  0  0
  147.8685  139.5738  155.2171 N   0  0  0  0  0  0  0  0  0  0  0  0
  147.8176  140.1754  156.5515 C   0  0  0  0  0  0  0  0  0  0  0  0
  149.1803  140.7250  157.0060 C   0  0  0  0  0  0  0  0  0  0  0  0
  149.7366  141.7166  155.9612 C   0  0  0  0  0  0  0  0  0  0  0  0
  150.9855  142.3186  156.3113 O   0  0  0  0  0  0  0  0  0  0  0  0
  151.2797  142.7663  157.5854 C   0  0  0  0  0  0  0  0  0  0  0  0
  150.7471  143.9246  158.2048 C   0  0  0  0  0  0  0  0  0  0  0  0
  151.1246  144.2723  159.5156 C   0  0  0  0  0  0  0  0  0  0  0  0
  152.0400  143.4754  160.2260 C   0  0  0  0  0  0  0  0  0  0  0  0
  152.5869  142.3233  159.6244 C   0  0  0  0  0  0  0  0  0  0  0  0
  153.5753  141.4437  160.3750 C   0  0  0  0  0  0  0  0  0  0  0  0
  154.7858  141.5365  159.8237 F   0  0  0  0  0  0  0  0  0  0  0  0
  153.6722  141.7987  161.6567 F   0  0  0  0  0  0  0  0  0  0  0  0
  153.1707  140.1757  160.3116 F   0  0  0  0  0  0  0  0  0  0  0  0
  152.1956  141.9784  158.3134 C   0  0  0  0  0  0  0  0  0  0  0  0
  149.6549  141.1783  154.5164 C   0  0  0  0  0  0  0  0  0  0  0  0
  148.2541  140.6056  154.2463 C   0  0  0  0  0  0  0  0  0  0  0  0
  145.3910  137.0956  153.4166 C   0  0  0  0  0  0  0  0  0  0  0  0
  145.5566  136.6520  151.9618 C   0  0  0  0  0  0  0  0  0  0  0  0
  146.2724  137.7493  151.2810 N   0  3  0  0  0  0  0  0  0  0  0  0
  146.8262  138.6613  152.3037 C   0  0  0  0  0  0  0  0  0  0  0  0
  148.1154  136.9007  153.0438 H   0  0  0  0  0  0  0  0  0  0  0  0
  145.8414  139.7253  154.6945 H   0  0  0  0  0  0  0  0  0  0  0  0
  146.2145  138.3810  155.7159 H   0  0  0  0  0  0  0  0  0  0  0  0
  147.0737  140.9736  156.5702 H   0  0  0  0  0  0  0  0  0  0  0  0
  147.4891  139.4320  157.2789 H   0  0  0  0  0  0  0  0  0  0  0  0
  149.0729  141.2270  157.9678 H   0  0  0  0  0  0  0  0  0  0  0  0
  149.8510  139.8878  157.1807 H   0  0  0  0  0  0  0  0  0  0  0  0
  149.0485  142.5627  155.9841 H   0  0  0  0  0  0  0  0  0  0  0  0
  150.0455  144.5725  157.7091 H   0  0  0  0  0  0  0  0  0  0  0  0
  150.7091  145.1554  159.9781 H   0  0  0  0  0  0  0  0  0  0  0  0
  152.3162  143.7546  161.2323 H   0  0  0  0  0  0  0  0  0  0  0  0
  152.6068  141.0913  157.8538 H   0  0  0  0  0  0  0  0  0  0  0  0
  149.8644  141.9841  153.8123 H   0  0  0  0  0  0  0  0  0  0  0  0
  150.3931  140.4070  154.3141 H   0  0  0  0  0  0  0  0  0  0  0  0
  148.2237  140.2155  153.2309 H   0  0  0  0  0  0  0  0  0  0  0  0
  147.5263  141.4186  154.2690 H   0  0  0  0  0  0  0  0  0  0  0  0
  145.2962  136.2625  154.1143 H   0  0  0  0  0  0  0  0  0  0  0  0
  144.4791  137.6888  153.4741 H   0  0  0  0  0  0  0  0  0  0  0  0
  146.1720  135.7530  151.9095 H   0  0  0  0  0  0  0  0  0  0  0  0
  144.6035  136.4347  151.4788 H   0  0  0  0  0  0  0  0  0  0  0  0
  147.0194  137.3641  150.7207 H   0  0  0  0  0  0  0  0  0  0  0  0
  146.2513  139.5870  152.2576 H   0  0  0  0  0  0  0  0  0  0  0  0
  147.8675  138.9136  152.0986 H   0  0  0  0  0  0  0  0  0  0  0  0
  145.6344  138.2638  150.6909 H   0  0  0  0  0  0  0  0  0  0  0  0
  1  2  1  0  0  0  0
  1 25  1  0  0  0  0
  2 24  1  0  0  0  0
  2  3  1  0  0  0  0
  2 21  1  0  0  0  0
  3  4  1  0  0  0  0
  3 26  1  0  0  0  0
  3 27  1  0  0  0  0
  4 20  1  0  0  0  0
  4  5  1  0  0  0  0
  5  6  1  0  0  0  0
  5 28  1  0  0  0  0
  5 29  1  0  0  0  0
  6  7  1  0  0  0  0
  6 30  1  0  0  0  0
  6 31  1  0  0  0  0
  7  8  1  0  0  0  0
  7 19  1  0  0  0  0
  7 32  1  0  0  0  0
  8  9  1  0  0  0  0
  9 18  1  0  0  0  0
  9 10  2  0  0  0  0
 10 11  1  0  0  0  0
 10 33  1  0  0  0  0
 11 12  2  0  0  0  0
 11 34  1  0  0  0  0
 12 13  1  0  0  0  0
 12 35  1  0  0  0  0
 13 14  1  0  0  0  0
 13 18  2  0  0  0  0
 14 15  1  0  0  0  0
 14 16  1  0  0  0  0
 14 17  1  0  0  0  0
 18 36  1  0  0  0  0
 19 20  1  0  0  0  0
 19 37  1  0  0  0  0
 19 38  1  0  0  0  0
 20 39  1  0  0  0  0
 20 40  1  0  0  0  0
 21 22  1  0  0  0  0
 21 41  1  0  0  0  0
 21 42  1  0  0  0  0
 22 23  1  0  0  0  0
 22 43  1  0  0  0  0
 22 44  1  0  0  0  0
 23 24  1  0  0  0  0
 23 45  1  0  0  0  0
 23 48  1  0  0  0  0
 24 46  1  0  0  0  0
 24 47  1  0  0  0  0
M  CHG  1  23   1
M  END
> <s_m_source_file>
AV-unprocessed.smi

> <i_m_source_file_index>
67

> <i_lp_mmshare_version>
43012

> <i_f3d_flags>
0

> <s_epik_input>
W0NIMl0xW05IXVtDSDJdW0NIMl1bQ0BAXTEoW09IXSlbQ0gyXU4yW0NIMl1bQ0gyXVtDSF0oW0NIMl1bQ0gyXTIpT2MzW2NIXVtjSF1bY0hdYyhDKEYpKEYpRilbY0hdMw==

> <s_epik_cmdline>
J2VwaWtfcHl0aG9uJywgJy1waCcsICc3LjAnLCAnLXRuJywgJzgnLCAnLW1hJywgJzIwMCcsICctbWV0YWxfYmluZGluZycsICctaW1hZScsICc8aW5maWxlLm1hZT4nLCAnLW9tYWUnLCAnPG91dGZpbGUubWFlPic=

> <r_lp_tautomer_probability>
1

> <r_epik_Ionization_Penalty>
1.18002

> <r_epik_Ionization_Penalty_Charging>
0.00399663

> <r_epik_Ionization_Penalty_Neutral>
1.17602

> <r_epik_State_Penalty>
1.25421

> <r_epik_Charging_Adjusted_Penalty>
1.25821

> <i_epik_Tot_Q>
1

> <i_epik_Tot_abs_Q>
1

> <r_epik_Metal_State_Penalty>
1.25387

> <b_epik_Metal_Only>
0

> <s_lp_Force_Field>
OPLS_2005

> <r_lp_Energy>
62.5676

> <b_lp_Chiralities_Consistent>
1

> <s_lp_Variant>
AV-unprocessed.smi:67-6

> <Gold.Version>
5.8.1

> <Gold.Id.Protein>
6NUR|6NUR_protein|mol2

> <Gold.PLP.Fitness>
49.0723

> <Gold.PLP.PLP>
-44.0246

> <Gold.PLP.part.hbond>
-2.3563

> <Gold.PLP.part.metal>
0.0000

> <Gold.PLP.part.buried>
-2.8091

> <Gold.PLP.part.nonpolar>
-38.1528

> <Gold.PLP.part.repulsive>
0.2177

> <Gold.PLP.ligand.clash>
0.2646

> <Gold.PLP.ligand.torsion>
0.6826

> <Gold.PLP.Chemscore.Hbond>
2.0000

> <Gold.PLP.Chemscore.CHOScore>
0.0000

> <Gold.PLP.Chemscore.Metal>
0.0000

> <Gold.Chemscore.Hbonds>
donor molecule, donor type, donor heavy atom, donor atom, acceptor molecule, acceptor atom, score
      L1  H     1    25       P1  7948  1.00
      L1  H    23    48       P1 10171  1.00

> <Gold.PLP.Chemscore.Internal.Correction>
0.6776

> <Gold.Rescore>
     Score         DG    S(hbond)    S(metal)    S(lipo)     H(rot)  DE(clash)    DE(int)     intcor
     19.25     -20.63       2.01        0.00     119.99       2.19       0.52       0.86       ----

> <Gold.Chemscore.Fitness>
19.2475

> <Gold.Chemscore.DG>
-20.6263

> <Gold.Chemscore.ZeroCoef>
-5.4800

> <Gold.Chemscore.Hbond>
2.0093

> <Gold.Chemscore.Metal>
0.0000

> <Gold.Chemscore.Lipo>
119.9859

> <Gold.Chemscore.Internal_Hbond>
0.0000

> <Gold.Chemscore.DEClash>
0.5197

> <Gold.Chemscore.DEInternal>
0.8591

> <Gold.Chemscore.Rot>
2.1887

> <Gold.Chemscore.Internal.Correction>
   9.000000E+99

> <Gold.Chemscore.Hbonds>
donor molecule, donor type, donor heavy atom, donor atom, acceptor molecule, acceptor atom, score
      L1  H     1    25       P1  7948  0.98
      L1  H    23    45       P1  7948  0.02
      L1  H    23    48       P1 10171  0.95

> <Gold.Chemscore.Hbond.Weighted>
-6.7111

> <Gold.Chemscore.Metal.Weighted>
-0.0000

> <Gold.Chemscore.Lipo.Weighted>
-14.0383

> <Gold.Chemscore.Internal_Hbond.Weighted>
0.0000

> <Gold.Chemscore.DEClash.Weighted>
0.5197

> <Gold.Chemscore.DEInternal.Weighted>
0.8591

> <Gold.Chemscore.Rot.Weighted>
5.6032

> <Gold.Chemscore.Internal.Correction.Weighted>
   9.000000E+99

> <Gold.Protein.RotatedTorsions>
[ 6907 6896 6895 6894 ] final  148.38 input  -60.11 | X-H torsion
[ 7974 7965 7964 7962 ] final  -60.09 input  175.53 | X-H torsion
[ 8008 7997 7996 7995 ] final  -61.62 input   59.86 | X-H torsion
[ 10167 10162 10161 10158 ] final  178.08 input  -65.29 | X-H torsion
[ 10718 10713 10712 10709 ] final -169.43 input   66.30 | X-H torsion
[ 10763 10752 10751 10750 ] final  159.75 input  -60.55 | X-H torsion
[ 11005 11000 10999 10996 ] final   45.31 input  -57.11 | X-H torsion

> <Gold.Protein.ActiveResidues>
 VAL166  LYS551  ARG553  GLY616  TRP617  ASP618  TYR619  PRO620  LYS621  CYS622 
 ASP623  PHE694  ASN695  SER759  ASP760  ASP761  ALA762  ILE779  LEU786  VAL792 
 PHE793  MET794  SER795  GLU796  ALA797  LYS798  CYS799  TRP800  GLU811  SER814 

> <Gold.Protein.RotatedAtoms>
  152.1423  133.4471  159.4772 H   0  0  0  0  0  0  0  0  0  0  0  0  # atno 6907 bound_to 6896
  150.6887  134.2290  159.4436 H   0  0  0  0  0  0  0  0  0  0  0  0  # atno 6908 bound_to 6896
  152.0182  134.9837  160.0620 H   0  0  0  0  0  0  0  0  0  0  0  0  # atno 6909 bound_to 6896
  145.8197  140.8548  143.0139 H   0  0  0  0  0  0  0  0  0  0  0  0  # atno 7974 bound_to 7965
  154.4457  140.1014  156.6459 H   0  0  0  0  0  0  0  0  0  0  0  0  # atno 8008 bound_to 7997
  155.5451  140.3484  155.4437 H   0  0  0  0  0  0  0  0  0  0  0  0  # atno 8009 bound_to 7997
  156.0569  140.1317  156.9975 H   0  0  0  0  0  0  0  0  0  0  0  0  # atno 8010 bound_to 7997
  139.5279  144.2722  152.0618 H   0  0  0  0  0  0  0  0  0  0  0  0  # atno 10167 bound_to 10162
  156.7114  130.9235  151.3089 H   0  0  0  0  0  0  0  0  0  0  0  0  # atno 10718 bound_to 10713
  154.2366  135.2776  155.2869 H   0  0  0  0  0  0  0  0  0  0  0  0  # atno 10763 bound_to 10752
  154.5579  135.5655  153.6984 H   0  0  0  0  0  0  0  0  0  0  0  0  # atno 10764 bound_to 10752
  153.0008  135.6290  154.2509 H   0  0  0  0  0  0  0  0  0  0  0  0  # atno 10765 bound_to 10752
  140.1472  134.4508  155.8407 H   0  0  0  0  0  0  0  0  0  0  0  0  # atno 11005 bound_to 11000
  144.6749  140.0515  143.7478 LP  0  0  0  0  0  0  0  0  0  0  0  0  # atno 17320 bound_to 7965
  145.9688  139.2855  143.1111 LP  0  0  0  0  0  0  0  0  0  0  0  0  # atno 17321 bound_to 7965
  140.2181  144.4494  150.6354 LP  0  0  0  0  0  0  0  0  0  0  0  0  # atno 17342 bound_to 10162
  140.6436  143.2209  151.6235 LP  0  0  0  0  0  0  0  0  0  0  0  0  # atno 17343 bound_to 10162
  157.6935  130.9257  150.0578 LP  0  0  0  0  0  0  0  0  0  0  0  0  # atno 17370 bound_to 10713
  156.1659  130.3645  149.9234 LP  0  0  0  0  0  0  0  0  0  0  0  0  # atno 17371 bound_to 10713
  141.2194  133.6857  156.7355 LP  0  0  0  0  0  0  0  0  0  0  0  0  # atno 17394 bound_to 11000
  140.2649  134.8437  157.3793 LP  0  0  0  0  0  0  0  0  0  0  0  0  # atno 17395 bound_to 11000

$$$$
