AV-unprocessed.smi:1240|AV-procd|sdf|5198|dock1
  -GOLD-   22720 4283D 1   1.00000     0.00000
 Structure written by MMmdl.
 47 49  0  0  0  0  0  0  0  0  1 V2000
  144.6149  136.7808  152.1297 O   0  0  0  0  0  0  0  0  0  0  0  0
  145.8268  136.5746  152.0667 C   0  0  0  0  0  0  0  0  0  0  0  0
  146.7449  137.4244  152.5484 N   0  0  0  0  0  0  0  0  0  0  0  0
  146.4465  138.6752  153.2393 C   0  0  0  0  0  0  0  0  0  0  0  0
  147.7245  139.4961  153.5763 C   0  0  1  0  0  0  0  0  0  0  0  0
  147.4018  140.8280  154.3195 C   0  0  1  0  0  0  0  0  0  0  0  0
  146.9598  142.0316  153.4832 C   0  0  0  0  0  0  0  0  0  0  0  0
  145.8043  142.6348  154.2849 C   0  0  0  0  0  0  0  0  0  0  0  0
  145.9593  142.1029  155.5919 O   0  0  0  0  0  0  0  0  0  0  0  0
  146.3552  140.7503  155.4370 C   0  0  0  0  0  0  0  0  0  0  0  0
  148.8321  138.7117  154.1565 N   0  0  0  0  0  0  0  0  0  0  0  0
  150.0612  139.4563  154.4221 C   0  0  0  0  0  0  0  0  0  0  0  0
  151.1844  138.5385  154.9371 C   0  0  0  0  0  0  0  0  0  0  0  0
  150.7418  137.8256  156.0871 O   0  0  0  0  0  0  0  0  0  0  0  0
  149.5817  137.0409  155.8319 C   0  0  0  0  0  0  0  0  0  0  0  0
  148.4459  137.9552  155.3454 C   0  0  0  0  0  0  0  0  0  0  0  0
  146.4063  135.4803  151.5437 N   0  0  0  0  0  0  0  0  0  0  0  0
  145.7853  134.3343  150.9776 C   0  0  0  0  0  0  0  0  0  0  0  0
  146.5652  133.1682  150.8337 C   0  0  0  0  0  0  0  0  0  0  0  0
  145.9753  132.0230  150.2629 C   0  0  0  0  0  0  0  0  0  0  0  0
  144.6965  131.9838  149.8331 N   0  0  0  0  0  0  0  0  0  0  0  0
  143.9562  133.1057  149.9571 C   0  0  0  0  0  0  0  0  0  0  0  0
  144.4480  134.3030  150.5142 C   0  0  0  0  0  0  0  0  0  0  0  0
  147.7194  137.1782  152.4550 H   0  0  0  0  0  0  0  0  0  0  0  0
  145.7753  139.2494  152.6016 H   0  0  0  0  0  0  0  0  0  0  0  0
  145.8773  138.4403  154.1387 H   0  0  0  0  0  0  0  0  0  0  0  0
  148.1042  139.8385  152.6126 H   0  0  0  0  0  0  0  0  0  0  0  0
  148.3223  141.1415  154.8146 H   0  0  0  0  0  0  0  0  0  0  0  0
  147.7808  142.7445  153.3986 H   0  0  0  0  0  0  0  0  0  0  0  0
  146.6487  141.7834  152.4700 H   0  0  0  0  0  0  0  0  0  0  0  0
  145.8204  143.7248  154.2912 H   0  0  0  0  0  0  0  0  0  0  0  0
  144.8450  142.3106  153.8788 H   0  0  0  0  0  0  0  0  0  0  0  0
  145.4819  140.1608  155.1554 H   0  0  0  0  0  0  0  0  0  0  0  0
  146.7596  140.3416  156.3632 H   0  0  0  0  0  0  0  0  0  0  0  0
  150.4164  139.9380  153.5143 H   0  0  0  0  0  0  0  0  0  0  0  0
  149.8751  140.2423  155.1541 H   0  0  0  0  0  0  0  0  0  0  0  0
  151.4891  137.8337  154.1620 H   0  0  0  0  0  0  0  0  0  0  0  0
  152.0641  139.1265  155.1979 H   0  0  0  0  0  0  0  0  0  0  0  0
  149.8064  136.2726  155.0904 H   0  0  0  0  0  0  0  0  0  0  0  0
  149.2896  136.5274  156.7479 H   0  0  0  0  0  0  0  0  0  0  0  0
  148.1789  138.6329  156.1557 H   0  0  0  0  0  0  0  0  0  0  0  0
  147.5621  137.3521  155.1337 H   0  0  0  0  0  0  0  0  0  0  0  0
  147.4100  135.4261  151.6341 H   0  0  0  0  0  0  0  0  0  0  0  0
  147.5949  133.1443  151.1596 H   0  0  0  0  0  0  0  0  0  0  0  0
  146.5473  131.1143  150.1472 H   0  0  0  0  0  0  0  0  0  0  0  0
  142.9402  133.0503  149.5948 H   0  0  0  0  0  0  0  0  0  0  0  0
  143.8006  135.1648  150.5630 H   0  0  0  0  0  0  0  0  0  0  0  0
  1  2  2  0  0  0  0
  2  3  1  0  0  0  0
  2 17  1  0  0  0  0
  3  4  1  0  0  0  0
  3 24  1  0  0  0  0
  4  5  1  0  0  0  0
  4 25  1  0  0  0  0
  4 26  1  0  0  0  0
  5  6  1  0  0  0  0
  5 11  1  0  0  0  0
  5 27  1  0  0  0  0
  6 10  1  0  0  0  0
  6  7  1  0  0  0  0
  6 28  1  0  0  0  0
  7  8  1  0  0  0  0
  7 29  1  0  0  0  0
  7 30  1  0  0  0  0
  8  9  1  0  0  0  0
  8 31  1  0  0  0  0
  8 32  1  0  0  0  0
  9 10  1  0  0  0  0
 10 33  1  0  0  0  0
 10 34  1  0  0  0  0
 11 16  1  0  0  0  0
 11 12  1  0  0  0  0
 12 13  1  0  0  0  0
 12 35  1  0  0  0  0
 12 36  1  0  0  0  0
 13 14  1  0  0  0  0
 13 37  1  0  0  0  0
 13 38  1  0  0  0  0
 14 15  1  0  0  0  0
 15 16  1  0  0  0  0
 15 39  1  0  0  0  0
 15 40  1  0  0  0  0
 16 41  1  0  0  0  0
 16 42  1  0  0  0  0
 17 18  1  0  0  0  0
 17 43  1  0  0  0  0
 18 23  1  0  0  0  0
 18 19  2  0  0  0  0
 19 20  1  0  0  0  0
 19 44  1  0  0  0  0
 20 21  2  0  0  0  0
 20 45  1  0  0  0  0
 21 22  1  0  0  0  0
 22 23  2  0  0  0  0
 22 46  1  0  0  0  0
 23 47  1  0  0  0  0
M  END
> <s_m_source_file>
AV-unprocessed.smi

> <i_m_source_file_index>
1240

> <i_lp_mmshare_version>
43012

> <i_f3d_flags>
0

> <s_epik_input>
W2NIXTFbY0hdbltjSF1bY0hdYzFbTkhdQyg9TylbTkhdW0NIMl1bQ0BIXShbQ0BASF0yW0NIMl1bQ0gyXU9bQ0gyXTIpTjNbQ0gyXVtDSDJdT1tDSDJdW0NIMl0z

> <s_epik_cmdline>
J2VwaWtfcHl0aG9uJywgJy1waCcsICc3LjAnLCAnLXRuJywgJzgnLCAnLW1hJywgJzIwMCcsICctbWV0YWxfYmluZGluZycsICctaW1hZScsICc8aW5maWxlLm1hZT4nLCAnLW9tYWUnLCAnPG91dGZpbGUubWFlPic=

> <r_epik_Ionization_Penalty>
0.238664

> <r_epik_Ionization_Penalty_Charging>
0

> <r_epik_Ionization_Penalty_Neutral>
0.238664

> <r_epik_State_Penalty>
0.217087

> <r_epik_Charging_Adjusted_Penalty>
0.217087

> <i_epik_Tot_Q>
0

> <i_epik_Tot_abs_Q>
0

> <r_epik_Metal_State_Penalty>
0.199194

> <b_epik_Metal_Only>
0

> <s_lp_Force_Field>
OPLS_2005

> <r_lp_Energy>
57.1619

> <b_lp_Chiralities_Consistent>
1

> <s_lp_Variant>
AV-unprocessed.smi:1240-4

> <Gold.Version>
5.8.1

> <Gold.Id.Protein>
6NUR|6NUR_protein|mol2

> <Gold.PLP.Fitness>
45.9039

> <Gold.PLP.PLP>
-35.1553

> <Gold.PLP.part.hbond>
-2.1430

> <Gold.PLP.part.metal>
0.0000

> <Gold.PLP.part.buried>
-5.0782

> <Gold.PLP.part.nonpolar>
-28.5134

> <Gold.PLP.part.repulsive>
0.9336

> <Gold.PLP.ligand.clash>
0.0000

> <Gold.PLP.ligand.torsion>
0.8612

> <Gold.PLP.Chemscore.Hbond>
2.0000

> <Gold.PLP.Chemscore.CHOScore>
1.9972

> <Gold.PLP.Chemscore.Metal>
0.0000

> <Gold.Chemscore.Hbonds>
donor molecule, donor type, donor heavy atom, donor atom, acceptor molecule, acceptor atom, score
      L1  H     3    24       P1  7948  1.00
      L1  H    17    43       P1  7948  1.00
      L1  C    20    45       P1 10747  0.96
      L1  C    22    46       P1 10186  1.00

> <Gold.PLP.Chemscore.Internal.Correction>
0.4792

> <Gold.Rescore>
     Score         DG    S(hbond)    S(metal)    S(lipo)     H(rot)  DE(clash)    DE(int)     intcor
     16.39     -18.32       1.94        0.00      90.51       1.65       0.08       1.85       ----

> <Gold.Chemscore.Fitness>
16.3917

> <Gold.Chemscore.DG>
-18.3174

> <Gold.Chemscore.ZeroCoef>
-5.4800

> <Gold.Chemscore.Hbond>
1.9385

> <Gold.Chemscore.Metal>
0.0000

> <Gold.Chemscore.Lipo>
90.5056

> <Gold.Chemscore.Internal_Hbond>
0.0000

> <Gold.Chemscore.DEClash>
0.0785

> <Gold.Chemscore.DEInternal>
1.8473

> <Gold.Chemscore.Rot>
1.6508

> <Gold.Chemscore.Internal.Correction>
   9.000000E+99

> <Gold.Chemscore.Hbonds>
donor molecule, donor type, donor heavy atom, donor atom, acceptor molecule, acceptor atom, score
      L1  H     3    24       P1  7948  0.96
      L1  H    17    43       P1  7948  0.91

> <Gold.Chemscore.Hbond.Weighted>
-6.4745

> <Gold.Chemscore.Metal.Weighted>
-0.0000

> <Gold.Chemscore.Lipo.Weighted>
-10.5892

> <Gold.Chemscore.Internal_Hbond.Weighted>
0.0000

> <Gold.Chemscore.DEClash.Weighted>
0.0785

> <Gold.Chemscore.DEInternal.Weighted>
1.8473

> <Gold.Chemscore.Rot.Weighted>
4.2262

> <Gold.Chemscore.Internal.Correction.Weighted>
   9.000000E+99

> <Gold.Protein.RotatedTorsions>
[ 6907 6896 6895 6894 ] final  112.14 input  -60.11 | X-H torsion
[ 7974 7965 7964 7962 ] final  131.38 input  175.53 | X-H torsion
[ 8008 7997 7996 7995 ] final  154.14 input   59.86 | X-H torsion
[ 10167 10162 10161 10158 ] final    5.80 input  -65.29 | X-H torsion
[ 10718 10713 10712 10709 ] final -137.61 input   66.30 | X-H torsion
[ 10763 10752 10751 10750 ] final  124.29 input  -60.55 | X-H torsion
[ 11005 11000 10999 10996 ] final -143.88 input  -57.11 | X-H torsion

> <Gold.Protein.ActiveResidues>
 VAL166  LYS551  ARG553  GLY616  TRP617  ASP618  TYR619  PRO620  LYS621  CYS622 
 ASP623  PHE694  ASN695  SER759  ASP760  ASP761  ALA762  ILE779  LEU786  VAL792 
 PHE793  MET794  SER795  GLU796  ALA797  LYS798  CYS799  TRP800  GLU811  SER814 

> <Gold.Protein.RotatedAtoms>
  152.4932  133.8558  159.7224 H   0  0  0  0  0  0  0  0  0  0  0  0  # atno 6907 bound_to 6896
  150.9082  133.7021  159.2868 H   0  0  0  0  0  0  0  0  0  0  0  0  # atno 6908 bound_to 6896
  151.4439  135.1027  159.9730 H   0  0  0  0  0  0  0  0  0  0  0  0  # atno 6909 bound_to 6896
  145.0079  139.4248  143.5259 H   0  0  0  0  0  0  0  0  0  0  0  0  # atno 7974 bound_to 7965
  156.2546  140.1974  156.6600 H   0  0  0  0  0  0  0  0  0  0  0  0  # atno 8008 bound_to 7997
  154.6471  140.0576  156.9938 H   0  0  0  0  0  0  0  0  0  0  0  0  # atno 8009 bound_to 7997
  155.1474  140.3248  155.4441 H   0  0  0  0  0  0  0  0  0  0  0  0  # atno 8010 bound_to 7997
  140.6463  143.7655  150.7503 H   0  0  0  0  0  0  0  0  0  0  0  0  # atno 10167 bound_to 10162
  156.2900  130.7369  151.1392 H   0  0  0  0  0  0  0  0  0  0  0  0  # atno 10718 bound_to 10713
  153.6591  135.3349  155.3122 H   0  0  0  0  0  0  0  0  0  0  0  0  # atno 10763 bound_to 10752
  154.8519  135.4359  154.1823 H   0  0  0  0  0  0  0  0  0  0  0  0  # atno 10764 bound_to 10752
  153.2786  135.7007  153.7484 H   0  0  0  0  0  0  0  0  0  0  0  0  # atno 10765 bound_to 10752
  140.8080  134.2778  157.4952 H   0  0  0  0  0  0  0  0  0  0  0  0  # atno 11005 bound_to 11000
  146.3464  139.9506  142.8729 LP  0  0  0  0  0  0  0  0  0  0  0  0  # atno 17320 bound_to 7965
  145.2063  140.9876  143.4126 LP  0  0  0  0  0  0  0  0  0  0  0  0  # atno 17321 bound_to 7965
  140.1296  143.4537  152.2262 LP  0  0  0  0  0  0  0  0  0  0  0  0  # atno 17342 bound_to 10162
  139.5673  144.7443  151.3986 LP  0  0  0  0  0  0  0  0  0  0  0  0  # atno 17343 bound_to 10162
  157.7339  131.0586  150.5549 LP  0  0  0  0  0  0  0  0  0  0  0  0  # atno 17370 bound_to 10713
  156.5665  130.4269  149.6039 LP  0  0  0  0  0  0  0  0  0  0  0  0  # atno 17371 bound_to 10713
  139.8716  134.9467  156.3946 LP  0  0  0  0  0  0  0  0  0  0  0  0  # atno 17394 bound_to 11000
  140.9227  133.7634  155.9926 LP  0  0  0  0  0  0  0  0  0  0  0  0  # atno 17395 bound_to 11000

$$$$
