AV-unprocessed.smi:1587|AV-procd|sdf|6388|dock4
  -GOLD-   22720 7 23D 1   1.00000     0.00000
 Structure written by MMmdl.
 37 38  0  0  0  0  0  0  0  0  2 V2000
  144.7016  136.4783  152.8502 O   0  0  0  0  0  0  0  0  0  0  0  0
  145.8868  136.2656  152.5922 C   0  0  0  0  0  0  0  0  0  0  0  0
  146.8880  137.0227  153.0641 N   0  0  0  0  0  0  0  0  0  0  0  0
  146.7143  138.1784  153.9368 C   0  0  0  0  0  0  0  0  0  0  0  0
  148.0412  138.9340  154.1444 C   0  0  0  0  0  0  0  0  0  0  0  0
  149.1996  138.0167  154.2817 N   0  3  0  0  0  0  0  0  0  0  0  0
  150.4480  138.7347  154.6345 C   0  0  0  0  0  0  0  0  0  0  0  0
  151.6290  137.7536  154.7216 C   0  0  0  0  0  0  0  0  0  0  0  0
  151.3352  136.7377  155.6718 O   0  0  0  0  0  0  0  0  0  0  0  0
  150.1904  135.9795  155.3022 C   0  0  0  0  0  0  0  0  0  0  0  0
  148.9602  136.9000  155.2300 C   0  0  0  0  0  0  0  0  0  0  0  0
  146.3495  135.2694  151.8161 N   0  0  0  0  0  0  0  0  0  0  0  0
  145.6038  134.2721  151.1326 C   0  0  0  0  0  0  0  0  0  0  0  0
  146.3767  133.2553  150.5273 C   0  0  0  0  0  0  0  0  0  0  0  0
  145.7310  132.2206  149.8230 C   0  0  0  0  0  0  0  0  0  0  0  0
  144.3271  132.2293  149.7421 C   0  0  0  0  0  0  0  0  0  0  0  0
  143.6331  133.2781  150.3730 C   0  0  0  0  0  0  0  0  0  0  0  0
  144.2498  134.2708  151.0482 N   0  0  0  0  0  0  0  0  0  0  0  0
  147.8338  136.7802  152.8068 H   0  0  0  0  0  0  0  0  0  0  0  0
  145.9449  138.8278  153.5184 H   0  0  0  0  0  0  0  0  0  0  0  0
  146.3341  137.8250  154.8957 H   0  0  0  0  0  0  0  0  0  0  0  0
  148.1990  139.5824  153.2812 H   0  0  0  0  0  0  0  0  0  0  0  0
  147.9912  139.5896  155.0151 H   0  0  0  0  0  0  0  0  0  0  0  0
  150.6624  139.4979  153.8852 H   0  0  0  0  0  0  0  0  0  0  0  0
  150.3182  139.2487  155.5884 H   0  0  0  0  0  0  0  0  0  0  0  0
  151.8400  137.3088  153.7477 H   0  0  0  0  0  0  0  0  0  0  0  0
  152.5315  138.2791  155.0340 H   0  0  0  0  0  0  0  0  0  0  0  0
  150.3615  135.4811  154.3466 H   0  0  0  0  0  0  0  0  0  0  0  0
  150.0308  135.1975  156.0448 H   0  0  0  0  0  0  0  0  0  0  0  0
  148.7397  137.3014  156.2205 H   0  0  0  0  0  0  0  0  0  0  0  0
  148.0935  136.3156  154.9230 H   0  0  0  0  0  0  0  0  0  0  0  0
  147.3505  135.2178  151.6986 H   0  0  0  0  0  0  0  0  0  0  0  0
  147.4546  133.2632  150.5992 H   0  0  0  0  0  0  0  0  0  0  0  0
  146.3037  131.4346  149.3534 H   0  0  0  0  0  0  0  0  0  0  0  0
  143.7963  131.4532  149.2111 H   0  0  0  0  0  0  0  0  0  0  0  0
  142.5546  133.3220  150.3344 H   0  0  0  0  0  0  0  0  0  0  0  0
  149.3557  137.6069  153.3717 H   0  0  0  0  0  0  0  0  0  0  0  0
  1  2  2  0  0  0  0
  2  3  1  0  0  0  0
  2 12  1  0  0  0  0
  3  4  1  0  0  0  0
  3 19  1  0  0  0  0
  4  5  1  0  0  0  0
  4 20  1  0  0  0  0
  4 21  1  0  0  0  0
  5  6  1  0  0  0  0
  5 22  1  0  0  0  0
  5 23  1  0  0  0  0
  6 11  1  0  0  0  0
  6  7  1  0  0  0  0
  6 37  1  0  0  0  0
  7  8  1  0  0  0  0
  7 24  1  0  0  0  0
  7 25  1  0  0  0  0
  8  9  1  0  0  0  0
  8 26  1  0  0  0  0
  8 27  1  0  0  0  0
  9 10  1  0  0  0  0
 10 11  1  0  0  0  0
 10 28  1  0  0  0  0
 10 29  1  0  0  0  0
 11 30  1  0  0  0  0
 11 31  1  0  0  0  0
 12 13  1  0  0  0  0
 12 32  1  0  0  0  0
 13 18  1  0  0  0  0
 13 14  2  0  0  0  0
 14 15  1  0  0  0  0
 14 33  1  0  0  0  0
 15 16  2  0  0  0  0
 15 34  1  0  0  0  0
 16 17  1  0  0  0  0
 16 35  1  0  0  0  0
 17 18  2  0  0  0  0
 17 36  1  0  0  0  0
M  CHG  1   6   1
M  END
> <s_m_source_file>
AV-unprocessed.smi

> <i_m_source_file_index>
1587

> <i_lp_mmshare_version>
43012

> <i_f3d_flags>
0

> <s_epik_input>
bjFbY0hdW2NIXVtjSF1bY0hdYzFbTkhdQyg9TylbTkhdW0NIMl1bQ0gyXU4yW0NIMl1bQ0gyXU9bQ0gyXVtDSDJdMg==

> <s_epik_cmdline>
J2VwaWtfcHl0aG9uJywgJy1waCcsICc3LjAnLCAnLXRuJywgJzgnLCAnLW1hJywgJzIwMCcsICctbWV0YWxfYmluZGluZycsICctaW1hZScsICc8aW5maWxlLm1hZT4nLCAnLW9tYWUnLCAnPG91dGZpbGUubWFlPic=

> <r_epik_Ionization_Penalty>
0.602565

> <r_epik_Ionization_Penalty_Charging>
0.602531

> <r_epik_Ionization_Penalty_Neutral>
3.41998e-05

> <r_epik_State_Penalty>
0.617039

> <r_epik_Charging_Adjusted_Penalty>
1.21957

> <i_epik_Tot_Q>
1

> <i_epik_Tot_abs_Q>
1

> <r_epik_Metal_State_Penalty>
0.617041

> <b_epik_Metal_Only>
0

> <s_lp_Force_Field>
OPLS_2005

> <r_lp_Energy>
15.9912

> <b_lp_Chiralities_Consistent>
1

> <s_lp_Variant>
AV-unprocessed.smi:1587-2

> <Gold.Version>
5.8.1

> <Gold.Id.Protein>
6NUR|6NUR_protein|mol2

> <Gold.PLP.Fitness>
47.4358

> <Gold.PLP.PLP>
-30.3977

> <Gold.PLP.part.hbond>
-3.9693

> <Gold.PLP.part.metal>
0.0000

> <Gold.PLP.part.buried>
-4.2211

> <Gold.PLP.part.nonpolar>
-23.1343

> <Gold.PLP.part.repulsive>
0.4265

> <Gold.PLP.ligand.clash>
0.0000

> <Gold.PLP.ligand.torsion>
0.1918

> <Gold.PLP.Chemscore.Hbond>
4.8280

> <Gold.PLP.Chemscore.CHOScore>
0.9712

> <Gold.PLP.Chemscore.Metal>
0.0000

> <Gold.Chemscore.Hbonds>
donor molecule, donor type, donor heavy atom, donor atom, acceptor molecule, acceptor atom, score
      L1  H     3    19       P1  7948  1.00
      L1  H     6    37       P1  7948  1.89
      L1  H    12    32       P1  7948  0.90
      P1  H 10752 10765       L1     9  0.21
      L1  C    17    36       P1 10186  1.00

> <Gold.PLP.Chemscore.Internal.Correction>
0.0242

> <Gold.Rescore>
     Score         DG    S(hbond)    S(metal)    S(lipo)     H(rot)  DE(clash)    DE(int)     intcor
     17.54     -19.02       2.81        0.00      70.63       1.60       0.07       1.41       ----

> <Gold.Chemscore.Fitness>
17.5437

> <Gold.Chemscore.DG>
-19.0231

> <Gold.Chemscore.ZeroCoef>
-5.4800

> <Gold.Chemscore.Hbond>
2.8056

> <Gold.Chemscore.Metal>
0.0000

> <Gold.Chemscore.Lipo>
70.6283

> <Gold.Chemscore.Internal_Hbond>
0.0000

> <Gold.Chemscore.DEClash>
0.0727

> <Gold.Chemscore.DEInternal>
1.4067

> <Gold.Chemscore.Rot>
1.5981

> <Gold.Chemscore.Internal.Correction>
   9.000000E+99

> <Gold.Chemscore.Hbonds>
donor molecule, donor type, donor heavy atom, donor atom, acceptor molecule, acceptor atom, score
      L1  H     3    19       P1  7948  0.94
      L1  H     6    37       P1  7948  0.85
      L1  H    12    32       P1  7948  0.80

> <Gold.Chemscore.Hbond.Weighted>
-9.3707

> <Gold.Chemscore.Metal.Weighted>
-0.0000

> <Gold.Chemscore.Lipo.Weighted>
-8.2635

> <Gold.Chemscore.Internal_Hbond.Weighted>
0.0000

> <Gold.Chemscore.DEClash.Weighted>
0.0727

> <Gold.Chemscore.DEInternal.Weighted>
1.4067

> <Gold.Chemscore.Rot.Weighted>
4.0911

> <Gold.Chemscore.Internal.Correction.Weighted>
   9.000000E+99

> <Gold.Protein.RotatedTorsions>
[ 6907 6896 6895 6894 ] final  111.89 input  -60.11 | X-H torsion
[ 7974 7965 7964 7962 ] final  123.45 input  175.53 | X-H torsion
[ 8008 7997 7996 7995 ] final   10.37 input   59.86 | X-H torsion
[ 10167 10162 10161 10158 ] final  101.62 input  -65.29 | X-H torsion
[ 10718 10713 10712 10709 ] final  -50.66 input   66.30 | X-H torsion
[ 10763 10752 10751 10750 ] final -165.62 input  -60.55 | X-H torsion
[ 11005 11000 10999 10996 ] final   67.11 input  -57.11 | X-H torsion

> <Gold.Protein.ActiveResidues>
 VAL166  LYS551  ARG553  GLY616  TRP617  ASP618  TYR619  PRO620  LYS621  CYS622 
 ASP623  PHE694  ASN695  SER759  ASP760  ASP761  ALA762  ILE779  LEU786  VAL792 
 PHE793  MET794  SER795  GLU796  ALA797  LYS798  CYS799  TRP800  GLU811  SER814 

> <Gold.Protein.RotatedAtoms>
  152.4946  133.8593  159.7241 H   0  0  0  0  0  0  0  0  0  0  0  0  # atno 6907 bound_to 6896
  150.9109  133.6989  159.2861 H   0  0  0  0  0  0  0  0  0  0  0  0  # atno 6908 bound_to 6896
  151.4399  135.1023  159.9719 H   0  0  0  0  0  0  0  0  0  0  0  0  # atno 6909 bound_to 6896
  145.0957  139.3554  143.4837 H   0  0  0  0  0  0  0  0  0  0  0  0  # atno 7974 bound_to 7965
  154.7925  140.2838  155.5981 H   0  0  0  0  0  0  0  0  0  0  0  0  # atno 8008 bound_to 7997
  156.2966  140.2602  156.2704 H   0  0  0  0  0  0  0  0  0  0  0  0  # atno 8009 bound_to 7997
  154.9654  140.0377  157.2199 H   0  0  0  0  0  0  0  0  0  0  0  0  # atno 8010 bound_to 7997
  139.7422  144.7008  151.0558 H   0  0  0  0  0  0  0  0  0  0  0  0  # atno 10167 bound_to 10162
  156.1781  130.4150  149.9547 H   0  0  0  0  0  0  0  0  0  0  0  0  # atno 10718 bound_to 10713
  154.6914  135.2971  154.9474 H   0  0  0  0  0  0  0  0  0  0  0  0  # atno 10763 bound_to 10752
  154.0437  135.6654  153.4796 H   0  0  0  0  0  0  0  0  0  0  0  0  # atno 10764 bound_to 10752
  153.0614  135.5113  154.8008 H   0  0  0  0  0  0  0  0  0  0  0  0  # atno 10765 bound_to 10752
  139.9790  134.6774  156.0298 H   0  0  0  0  0  0  0  0  0  0  0  0  # atno 11005 bound_to 11000
  146.3531  140.0812  142.8617 LP  0  0  0  0  0  0  0  0  0  0  0  0  # atno 17320 bound_to 7965
  145.1013  140.9348  143.4711 LP  0  0  0  0  0  0  0  0  0  0  0  0  # atno 17321 bound_to 7965
  140.7787  143.4911  150.9892 LP  0  0  0  0  0  0  0  0  0  0  0  0  # atno 17342 bound_to 10162
  139.8599  143.7328  152.3174 LP  0  0  0  0  0  0  0  0  0  0  0  0  # atno 17343 bound_to 10162
  156.7327  130.9049  151.3627 LP  0  0  0  0  0  0  0  0  0  0  0  0  # atno 17370 bound_to 10713
  157.6849  130.9176  150.0361 LP  0  0  0  0  0  0  0  0  0  0  0  0  # atno 17371 bound_to 10713
  141.1464  133.6555  156.3882 LP  0  0  0  0  0  0  0  0  0  0  0  0  # atno 17394 bound_to 11000
  140.5135  134.6373  157.5293 LP  0  0  0  0  0  0  0  0  0  0  0  0  # atno 17395 bound_to 11000

$$$$
