AV-unprocessed.smi:2850|AV-procd|sdf|10966|dock4
  -GOLD-   2272015413D 1   1.00000     0.00000
 Structure written by MMmdl.
 45 46  0  0  0  0  0  0  0  0  2 V2000
  145.2297  134.9715  162.5706 C   0  0  0  0  0  0  0  0  0  0  0  0
  146.8285  135.8090  162.7544 S   0  0  0  0  0  0  0  0  0  0  0  0
  147.4485  136.1179  161.1288 C   0  0  0  0  0  0  0  0  0  0  0  0
  147.5577  135.0731  160.1937 C   0  0  0  0  0  0  0  0  0  0  0  0
  148.0563  135.4043  158.9219 C   0  0  0  0  0  0  0  0  0  0  0  0
  148.4050  136.7491  158.6835 C   0  0  0  0  0  0  0  0  0  0  0  0
  148.9007  137.1048  157.4209 N   0  0  0  0  0  0  0  0  0  0  0  0
  150.2318  137.6757  157.2529 C   0  0  0  0  0  0  0  0  0  0  0  0
  150.2200  139.2140  157.2692 C   0  0  1  0  0  0  0  0  0  0  0  0
  151.6306  139.7906  157.5070 C   0  0  0  0  0  0  0  0  0  0  0  0
  151.6240  141.2730  157.4493 N   0  3  2  0  0  0  0  0  0  0  0  0
  151.0816  141.9150  158.6777 C   0  0  0  0  0  0  0  0  0  0  0  0
  151.9369  143.1052  159.1626 C   0  0  0  0  0  0  0  0  0  0  0  0
  152.1278  144.1621  158.0619 C   0  0  0  0  0  0  0  0  0  0  0  0
  153.2991  142.6147  159.6749 C   0  0  0  0  0  0  0  0  0  0  0  0
  151.0095  141.7398  156.1803 C   0  0  0  0  0  0  0  0  0  0  0  0
  149.6353  141.0847  155.9431 C   0  0  0  0  0  0  0  0  0  0  0  0
  149.7617  139.6693  155.9999 O   0  0  0  0  0  0  0  0  0  0  0  0
  148.2730  137.7042  159.6395 N   0  0  0  0  0  0  0  0  0  0  0  0
  147.7978  137.3947  160.8508 N   0  0  0  0  0  0  0  0  0  0  0  0
  144.8022  134.7626  163.5511 H   0  0  0  0  0  0  0  0  0  0  0  0
  145.3496  134.0274  162.0392 H   0  0  0  0  0  0  0  0  0  0  0  0
  144.5315  135.5995  162.0169 H   0  0  0  0  0  0  0  0  0  0  0  0
  147.2721  134.0611  160.4400 H   0  0  0  0  0  0  0  0  0  0  0  0
  148.1651  134.6495  158.1569 H   0  0  0  0  0  0  0  0  0  0  0  0
  148.2926  137.0532  156.6161 H   0  0  0  0  0  0  0  0  0  0  0  0
  150.8888  137.2927  158.0348 H   0  0  0  0  0  0  0  0  0  0  0  0
  150.6439  137.3180  156.3089 H   0  0  0  0  0  0  0  0  0  0  0  0
  149.5456  139.5653  158.0516 H   0  0  0  0  0  0  0  0  0  0  0  0
  152.0365  139.4489  158.4599 H   0  0  0  0  0  0  0  0  0  0  0  0
  152.3100  139.4211  156.7374 H   0  0  0  0  0  0  0  0  0  0  0  0
  150.0522  142.2315  158.5085 H   0  0  0  0  0  0  0  0  0  0  0  0
  151.0381  141.1801  159.4830 H   0  0  0  0  0  0  0  0  0  0  0  0
  151.4391  143.5855  160.0045 H   0  0  0  0  0  0  0  0  0  0  0  0
  152.6277  143.7406  157.1892 H   0  0  0  0  0  0  0  0  0  0  0  0
  152.7335  144.9952  158.4200 H   0  0  0  0  0  0  0  0  0  0  0  0
  151.1737  144.5745  157.7331 H   0  0  0  0  0  0  0  0  0  0  0  0
  153.8674  142.1234  158.8844 H   0  0  0  0  0  0  0  0  0  0  0  0
  153.1794  141.9015  160.4910 H   0  0  0  0  0  0  0  0  0  0  0  0
  153.9001  143.4433  160.0505 H   0  0  0  0  0  0  0  0  0  0  0  0
  150.9262  142.8256  156.1541 H   0  0  0  0  0  0  0  0  0  0  0  0
  151.6780  141.4678  155.3623 H   0  0  0  0  0  0  0  0  0  0  0  0
  148.8971  141.4261  156.6698 H   0  0  0  0  0  0  0  0  0  0  0  0
  149.2559  141.3624  154.9597 H   0  0  0  0  0  0  0  0  0  0  0  0
  152.5951  141.5498  157.4192 H   0  0  0  0  0  0  0  0  0  0  0  0
  1  2  1  0  0  0  0
  1 21  1  0  0  0  0
  1 22  1  0  0  0  0
  1 23  1  0  0  0  0
  2  3  1  0  0  0  0
  3 20  1  0  0  0  0
  3  4  2  0  0  0  0
  4  5  1  0  0  0  0
  4 24  1  0  0  0  0
  5  6  2  0  0  0  0
  5 25  1  0  0  0  0
  6  7  1  0  0  0  0
  6 19  1  0  0  0  0
  7  8  1  0  0  0  0
  7 26  1  0  0  0  0
  8  9  1  0  0  0  0
  8 27  1  0  0  0  0
  8 28  1  0  0  0  0
  9 18  1  0  0  0  0
  9 10  1  0  0  0  0
  9 29  1  0  0  0  0
 10 11  1  0  0  0  0
 10 30  1  0  0  0  0
 10 31  1  0  0  0  0
 11 12  1  0  0  0  0
 11 16  1  0  0  0  0
 11 45  1  0  0  0  0
 12 13  1  0  0  0  0
 12 32  1  0  0  0  0
 12 33  1  0  0  0  0
 13 14  1  0  0  0  0
 13 15  1  0  0  0  0
 13 34  1  0  0  0  0
 14 35  1  0  0  0  0
 14 36  1  0  0  0  0
 14 37  1  0  0  0  0
 15 38  1  0  0  0  0
 15 39  1  0  0  0  0
 15 40  1  0  0  0  0
 16 17  1  0  0  0  0
 16 41  1  0  0  0  0
 16 42  1  0  0  0  0
 17 18  1  0  0  0  0
 17 43  1  0  0  0  0
 17 44  1  0  0  0  0
 19 20  2  0  0  0  0
M  CHG  1  11   1
M  END
> <s_m_source_file>
AV-unprocessed.smi

> <i_m_source_file_index>
2850

> <i_lp_mmshare_version>
43012

> <i_f3d_flags>
0

> <s_epik_input>
W0NIM11TYzFbY0hdW2NIXWMobm4xKVtOSF1bQ0gyXVtDQEBIXTJbQ0gyXU4oW0NIMl1bQ0gyXU8yKVtDSDJdW0NIXShbQ0gzXSlbQ0gzXQ==

> <s_epik_cmdline>
J2VwaWtfcHl0aG9uJywgJy1waCcsICc3LjAnLCAnLXRuJywgJzgnLCAnLW1hJywgJzIwMCcsICctbWV0YWxfYmluZGluZycsICctaW1hZScsICc8aW5maWxlLm1hZT4nLCAnLW9tYWUnLCAnPG91dGZpbGUubWFlPic=

> <r_lp_tautomer_probability>
0.999978

> <r_epik_Ionization_Penalty>
0.0874875

> <r_epik_Ionization_Penalty_Charging>
0.0831532

> <r_epik_Ionization_Penalty_Neutral>
0.00433433

> <r_epik_State_Penalty>
0.0738301

> <r_epik_Charging_Adjusted_Penalty>
0.156983

> <i_epik_Tot_Q>
1

> <i_epik_Tot_abs_Q>
1

> <r_epik_Metal_State_Penalty>
0.073888

> <b_epik_Metal_Only>
0

> <s_lp_Force_Field>
OPLS_2005

> <r_lp_Energy>
26.339

> <b_lp_Chiralities_Consistent>
1

> <s_lp_Variant>
AV-unprocessed.smi:2850-2

> <Gold.Version>
5.8.1

> <Gold.Id.Protein>
6NUR|6NUR_protein|mol2

> <Gold.PLP.Fitness>
38.1466

> <Gold.PLP.PLP>
-37.6375

> <Gold.PLP.part.hbond>
-4.0000

> <Gold.PLP.part.metal>
0.0000

> <Gold.PLP.part.buried>
-3.9493

> <Gold.PLP.part.nonpolar>
-29.4275

> <Gold.PLP.part.repulsive>
0.1101

> <Gold.PLP.ligand.clash>
0.0000

> <Gold.PLP.ligand.torsion>
1.5301

> <Gold.PLP.Chemscore.Hbond>
1.1500

> <Gold.PLP.Chemscore.CHOScore>
0.0000

> <Gold.PLP.Chemscore.Metal>
0.0000

> <Gold.Chemscore.Hbonds>
donor molecule, donor type, donor heavy atom, donor atom, acceptor molecule, acceptor atom, score
      P1  H  6931  6943       L1    20  0.73
      P1  H  6934  6947       L1    20  0.29

> <Gold.PLP.Chemscore.Internal.Correction>
0.1194

> <Gold.Rescore>
     Score         DG    S(hbond)    S(metal)    S(lipo)     H(rot)  DE(clash)    DE(int)     intcor
     14.14     -15.70       0.63        0.00     104.30       1.60       0.10       1.46       ----

> <Gold.Chemscore.Fitness>
14.1364

> <Gold.Chemscore.DG>
-15.7047

> <Gold.Chemscore.ZeroCoef>
-5.4800

> <Gold.Chemscore.Hbond>
0.6343

> <Gold.Chemscore.Metal>
0.0000

> <Gold.Chemscore.Lipo>
104.2976

> <Gold.Chemscore.Internal_Hbond>
0.0000

> <Gold.Chemscore.DEClash>
0.1049

> <Gold.Chemscore.DEInternal>
1.4635

> <Gold.Chemscore.Rot>
1.6003

> <Gold.Chemscore.Internal.Correction>
   9.000000E+99

> <Gold.Chemscore.Hbonds>
donor molecule, donor type, donor heavy atom, donor atom, acceptor molecule, acceptor atom, score
      P1  H  6931  6943       L1    20  0.16
      P1  H  6934  6947       L1    20  0.01

> <Gold.Chemscore.Hbond.Weighted>
-2.1187

> <Gold.Chemscore.Metal.Weighted>
-0.0000

> <Gold.Chemscore.Lipo.Weighted>
-12.2028

> <Gold.Chemscore.Internal_Hbond.Weighted>
0.0000

> <Gold.Chemscore.DEClash.Weighted>
0.1049

> <Gold.Chemscore.DEInternal.Weighted>
1.4635

> <Gold.Chemscore.Rot.Weighted>
4.0968

> <Gold.Chemscore.Internal.Correction.Weighted>
   9.000000E+99

> <Gold.Protein.RotatedTorsions>
[ 6907 6896 6895 6894 ] final -103.72 input  -60.11 | X-H torsion
[ 7974 7965 7964 7962 ] final   55.51 input  175.53 | X-H torsion
[ 8008 7997 7996 7995 ] final -131.49 input   59.86 | X-H torsion
[ 10167 10162 10161 10158 ] final  -90.04 input  -65.29 | X-H torsion
[ 10718 10713 10712 10709 ] final  -79.89 input   66.30 | X-H torsion
[ 10763 10752 10751 10750 ] final -110.88 input  -60.55 | X-H torsion
[ 11005 11000 10999 10996 ] final  137.63 input  -57.11 | X-H torsion

> <Gold.Protein.ActiveResidues>
 VAL166  LYS551  ARG553  GLY616  TRP617  ASP618  TYR619  PRO620  LYS621  CYS622 
 ASP623  PHE694  ASN695  SER759  ASP760  ASP761  ALA762  ILE779  LEU786  VAL792 
 PHE793  MET794  SER795  GLU796  ALA797  LYS798  CYS799  TRP800  GLU811  SER814 

> <Gold.Protein.RotatedAtoms>
  150.7253  134.0386  159.3757 H   0  0  0  0  0  0  0  0  0  0  0  0  # atno 6907 bound_to 6896
  151.8358  135.0604  160.0451 H   0  0  0  0  0  0  0  0  0  0  0  0  # atno 6908 bound_to 6896
  152.2899  133.5515  159.5587 H   0  0  0  0  0  0  0  0  0  0  0  0  # atno 6909 bound_to 6896
  145.9496  139.3960  143.0314 H   0  0  0  0  0  0  0  0  0  0  0  0  # atno 7974 bound_to 7965
  155.3132  140.0458  157.3036 H   0  0  0  0  0  0  0  0  0  0  0  0  # atno 8008 bound_to 7997
  154.5421  140.2291  155.8590 H   0  0  0  0  0  0  0  0  0  0  0  0  # atno 8009 bound_to 7997
  156.1890  140.3055  155.9302 H   0  0  0  0  0  0  0  0  0  0  0  0  # atno 8010 bound_to 7997
  140.3588  143.2852  151.9639 H   0  0  0  0  0  0  0  0  0  0  0  0  # atno 10167 bound_to 10162
  156.0082  130.4558  150.3717 H   0  0  0  0  0  0  0  0  0  0  0  0  # atno 10718 bound_to 10713
  154.8271  135.4548  154.0953 H   0  0  0  0  0  0  0  0  0  0  0  0  # atno 10763 bound_to 10752
  153.2258  135.6899  153.7953 H   0  0  0  0  0  0  0  0  0  0  0  0  # atno 10764 bound_to 10752
  153.7354  135.3320  155.3270 H   0  0  0  0  0  0  0  0  0  0  0  0  # atno 10765 bound_to 10752
  140.0127  134.9432  157.0311 H   0  0  0  0  0  0  0  0  0  0  0  0  # atno 11005 bound_to 11000
  145.8189  140.9689  143.0909 LP  0  0  0  0  0  0  0  0  0  0  0  0  # atno 17320 bound_to 7965
  144.6793  140.0016  143.7484 LP  0  0  0  0  0  0  0  0  0  0  0  0  # atno 17321 bound_to 7965
  139.4816  144.6011  151.7604 LP  0  0  0  0  0  0  0  0  0  0  0  0  # atno 17342 bound_to 10162
  140.5147  144.0971  150.6005 LP  0  0  0  0  0  0  0  0  0  0  0  0  # atno 17343 bound_to 10162
  157.1801  131.0390  151.2753 LP  0  0  0  0  0  0  0  0  0  0  0  0  # atno 17370 bound_to 10713
  157.4153  130.7407  149.6871 LP  0  0  0  0  0  0  0  0  0  0  0  0  # atno 17371 bound_to 10713
  140.4526  134.1567  155.7183 LP  0  0  0  0  0  0  0  0  0  0  0  0  # atno 17394 bound_to 11000
  141.1722  133.8586  157.1535 LP  0  0  0  0  0  0  0  0  0  0  0  0  # atno 17395 bound_to 11000

$$$$
