#       Name:                AV-unprocessed.smi:2175
#       Creating user name   scv26
#       Creation time:       Fri Mar 27 12:03:39 2020


#       File generated by GOLD software.
#

@<TRIPOS>MOLECULE
AV-unprocessed.smi:2175
    39    40     1
SMALL
NO_CHARGES


@<TRIPOS>ATOM
      1 ****        -5.6460  -0.8922   0.8864 C.3            1 S1                 0.0000
      2 ****        -4.1430  -0.7206   0.9483 C.2            1 S1                 0.0000
      3 ****        -3.5556   0.3963   1.2271 N.2            1 S1                 0.0000
      4 ****        -2.1544   0.4325   1.2544 C.2            1 S1                 0.0000
      5 ****        -1.5388   1.7798   1.5911 C.3            1 S1                 0.0000
      6 ****        -1.4045  -0.6786   0.9953 C.2            1 S1                 0.0000
      7 ****         0.1233  -0.6696   1.0176 C.3            1 S1                 0.0000
      8 ****         0.8017  -0.1427  -0.2494 C.2            1 S1                 0.0000
      9 ****         0.3444  -0.4201  -1.3584 O.2            1 S1                 0.0000
     10 ****         1.8917   0.6187  -0.0706 N.am           1 S1                 0.0000
     11 ****         2.6820   1.2118  -1.1413 C.3            1 S1                 0.0000
     12 ****         3.6264   0.2540  -1.8421 C.3            1 S1                 0.0000
     13 ****         5.0483   0.0747  -1.3644 C.3            1 S1                 0.0000
     14 ****         4.7745   0.7801  -2.6711 C.3            1 S1                 0.0000
     15 ****        -2.0857  -1.9485   0.6770 C.2            1 S1                 0.0000
     16 ****        -1.5096  -3.0053   0.4232 O.2            1 S1                 0.0000
     17 ****        -3.4364  -1.8904   0.6743 N.am           1 S1                 0.0000
     18 ****        -3.9491  -2.7336   0.4616 H              1 S1                 0.0000
     19 ****        -6.0687  -0.2257   0.1343 H              1 S1                 0.0000
     20 ****        -6.0914  -0.6472   1.8508 H              1 S1                 0.0000
     21 ****        -5.9255  -1.9155   0.6315 H              1 S1                 0.0000
     22 ****        -0.9720   1.7198   2.5202 H              1 S1                 0.0000
     23 ****        -2.3055   2.5454   1.7166 H              1 S1                 0.0000
     24 ****        -0.8698   2.1071   0.7953 H              1 S1                 0.0000
     25 ****         0.4513  -0.0746   1.8706 H              1 S1                 0.0000
     26 ****         0.5092  -1.6700   1.2158 H              1 S1                 0.0000
     27 ****         2.1978   0.7959   0.8752 H              1 S1                 0.0000
     28 ****         2.0174   1.6541  -1.8852 H              1 S1                 0.0000
     29 ****         3.2567   2.0370  -0.7196 H              1 S1                 0.0000
     30 ****         3.1373  -0.6345  -2.2373 H              1 S1                 0.0000
     31 ****         5.3827   0.6824  -0.5259 H              1 S1                 0.0000
     32 ****         5.4692  -0.9275  -1.4111 H              1 S1                 0.0000
     33 ****         5.0167   0.2487  -3.5891 H              1 S1                 0.0000
     34 ****         4.9268   1.8572  -2.7015 H              1 S1                 0.0000
     35 ****        -4.0904   1.2191   1.4197 LP             1 S1                 0.0000
     36 ****        -0.4729  -0.9914  -1.4336 LP             1 S1                 0.0000
     37 ****         0.7902  -0.0741  -2.1839 LP             1 S1                 0.0000
     38 ****        -0.5103  -3.0426   0.4237 LP             1 S1                 0.0000
     39 ****        -2.0406  -3.8270   0.2164 LP             1 S1                 0.0000
@<TRIPOS>BOND
    1    1    2 1     
    2    1   19 1     
    3    1   20 1     
    4    1   21 1     
    5    2   17 1     
    6    2    3 2     
    7    3    4 1     
    8    4    5 1     
    9    4    6 2     
   10    5   22 1     
   11    5   23 1     
   12    5   24 1     
   13    6    7 1     
   14    6   15 1     
   15    7    8 1     
   16    7   25 1     
   17    7   26 1     
   18    8    9 2     
   19    8   10 am    
   20   10   11 1     
   21   10   27 1     
   22   11   12 1     
   23   11   28 1     
   24   11   29 1     
   25   12   14 1     
   26   12   13 1     
   27   12   30 1     
   28   13   14 1     
   29   13   31 1     
   30   13   32 1     
   31   14   33 1     
   32   14   34 1     
   33   15   16 2     
   34   15   17 am    
   35   17   18 1     
   36    3   35 1     
   37    9   36 1     
   38    9   37 1     
   39   16   38 1     
   40   16   39 1     
@<TRIPOS>SUBSTRUCTURE
      1 S1             1
@<TRIPOS>SET
LONE_PAIRS      STATIC     ATOMS    <user>   **** ""
5 35 36 37 38 39
DONOR_HYDROGENS      STATIC     ATOMS    <user>   **** ""
2 27 18
ATOM$BLUE        STATIC     ATOMS    COLORGROUP SYSTEM
5 35 36 37 38 39
ATOM$RED        STATIC     ATOMS    COLORGROUP SYSTEM
2 27 18
