AV-unprocessed.smi:3095|AV-procd|sdf|11793|dock2
  -GOLD-   2272017173D 1   1.00000     0.00000
 Structure written by MMmdl.
 25 26  0  0  0  0  0  0  0  0  2 V2000
  153.0946  143.1243  163.0479 C   0  0  0  0  0  0  0  0  0  0  0  0
  153.1294  142.2963  161.8018 C   0  0  0  0  0  0  0  0  0  0  0  0
  154.0986  141.3958  161.4372 C   0  0  0  0  0  0  0  0  0  0  0  0
  153.7450  140.6462  159.9050 S   0  0  0  0  0  0  0  0  0  0  0  0
  152.2770  141.6119  159.8039 C   0  0  0  0  0  0  0  0  0  0  0  0
  151.3113  141.5005  158.6673 C   0  0  1  0  0  0  0  0  0  0  0  0
  151.0033  142.8636  158.0192 C   0  0  0  0  0  0  0  0  0  0  0  0
  150.1113  142.6778  156.8581 N   0  3  0  0  0  0  0  0  0  0  0  0
  150.6720  141.7113  155.8930 C   0  0  0  0  0  0  0  0  0  0  0  0
  151.0072  140.3867  156.6015 C   0  0  0  0  0  0  0  0  0  0  0  0
  151.8874  140.6326  157.6935 O   0  0  0  0  0  0  0  0  0  0  0  0
  152.0941  142.4002  160.8684 N   0  0  0  0  0  0  0  0  0  0  0  0
  153.9477  142.9110  163.6926 H   0  0  0  0  0  0  0  0  0  0  0  0
  152.1902  142.9312  163.6251 H   0  0  0  0  0  0  0  0  0  0  0  0
  153.1176  144.1888  162.8142 H   0  0  0  0  0  0  0  0  0  0  0  0
  154.9951  141.1272  161.9767 H   0  0  0  0  0  0  0  0  0  0  0  0
  150.3926  141.0516  159.0493 H   0  0  0  0  0  0  0  0  0  0  0  0
  150.5269  143.5333  158.7357 H   0  0  0  0  0  0  0  0  0  0  0  0
  151.9242  143.3466  157.6885 H   0  0  0  0  0  0  0  0  0  0  0  0
  149.2226  142.3276  157.1865 H   0  0  0  0  0  0  0  0  0  0  0  0
  149.9549  141.5459  155.0886 H   0  0  0  0  0  0  0  0  0  0  0  0
  151.5704  142.1349  155.4422 H   0  0  0  0  0  0  0  0  0  0  0  0
  150.1003  139.8945  156.9565 H   0  0  0  0  0  0  0  0  0  0  0  0
  151.4903  139.7003  155.9058 H   0  0  0  0  0  0  0  0  0  0  0  0
  149.9659  143.5660  156.3993 H   0  0  0  0  0  0  0  0  0  0  0  0
  1  2  1  0  0  0  0
  1 13  1  0  0  0  0
  1 14  1  0  0  0  0
  1 15  1  0  0  0  0
  2 12  1  0  0  0  0
  2  3  2  0  0  0  0
  3  4  1  0  0  0  0
  3 16  1  0  0  0  0
  4  5  1  0  0  0  0
  5  6  1  0  0  0  0
  5 12  2  0  0  0  0
  6 11  1  0  0  0  0
  6  7  1  0  0  0  0
  6 17  1  0  0  0  0
  7  8  1  0  0  0  0
  7 18  1  0  0  0  0
  7 19  1  0  0  0  0
  8  9  1  0  0  0  0
  8 20  1  0  0  0  0
  8 25  1  0  0  0  0
  9 10  1  0  0  0  0
  9 21  1  0  0  0  0
  9 22  1  0  0  0  0
 10 11  1  0  0  0  0
 10 23  1  0  0  0  0
 10 24  1  0  0  0  0
M  CHG  1   8   1
M  END
> <s_m_source_file>
AV-unprocessed.smi

> <i_m_source_file_index>
3095

> <i_lp_mmshare_version>
43012

> <i_f3d_flags>
0

> <s_epik_input>
W0NIM11jMVtjSF1zYyhuMSlbQ0BASF0yW0NIMl1bTkhdW0NIMl1bQ0gyXU8y

> <s_epik_cmdline>
J2VwaWtfcHl0aG9uJywgJy1waCcsICc3LjAnLCAnLXRuJywgJzgnLCAnLW1hJywgJzIwMCcsICctbWV0YWxfYmluZGluZycsICctaW1hZScsICc8aW5maWxlLm1hZT4nLCAnLW9tYWUnLCAnPG91dGZpbGUubWFlPic=

> <r_epik_Ionization_Penalty>
0.125709

> <r_epik_Ionization_Penalty_Charging>
0.125708

> <r_epik_Ionization_Penalty_Neutral>
7.00244e-07

> <r_epik_State_Penalty>
0.0155371

> <r_epik_Charging_Adjusted_Penalty>
0.141245

> <i_epik_Tot_Q>
1

> <i_epik_Tot_abs_Q>
1

> <r_epik_Metal_State_Penalty>
0.0155948

> <b_epik_Metal_Only>
0

> <s_lp_Force_Field>
OPLS_2005

> <r_lp_Energy>
6.74863

> <b_lp_Chiralities_Consistent>
1

> <s_lp_Variant>
AV-unprocessed.smi:3095-2

> <Gold.Version>
5.8.1

> <Gold.Id.Protein>
6NUR|6NUR_protein|mol2

> <Gold.PLP.Fitness>
34.4262

> <Gold.PLP.PLP>
-28.5353

> <Gold.PLP.part.hbond>
-1.5089

> <Gold.PLP.part.metal>
0.0000

> <Gold.PLP.part.buried>
-3.9709

> <Gold.PLP.part.nonpolar>
-22.7867

> <Gold.PLP.part.repulsive>
0.0707

> <Gold.PLP.ligand.clash>
0.0000

> <Gold.PLP.ligand.torsion>
0.0595

> <Gold.PLP.Chemscore.Hbond>
2.0000

> <Gold.PLP.Chemscore.CHOScore>
0.0000

> <Gold.PLP.Chemscore.Metal>
0.0000

> <Gold.Chemscore.Hbonds>
donor molecule, donor type, donor heavy atom, donor atom, acceptor molecule, acceptor atom, score
      L1  H     8    25       P1  8028  2.00

> <Gold.PLP.Chemscore.Internal.Correction>
0.0100

> <Gold.Rescore>
     Score         DG    S(hbond)    S(metal)    S(lipo)     H(rot)  DE(clash)    DE(int)     intcor
     15.58     -15.64       1.00        0.00      80.27       1.00       0.00       0.05       ----

> <Gold.Chemscore.Fitness>
15.5826

> <Gold.Chemscore.DG>
-15.6406

> <Gold.Chemscore.ZeroCoef>
-5.4800

> <Gold.Chemscore.Hbond>
0.9968

> <Gold.Chemscore.Metal>
0.0000

> <Gold.Chemscore.Lipo>
80.2675

> <Gold.Chemscore.Internal_Hbond>
0.0000

> <Gold.Chemscore.DEClash>
0.0044

> <Gold.Chemscore.DEInternal>
0.0536

> <Gold.Chemscore.Rot>
1.0000

> <Gold.Chemscore.Internal.Correction>
   9.000000E+99

> <Gold.Chemscore.Hbonds>
donor molecule, donor type, donor heavy atom, donor atom, acceptor molecule, acceptor atom, score
      L1  H     8    25       P1  8028  0.94

> <Gold.Chemscore.Hbond.Weighted>
-3.3293

> <Gold.Chemscore.Metal.Weighted>
-0.0000

> <Gold.Chemscore.Lipo.Weighted>
-9.3913

> <Gold.Chemscore.Internal_Hbond.Weighted>
0.0000

> <Gold.Chemscore.DEClash.Weighted>
0.0044

> <Gold.Chemscore.DEInternal.Weighted>
0.0536

> <Gold.Chemscore.Rot.Weighted>
2.5600

> <Gold.Chemscore.Internal.Correction.Weighted>
   9.000000E+99

> <Gold.Protein.RotatedTorsions>
[ 6907 6896 6895 6894 ] final -165.18 input  -60.11 | X-H torsion
[ 7974 7965 7964 7962 ] final -171.43 input  175.53 | X-H torsion
[ 8008 7997 7996 7995 ] final  155.71 input   59.86 | X-H torsion
[ 10167 10162 10161 10158 ] final  151.98 input  -65.29 | X-H torsion
[ 10718 10713 10712 10709 ] final   36.23 input   66.30 | X-H torsion
[ 10763 10752 10751 10750 ] final  179.09 input  -60.55 | X-H torsion
[ 11005 11000 10999 10996 ] final  165.14 input  -57.11 | X-H torsion

> <Gold.Protein.ActiveResidues>
 VAL166  LYS551  ARG553  GLY616  TRP617  ASP618  TYR619  PRO620  LYS621  CYS622 
 ASP623  PHE694  ASN695  SER759  ASP760  ASP761  ALA762  ILE779  LEU786  VAL792 
 PHE793  MET794  SER795  GLU796  ALA797  LYS798  CYS799  TRP800  GLU811  SER814 

> <Gold.Protein.RotatedAtoms>
  151.4236  133.3691  159.2759 H   0  0  0  0  0  0  0  0  0  0  0  0  # atno 6907 bound_to 6896
  150.9276  134.8693  159.7540 H   0  0  0  0  0  0  0  0  0  0  0  0  # atno 6908 bound_to 6896
  152.5012  134.4178  159.9522 H   0  0  0  0  0  0  0  0  0  0  0  0  # atno 6909 bound_to 6896
  144.7157  140.1923  143.6347 H   0  0  0  0  0  0  0  0  0  0  0  0  # atno 7974 bound_to 7965
  156.2463  140.1932  156.6842 H   0  0  0  0  0  0  0  0  0  0  0  0  # atno 8008 bound_to 7997
  154.6299  140.0597  156.9745 H   0  0  0  0  0  0  0  0  0  0  0  0  # atno 8009 bound_to 7997
  155.1727  140.3269  155.4392 H   0  0  0  0  0  0  0  0  0  0  0  0  # atno 8010 bound_to 7997
  139.4836  144.5395  151.7588 H   0  0  0  0  0  0  0  0  0  0  0  0  # atno 10167 bound_to 10162
  157.3324  130.7504  149.6856 H   0  0  0  0  0  0  0  0  0  0  0  0  # atno 10718 bound_to 10713
  154.5161  135.2791  155.1302 H   0  0  0  0  0  0  0  0  0  0  0  0  # atno 10763 bound_to 10752
  154.2878  135.6273  153.5376 H   0  0  0  0  0  0  0  0  0  0  0  0  # atno 10764 bound_to 10752
  152.9928  135.5666  154.5638 H   0  0  0  0  0  0  0  0  0  0  0  0  # atno 10765 bound_to 10752
  140.2531  134.7961  157.3520 H   0  0  0  0  0  0  0  0  0  0  0  0  # atno 11005 bound_to 11000
  145.8757  139.2296  143.1635 LP  0  0  0  0  0  0  0  0  0  0  0  0  # atno 17320 bound_to 7965
  146.0042  140.8493  143.0003 LP  0  0  0  0  0  0  0  0  0  0  0  0  # atno 17321 bound_to 7965
  140.4933  144.1278  150.5955 LP  0  0  0  0  0  0  0  0  0  0  0  0  # atno 17342 bound_to 10162
  140.4146  143.2640  151.9790 LP  0  0  0  0  0  0  0  0  0  0  0  0  # atno 17343 bound_to 10162
  155.9697  130.4191  150.4361 LP  0  0  0  0  0  0  0  0  0  0  0  0  # atno 17370 bound_to 10713
  157.2395  131.0522  151.2445 LP  0  0  0  0  0  0  0  0  0  0  0  0  # atno 17371 bound_to 10713
  140.1539  134.4815  155.7942 LP  0  0  0  0  0  0  0  0  0  0  0  0  # atno 17394 bound_to 11000
  141.2199  133.6873  156.7426 LP  0  0  0  0  0  0  0  0  0  0  0  0  # atno 17395 bound_to 11000

$$$$
