AV-unprocessed.smi:1200|AV-procd|sdf|5023|dock2
  -GOLD-   22720 4 43D 1   1.00000     0.00000
 Structure written by MMmdl.
 43 44  0  0  0  0  0  0  0  0  2 V2000
  146.3882  134.4386  153.1267 C   0  0  0  0  0  0  0  0  0  0  0  0
  146.6211  135.7685  152.5842 N   0  0  0  0  0  0  0  0  0  0  0  0
  145.8480  136.8329  152.8406 C   0  0  0  0  0  0  0  0  0  0  0  0
  144.8510  136.7844  153.5621 O   0  0  0  0  0  0  0  0  0  0  0  0
  146.2563  138.1452  152.1632 C   0  0  0  0  0  0  0  0  0  0  0  0
  146.8592  139.1219  153.1064 N   0  3  2  0  0  0  0  0  0  0  0  0
  147.1239  140.4376  152.4705 C   0  0  0  0  0  0  0  0  0  0  0  0
  147.6031  141.4681  153.5070 C   0  0  0  0  0  0  0  0  0  0  0  0
  148.8518  140.9684  154.2510 C   0  0  1  0  0  0  0  0  0  0  0  0
  149.2305  141.9253  155.2871 N   0  0  0  0  0  0  0  0  0  0  0  0
  150.2122  141.7454  156.1828 C   0  0  0  0  0  0  0  0  0  0  0  0
  150.9102  140.7329  156.2244 O   0  0  0  0  0  0  0  0  0  0  0  0
  150.3233  142.8081  156.9987 N   0  0  0  0  0  0  0  0  0  0  0  0
  151.2493  143.0389  158.0537 C   0  0  0  0  0  0  0  0  0  0  0  0
  151.5335  144.3071  158.6177 C   0  0  0  0  0  0  0  0  0  0  0  0
  152.4804  144.3925  159.6569 C   0  0  0  0  0  0  0  0  0  0  0  0
  153.1134  143.2118  160.0903 C   0  0  0  0  0  0  0  0  0  0  0  0
  152.8618  141.9990  159.5551 N   0  0  0  0  0  0  0  0  0  0  0  0
  151.9526  141.9247  158.5600 C   0  0  0  0  0  0  0  0  0  0  0  0
  148.5690  139.5848  154.8636 C   0  0  0  0  0  0  0  0  0  0  0  0
  148.0673  138.5967  153.7976 C   0  0  0  0  0  0  0  0  0  0  0  0
  147.1269  133.7410  152.7316 H   0  0  0  0  0  0  0  0  0  0  0  0
  145.3962  134.0745  152.8557 H   0  0  0  0  0  0  0  0  0  0  0  0
  146.4721  134.4438  154.2144 H   0  0  0  0  0  0  0  0  0  0  0  0
  147.4184  135.8841  151.9751 H   0  0  0  0  0  0  0  0  0  0  0  0
  146.9402  137.9527  151.3348 H   0  0  0  0  0  0  0  0  0  0  0  0
  145.3483  138.5654  151.7286 H   0  0  0  0  0  0  0  0  0  0  0  0
  147.8691  140.3187  151.6822 H   0  0  0  0  0  0  0  0  0  0  0  0
  146.2145  140.8071  151.9950 H   0  0  0  0  0  0  0  0  0  0  0  0
  147.8168  142.4162  153.0115 H   0  0  0  0  0  0  0  0  0  0  0  0
  146.7996  141.6652  154.2187 H   0  0  0  0  0  0  0  0  0  0  0  0
  149.6647  140.8786  153.5273 H   0  0  0  0  0  0  0  0  0  0  0  0
  148.7087  142.7891  155.3235 H   0  0  0  0  0  0  0  0  0  0  0  0
  149.6968  143.5763  156.8070 H   0  0  0  0  0  0  0  0  0  0  0  0
  151.0601  145.2139  158.2769 H   0  0  0  0  0  0  0  0  0  0  0  0
  152.7181  145.3434  160.1104 H   0  0  0  0  0  0  0  0  0  0  0  0
  153.8440  143.2435  160.8848 H   0  0  0  0  0  0  0  0  0  0  0  0
  151.7782  140.9380  158.1561 H   0  0  0  0  0  0  0  0  0  0  0  0
  149.4701  139.1891  155.3335 H   0  0  0  0  0  0  0  0  0  0  0  0
  147.8221  139.6734  155.6540 H   0  0  0  0  0  0  0  0  0  0  0  0
  147.8431  137.6417  154.2735 H   0  0  0  0  0  0  0  0  0  0  0  0
  148.8536  138.4056  153.0655 H   0  0  0  0  0  0  0  0  0  0  0  0
  146.1613  139.2864  153.8183 H   0  0  0  0  0  0  0  0  0  0  0  0
  1  2  1  0  0  0  0
  1 22  1  0  0  0  0
  1 23  1  0  0  0  0
  1 24  1  0  0  0  0
  2  3  1  0  0  0  0
  2 25  1  0  0  0  0
  3  4  2  0  0  0  0
  3  5  1  0  0  0  0
  5  6  1  0  0  0  0
  5 26  1  0  0  0  0
  5 27  1  0  0  0  0
  6 21  1  0  0  0  0
  6  7  1  0  0  0  0
  6 43  1  0  0  0  0
  7  8  1  0  0  0  0
  7 28  1  0  0  0  0
  7 29  1  0  0  0  0
  8  9  1  0  0  0  0
  8 30  1  0  0  0  0
  8 31  1  0  0  0  0
  9 10  1  0  0  0  0
  9 20  1  0  0  0  0
  9 32  1  0  0  0  0
 10 11  1  0  0  0  0
 10 33  1  0  0  0  0
 11 12  2  0  0  0  0
 11 13  1  0  0  0  0
 13 14  1  0  0  0  0
 13 34  1  0  0  0  0
 14 19  1  0  0  0  0
 14 15  2  0  0  0  0
 15 16  1  0  0  0  0
 15 35  1  0  0  0  0
 16 17  2  0  0  0  0
 16 36  1  0  0  0  0
 17 18  1  0  0  0  0
 17 37  1  0  0  0  0
 18 19  2  0  0  0  0
 19 38  1  0  0  0  0
 20 21  1  0  0  0  0
 20 39  1  0  0  0  0
 20 40  1  0  0  0  0
 21 41  1  0  0  0  0
 21 42  1  0  0  0  0
M  CHG  1   6   1
M  END
> <s_m_source_file>
AV-unprocessed.smi

> <i_m_source_file_index>
1200

> <i_lp_mmshare_version>
43012

> <i_f3d_flags>
0

> <s_epik_input>
W0NIM11bTkhdQyg9TylbQ0gyXU4xW0NIMl1bQ0gyXVtDSF0oW0NIMl1bQ0gyXTEpW05IXUMoPU8pW05IXWMyW2NIXVtjSF1bY0hdbltjSF0y

> <s_epik_cmdline>
J2VwaWtfcHl0aG9uJywgJy1waCcsICc3LjAnLCAnLXRuJywgJzgnLCAnLW1hJywgJzIwMCcsICctbWV0YWxfYmluZGluZycsICctaW1hZScsICc8aW5maWxlLm1hZT4nLCAnLW9tYWUnLCAnPG91dGZpbGUubWFlPic=

> <r_epik_Ionization_Penalty>
0.842849

> <r_epik_Ionization_Penalty_Charging>
0.838844

> <r_epik_Ionization_Penalty_Neutral>
0.00400543

> <r_epik_State_Penalty>
0.858736

> <r_epik_Charging_Adjusted_Penalty>
1.69758

> <i_epik_Tot_Q>
1

> <i_epik_Tot_abs_Q>
1

> <r_epik_Metal_State_Penalty>
0.860766

> <b_epik_Metal_Only>
0

> <s_lp_Force_Field>
OPLS_2005

> <r_lp_Energy>
18.0189

> <b_lp_Chiralities_Consistent>
1

> <s_lp_Variant>
AV-unprocessed.smi:1200-2

> <Gold.Version>
5.8.1

> <Gold.Id.Protein>
6NUR|6NUR_protein|mol2

> <Gold.PLP.Fitness>
45.2673

> <Gold.PLP.PLP>
-37.1054

> <Gold.PLP.part.hbond>
-3.0000

> <Gold.PLP.part.metal>
0.0000

> <Gold.PLP.part.buried>
-4.5328

> <Gold.PLP.part.nonpolar>
-30.6469

> <Gold.PLP.part.repulsive>
0.3527

> <Gold.PLP.ligand.clash>
0.0000

> <Gold.PLP.ligand.torsion>
0.2765

> <Gold.PLP.Chemscore.Hbond>
2.8960

> <Gold.PLP.Chemscore.CHOScore>
0.0000

> <Gold.PLP.Chemscore.Metal>
0.0000

> <Gold.Chemscore.Hbonds>
donor molecule, donor type, donor heavy atom, donor atom, acceptor molecule, acceptor atom, score
      L1  H     2    25       P1  7948  0.98
      L1  H    10    33       P1  8028  0.88
      L1  H    13    34       P1  8028  1.00

> <Gold.PLP.Chemscore.Internal.Correction>
0.0268

> <Gold.Rescore>
     Score         DG    S(hbond)    S(metal)    S(lipo)     H(rot)  DE(clash)    DE(int)     intcor
     19.35     -22.37       2.81        0.00     101.15       1.69       0.18       2.84       ----

> <Gold.Chemscore.Fitness>
19.3520

> <Gold.Chemscore.DG>
-22.3722

> <Gold.Chemscore.ZeroCoef>
-5.4800

> <Gold.Chemscore.Hbond>
2.8075

> <Gold.Chemscore.Metal>
0.0000

> <Gold.Chemscore.Lipo>
101.1511

> <Gold.Chemscore.Internal_Hbond>
0.0000

> <Gold.Chemscore.DEClash>
0.1809

> <Gold.Chemscore.DEInternal>
2.8393

> <Gold.Chemscore.Rot>
1.6873

> <Gold.Chemscore.Internal.Correction>
   9.000000E+99

> <Gold.Chemscore.Hbonds>
donor molecule, donor type, donor heavy atom, donor atom, acceptor molecule, acceptor atom, score
      L1  H     2    25       P1  7948  0.89
      L1  H    10    33       P1  8028  0.85
      L1  H    13    34       P1  8028  0.96

> <Gold.Chemscore.Hbond.Weighted>
-9.3769

> <Gold.Chemscore.Metal.Weighted>
-0.0000

> <Gold.Chemscore.Lipo.Weighted>
-11.8347

> <Gold.Chemscore.Internal_Hbond.Weighted>
0.0000

> <Gold.Chemscore.DEClash.Weighted>
0.1809

> <Gold.Chemscore.DEInternal.Weighted>
2.8393

> <Gold.Chemscore.Rot.Weighted>
4.3194

> <Gold.Chemscore.Internal.Correction.Weighted>
   9.000000E+99

> <Gold.Protein.RotatedTorsions>
[ 6907 6896 6895 6894 ] final -141.88 input  -60.11 | X-H torsion
[ 7974 7965 7964 7962 ] final  139.36 input  175.53 | X-H torsion
[ 8008 7997 7996 7995 ] final  -34.73 input   59.86 | X-H torsion
[ 10167 10162 10161 10158 ] final  104.28 input  -65.29 | X-H torsion
[ 10718 10713 10712 10709 ] final  172.78 input   66.30 | X-H torsion
[ 10763 10752 10751 10750 ] final  -55.77 input  -60.55 | X-H torsion
[ 11005 11000 10999 10996 ] final  172.47 input  -57.11 | X-H torsion

> <Gold.Protein.ActiveResidues>
 VAL166  LYS551  ARG553  GLY616  TRP617  ASP618  TYR619  PRO620  LYS621  CYS622 
 ASP623  PHE694  ASN695  SER759  ASP760  ASP761  ALA762  ILE779  LEU786  VAL792 
 PHE793  MET794  SER795  GLU796  ALA797  LYS798  CYS799  TRP800  GLU811  SER814 

> <Gold.Protein.RotatedAtoms>
  151.0796  133.5401  159.2621 H   0  0  0  0  0  0  0  0  0  0  0  0  # atno 6907 bound_to 6896
  151.2309  135.0553  159.8997 H   0  0  0  0  0  0  0  0  0  0  0  0  # atno 6908 bound_to 6896
  152.5422  134.0585  159.8195 H   0  0  0  0  0  0  0  0  0  0  0  0  # atno 6909 bound_to 6896
  144.9286  139.5076  143.5629 H   0  0  0  0  0  0  0  0  0  0  0  0  # atno 7974 bound_to 7965
  154.4113  140.1676  156.2097 H   0  0  0  0  0  0  0  0  0  0  0  0  # atno 8008 bound_to 7997
  155.9454  140.3405  155.6339 H   0  0  0  0  0  0  0  0  0  0  0  0  # atno 8009 bound_to 7997
  155.6937  140.0737  157.2429 H   0  0  0  0  0  0  0  0  0  0  0  0  # atno 8010 bound_to 7997
  139.7191  144.7062  151.0902 H   0  0  0  0  0  0  0  0  0  0  0  0  # atno 10167 bound_to 10162
  156.9739  131.0098  151.2898 H   0  0  0  0  0  0  0  0  0  0  0  0  # atno 10718 bound_to 10713
  154.1961  135.6419  153.5073 H   0  0  0  0  0  0  0  0  0  0  0  0  # atno 10763 bound_to 10752
  153.0023  135.5440  154.6364 H   0  0  0  0  0  0  0  0  0  0  0  0  # atno 10764 bound_to 10752
  154.5765  135.2921  155.0748 H   0  0  0  0  0  0  0  0  0  0  0  0  # atno 10765 bound_to 10752
  140.3300  134.7365  157.4127 H   0  0  0  0  0  0  0  0  0  0  0  0  # atno 11005 bound_to 11000
  146.3237  139.8219  142.8925 LP  0  0  0  0  0  0  0  0  0  0  0  0  # atno 17320 bound_to 7965
  145.3179  141.0236  143.3517 LP  0  0  0  0  0  0  0  0  0  0  0  0  # atno 17321 bound_to 7965
  140.7750  143.5191  150.9559 LP  0  0  0  0  0  0  0  0  0  0  0  0  # atno 17342 bound_to 10162
  139.8877  143.6992  152.3149 LP  0  0  0  0  0  0  0  0  0  0  0  0  # atno 17343 bound_to 10162
  157.5574  130.8222  149.8221 LP  0  0  0  0  0  0  0  0  0  0  0  0  # atno 17370 bound_to 10713
  156.0272  130.3776  150.1790 LP  0  0  0  0  0  0  0  0  0  0  0  0  # atno 17371 bound_to 10713
  140.0868  134.5655  155.8484 LP  0  0  0  0  0  0  0  0  0  0  0  0  # atno 17394 bound_to 11000
  141.2065  133.6656  156.6249 LP  0  0  0  0  0  0  0  0  0  0  0  0  # atno 17395 bound_to 11000

$$$$
