#       Name:                AV-unprocessed.smi:1437
#       Creating user name   scv26
#       Creation time:       Fri Mar 27 05:53:54 2020


#       File generated by GOLD software.
#

@<TRIPOS>MOLECULE
AV-unprocessed.smi:1437
    41    42     1
SMALL
NO_CHARGES


@<TRIPOS>ATOM
      1 ****        -6.8295  -2.4476  -0.9591 C.3            1 S1                 0.0000
      2 ****        -5.5376  -1.7395  -0.7342 C.2            1 S1                 0.0000
      3 ****        -4.2886  -2.1705  -0.3849 C.2            1 S1                 0.0000
      4 ****        -3.5343  -0.9678  -0.3476 C.2            1 S1                 0.0000
      5 ****        -2.1550  -0.9829  -0.0174 N.am           1 S1                 0.0000
      6 ****        -1.3149   0.0651   0.0299 C.2            1 S1                 0.0000
      7 ****        -1.6224   1.2328  -0.2115 O.2            1 S1                 0.0000
      8 ****        -0.0750  -0.3158   0.3721 N.am           1 S1                 0.0000
      9 ****         1.0688   0.5826   0.5000 C.3            1 S1                 0.0000
     10 ****         1.6931   0.8765  -0.8771 C.3            1 S1                 0.0000
     11 ****         2.9525   1.7483  -0.7411 C.3            1 S1                 0.0000
     12 ****         3.9436   1.1179   0.1662 N.4            1 S1                 1.0000
     13 ****         5.2107   1.8775   0.2290 C.3            1 S1                 0.0000
     14 ****         3.3772   0.8535   1.5125 C.3            1 S1                 0.0000
     15 ****         2.1288  -0.0407   1.4229 C.3            1 S1                 0.0000
     16 ****        -4.2575   0.1008  -0.6453 N.2            1 S1                 0.0000
     17 ****        -5.5452  -0.3882  -0.8942 O.3            1 S1                 0.0000
     18 ****        -6.6721  -3.5212  -1.0631 H              1 S1                 0.0000
     19 ****        -7.3161  -2.0883  -1.8661 H              1 S1                 0.0000
     20 ****        -7.5090  -2.2844  -0.1227 H              1 S1                 0.0000
     21 ****        -3.9700  -3.1836  -0.1899 H              1 S1                 0.0000
     22 ****        -1.7672  -1.8889   0.1999 H              1 S1                 0.0000
     23 ****         0.0890  -1.2954   0.5541 H              1 S1                 0.0000
     24 ****         0.7361   1.5210   0.9487 H              1 S1                 0.0000
     25 ****         1.9518  -0.0595  -1.3748 H              1 S1                 0.0000
     26 ****         0.9699   1.3787  -1.5211 H              1 S1                 0.0000
     27 ****         3.3995   1.8963  -1.7251 H              1 S1                 0.0000
     28 ****         2.6856   2.7362  -0.3621 H              1 S1                 0.0000
     29 ****         5.0519   2.8695   0.6539 H              1 S1                 0.0000
     30 ****         5.6386   1.9961  -0.7668 H              1 S1                 0.0000
     31 ****         5.9432   1.3544   0.8447 H              1 S1                 0.0000
     32 ****         4.1285   0.3676   2.1364 H              1 S1                 0.0000
     33 ****         3.1271   1.7994   1.9958 H              1 S1                 0.0000
     34 ****         1.7143  -0.1935   2.4202 H              1 S1                 0.0000
     35 ****         2.4145  -1.0262   1.0516 H              1 S1                 0.0000
     36 ****         4.1687   0.2182  -0.2341 H              1 S1                 0.0000
     37 ****        -2.5623   1.4599  -0.4666 LP             1 S1                 0.0000
     38 ****        -0.9322   1.9541  -0.1524 LP             1 S1                 0.0000
     39 ****        -3.9501   1.0516  -0.6839 LP             1 S1                 0.0000
     40 ****        -6.1913   0.0231  -0.2513 LP             1 S1                 0.0000
     41 ****        -5.8160  -0.1617  -1.8298 LP             1 S1                 0.0000
@<TRIPOS>BOND
    1    1    2 1     
    2    1   18 1     
    3    1   19 1     
    4    1   20 1     
    5    2   17 1     
    6    2    3 2     
    7    3    4 1     
    8    3   21 1     
    9    4    5 1     
   10    4   16 2     
   11    5    6 am    
   12    5   22 1     
   13    6    7 2     
   14    6    8 am    
   15    8    9 1     
   16    8   23 1     
   17    9   15 1     
   18    9   10 1     
   19    9   24 1     
   20   10   11 1     
   21   10   25 1     
   22   10   26 1     
   23   11   12 1     
   24   11   27 1     
   25   11   28 1     
   26   12   13 1     
   27   12   14 1     
   28   12   36 1     
   29   13   29 1     
   30   13   30 1     
   31   13   31 1     
   32   14   15 1     
   33   14   32 1     
   34   14   33 1     
   35   15   34 1     
   36   15   35 1     
   37   16   17 1     
   38    7   37 1     
   39    7   38 1     
   40   16   39 1     
   41   17   40 1     
   42   17   41 1     
@<TRIPOS>SUBSTRUCTURE
      1 S1             1
@<TRIPOS>SET
LONE_PAIRS      STATIC     ATOMS    <user>   **** ""
5 37 38 39 40 41
DONOR_HYDROGENS      STATIC     ATOMS    <user>   **** ""
3 22 23 36
ATOM$BLUE        STATIC     ATOMS    COLORGROUP SYSTEM
5 37 38 39 40 41
ATOM$RED        STATIC     ATOMS    COLORGROUP SYSTEM
3 22 23 36
