AV-unprocessed.smi:2569|AV-procd|sdf|10105|dock5
  -GOLD-   2272014123D 1   1.00000     0.00000
 Structure written by MMmdl.
 40 42  0  0  0  0  0  0  0  0  2 V2000
  152.4346  143.6416  161.5228 C   0  0  0  0  0  0  0  0  0  0  0  0
  152.2286  142.8698  160.2304 C   0  0  0  0  0  0  0  0  0  0  0  0
  151.3750  143.4172  159.2462 C   0  0  0  0  0  0  0  0  0  0  0  0
  151.2099  142.6895  158.0736 C   0  0  0  0  0  0  0  0  0  0  0  0
  150.4528  142.9560  156.9309 N   0  3  0  0  0  0  0  0  0  0  0  0
  150.6074  141.9412  156.0362 C   0  0  0  0  0  0  0  0  0  0  0  0
  151.4545  141.0314  156.5894 N   0  0  0  0  0  0  0  0  0  0  0  0
  151.9427  139.7554  156.0474 C   0  0  0  0  0  0  0  0  0  0  0  0
  150.8268  138.9074  155.3991 C   0  0  1  0  0  0  0  0  0  0  0  0
  150.7285  139.1985  154.0197 O   0  0  0  0  0  0  0  0  0  0  0  0
  151.0391  137.3883  155.5503 C   0  0  0  0  0  0  0  0  0  0  0  0
  151.6392  137.0294  156.8244 N   0  0  0  0  0  0  0  0  0  0  0  0
  152.8294  136.3818  156.8800 N   0  0  0  0  0  0  0  0  0  0  0  0
  153.1047  136.2123  158.1412 N   0  0  0  0  0  0  0  0  0  0  0  0
  152.1107  136.7354  158.9474 N   0  0  0  0  0  0  0  0  0  0  0  0
  151.2295  137.2240  158.0847 C   0  0  0  0  0  0  0  0  0  0  0  0
  149.9522  137.9078  158.4455 C   0  0  0  0  0  0  0  0  0  0  0  0
  151.8558  141.4557  157.8618 C   0  0  0  0  0  0  0  0  0  0  0  0
  152.6994  140.9020  158.8220 C   0  0  0  0  0  0  0  0  0  0  0  0
  152.8826  141.6281  160.0203 C   0  0  0  0  0  0  0  0  0  0  0  0
  153.8001  141.0498  161.0840 C   0  0  0  0  0  0  0  0  0  0  0  0
  151.8753  144.5774  161.5222 H   0  0  0  0  0  0  0  0  0  0  0  0
  153.4883  143.8847  161.6599 H   0  0  0  0  0  0  0  0  0  0  0  0
  152.0997  143.0535  162.3777 H   0  0  0  0  0  0  0  0  0  0  0  0
  150.8745  144.3623  159.3990 H   0  0  0  0  0  0  0  0  0  0  0  0
  150.1407  141.8700  155.0641 H   0  0  0  0  0  0  0  0  0  0  0  0
  152.7518  139.9499  155.3429 H   0  0  0  0  0  0  0  0  0  0  0  0
  152.3904  139.2142  156.8815 H   0  0  0  0  0  0  0  0  0  0  0  0
  149.8727  139.1777  155.8526 H   0  0  0  0  0  0  0  0  0  0  0  0
  149.8552  138.9838  153.7294 H   0  0  0  0  0  0  0  0  0  0  0  0
  150.0883  136.8615  155.4592 H   0  0  0  0  0  0  0  0  0  0  0  0
  151.6755  137.0142  154.7465 H   0  0  0  0  0  0  0  0  0  0  0  0
  149.7593  137.8129  159.5145 H   0  0  0  0  0  0  0  0  0  0  0  0
  149.1175  137.4623  157.9039 H   0  0  0  0  0  0  0  0  0  0  0  0
  150.0110  138.9671  158.1958 H   0  0  0  0  0  0  0  0  0  0  0  0
  153.2022  139.9598  158.6616 H   0  0  0  0  0  0  0  0  0  0  0  0
  154.2124  140.0888  160.7755 H   0  0  0  0  0  0  0  0  0  0  0  0
  153.2565  140.8948  162.0163 H   0  0  0  0  0  0  0  0  0  0  0  0
  154.6353  141.7234  161.2765 H   0  0  0  0  0  0  0  0  0  0  0  0
  149.8711  143.7688  156.7711 H   0  0  0  0  0  0  0  0  0  0  0  0
  1  2  1  0  0  0  0
  1 22  1  0  0  0  0
  1 23  1  0  0  0  0
  1 24  1  0  0  0  0
  2 20  1  0  0  0  0
  2  3  2  0  0  0  0
  3  4  1  0  0  0  0
  3 25  1  0  0  0  0
  4 18  2  0  0  0  0
  4  5  1  0  0  0  0
  5  6  2  0  0  0  0
  5 40  1  0  0  0  0
  6  7  1  0  0  0  0
  6 26  1  0  0  0  0
  7  8  1  0  0  0  0
  7 18  1  0  0  0  0
  8  9  1  0  0  0  0
  8 27  1  0  0  0  0
  8 28  1  0  0  0  0
  9 10  1  0  0  0  0
  9 11  1  0  0  0  0
  9 29  1  0  0  0  0
 10 30  1  0  0  0  0
 11 12  1  0  0  0  0
 11 31  1  0  0  0  0
 11 32  1  0  0  0  0
 12 16  1  0  0  0  0
 12 13  1  0  0  0  0
 13 14  2  0  0  0  0
 14 15  1  0  0  0  0
 15 16  2  0  0  0  0
 16 17  1  0  0  0  0
 17 33  1  0  0  0  0
 17 34  1  0  0  0  0
 17 35  1  0  0  0  0
 18 19  1  0  0  0  0
 19 20  2  0  0  0  0
 19 36  1  0  0  0  0
 20 21  1  0  0  0  0
 21 37  1  0  0  0  0
 21 38  1  0  0  0  0
 21 39  1  0  0  0  0
M  CHG  1   5   1
M  END
> <s_m_source_file>
AV-unprocessed.smi

> <i_m_source_file_index>
2569

> <i_lp_mmshare_version>
43012

> <i_f3d_flags>
0

> <s_epik_input>
W0NIM11jKFtjSF0xKWMoW0NIM10pW2NIXWMoYzEyKW4oW2NIXW4yKVtDSDJdW0NASF0oW09IXSlbQ0gyXW4zbm5uYzNbQ0gzXQ==

> <s_epik_cmdline>
J2VwaWtfcHl0aG9uJywgJy1waCcsICc3LjAnLCAnLXRuJywgJzgnLCAnLW1hJywgJzIwMCcsICctbWV0YWxfYmluZGluZycsICctaW1hZScsICc8aW5maWxlLm1hZT4nLCAnLW9tYWUnLCAnPG91dGZpbGUubWFlPic=

> <r_lp_tautomer_probability>
1

> <r_epik_Ionization_Penalty>
1.13338

> <r_epik_Ionization_Penalty_Charging>
1.13335

> <r_epik_Ionization_Penalty_Neutral>
3.02334e-05

> <r_epik_State_Penalty>
1.19324

> <r_epik_Charging_Adjusted_Penalty>
2.3266

> <i_epik_Tot_Q>
1

> <i_epik_Tot_abs_Q>
1

> <r_epik_Metal_State_Penalty>
1.27602

> <b_epik_Metal_Only>
0

> <s_lp_Force_Field>
OPLS_2005

> <r_lp_Energy>
16.0623

> <b_lp_Chiralities_Consistent>
1

> <s_lp_Variant>
AV-unprocessed.smi:2569-4

> <Gold.Version>
5.8.1

> <Gold.Id.Protein>
6NUR|6NUR_protein|mol2

> <Gold.PLP.Fitness>
54.5664

> <Gold.PLP.PLP>
-41.6415

> <Gold.PLP.part.hbond>
-5.0152

> <Gold.PLP.part.metal>
0.0000

> <Gold.PLP.part.buried>
-5.1695

> <Gold.PLP.part.nonpolar>
-30.3724

> <Gold.PLP.part.repulsive>
0.0242

> <Gold.PLP.ligand.clash>
0.0000

> <Gold.PLP.ligand.torsion>
0.8403

> <Gold.PLP.Chemscore.Hbond>
4.8640

> <Gold.PLP.Chemscore.CHOScore>
0.0000

> <Gold.PLP.Chemscore.Metal>
0.0000

> <Gold.Chemscore.Hbonds>
donor molecule, donor type, donor heavy atom, donor atom, acceptor molecule, acceptor atom, score
      L1  H     5    40       P1  8028  1.98
      P1  H  6896  6908       L1    15  0.84
      P1  H  7989  7998       L1    10  1.00
      P1  H 10752 10764       L1    13  1.00

> <Gold.PLP.Chemscore.Internal.Correction>
0.0135

> <Gold.Rescore>
     Score         DG    S(hbond)    S(metal)    S(lipo)     H(rot)  DE(clash)    DE(int)     intcor
     20.09     -21.18       3.30        0.00      96.66       2.59       0.22       0.87       ----

> <Gold.Chemscore.Fitness>
20.0925

> <Gold.Chemscore.DG>
-21.1804

> <Gold.Chemscore.ZeroCoef>
-5.4800

> <Gold.Chemscore.Hbond>
3.2962

> <Gold.Chemscore.Metal>
0.0000

> <Gold.Chemscore.Lipo>
96.6641

> <Gold.Chemscore.Internal_Hbond>
0.0000

> <Gold.Chemscore.DEClash>
0.2213

> <Gold.Chemscore.DEInternal>
0.8667

> <Gold.Chemscore.Rot>
2.5854

> <Gold.Chemscore.Internal.Correction>
   9.000000E+99

> <Gold.Chemscore.Hbonds>
donor molecule, donor type, donor heavy atom, donor atom, acceptor molecule, acceptor atom, score
      L1  H     5    40       P1  8028  0.94
      P1  H  6896  6908       L1    15  0.18
      P1  H  7989  7998       L1    10  0.87
      P1  H 10752 10764       L1    13  0.95

> <Gold.Chemscore.Hbond.Weighted>
-11.0094

> <Gold.Chemscore.Metal.Weighted>
-0.0000

> <Gold.Chemscore.Lipo.Weighted>
-11.3097

> <Gold.Chemscore.Internal_Hbond.Weighted>
0.0000

> <Gold.Chemscore.DEClash.Weighted>
0.2213

> <Gold.Chemscore.DEInternal.Weighted>
0.8667

> <Gold.Chemscore.Rot.Weighted>
6.6187

> <Gold.Chemscore.Internal.Correction.Weighted>
   9.000000E+99

> <Gold.Protein.RotatedTorsions>
[ 6907 6896 6895 6894 ] final -112.33 input  -60.11 | X-H torsion
[ 7974 7965 7964 7962 ] final  -99.63 input  175.53 | X-H torsion
[ 8008 7997 7996 7995 ] final   69.41 input   59.86 | X-H torsion
[ 10167 10162 10161 10158 ] final   68.27 input  -65.29 | X-H torsion
[ 10718 10713 10712 10709 ] final -106.65 input   66.30 | X-H torsion
[ 10763 10752 10751 10750 ] final   -7.12 input  -60.55 | X-H torsion
[ 11005 11000 10999 10996 ] final  -51.27 input  -57.11 | X-H torsion

> <Gold.Protein.ActiveResidues>
 VAL166  LYS551  ARG553  GLY616  TRP617  ASP618  TYR619  PRO620  LYS621  CYS622 
 ASP623  PHE694  ASN695  SER759  ASP760  ASP761  ALA762  ILE779  LEU786  VAL792 
 PHE793  MET794  SER795  GLU796  ALA797  LYS798  CYS799  TRP800  GLU811  SER814 

> <Gold.Protein.RotatedAtoms>
  150.7751  133.9106  159.3368 H   0  0  0  0  0  0  0  0  0  0  0  0  # atno 6907 bound_to 6896
  151.6983  135.0933  160.0255 H   0  0  0  0  0  0  0  0  0  0  0  0  # atno 6908 bound_to 6896
  152.3783  133.6473  159.6177 H   0  0  0  0  0  0  0  0  0  0  0  0  # atno 6909 bound_to 6896
  145.3050  140.9386  143.2802 H   0  0  0  0  0  0  0  0  0  0  0  0  # atno 7974 bound_to 7965
  155.7232  140.3493  155.5025 H   0  0  0  0  0  0  0  0  0  0  0  0  # atno 8008 bound_to 7997
  155.9250  140.1074  157.1199 H   0  0  0  0  0  0  0  0  0  0  0  0  # atno 8009 bound_to 7997
  154.4076  140.1242  156.4716 H   0  0  0  0  0  0  0  0  0  0  0  0  # atno 8010 bound_to 7997
  140.0805  144.5075  150.7165 H   0  0  0  0  0  0  0  0  0  0  0  0  # atno 10167 bound_to 10162
  156.0400  130.5623  150.7711 H   0  0  0  0  0  0  0  0  0  0  0  0  # atno 10718 bound_to 10713
  153.4219  135.7010  153.6288 H   0  0  0  0  0  0  0  0  0  0  0  0  # atno 10763 bound_to 10752
  153.4739  135.3708  155.2406 H   0  0  0  0  0  0  0  0  0  0  0  0  # atno 10764 bound_to 10752
  154.8722  135.4049  154.3589 H   0  0  0  0  0  0  0  0  0  0  0  0  # atno 10765 bound_to 10752
  141.0862  133.6642  156.3853 H   0  0  0  0  0  0  0  0  0  0  0  0  # atno 11005 bound_to 11000
  144.9062  139.4586  143.6609 LP  0  0  0  0  0  0  0  0  0  0  0  0  # atno 17320 bound_to 7965
  146.3138  139.7844  142.8999 LP  0  0  0  0  0  0  0  0  0  0  0  0  # atno 17321 bound_to 7965
  140.7080  143.2483  151.4667 LP  0  0  0  0  0  0  0  0  0  0  0  0  # atno 17342 bound_to 10162
  139.5782  144.1769  152.1933 LP  0  0  0  0  0  0  0  0  0  0  0  0  # atno 17343 bound_to 10162
  157.5205  131.0931  151.0085 LP  0  0  0  0  0  0  0  0  0  0  0  0  # atno 17370 bound_to 10713
  157.0417  130.5751  149.5357 LP  0  0  0  0  0  0  0  0  0  0  0  0  # atno 17371 bound_to 10713
  140.5357  134.6169  157.5364 LP  0  0  0  0  0  0  0  0  0  0  0  0  # atno 17394 bound_to 11000
  139.9681  134.7339  156.0098 LP  0  0  0  0  0  0  0  0  0  0  0  0  # atno 17395 bound_to 11000

$$$$
