#       Name:                AV-unprocessed.smi:1824
#       Creating user name   scv26
#       Creation time:       Fri Mar 27 09:07:41 2020


#       File generated by GOLD software.
#

@<TRIPOS>MOLECULE
AV-unprocessed.smi:1824
    50    52     1
SMALL
NO_CHARGES


@<TRIPOS>ATOM
      1 ****        -5.0785   2.3185  -0.5188 C.3            1 S1                 0.0000
      2 ****        -3.5799   2.2587  -0.2036 C.3            1 S1                 0.0000
      3 ****        -3.0730   0.8113  -0.0585 C.3            1 S1                 0.0000
      4 ****        -1.6406   0.7978   0.3206 N.4            1 S1                 1.0000
      5 ****        -1.0867  -0.5778   0.4046 C.3            1 S1                 0.0000
      6 ****         0.4423  -0.6147   0.2120 C.3            1 S1                 0.0000
      7 ****         0.7427  -0.1866  -1.1029 O.3            1 S1                 0.0000
      8 ****         1.0102  -2.0302   0.4305 C.3            1 S1                 0.0000
      9 ****         2.4508  -2.0856   0.2539 N.pl3          1 S1                 0.0000
     10 ****         3.3904  -1.7540   1.1602 C.2            1 S1                 0.0000
     11 ****         4.6622  -1.8773   0.7921 N.2            1 S1                 0.0000
     12 ****         4.5349  -2.3489  -0.5031 C.ar           1 S1                 0.0000
     13 ****         5.5212  -2.6887  -1.4564 C.ar           1 S1                 0.0000
     14 ****         5.1491  -3.1542  -2.7349 C.ar           1 S1                 0.0000
     15 ****         6.1068  -3.4756  -3.6365 F              1 S1                 0.0000
     16 ****         3.7870  -3.2858  -3.0787 C.ar           1 S1                 0.0000
     17 ****         3.4383  -3.7326  -4.3083 F              1 S1                 0.0000
     18 ****         2.7866  -2.9526  -2.1454 C.ar           1 S1                 0.0000
     19 ****         3.1626  -2.4903  -0.8707 C.ar           1 S1                 0.0000
     20 ****        -1.4253   1.6027   1.5484 C.3            1 S1                 0.0000
     21 ****        -1.9759   3.0292   1.3609 C.3            1 S1                 0.0000
     22 ****        -1.8463   3.8719   2.6345 C.3            1 S1                 0.0000
     23 ****        -3.3553   2.9535   1.0183 O.3            1 S1                 0.0000
     24 ****        -5.3047   1.8018  -1.4517 H              1 S1                 0.0000
     25 ****        -5.4137   3.3509  -0.6214 H              1 S1                 0.0000
     26 ****        -5.6678   1.8547   0.2728 H              1 S1                 0.0000
     27 ****        -3.0371   2.7599  -1.0069 H              1 S1                 0.0000
     28 ****        -3.6541   0.2794   0.6969 H              1 S1                 0.0000
     29 ****        -3.2083   0.2801  -1.0017 H              1 S1                 0.0000
     30 ****        -1.3637  -1.0181   1.3637 H              1 S1                 0.0000
     31 ****        -1.5459  -1.2067  -0.3602 H              1 S1                 0.0000
     32 ****         0.9308   0.0642   0.9105 H              1 S1                 0.0000
     33 ****         1.6796  -0.2245  -1.2248 H              1 S1                 0.0000
     34 ****         0.7789  -2.3754   1.4391 H              1 S1                 0.0000
     35 ****         0.5459  -2.7411  -0.2544 H              1 S1                 0.0000
     36 ****         3.1255  -1.3992   2.1457 H              1 S1                 0.0000
     37 ****         6.5668  -2.5915  -1.2046 H              1 S1                 0.0000
     38 ****         1.7440  -3.0520  -2.4078 H              1 S1                 0.0000
     39 ****        -1.9193   1.1182   2.3924 H              1 S1                 0.0000
     40 ****        -0.3639   1.6544   1.7880 H              1 S1                 0.0000
     41 ****        -1.4328   3.5303   0.5576 H              1 S1                 0.0000
     42 ****        -0.8030   3.9728   2.9348 H              1 S1                 0.0000
     43 ****        -2.3917   3.4212   3.4642 H              1 S1                 0.0000
     44 ****        -2.2449   4.8748   2.4802 H              1 S1                 0.0000
     45 ****        -1.1459   1.2583  -0.4305 H              1 S1                 0.0000
     46 ****         0.4235   0.7521  -1.2331 LP             1 S1                 0.0000
     47 ****         0.2922  -0.7866  -1.7640 LP             1 S1                 0.0000
     48 ****         5.4924  -1.6810   1.3138 LP             1 S1                 0.0000
     49 ****        -3.8414   2.4774   1.7512 LP             1 S1                 0.0000
     50 ****        -3.7142   3.8825   0.9288 LP             1 S1                 0.0000
@<TRIPOS>BOND
    1    1    2 1     
    2    1   24 1     
    3    1   25 1     
    4    1   26 1     
    5    2   23 1     
    6    2    3 1     
    7    2   27 1     
    8    3    4 1     
    9    3   28 1     
   10    3   29 1     
   11    4    5 1     
   12    4   20 1     
   13    4   45 1     
   14    5    6 1     
   15    5   30 1     
   16    5   31 1     
   17    6    7 1     
   18    6    8 1     
   19    6   32 1     
   20    7   33 1     
   21    8    9 1     
   22    8   34 1     
   23    8   35 1     
   24    9   19 1     
   25    9   10 1     
   26   10   11 2     
   27   10   36 1     
   28   11   12 1     
   29   12   19 ar    
   30   12   13 ar    
   31   13   14 ar    
   32   13   37 1     
   33   14   15 1     
   34   14   16 ar    
   35   16   17 1     
   36   16   18 ar    
   37   18   19 ar    
   38   18   38 1     
   39   20   21 1     
   40   20   39 1     
   41   20   40 1     
   42   21   22 1     
   43   21   23 1     
   44   21   41 1     
   45   22   42 1     
   46   22   43 1     
   47   22   44 1     
   48    7   46 1     
   49    7   47 1     
   50   11   48 1     
   51   23   49 1     
   52   23   50 1     
@<TRIPOS>SUBSTRUCTURE
      1 S1             1
@<TRIPOS>SET
LONE_PAIRS      STATIC     ATOMS    <user>   **** ""
5 46 47 48 49 50
DONOR_HYDROGENS      STATIC     ATOMS    <user>   **** ""
2 45 33
ATOM$BLUE        STATIC     ATOMS    COLORGROUP SYSTEM
5 46 47 48 49 50
ATOM$RED        STATIC     ATOMS    COLORGROUP SYSTEM
2 45 33
