AV-unprocessed.smi:1244|AV-procd|sdf|5222|dock7
  -GOLD-   22720 4323D 1   1.00000     0.00000
 Structure written by MMmdl.
 54 56  0  0  0  0  0  0  0  0  1 V2000
  146.9096  140.9161  154.8151 C   0  0  0  0  0  0  0  0  0  0  0  0
  148.4412  140.9467  154.8442 C   0  0  2  0  0  0  0  0  0  0  0  0
  149.0595  139.5888  154.4582 C   0  0  0  0  0  0  0  0  0  0  0  0
  150.5162  139.5990  154.5702 N   0  0  0  0  0  0  0  0  0  0  0  0
  151.1161  138.3107  154.2276 C   0  0  0  0  0  0  0  0  0  0  0  0
  150.6993  137.1408  155.1389 C   0  0  0  0  0  0  0  0  0  0  0  0
  149.5714  136.4028  154.5835 N   0  0  0  0  0  0  0  0  0  0  0  0
  148.4265  136.1450  155.2311 C   0  0  0  0  0  0  0  0  0  0  0  0
  148.1912  136.5261  156.3779 O   0  0  0  0  0  0  0  0  0  0  0  0
  147.5959  135.4069  154.4766 N   0  0  0  0  0  0  0  0  0  0  0  0
  146.3136  134.9028  154.8329 C   0  0  0  0  0  0  0  0  0  0  0  0
  145.8060  135.0118  156.1501 C   0  0  0  0  0  0  0  0  0  0  0  0
  144.5161  134.5282  156.4309 C   0  0  0  0  0  0  0  0  0  0  0  0
  143.7738  133.9608  155.3808 C   0  0  0  0  0  0  0  0  0  0  0  0
  144.2379  133.8629  154.1186 N   0  0  0  0  0  0  0  0  0  0  0  0
  145.4793  134.3286  153.8354 C   0  0  0  0  0  0  0  0  0  0  0  0
  145.9497  134.1801  152.5128 N   0  0  0  0  0  0  0  0  0  0  0  0
  146.1153  132.7865  152.1048 C   0  0  0  0  0  0  0  0  0  0  0  0
  145.6588  132.7003  150.6465 C   0  0  0  0  0  0  0  0  0  0  0  0
  144.6744  133.8561  150.5218 C   0  0  0  0  0  0  0  0  0  0  0  0
  145.2986  134.9143  151.4285 C   0  0  0  0  0  0  0  0  0  0  0  0
  150.8831  140.0025  155.9230 C   0  0  0  0  0  0  0  0  0  0  0  0
  150.2717  141.3638  156.3058 C   0  0  2  0  0  0  0  0  0  0  0  0
  150.5908  141.7584  157.7513 C   0  0  0  0  0  0  0  0  0  0  0  0
  148.8560  141.2923  156.1628 O   0  0  0  0  0  0  0  0  0  0  0  0
  146.5411  140.6712  153.8187 H   0  0  0  0  0  0  0  0  0  0  0  0
  146.4955  141.8855  155.0936 H   0  0  0  0  0  0  0  0  0  0  0  0
  146.5163  140.1742  155.5105 H   0  0  0  0  0  0  0  0  0  0  0  0
  148.7890  141.7152  154.1519 H   0  0  0  0  0  0  0  0  0  0  0  0
  148.6462  138.8066  155.0968 H   0  0  0  0  0  0  0  0  0  0  0  0
  148.7613  139.3496  153.4381 H   0  0  0  0  0  0  0  0  0  0  0  0
  150.8305  138.0570  153.2059 H   0  0  0  0  0  0  0  0  0  0  0  0
  152.2035  138.4005  154.2195 H   0  0  0  0  0  0  0  0  0  0  0  0
  151.5183  136.4328  155.2603 H   0  0  0  0  0  0  0  0  0  0  0  0
  150.4498  137.5051  156.1369 H   0  0  0  0  0  0  0  0  0  0  0  0
  149.6772  136.0490  153.6440 H   0  0  0  0  0  0  0  0  0  0  0  0
  147.9629  135.0765  153.5961 H   0  0  0  0  0  0  0  0  0  0  0  0
  146.3782  135.4718  156.9415 H   0  0  0  0  0  0  0  0  0  0  0  0
  144.1036  134.5967  157.4266 H   0  0  0  0  0  0  0  0  0  0  0  0
  142.7791  133.5793  155.5574 H   0  0  0  0  0  0  0  0  0  0  0  0
  147.1514  132.4653  152.2148 H   0  0  0  0  0  0  0  0  0  0  0  0
  145.4979  132.1353  152.7266 H   0  0  0  0  0  0  0  0  0  0  0  0
  146.5076  132.8674  149.9819 H   0  0  0  0  0  0  0  0  0  0  0  0
  145.2190  131.7345  150.3964 H   0  0  0  0  0  0  0  0  0  0  0  0
  144.5422  134.1986  149.4952 H   0  0  0  0  0  0  0  0  0  0  0  0
  143.6994  133.5598  150.9116 H   0  0  0  0  0  0  0  0  0  0  0  0
  144.5663  135.6527  151.7553 H   0  0  0  0  0  0  0  0  0  0  0  0
  146.0721  135.4579  150.8855 H   0  0  0  0  0  0  0  0  0  0  0  0
  150.5553  139.2434  156.6352 H   0  0  0  0  0  0  0  0  0  0  0  0
  151.9691  140.0602  156.0077 H   0  0  0  0  0  0  0  0  0  0  0  0
  150.6559  142.1376  155.6388 H   0  0  0  0  0  0  0  0  0  0  0  0
  151.6669  141.8373  157.9076 H   0  0  0  0  0  0  0  0  0  0  0  0
  150.2021  141.0231  158.4564 H   0  0  0  0  0  0  0  0  0  0  0  0
  150.1473  142.7233  157.9980 H   0  0  0  0  0  0  0  0  0  0  0  0
  1  2  1  0  0  0  0
  1 26  1  0  0  0  0
  1 27  1  0  0  0  0
  1 28  1  0  0  0  0
  2 25  1  0  0  0  0
  2  3  1  0  0  0  0
  2 29  1  0  0  0  0
  3  4  1  0  0  0  0
  3 30  1  0  0  0  0
  3 31  1  0  0  0  0
  4  5  1  0  0  0  0
  4 22  1  0  0  0  0
  5  6  1  0  0  0  0
  5 32  1  0  0  0  0
  5 33  1  0  0  0  0
  6  7  1  0  0  0  0
  6 34  1  0  0  0  0
  6 35  1  0  0  0  0
  7  8  1  0  0  0  0
  7 36  1  0  0  0  0
  8  9  2  0  0  0  0
  8 10  1  0  0  0  0
 10 11  1  0  0  0  0
 10 37  1  0  0  0  0
 11 16  1  0  0  0  0
 11 12  2  0  0  0  0
 12 13  1  0  0  0  0
 12 38  1  0  0  0  0
 13 14  2  0  0  0  0
 13 39  1  0  0  0  0
 14 15  1  0  0  0  0
 14 40  1  0  0  0  0
 15 16  2  0  0  0  0
 16 17  1  0  0  0  0
 17 21  1  0  0  0  0
 17 18  1  0  0  0  0
 18 19  1  0  0  0  0
 18 41  1  0  0  0  0
 18 42  1  0  0  0  0
 19 20  1  0  0  0  0
 19 43  1  0  0  0  0
 19 44  1  0  0  0  0
 20 21  1  0  0  0  0
 20 45  1  0  0  0  0
 20 46  1  0  0  0  0
 21 47  1  0  0  0  0
 21 48  1  0  0  0  0
 22 23  1  0  0  0  0
 22 49  1  0  0  0  0
 22 50  1  0  0  0  0
 23 24  1  0  0  0  0
 23 25  1  0  0  0  0
 23 51  1  0  0  0  0
 24 52  1  0  0  0  0
 24 53  1  0  0  0  0
 24 54  1  0  0  0  0
M  END
> <s_m_source_file>
AV-unprocessed.smi

> <i_m_source_file_index>
1244

> <i_lp_mmshare_version>
43012

> <i_f3d_flags>
0

> <s_epik_input>
W0NIM11bQ0BASF0xW0NIMl1OKFtDSDJdW0NASF0oTzEpW0NIM10pW0NIMl1bQ0gyXVtOSF1DKD1PKVtOSF1jMltjSF1bY0hdW2NIXW5jMk4zW0NIMl1bQ0gyXVtDSDJdW0NIMl0z

> <s_epik_cmdline>
J2VwaWtfcHl0aG9uJywgJy1waCcsICc3LjAnLCAnLXRuJywgJzgnLCAnLW1hJywgJzIwMCcsICctbWV0YWxfYmluZGluZycsICctaW1hZScsICc8aW5maWxlLm1hZT4nLCAnLW9tYWUnLCAnPG91dGZpbGUubWFlPic=

> <r_lp_tautomer_probability>
1

> <r_epik_Ionization_Penalty>
0.363951

> <r_epik_Ionization_Penalty_Charging>
0

> <r_epik_Ionization_Penalty_Neutral>
0.363951

> <r_epik_State_Penalty>
0.349372

> <r_epik_Charging_Adjusted_Penalty>
0.349372

> <i_epik_Tot_Q>
0

> <i_epik_Tot_abs_Q>
0

> <r_epik_Metal_State_Penalty>
0.333054

> <b_epik_Metal_Only>
0

> <s_lp_Force_Field>
OPLS_2005

> <r_lp_Energy>
48.0273

> <b_lp_Chiralities_Consistent>
1

> <s_lp_Variant>
AV-unprocessed.smi:1244-2

> <Gold.Version>
5.8.1

> <Gold.Id.Protein>
6NUR|6NUR_protein|mol2

> <Gold.PLP.Fitness>
46.8067

> <Gold.PLP.PLP>
-36.4505

> <Gold.PLP.part.hbond>
-3.0000

> <Gold.PLP.part.metal>
0.0000

> <Gold.PLP.part.buried>
-6.4473

> <Gold.PLP.part.nonpolar>
-27.6218

> <Gold.PLP.part.repulsive>
0.5521

> <Gold.PLP.ligand.clash>
0.0000

> <Gold.PLP.ligand.torsion>
0.3287

> <Gold.PLP.Chemscore.Hbond>
2.7150

> <Gold.PLP.Chemscore.CHOScore>
0.9084

> <Gold.PLP.Chemscore.Metal>
0.0000

> <Gold.Chemscore.Hbonds>
donor molecule, donor type, donor heavy atom, donor atom, acceptor molecule, acceptor atom, score
      L1  H     7    36       P1  7948  0.86
      L1  H    10    37       P1  7948  0.22
      P1  H  7989  7998       L1     4  1.00
      L1  C    14    40       P1 10957  0.48
      L1  C    14    40       P1 11000  0.57

> <Gold.PLP.Chemscore.Internal.Correction>
0.1432

> <Gold.Rescore>
     Score         DG    S(hbond)    S(metal)    S(lipo)     H(rot)  DE(clash)    DE(int)     intcor
     15.26     -17.35       1.73        0.00      85.97       1.55       0.50       1.60       ----

> <Gold.Chemscore.Fitness>
15.2577

> <Gold.Chemscore.DG>
-17.3519

> <Gold.Chemscore.ZeroCoef>
-5.4800

> <Gold.Chemscore.Hbond>
1.7295

> <Gold.Chemscore.Metal>
0.0000

> <Gold.Chemscore.Lipo>
85.9652

> <Gold.Chemscore.Internal_Hbond>
0.0000

> <Gold.Chemscore.DEClash>
0.4983

> <Gold.Chemscore.DEInternal>
1.5958

> <Gold.Chemscore.Rot>
1.5479

> <Gold.Chemscore.Internal.Correction>
   9.000000E+99

> <Gold.Chemscore.Hbonds>
donor molecule, donor type, donor heavy atom, donor atom, acceptor molecule, acceptor atom, score
      L1  H     7    36       P1  7948  0.25
      L1  H    10    37       P1  7948  0.22
      P1  H  7989  7998       L1     4  0.10

> <Gold.Chemscore.Hbond.Weighted>
-5.7766

> <Gold.Chemscore.Metal.Weighted>
-0.0000

> <Gold.Chemscore.Lipo.Weighted>
-10.0579

> <Gold.Chemscore.Internal_Hbond.Weighted>
0.0000

> <Gold.Chemscore.DEClash.Weighted>
0.4983

> <Gold.Chemscore.DEInternal.Weighted>
1.5958

> <Gold.Chemscore.Rot.Weighted>
3.9627

> <Gold.Chemscore.Internal.Correction.Weighted>
   9.000000E+99

> <Gold.Protein.RotatedTorsions>
[ 6907 6896 6895 6894 ] final  -77.12 input  -60.11 | X-H torsion
[ 7974 7965 7964 7962 ] final   95.56 input  175.53 | X-H torsion
[ 8008 7997 7996 7995 ] final  132.73 input   59.86 | X-H torsion
[ 10167 10162 10161 10158 ] final   78.10 input  -65.29 | X-H torsion
[ 10718 10713 10712 10709 ] final  -11.49 input   66.30 | X-H torsion
[ 10763 10752 10751 10750 ] final -115.28 input  -60.55 | X-H torsion
[ 11005 11000 10999 10996 ] final  134.45 input  -57.11 | X-H torsion

> <Gold.Protein.ActiveResidues>
 VAL166  LYS551  ARG553  GLY616  TRP617  ASP618  TYR619  PRO620  LYS621  CYS622 
 ASP623  PHE694  ASN695  SER759  ASP760  ASP761  ALA762  ILE779  LEU786  VAL792 
 PHE793  MET794  SER795  GLU796  ALA797  LYS798  CYS799  TRP800  GLU811  SER814 

> <Gold.Protein.RotatedAtoms>
  150.7007  134.4470  159.5318 H   0  0  0  0  0  0  0  0  0  0  0  0  # atno 6907 bound_to 6896
  152.2169  134.8446  160.0500 H   0  0  0  0  0  0  0  0  0  0  0  0  # atno 6908 bound_to 6896
  151.9311  133.3576  159.3968 H   0  0  0  0  0  0  0  0  0  0  0  0  # atno 6909 bound_to 6896
  145.4506  139.2293  143.3042 H   0  0  0  0  0  0  0  0  0  0  0  0  # atno 7974 bound_to 7965
  156.2985  140.2539  156.3137 H   0  0  0  0  0  0  0  0  0  0  0  0  # atno 8008 bound_to 7997
  154.9301  140.0398  157.2062 H   0  0  0  0  0  0  0  0  0  0  0  0  # atno 8009 bound_to 7997
  154.8226  140.2862  155.5781 H   0  0  0  0  0  0  0  0  0  0  0  0  # atno 8010 bound_to 7997
  139.9745  144.5870  150.7955 H   0  0  0  0  0  0  0  0  0  0  0  0  # atno 10167 bound_to 10162
  156.6582  130.4974  149.6039 H   0  0  0  0  0  0  0  0  0  0  0  0  # atno 10718 bound_to 10713
  154.8475  135.4387  154.1639 H   0  0  0  0  0  0  0  0  0  0  0  0  # atno 10763 bound_to 10752
  153.2769  135.6950  153.7430 H   0  0  0  0  0  0  0  0  0  0  0  0  # atno 10764 bound_to 10752
  153.6650  135.3428  155.3112 H   0  0  0  0  0  0  0  0  0  0  0  0  # atno 10765 bound_to 10752
  139.9916  134.9513  156.9869 H   0  0  0  0  0  0  0  0  0  0  0  0  # atno 11005 bound_to 11000
  146.2506  140.5264  142.8895 LP  0  0  0  0  0  0  0  0  0  0  0  0  # atno 17320 bound_to 7965
  144.8064  140.6307  143.6444 LP  0  0  0  0  0  0  0  0  0  0  0  0  # atno 17321 bound_to 7965
  140.7510  143.2966  151.3190 LP  0  0  0  0  0  0  0  0  0  0  0  0  # atno 17342 bound_to 10162
  139.6456  144.0458  152.2588 LP  0  0  0  0  0  0  0  0  0  0  0  0  # atno 17343 bound_to 10162
  156.2031  130.6632  151.1189 LP  0  0  0  0  0  0  0  0  0  0  0  0  # atno 17370 bound_to 10713
  157.7118  131.0730  150.6472 LP  0  0  0  0  0  0  0  0  0  0  0  0  # atno 17371 bound_to 10713
  140.4897  134.1205  155.7230 LP  0  0  0  0  0  0  0  0  0  0  0  0  # atno 17394 bound_to 11000
  141.1570  133.8863  157.1950 LP  0  0  0  0  0  0  0  0  0  0  0  0  # atno 17395 bound_to 11000

$$$$
