#       Name:                AV-unprocessed.smi:445
#       Creating user name   scv26
#       Creation time:       Thu Mar 26 22:58:29 2020


#       File generated by GOLD software.
#

@<TRIPOS>MOLECULE
AV-unprocessed.smi:445
    52    53     1
SMALL
NO_CHARGES


@<TRIPOS>ATOM
      1 ****        -1.8370  -3.1561  -2.7266 C.3            1 S1                 0.0000
      2 ****        -2.3971  -2.9526  -1.3085 C.3            1 S1                 0.0000
      3 ****        -1.8534  -4.0122  -0.3269 C.3            1 S1                 0.0000
      4 ****        -2.4513  -3.8429   1.0790 C.3            1 S1                 0.0000
      5 ****        -2.2180  -2.4246   1.6194 C.3            1 S1                 0.0000
      6 ****        -2.7652  -1.3653   0.6479 C.3            1 S1                 0.0000
      7 ****        -2.1717  -1.5170  -0.7707 C.3            1 S1                 0.0000
      8 ****        -0.7512  -1.1648  -0.7891 N.am           1 S1                 0.0000
      9 ****        -0.2529   0.0802  -0.7524 C.2            1 S1                 0.0000
     10 ****        -0.9595   1.0884  -0.7160 O.2            1 S1                 0.0000
     11 ****         1.2784   0.1883  -0.7647 C.3            1 S1                 0.0000
     12 ****         1.7741   1.4411  -0.1661 N.am           1 S1                 0.0000
     13 ****         1.9983   1.4141   1.2217 C.2            1 S1                 0.0000
     14 ****         2.4405   2.4879   1.8986 C.2            1 S1                 0.0000
     15 ****         2.6552   2.4357   3.3289 N.pl3          1 S1                 1.0000
     16 ****         3.0544   3.4441   3.9023 O.2            1 S1                 0.0000
     17 ****         2.4330   1.3869   3.9268 O.2            1 S1                -1.0000
     18 ****         2.6906   3.7026   1.1512 C.2            1 S1                 0.0000
     19 ****         2.4745   3.7550  -0.1881 C.2            1 S1                 0.0000
     20 ****         2.7157   4.9757  -0.9902 C.2            1 S1                 0.0000
     21 ****         3.1328   6.0302  -0.2780 N.am           1 S1                 0.0000
     22 ****         2.5718   5.1024  -2.2060 O.2            1 S1                 0.0000
     23 ****         1.9765   2.5623  -0.9271 C.2            1 S1                 0.0000
     24 ****         1.7435   2.5316  -2.1383 O.2            1 S1                 0.0000
     25 ****        -0.7500  -3.0758  -2.7490 H              1 S1                 0.0000
     26 ****        -2.2410  -2.4152  -3.4170 H              1 S1                 0.0000
     27 ****        -2.1006  -4.1415  -3.1112 H              1 S1                 0.0000
     28 ****        -3.4760  -3.1018  -1.3757 H              1 S1                 0.0000
     29 ****        -2.0794  -5.0127  -0.6973 H              1 S1                 0.0000
     30 ****        -0.7661  -3.9459  -0.2706 H              1 S1                 0.0000
     31 ****        -3.5219  -4.0486   1.0467 H              1 S1                 0.0000
     32 ****        -2.0164  -4.5760   1.7591 H              1 S1                 0.0000
     33 ****        -2.6952  -2.3156   2.5936 H              1 S1                 0.0000
     34 ****        -1.1513  -2.2632   1.7802 H              1 S1                 0.0000
     35 ****        -3.8503  -1.4617   0.5922 H              1 S1                 0.0000
     36 ****        -2.5757  -0.3663   1.0417 H              1 S1                 0.0000
     37 ****        -2.6947  -0.8261  -1.4346 H              1 S1                 0.0000
     38 ****        -0.0972  -1.9333  -0.8228 H              1 S1                 0.0000
     39 ****         1.6994  -0.6652  -0.2301 H              1 S1                 0.0000
     40 ****         1.6268   0.0709  -1.7920 H              1 S1                 0.0000
     41 ****         1.7758   0.4665   1.6914 H              1 S1                 0.0000
     42 ****         3.0541   4.5632   1.6923 H              1 S1                 0.0000
     43 ****         3.3257   6.9081  -0.7372 H              1 S1                 0.0000
     44 ****         3.2549   5.9414   0.7205 H              1 S1                 0.0000
     45 ****        -1.9557   1.0010  -0.7128 LP             1 S1                 0.0000
     46 ****        -0.5370   1.9944  -0.6896 LP             1 S1                 0.0000
     47 ****         3.2250   4.2808   3.3819 LP             1 S1                 0.0000
     48 ****         3.2092   3.4294   4.8902 LP             1 S1                 0.0000
     49 ****         2.2607   4.3275  -2.7561 LP             1 S1                 0.0000
     50 ****         2.7660   5.9803  -2.6437 LP             1 S1                 0.0000
     51 ****         1.4080   1.6901  -2.5617 LP             1 S1                 0.0000
     52 ****         1.8902   3.3482  -2.6965 LP             1 S1                 0.0000
@<TRIPOS>BOND
    1    1    2 1     
    2    1   25 1     
    3    1   26 1     
    4    1   27 1     
    5    2    7 1     
    6    2    3 1     
    7    2   28 1     
    8    3    4 1     
    9    3   29 1     
   10    3   30 1     
   11    4    5 1     
   12    4   31 1     
   13    4   32 1     
   14    5    6 1     
   15    5   33 1     
   16    5   34 1     
   17    6    7 1     
   18    6   35 1     
   19    6   36 1     
   20    7    8 1     
   21    7   37 1     
   22    8    9 am    
   23    8   38 1     
   24    9   10 2     
   25    9   11 1     
   26   11   12 1     
   27   11   39 1     
   28   11   40 1     
   29   12   23 am    
   30   12   13 1     
   31   13   14 2     
   32   13   41 1     
   33   14   15 1     
   34   14   18 1     
   35   15   16 2     
   36   15   17 1     
   37   18   19 2     
   38   18   42 1     
   39   19   20 1     
   40   19   23 1     
   41   20   21 am    
   42   20   22 2     
   43   21   43 1     
   44   21   44 1     
   45   23   24 2     
   46   10   45 1     
   47   10   46 1     
   48   16   47 1     
   49   16   48 1     
   50   22   49 1     
   51   22   50 1     
   52   24   51 1     
   53   24   52 1     
@<TRIPOS>SUBSTRUCTURE
      1 S1             1
@<TRIPOS>SET
LONE_PAIRS      STATIC     ATOMS    <user>   **** ""
9 45 46 47 48 17 49 50 51 52
DONOR_HYDROGENS      STATIC     ATOMS    <user>   **** ""
3 38 43 44
ATOM$BLUE        STATIC     ATOMS    COLORGROUP SYSTEM
9 45 46 47 48 17 49 50 51 52
ATOM$RED        STATIC     ATOMS    COLORGROUP SYSTEM
3 38 43 44
