#       Name:                AV-unprocessed.smi:118
#       Creating user name   scv26
#       Creation time:       Thu Mar 26 18:26:13 2020


#       File generated by GOLD software.
#

@<TRIPOS>MOLECULE
AV-unprocessed.smi:118
    51    54     1
SMALL
NO_CHARGES


@<TRIPOS>ATOM
      1 ****        -1.2338   0.9210   0.9572 O.2            1 S1                 0.0000
      2 ****        -0.6751   0.1985   1.7837 C.2            1 S1                 0.0000
      3 ****         0.8434   0.2952   2.0014 C.3            1 S1                 0.0000
      4 ****         1.5487   0.9807   0.8963 N.am           1 S1                 0.0000
      5 ****         1.7828   2.3748   0.9930 C.2            1 S1                 0.0000
      6 ****         1.4248   3.0161   1.9820 O.2            1 S1                 0.0000
      7 ****         2.4603   2.9798  -0.1482 C.2            1 S1                 0.0000
      8 ****         2.7411   4.2940  -0.1350 F              1 S1                 0.0000
      9 ****         2.8117   2.2408  -1.2207 C.2            1 S1                 0.0000
     10 ****         2.5552   0.8840  -1.3121 N.am           1 S1                 0.0000
     11 ****         2.9520   0.0677  -2.5255 C.3            1 S1                 0.0000
     12 ****         1.7051  -0.3710  -3.3199 C.3            1 S1                 0.0000
     13 ****         2.0098   0.1127  -4.7240 C.3            1 S1                 0.0000
     14 ****         2.9115   1.3084  -4.4585 C.3            1 S1                 0.0000
     15 ****         3.7280   0.8468  -3.3906 O.3            1 S1                 0.0000
     16 ****         1.9254   0.2208  -0.2365 C.2            1 S1                 0.0000
     17 ****         1.7029  -0.9910  -0.2902 O.2            1 S1                 0.0000
     18 ****        -1.3045  -0.7175   2.5412 N.am           1 S1                 0.0000
     19 ****        -2.6866  -1.0535   2.5562 C.ar           1 S1                 0.0000
     20 ****        -3.7166  -0.1376   2.2194 C.ar           1 S1                 0.0000
     21 ****        -5.0744  -0.5251   2.2689 C.ar           1 S1                 0.0000
     22 ****        -5.4364  -1.8285   2.6656 C.ar           1 S1                 0.0000
     23 ****        -4.4201  -2.7343   3.0178 C.ar           1 S1                 0.0000
     24 ****        -3.0595  -2.3519   2.9689 C.ar           1 S1                 0.0000
     25 ****        -2.1848  -3.3678   3.3508 N.2            1 S1                 0.0000
     26 ****        -3.1796  -4.4863   3.6611 S.2            1 S1                 0.0000
     27 ****        -4.6256  -4.0450   3.4352 N.2            1 S1                 0.0000
     28 ****         1.0191   0.7909   2.9572 H              1 S1                 0.0000
     29 ****         1.2479  -0.7081   2.1468 H              1 S1                 0.0000
     30 ****         3.3134   2.7503  -2.0289 H              1 S1                 0.0000
     31 ****         3.5498  -0.7589  -2.1374 H              1 S1                 0.0000
     32 ****         1.5643  -1.4506  -3.2604 H              1 S1                 0.0000
     33 ****         0.8131   0.1245  -2.9327 H              1 S1                 0.0000
     34 ****         2.5578  -0.6533  -5.2741 H              1 S1                 0.0000
     35 ****         1.1148   0.3692  -5.2912 H              1 S1                 0.0000
     36 ****         3.5061   1.5914  -5.3271 H              1 S1                 0.0000
     37 ****         2.3277   2.1737  -4.1415 H              1 S1                 0.0000
     38 ****        -0.7112  -1.3034   3.1106 H              1 S1                 0.0000
     39 ****        -3.4889   0.8770   1.9312 H              1 S1                 0.0000
     40 ****        -5.8431   0.1863   2.0052 H              1 S1                 0.0000
     41 ****        -6.4749  -2.1227   2.7041 H              1 S1                 0.0000
     42 ****        -0.6991   1.5757   0.4229 LP             1 S1                 0.0000
     43 ****        -2.2221   0.8530   0.8206 LP             1 S1                 0.0000
     44 ****         0.9593   2.5533   2.7364 LP             1 S1                 0.0000
     45 ****         1.5996   3.9995   2.0305 LP             1 S1                 0.0000
     46 ****         4.4777   0.2954  -3.7564 LP             1 S1                 0.0000
     47 ****         4.1018   1.6292  -2.8924 LP             1 S1                 0.0000
     48 ****         1.2501  -1.4505   0.4739 LP             1 S1                 0.0000
     49 ****         1.9752  -1.5140  -1.0978 LP             1 S1                 0.0000
     50 ****        -1.1864  -3.3655   3.4063 LP             1 S1                 0.0000
     51 ****        -5.4779  -4.5544   3.5539 LP             1 S1                 0.0000
@<TRIPOS>BOND
    1    1    2 2     
    2    2    3 1     
    3    2   18 am    
    4    3    4 1     
    5    3   28 1     
    6    3   29 1     
    7    4   16 am    
    8    4    5 am    
    9    5    6 2     
   10    5    7 1     
   11    7    8 1     
   12    7    9 2     
   13    9   10 1     
   14    9   30 1     
   15   10   11 1     
   16   10   16 am    
   17   11   15 1     
   18   11   12 1     
   19   11   31 1     
   20   12   13 1     
   21   12   32 1     
   22   12   33 1     
   23   13   14 1     
   24   13   34 1     
   25   13   35 1     
   26   14   15 1     
   27   14   36 1     
   28   14   37 1     
   29   16   17 2     
   30   18   19 1     
   31   18   38 1     
   32   19   24 ar    
   33   19   20 ar    
   34   20   21 ar    
   35   20   39 1     
   36   21   22 ar    
   37   21   40 1     
   38   22   23 ar    
   39   22   41 1     
   40   23   27 1     
   41   23   24 ar    
   42   24   25 1     
   43   25   26 2     
   44   26   27 2     
   45    1   42 1     
   46    1   43 1     
   47    6   44 1     
   48    6   45 1     
   49   15   46 1     
   50   15   47 1     
   51   17   48 1     
   52   17   49 1     
   53   25   50 1     
   54   27   51 1     
@<TRIPOS>SUBSTRUCTURE
      1 S1             1
@<TRIPOS>SET
LONE_PAIRS      STATIC     ATOMS    <user>   **** ""
10 42 43 44 45 46 47 48 49 50 51
DONOR_HYDROGENS      STATIC     ATOMS    <user>   **** ""
1 38
ATOM$BLUE        STATIC     ATOMS    COLORGROUP SYSTEM
10 42 43 44 45 46 47 48 49 50 51
ATOM$RED        STATIC     ATOMS    COLORGROUP SYSTEM
1 38
