AV-unprocessed.smi:2411|AV-procd|sdf|9531|dock1
  -GOLD-   2272013163D 1   1.00000     0.00000
 Structure written by MMmdl.
 42 44  0  0  0  0  0  0  0  0  2 V2000
  146.2733  143.1281  153.3831 C   0  0  0  0  0  0  0  0  0  0  0  0
  146.4017  142.2015  154.4999 N   0  0  0  0  0  0  0  0  0  0  0  0
  145.2236  142.0483  155.3453 C   0  0  0  0  0  0  0  0  0  0  0  0
  147.1027  141.0222  154.1757 C   0  0  0  0  0  0  0  0  0  0  0  0
  146.4516  140.0672  153.4719 N   0  0  0  0  0  0  0  0  0  0  0  0
  147.0888  138.9433  153.1278 C   0  0  0  0  0  0  0  0  0  0  0  0
  148.3652  138.7016  153.4537 N   0  3  0  0  0  0  0  0  0  0  0  0
  149.0613  139.6231  154.1604 C   0  0  0  0  0  0  0  0  0  0  0  0
  148.4561  140.8413  154.5495 C   0  0  0  0  0  0  0  0  0  0  0  0
  149.1230  141.8265  155.3308 N   0  0  0  0  0  0  0  0  0  0  0  0
  150.3529  141.7631  155.8656 C   0  0  0  0  0  0  0  0  0  0  0  0
  151.1086  140.7947  155.7881 O   0  0  0  0  0  0  0  0  0  0  0  0
  150.6731  142.9098  156.4803 N   0  0  0  0  0  0  0  0  0  0  0  0
  151.9497  143.1944  157.1320 C   0  0  0  0  0  0  0  0  0  0  0  0
  151.9121  143.6945  158.5757 C   0  0  0  0  0  0  0  0  0  0  0  0
  152.2316  142.6069  159.5960 C   0  0  0  0  0  0  0  0  0  0  0  0
  152.6648  142.9866  160.9921 C   0  0  0  0  0  0  0  0  0  0  0  0
  153.6258  142.2621  160.0783 C   0  0  0  0  0  0  0  0  0  0  0  0
  152.4115  145.0907  158.9046 C   0  0  0  0  0  0  0  0  0  0  0  0
  150.9325  144.8105  158.9162 C   0  0  0  0  0  0  0  0  0  0  0  0
  147.2394  143.3660  152.9381 H   0  0  0  0  0  0  0  0  0  0  0  0
  145.8225  144.0635  153.7156 H   0  0  0  0  0  0  0  0  0  0  0  0
  145.6366  142.7027  152.6064 H   0  0  0  0  0  0  0  0  0  0  0  0
  145.4296  141.3838  156.1855 H   0  0  0  0  0  0  0  0  0  0  0  0
  144.3859  141.6419  154.7771 H   0  0  0  0  0  0  0  0  0  0  0  0
  144.9221  143.0145  155.7505 H   0  0  0  0  0  0  0  0  0  0  0  0
  146.5756  138.1757  152.5673 H   0  0  0  0  0  0  0  0  0  0  0  0
  150.0731  139.3336  154.4011 H   0  0  0  0  0  0  0  0  0  0  0  0
  148.6493  142.7155  155.4046 H   0  0  0  0  0  0  0  0  0  0  0  0
  149.9881  143.6516  156.4890 H   0  0  0  0  0  0  0  0  0  0  0  0
  152.5249  142.2682  157.1166 H   0  0  0  0  0  0  0  0  0  0  0  0
  152.5242  143.9043  156.5345 H   0  0  0  0  0  0  0  0  0  0  0  0
  151.5629  141.7499  159.5380 H   0  0  0  0  0  0  0  0  0  0  0  0
  152.8617  144.0380  161.1928 H   0  0  0  0  0  0  0  0  0  0  0  0
  152.2352  142.4265  161.8199 H   0  0  0  0  0  0  0  0  0  0  0  0
  153.8298  141.2166  160.3001 H   0  0  0  0  0  0  0  0  0  0  0  0
  154.4775  142.8217  159.7019 H   0  0  0  0  0  0  0  0  0  0  0  0
  152.8947  145.2404  159.8680 H   0  0  0  0  0  0  0  0  0  0  0  0
  152.7977  145.7121  158.1005 H   0  0  0  0  0  0  0  0  0  0  0  0
  150.3417  145.2452  158.1128 H   0  0  0  0  0  0  0  0  0  0  0  0
  150.4323  144.8021  159.8803 H   0  0  0  0  0  0  0  0  0  0  0  0
  148.8169  137.8281  153.1818 H   0  0  0  0  0  0  0  0  0  0  0  0
  1  2  1  0  0  0  0
  1 21  1  0  0  0  0
  1 22  1  0  0  0  0
  1 23  1  0  0  0  0
  2  3  1  0  0  0  0
  2  4  1  0  0  0  0
  3 24  1  0  0  0  0
  3 25  1  0  0  0  0
  3 26  1  0  0  0  0
  4  9  1  0  0  0  0
  4  5  2  0  0  0  0
  5  6  1  0  0  0  0
  6  7  2  0  0  0  0
  6 27  1  0  0  0  0
  7  8  1  0  0  0  0
  7 42  1  0  0  0  0
  8  9  2  0  0  0  0
  8 28  1  0  0  0  0
  9 10  1  0  0  0  0
 10 11  1  0  0  0  0
 10 29  1  0  0  0  0
 11 12  2  0  0  0  0
 11 13  1  0  0  0  0
 13 14  1  0  0  0  0
 13 30  1  0  0  0  0
 14 15  1  0  0  0  0
 14 31  1  0  0  0  0
 14 32  1  0  0  0  0
 15 20  1  0  0  0  0
 15 16  1  0  0  0  0
 15 19  1  0  0  0  0
 16 18  1  0  0  0  0
 16 17  1  0  0  0  0
 16 33  1  0  0  0  0
 17 18  1  0  0  0  0
 17 34  1  0  0  0  0
 17 35  1  0  0  0  0
 18 36  1  0  0  0  0
 18 37  1  0  0  0  0
 19 20  1  0  0  0  0
 19 38  1  0  0  0  0
 19 39  1  0  0  0  0
 20 40  1  0  0  0  0
 20 41  1  0  0  0  0
M  CHG  1   7   1
M  END
> <s_m_source_file>
AV-unprocessed.smi

> <i_m_source_file_index>
2411

> <i_lp_mmshare_version>
43012

> <i_f3d_flags>
0

> <s_epik_input>
W0NIM11OKFtDSDNdKWMxbltjSF1uW2NIXWMxW05IXUMoPU8pW05IXVtDSDJdQzIoW0NIMl1bQ0gyXTIpW0NIXTNbQ0gyXVtDSDJdMw==

> <s_epik_cmdline>
J2VwaWtfcHl0aG9uJywgJy1waCcsICc3LjAnLCAnLXRuJywgJzgnLCAnLW1hJywgJzIwMCcsICctbWV0YWxfYmluZGluZycsICctaW1hZScsICc8aW5maWxlLm1hZT4nLCAnLW9tYWUnLCAnPG91dGZpbGUubWFlPic=

> <r_lp_tautomer_probability>
0.999336

> <r_epik_Ionization_Penalty>
2.09151

> <r_epik_Ionization_Penalty_Charging>
2.09146

> <r_epik_Ionization_Penalty_Neutral>
4.82975e-05

> <r_epik_State_Penalty>
2.22693

> <r_epik_Charging_Adjusted_Penalty>
4.31839

> <i_epik_Tot_Q>
1

> <i_epik_Tot_abs_Q>
1

> <r_epik_Metal_State_Penalty>
2.24413

> <b_epik_Metal_Only>
0

> <s_lp_Force_Field>
OPLS_2005

> <r_lp_Energy>
35.9765

> <b_lp_Chiralities_Consistent>
1

> <s_lp_Variant>
AV-unprocessed.smi:2411-2

> <Gold.Version>
5.8.1

> <Gold.Id.Protein>
6NUR|6NUR_protein|mol2

> <Gold.PLP.Fitness>
54.1837

> <Gold.PLP.PLP>
-42.8292

> <Gold.PLP.part.hbond>
-5.0000

> <Gold.PLP.part.metal>
0.0000

> <Gold.PLP.part.buried>
-4.3814

> <Gold.PLP.part.nonpolar>
-34.4928

> <Gold.PLP.part.repulsive>
1.6016

> <Gold.PLP.ligand.clash>
0.0000

> <Gold.PLP.ligand.torsion>
1.9392

> <Gold.PLP.Chemscore.Hbond>
4.0882

> <Gold.PLP.Chemscore.CHOScore>
0.0000

> <Gold.PLP.Chemscore.Metal>
0.0000

> <Gold.Chemscore.Hbonds>
donor molecule, donor type, donor heavy atom, donor atom, acceptor molecule, acceptor atom, score
      L1  H     7    42       P1  7948  1.87
      L1  H    10    29       P1  8028  0.93
      L1  H    13    30       P1  8028  1.00
      P1  H  7989  7998       L1    12  0.17

> <Gold.PLP.Chemscore.Internal.Correction>
2.9684

> <Gold.Rescore>
     Score         DG    S(hbond)    S(metal)    S(lipo)     H(rot)  DE(clash)    DE(int)     intcor
     17.00     -23.95       3.03        0.00     108.72       1.71       3.72       3.23       ----

> <Gold.Chemscore.Fitness>
17.0003

> <Gold.Chemscore.DG>
-23.9514

> <Gold.Chemscore.ZeroCoef>
-5.4800

> <Gold.Chemscore.Hbond>
3.0288

> <Gold.Chemscore.Metal>
0.0000

> <Gold.Chemscore.Lipo>
108.7208

> <Gold.Chemscore.Internal_Hbond>
0.0000

> <Gold.Chemscore.DEClash>
3.7174

> <Gold.Chemscore.DEInternal>
3.2337

> <Gold.Chemscore.Rot>
1.7051

> <Gold.Chemscore.Internal.Correction>
   9.000000E+99

> <Gold.Chemscore.Hbonds>
donor molecule, donor type, donor heavy atom, donor atom, acceptor molecule, acceptor atom, score
      L1  H     7    42       P1  7948  0.84
      L1  H    10    29       P1  8028  0.84
      L1  H    13    30       P1  8028  0.96
      P1  H  7989  7998       L1    12  0.04

> <Gold.Chemscore.Hbond.Weighted>
-10.1161

> <Gold.Chemscore.Metal.Weighted>
-0.0000

> <Gold.Chemscore.Lipo.Weighted>
-12.7203

> <Gold.Chemscore.Internal_Hbond.Weighted>
0.0000

> <Gold.Chemscore.DEClash.Weighted>
3.7174

> <Gold.Chemscore.DEInternal.Weighted>
3.2337

> <Gold.Chemscore.Rot.Weighted>
4.3650

> <Gold.Chemscore.Internal.Correction.Weighted>
   9.000000E+99

> <Gold.Protein.RotatedTorsions>
[ 6907 6896 6895 6894 ] final  -38.72 input  -60.11 | X-H torsion
[ 7974 7965 7964 7962 ] final -146.16 input  175.53 | X-H torsion
[ 8008 7997 7996 7995 ] final -137.96 input   59.86 | X-H torsion
[ 10167 10162 10161 10158 ] final   91.83 input  -65.29 | X-H torsion
[ 10718 10713 10712 10709 ] final -139.29 input   66.30 | X-H torsion
[ 10763 10752 10751 10750 ] final -119.80 input  -60.55 | X-H torsion
[ 11005 11000 10999 10996 ] final  -47.71 input  -57.11 | X-H torsion

> <Gold.Protein.ActiveResidues>
 VAL166  LYS551  ARG553  GLY616  TRP617  ASP618  TYR619  PRO620  LYS621  CYS622 
 ASP623  PHE694  ASN695  SER759  ASP760  ASP761  ALA762  ILE779  LEU786  VAL792 
 PHE793  MET794  SER795  GLU796  ALA797  LYS798  CYS799  TRP800  GLU811  SER814 

> <Gold.Protein.RotatedAtoms>
  150.9990  134.9307  159.7942 H   0  0  0  0  0  0  0  0  0  0  0  0  # atno 6907 bound_to 6896
  152.5272  134.3180  159.9148 H   0  0  0  0  0  0  0  0  0  0  0  0  # atno 6908 bound_to 6896
  151.3185  133.4008  159.2687 H   0  0  0  0  0  0  0  0  0  0  0  0  # atno 6909 bound_to 6896
  144.8178  140.5491  143.5599 H   0  0  0  0  0  0  0  0  0  0  0  0  # atno 7974 bound_to 7965
  155.4204  140.0518  157.3026 H   0  0  0  0  0  0  0  0  0  0  0  0  # atno 8008 bound_to 7997
  154.4905  140.2118  155.9518 H   0  0  0  0  0  0  0  0  0  0  0  0  # atno 8009 bound_to 7997
  156.1335  140.3167  155.8390 H   0  0  0  0  0  0  0  0  0  0  0  0  # atno 8010 bound_to 7997
  139.8336  144.6675  150.9369 H   0  0  0  0  0  0  0  0  0  0  0  0  # atno 10167 bound_to 10162
  156.3090  130.7471  151.1542 H   0  0  0  0  0  0  0  0  0  0  0  0  # atno 10718 bound_to 10713
  154.8627  135.4225  154.2356 H   0  0  0  0  0  0  0  0  0  0  0  0  # atno 10763 bound_to 10752
  153.3332  135.6989  153.6935 H   0  0  0  0  0  0  0  0  0  0  0  0  # atno 10764 bound_to 10752
  153.5944  135.3549  155.2896 H   0  0  0  0  0  0  0  0  0  0  0  0  # atno 10765 bound_to 10752
  141.0657  133.6694  156.3337 H   0  0  0  0  0  0  0  0  0  0  0  0  # atno 11005 bound_to 11000
  145.5174  139.1477  143.3571 LP  0  0  0  0  0  0  0  0  0  0  0  0  # atno 17320 bound_to 7965
  146.2482  140.5315  142.8905 LP  0  0  0  0  0  0  0  0  0  0  0  0  # atno 17321 bound_to 7965
  140.7804  143.3978  151.1201 LP  0  0  0  0  0  0  0  0  0  0  0  0  # atno 17342 bound_to 10162
  139.7629  143.8608  152.3104 LP  0  0  0  0  0  0  0  0  0  0  0  0  # atno 17343 bound_to 10162
  157.7386  131.0538  150.5281 LP  0  0  0  0  0  0  0  0  0  0  0  0  # atno 17370 bound_to 10713
  156.5418  130.4210  149.6150 LP  0  0  0  0  0  0  0  0  0  0  0  0  # atno 17371 bound_to 10713
  140.5778  134.5776  157.5472 LP  0  0  0  0  0  0  0  0  0  0  0  0  # atno 17394 bound_to 11000
  139.9474  134.7677  156.0529 LP  0  0  0  0  0  0  0  0  0  0  0  0  # atno 17395 bound_to 11000

$$$$
