AV-unprocessed.smi:1546|AV-procd|sdf|6219|dock10
  -GOLD-   22720 6393D 1   1.00000     0.00000
 Structure written by MMmdl.
 29 30  0  0  0  0  0  0  0  0  2 V2000
  151.1570  139.5723  159.2093 O   0  0  0  0  0  0  0  0  0  0  0  0
  152.1224  140.0275  158.5953 C   0  0  0  0  0  0  0  0  0  0  0  0
  153.2737  140.6901  159.3537 C   0  0  0  0  0  0  0  0  0  0  0  0
  153.2496  142.0928  159.1355 O   0  0  0  0  0  0  0  0  0  0  0  0
  152.1401  142.7199  159.7539 C   0  0  0  0  0  0  0  0  0  0  0  0
  151.6856  143.8801  158.8947 C   0  0  0  0  0  0  0  0  0  0  0  0
  152.6977  144.7404  158.1724 C   0  0  0  0  0  0  0  0  0  0  0  0
  151.9243  145.3061  159.3366 C   0  0  0  0  0  0  0  0  0  0  0  0
  152.2575  140.0123  157.2571 N   0  0  0  0  0  0  0  0  0  0  0  0
  151.3772  139.4810  156.2729 C   0  0  0  0  0  0  0  0  0  0  0  0
  150.0396  139.0953  156.5417 C   0  0  0  0  0  0  0  0  0  0  0  0
  149.2112  138.5728  155.6118 N   0  0  0  0  0  0  0  0  0  0  0  0
  149.6904  138.4052  154.3618 C   0  0  0  0  0  0  0  0  0  0  0  0
  151.0060  138.7376  153.9866 C   0  0  0  0  0  0  0  0  0  0  0  0
  151.8668  139.2805  154.9603 C   0  0  0  0  0  0  0  0  0  0  0  0
  153.1512  139.6036  154.6186 O   0  5  0  0  0  0  0  0  0  0  0  0
  153.1752  140.4711  160.4182 H   0  0  0  0  0  0  0  0  0  0  0  0
  154.2198  140.2697  159.0088 H   0  0  0  0  0  0  0  0  0  0  0  0
  151.3210  142.0098  159.8790 H   0  0  0  0  0  0  0  0  0  0  0  0
  152.4151  143.0950  160.7406 H   0  0  0  0  0  0  0  0  0  0  0  0
  150.7536  143.6945  158.3639 H   0  0  0  0  0  0  0  0  0  0  0  0
  153.7529  144.5250  158.3294 H   0  0  0  0  0  0  0  0  0  0  0  0
  152.4373  145.0916  157.1759 H   0  0  0  0  0  0  0  0  0  0  0  0
  151.1456  146.0344  159.1187 H   0  0  0  0  0  0  0  0  0  0  0  0
  152.4633  145.4652  160.2686 H   0  0  0  0  0  0  0  0  0  0  0  0
  153.0584  140.5030  156.8856 H   0  0  0  0  0  0  0  0  0  0  0  0
  149.6082  139.1790  157.5266 H   0  0  0  0  0  0  0  0  0  0  0  0
  149.0056  137.9871  153.6391 H   0  0  0  0  0  0  0  0  0  0  0  0
  151.3445  138.5768  152.9737 H   0  0  0  0  0  0  0  0  0  0  0  0
  1  2  2  0  0  0  0
  2  3  1  0  0  0  0
  2  9  1  0  0  0  0
  3  4  1  0  0  0  0
  3 17  1  0  0  0  0
  3 18  1  0  0  0  0
  4  5  1  0  0  0  0
  5  6  1  0  0  0  0
  5 19  1  0  0  0  0
  5 20  1  0  0  0  0
  6  8  1  0  0  0  0
  6  7  1  0  0  0  0
  6 21  1  0  0  0  0
  7  8  1  0  0  0  0
  7 22  1  0  0  0  0
  7 23  1  0  0  0  0
  8 24  1  0  0  0  0
  8 25  1  0  0  0  0
  9 26  1  0  0  0  0
  9 10  1  0  0  0  0
 10 15  1  0  0  0  0
 10 11  2  0  0  0  0
 11 27  1  0  0  0  0
 11 12  1  0  0  0  0
 12 13  2  0  0  0  0
 13 28  1  0  0  0  0
 13 14  1  0  0  0  0
 14 15  2  0  0  0  0
 14 29  1  0  0  0  0
 15 16  1  0  0  0  0
M  CHG  1  16  -1
M  END
> <s_m_source_file>
AV-unprocessed.smi

> <i_m_source_file_index>
1546

> <i_lp_mmshare_version>
43012

> <i_f3d_flags>
0

> <s_epik_input>
W0NIMl0xW0NIMl1bQ0hdMVtDSDJdT1tDSDJdQyg9TylbTkhdYzJbY0hdbltjSF1bY0hdYzJbT0hd

> <s_epik_cmdline>
J2VwaWtfcHl0aG9uJywgJy1waCcsICc3LjAnLCAnLXRuJywgJzgnLCAnLW1hJywgJzIwMCcsICctbWV0YWxfYmluZGluZycsICctaW1hZScsICc8aW5maWxlLm1hZT4nLCAnLW9tYWUnLCAnPG91dGZpbGUubWFlPic=

> <r_lp_tautomer_probability>
1

> <r_epik_Ionization_Penalty>
6.21828

> <r_epik_Ionization_Penalty_Charging>
1.1523

> <r_epik_Ionization_Penalty_Neutral>
5.06598

> <r_epik_State_Penalty>
5.06586

> <r_epik_Charging_Adjusted_Penalty>
6.21817

> <i_epik_Tot_Q>
-1

> <i_epik_Tot_abs_Q>
1

> <r_epik_Metal_State_Penalty>
1.16681

> <b_epik_Metal_Only>
1

> <s_lp_Force_Field>
OPLS_2005

> <r_lp_Energy>
16.9925

> <b_lp_Chiralities_Consistent>
1

> <s_lp_Variant>
AV-unprocessed.smi:1546-2

> <Gold.Version>
5.8.1

> <Gold.Id.Protein>
6NUR|6NUR_protein|mol2

> <Gold.PLP.Fitness>
40.6892

> <Gold.PLP.PLP>
-32.8519

> <Gold.PLP.part.hbond>
-2.5773

> <Gold.PLP.part.metal>
0.0000

> <Gold.PLP.part.buried>
-2.7515

> <Gold.PLP.part.nonpolar>
-27.4302

> <Gold.PLP.part.repulsive>
0.1707

> <Gold.PLP.ligand.clash>
0.0000

> <Gold.PLP.ligand.torsion>
0.8581

> <Gold.PLP.Chemscore.Hbond>
2.0000

> <Gold.PLP.Chemscore.CHOScore>
1.0000

> <Gold.PLP.Chemscore.Metal>
0.0000

> <Gold.Chemscore.Hbonds>
donor molecule, donor type, donor heavy atom, donor atom, acceptor molecule, acceptor atom, score
      P1  H  7997  8010       L1    16  2.00
      L1  C    13    28       P1  7948  1.00

> <Gold.PLP.Chemscore.Internal.Correction>
0.5535

> <Gold.Rescore>
     Score         DG    S(hbond)    S(metal)    S(lipo)     H(rot)  DE(clash)    DE(int)     intcor
     13.53     -15.51       1.00        0.00      92.68       1.62       0.04       1.94       ----

> <Gold.Chemscore.Fitness>
13.5250

> <Gold.Chemscore.DG>
-15.5116

> <Gold.Chemscore.ZeroCoef>
-5.4800

> <Gold.Chemscore.Hbond>
0.9986

> <Gold.Chemscore.Metal>
0.0000

> <Gold.Chemscore.Lipo>
92.6836

> <Gold.Chemscore.Internal_Hbond>
0.0000

> <Gold.Chemscore.DEClash>
0.0440

> <Gold.Chemscore.DEInternal>
1.9425

> <Gold.Chemscore.Rot>
1.6202

> <Gold.Chemscore.Internal.Correction>
   9.000000E+99

> <Gold.Chemscore.Hbonds>
donor molecule, donor type, donor heavy atom, donor atom, acceptor molecule, acceptor atom, score
      P1  H  7997  8010       L1    16  1.00

> <Gold.Chemscore.Hbond.Weighted>
-3.3352

> <Gold.Chemscore.Metal.Weighted>
-0.0000

> <Gold.Chemscore.Lipo.Weighted>
-10.8440

> <Gold.Chemscore.Internal_Hbond.Weighted>
0.0000

> <Gold.Chemscore.DEClash.Weighted>
0.0440

> <Gold.Chemscore.DEInternal.Weighted>
1.9425

> <Gold.Chemscore.Rot.Weighted>
4.1476

> <Gold.Chemscore.Internal.Correction.Weighted>
   9.000000E+99

> <Gold.Protein.RotatedTorsions>
[ 6907 6896 6895 6894 ] final   79.79 input  -60.11 | X-H torsion
[ 7974 7965 7964 7962 ] final   19.10 input  175.53 | X-H torsion
[ 8008 7997 7996 7995 ] final  113.59 input   59.86 | X-H torsion
[ 10167 10162 10161 10158 ] final   15.69 input  -65.29 | X-H torsion
[ 10718 10713 10712 10709 ] final   81.56 input   66.30 | X-H torsion
[ 10763 10752 10751 10750 ] final  -28.05 input  -60.55 | X-H torsion
[ 11005 11000 10999 10996 ] final  156.45 input  -57.11 | X-H torsion

> <Gold.Protein.ActiveResidues>
 VAL166  LYS551  ARG553  GLY616  TRP617  ASP618  TYR619  PRO620  LYS621  CYS622 
 ASP623  PHE694  ASN695  SER759  ASP760  ASP761  ALA762  ILE779  LEU786  VAL792 
 PHE793  MET794  SER795  GLU796  ALA797  LYS798  CYS799  TRP800  GLU811  SER814 

> <Gold.Protein.RotatedAtoms>
  152.5211  134.3457  159.9232 H   0  0  0  0  0  0  0  0  0  0  0  0  # atno 6907 bound_to 6896
  151.3407  133.3957  159.2678 H   0  0  0  0  0  0  0  0  0  0  0  0  # atno 6908 bound_to 6896
  150.9806  134.9180  159.7900 H   0  0  0  0  0  0  0  0  0  0  0  0  # atno 6909 bound_to 6896
  146.2161  139.8361  142.8650 H   0  0  0  0  0  0  0  0  0  0  0  0  # atno 7974 bound_to 7965
  156.2268  140.2976  156.0087 H   0  0  0  0  0  0  0  0  0  0  0  0  # atno 8008 bound_to 7997
  155.2335  140.0420  157.2982 H   0  0  0  0  0  0  0  0  0  0  0  0  # atno 8009 bound_to 7997
  154.5928  140.2406  155.7905 H   0  0  0  0  0  0  0  0  0  0  0  0  # atno 8010 bound_to 7997
  140.5850  143.8908  150.6822 H   0  0  0  0  0  0  0  0  0  0  0  0  # atno 10167 bound_to 10162
  157.6836  131.0009  150.2244 H   0  0  0  0  0  0  0  0  0  0  0  0  # atno 10718 bound_to 10713
  153.7420  135.6932  153.4965 H   0  0  0  0  0  0  0  0  0  0  0  0  # atno 10763 bound_to 10752
  153.2062  135.4419  155.0324 H   0  0  0  0  0  0  0  0  0  0  0  0  # atno 10764 bound_to 10752
  154.8217  135.3425  154.6945 H   0  0  0  0  0  0  0  0  0  0  0  0  # atno 10765 bound_to 10752
  140.1676  134.8565  157.2651 H   0  0  0  0  0  0  0  0  0  0  0  0  # atno 11005 bound_to 11000
  145.2947  141.0177  143.3643 LP  0  0  0  0  0  0  0  0  0  0  0  0  # atno 17320 bound_to 7965
  144.9051  139.4600  143.6614 LP  0  0  0  0  0  0  0  0  0  0  0  0  # atno 17321 bound_to 7965
  140.2416  143.3659  152.1481 LP  0  0  0  0  0  0  0  0  0  0  0  0  # atno 17342 bound_to 10162
  139.5192  144.7016  151.5476 LP  0  0  0  0  0  0  0  0  0  0  0  0  # atno 17343 bound_to 10162
  156.2889  130.3743  149.7861 LP  0  0  0  0  0  0  0  0  0  0  0  0  # atno 17370 bound_to 10713
  156.5526  130.8348  151.3304 LP  0  0  0  0  0  0  0  0  0  0  0  0  # atno 17371 bound_to 10713
  140.2415  134.3790  155.7479 LP  0  0  0  0  0  0  0  0  0  0  0  0  # atno 17394 bound_to 11000
  141.2215  133.7268  156.8796 LP  0  0  0  0  0  0  0  0  0  0  0  0  # atno 17395 bound_to 11000

$$$$
