AV-unprocessed.smi:2446|AV-procd|sdf|9644|dock7
  -GOLD-   2272013273D 1   1.00000     0.00000
 Structure written by MMmdl.
 39 40  0  0  0  0  0  0  0  0  1 V2000
  144.9884  135.6621  150.5494 C   0  0  0  0  0  0  0  0  0  0  0  0
  144.9750  134.1811  150.8870 C   0  0  0  0  0  0  0  0  0  0  0  0
  144.1005  133.3108  150.2014 C   0  0  0  0  0  0  0  0  0  0  0  0
  144.0247  131.9862  150.4439 N   0  0  0  0  0  0  0  0  0  0  0  0
  144.8282  131.4746  151.3987 C   0  0  0  0  0  0  0  0  0  0  0  0
  145.7385  132.2499  152.1432 C   0  0  0  0  0  0  0  0  0  0  0  0
  145.8290  133.6376  151.8773 C   0  0  0  0  0  0  0  0  0  0  0  0
  146.7015  134.5167  152.5783 N   0  0  0  0  0  0  0  0  0  0  0  0
  147.0161  134.5421  153.8884 C   0  0  0  0  0  0  0  0  0  0  0  0
  146.5534  133.7844  154.7381 O   0  0  0  0  0  0  0  0  0  0  0  0
  147.9214  135.4817  154.2177 N   0  0  0  0  0  0  0  0  0  0  0  0
  148.4873  135.7889  155.5361 C   0  0  1  0  0  0  0  0  0  0  0  0
  149.9877  135.4406  155.5604 C   0  0  0  0  0  0  0  0  0  0  0  0
  150.8238  136.4105  154.7086 C   0  0  0  0  0  0  0  0  0  0  0  0
  150.5879  137.8699  155.1268 C   0  0  0  0  0  0  0  0  0  0  0  0
  149.0928  138.2465  155.0634 C   0  0  2  0  0  0  0  0  0  0  0  0
  148.8493  139.7159  155.4646 C   0  0  0  0  0  0  0  0  0  0  0  0
  149.2648  139.9431  156.7110 F   0  0  0  0  0  0  0  0  0  0  0  0
  149.5042  140.5301  154.6369 F   0  0  0  0  0  0  0  0  0  0  0  0
  147.5493  140.0004  155.3857 F   0  0  0  0  0  0  0  0  0  0  0  0
  148.2624  137.2680  155.9246 C   0  0  0  0  0  0  0  0  0  0  0  0
  144.2420  135.9020  149.7917 H   0  0  0  0  0  0  0  0  0  0  0  0
  145.9657  135.9558  150.1657 H   0  0  0  0  0  0  0  0  0  0  0  0
  144.7707  136.2583  151.4361 H   0  0  0  0  0  0  0  0  0  0  0  0
  143.4386  133.6870  149.4352 H   0  0  0  0  0  0  0  0  0  0  0  0
  144.7386  130.4140  151.5810 H   0  0  0  0  0  0  0  0  0  0  0  0
  146.3329  131.7679  152.9037 H   0  0  0  0  0  0  0  0  0  0  0  0
  147.2152  135.1617  151.9963 H   0  0  0  0  0  0  0  0  0  0  0  0
  148.2554  136.0588  153.4594 H   0  0  0  0  0  0  0  0  0  0  0  0
  147.9984  135.1540  156.2769 H   0  0  0  0  0  0  0  0  0  0  0  0
  150.3452  135.4752  156.5903 H   0  0  0  0  0  0  0  0  0  0  0  0
  150.1437  134.4158  155.2212 H   0  0  0  0  0  0  0  0  0  0  0  0
  151.8822  136.1662  154.8030 H   0  0  0  0  0  0  0  0  0  0  0  0
  150.5744  136.2870  153.6541 H   0  0  0  0  0  0  0  0  0  0  0  0
  150.9654  138.0227  156.1386 H   0  0  0  0  0  0  0  0  0  0  0  0
  151.1685  138.5281  154.4799 H   0  0  0  0  0  0  0  0  0  0  0  0
  148.7683  138.1390  154.0273 H   0  0  0  0  0  0  0  0  0  0  0  0
  147.2038  137.5180  155.8568 H   0  0  0  0  0  0  0  0  0  0  0  0
  148.5303  137.3994  156.9737 H   0  0  0  0  0  0  0  0  0  0  0  0
  1  2  1  0  0  0  0
  1 22  1  0  0  0  0
  1 23  1  0  0  0  0
  1 24  1  0  0  0  0
  2  7  1  0  0  0  0
  2  3  2  0  0  0  0
  3  4  1  0  0  0  0
  3 25  1  0  0  0  0
  4  5  2  0  0  0  0
  5  6  1  0  0  0  0
  5 26  1  0  0  0  0
  6  7  2  0  0  0  0
  6 27  1  0  0  0  0
  7  8  1  0  0  0  0
  8  9  1  0  0  0  0
  8 28  1  0  0  0  0
  9 10  2  0  0  0  0
  9 11  1  0  0  0  0
 11 12  1  0  0  0  0
 11 29  1  0  0  0  0
 12 21  1  0  0  0  0
 12 13  1  0  0  0  0
 12 30  1  0  0  0  0
 13 14  1  0  0  0  0
 13 31  1  0  0  0  0
 13 32  1  0  0  0  0
 14 15  1  0  0  0  0
 14 33  1  0  0  0  0
 14 34  1  0  0  0  0
 15 16  1  0  0  0  0
 15 35  1  0  0  0  0
 15 36  1  0  0  0  0
 16 17  1  0  0  0  0
 16 21  1  0  0  0  0
 16 37  1  0  0  0  0
 17 18  1  0  0  0  0
 17 19  1  0  0  0  0
 17 20  1  0  0  0  0
 21 38  1  0  0  0  0
 21 39  1  0  0  0  0
M  END
> <s_m_source_file>
AV-unprocessed.smi

> <i_m_source_file_index>
2446

> <i_lp_mmshare_version>
43012

> <i_f3d_flags>
0

> <s_epik_input>
W0NIM11jMVtjSF1uW2NIXVtjSF1jMVtOSF1DKD1PKVtOSF1bQ0BASF0yW0NIMl1bQ0gyXVtDSDJdW0NAQEhdKEMoRikoRilGKVtDSDJdMg==

> <s_epik_cmdline>
J2VwaWtfcHl0aG9uJywgJy1waCcsICc3LjAnLCAnLXRuJywgJzgnLCAnLW1hJywgJzIwMCcsICctbWV0YWxfYmluZGluZycsICctaW1hZScsICc8aW5maWxlLm1hZT4nLCAnLW9tYWUnLCAnPG91dGZpbGUubWFlPic=

> <r_epik_Ionization_Penalty>
0.20168

> <r_epik_Ionization_Penalty_Charging>
0

> <r_epik_Ionization_Penalty_Neutral>
0.20168

> <r_epik_State_Penalty>
0.191514

> <r_epik_Charging_Adjusted_Penalty>
0.191514

> <i_epik_Tot_Q>
0

> <i_epik_Tot_abs_Q>
0

> <r_epik_Metal_State_Penalty>
0.142371

> <b_epik_Metal_Only>
0

> <s_lp_Force_Field>
OPLS_2005

> <r_lp_Energy>
25.5489

> <b_lp_Chiralities_Consistent>
1

> <s_lp_Variant>
AV-unprocessed.smi:2446-4

> <Gold.Version>
5.8.1

> <Gold.Id.Protein>
6NUR|6NUR_protein|mol2

> <Gold.PLP.Fitness>
35.4752

> <Gold.PLP.PLP>
-27.4805

> <Gold.PLP.part.hbond>
-2.0000

> <Gold.PLP.part.metal>
0.0000

> <Gold.PLP.part.buried>
-3.5087

> <Gold.PLP.part.nonpolar>
-22.0646

> <Gold.PLP.part.repulsive>
0.2269

> <Gold.PLP.ligand.clash>
0.0000

> <Gold.PLP.ligand.torsion>
0.3566

> <Gold.PLP.Chemscore.Hbond>
1.8960

> <Gold.PLP.Chemscore.CHOScore>
0.9996

> <Gold.PLP.Chemscore.Metal>
0.0000

> <Gold.Chemscore.Hbonds>
donor molecule, donor type, donor heavy atom, donor atom, acceptor molecule, acceptor atom, score
      L1  H     8    28       P1  7948  0.88
      L1  H    11    29       P1  7948  1.00
      L1  C     3    25       P1 10186  0.98

> <Gold.PLP.Chemscore.Internal.Correction>
0.0212

> <Gold.Rescore>
     Score         DG    S(hbond)    S(metal)    S(lipo)     H(rot)  DE(clash)    DE(int)     intcor
     16.32     -16.65       1.81        0.00      65.60       1.00       0.00       0.33       ----

> <Gold.Chemscore.Fitness>
16.3217

> <Gold.Chemscore.DG>
-16.6542

> <Gold.Chemscore.ZeroCoef>
-5.4800

> <Gold.Chemscore.Hbond>
1.8139

> <Gold.Chemscore.Metal>
0.0000

> <Gold.Chemscore.Lipo>
65.6045

> <Gold.Chemscore.Internal_Hbond>
0.0000

> <Gold.Chemscore.DEClash>
0.0000

> <Gold.Chemscore.DEInternal>
0.3325

> <Gold.Chemscore.Rot>
1.0000

> <Gold.Chemscore.Internal.Correction>
   9.000000E+99

> <Gold.Chemscore.Hbonds>
donor molecule, donor type, donor heavy atom, donor atom, acceptor molecule, acceptor atom, score
      L1  H     8    28       P1  7948  0.82
      L1  H    11    29       P1  7948  0.94

> <Gold.Chemscore.Hbond.Weighted>
-6.0585

> <Gold.Chemscore.Metal.Weighted>
-0.0000

> <Gold.Chemscore.Lipo.Weighted>
-7.6757

> <Gold.Chemscore.Internal_Hbond.Weighted>
0.0000

> <Gold.Chemscore.DEClash.Weighted>
0.0000

> <Gold.Chemscore.DEInternal.Weighted>
0.3325

> <Gold.Chemscore.Rot.Weighted>
2.5600

> <Gold.Chemscore.Internal.Correction.Weighted>
   9.000000E+99

> <Gold.Protein.RotatedTorsions>
[ 6907 6896 6895 6894 ] final  -86.91 input  -60.11 | X-H torsion
[ 7974 7965 7964 7962 ] final  -99.78 input  175.53 | X-H torsion
[ 8008 7997 7996 7995 ] final -176.41 input   59.86 | X-H torsion
[ 10167 10162 10161 10158 ] final  -23.31 input  -65.29 | X-H torsion
[ 10718 10713 10712 10709 ] final    4.65 input   66.30 | X-H torsion
[ 10763 10752 10751 10750 ] final  -22.55 input  -60.55 | X-H torsion
[ 11005 11000 10999 10996 ] final  -81.30 input  -57.11 | X-H torsion

> <Gold.Protein.ActiveResidues>
 VAL166  LYS551  ARG553  GLY616  TRP617  ASP618  TYR619  PRO620  LYS621  CYS622 
 ASP623  PHE694  ASN695  SER759  ASP760  ASP761  ALA762  ILE779  LEU786  VAL792 
 PHE793  MET794  SER795  GLU796  ALA797  LYS798  CYS799  TRP800  GLU811  SER814 

> <Gold.Protein.RotatedAtoms>
  150.6866  134.2977  159.4693 H   0  0  0  0  0  0  0  0  0  0  0  0  # atno 6907 bound_to 6896
  152.0876  134.9426  160.0581 H   0  0  0  0  0  0  0  0  0  0  0  0  # atno 6908 bound_to 6896
  152.0754  133.4092  159.4515 H   0  0  0  0  0  0  0  0  0  0  0  0  # atno 6909 bound_to 6896
  145.3031  140.9382  143.2812 H   0  0  0  0  0  0  0  0  0  0  0  0  # atno 7974 bound_to 7965
  155.9945  140.1208  157.0607 H   0  0  0  0  0  0  0  0  0  0  0  0  # atno 8008 bound_to 7997
  154.4222  140.1119  156.5679 H   0  0  0  0  0  0  0  0  0  0  0  0  # atno 8009 bound_to 7997
  155.6298  140.3473  155.4681 H   0  0  0  0  0  0  0  0  0  0  0  0  # atno 8010 bound_to 7997
  140.7288  143.4454  151.0594 H   0  0  0  0  0  0  0  0  0  0  0  0  # atno 10167 bound_to 10162
  156.8958  130.5704  149.5649 H   0  0  0  0  0  0  0  0  0  0  0  0  # atno 10718 bound_to 10713
  153.6536  135.6979  153.5200 H   0  0  0  0  0  0  0  0  0  0  0  0  # atno 10763 bound_to 10752
  153.2686  135.4222  155.0965 H   0  0  0  0  0  0  0  0  0  0  0  0  # atno 10764 bound_to 10752
  154.8470  135.3573  154.6081 H   0  0  0  0  0  0  0  0  0  0  0  0  # atno 10765 bound_to 10752
  141.1667  133.7190  156.8401 H   0  0  0  0  0  0  0  0  0  0  0  0  # atno 11005 bound_to 11000
  144.9077  139.4568  143.6602 LP  0  0  0  0  0  0  0  0  0  0  0  0  # atno 17320 bound_to 7965
  146.3145  139.7867  142.8994 LP  0  0  0  0  0  0  0  0  0  0  0  0  # atno 17321 bound_to 7965
  139.8126  143.7930  152.3172 LP  0  0  0  0  0  0  0  0  0  0  0  0  # atno 17342 bound_to 10162
  139.7985  144.7383  150.9857 LP  0  0  0  0  0  0  0  0  0  0  0  0  # atno 17343 bound_to 10162
  156.0606  130.5659  150.9185 LP  0  0  0  0  0  0  0  0  0  0  0  0  # atno 17370 bound_to 10713
  157.6056  131.0939  150.8885 LP  0  0  0  0  0  0  0  0  0  0  0  0  # atno 17371 bound_to 10713
  140.1989  134.8911  157.3146 LP  0  0  0  0  0  0  0  0  0  0  0  0  # atno 17394 bound_to 11000
  140.2209  134.4025  155.7566 LP  0  0  0  0  0  0  0  0  0  0  0  0  # atno 17395 bound_to 11000

$$$$
