AV-unprocessed.smi:158|AV-procd|sdf|1325|dock4
  -GOLD-   2262019 23D 1   1.00000     0.00000
 Structure written by MMmdl.
 31 33  0  0  0  0  0  0  0  0  1 V2000
  144.9220  133.9364  155.6441 N   0  0  0  0  0  0  0  0  0  0  0  0
  145.3466  134.8968  154.8115 C   0  0  0  0  0  0  0  0  0  0  0  0
  144.8441  134.9286  153.5554 N   0  0  0  0  0  0  0  0  0  0  0  0
  145.2424  135.8708  152.6920 C   0  0  0  0  0  0  0  0  0  0  0  0
  144.5387  135.8177  151.1192 Cl  0  0  0  0  0  0  0  0  0  0  0  0
  146.1255  136.8502  152.9117 N   0  0  0  0  0  0  0  0  0  0  0  0
  146.6347  136.8221  154.1778 C   0  0  0  0  0  0  0  0  0  0  0  0
  146.2966  135.8787  155.1843 C   0  0  0  0  0  0  0  0  0  0  0  0
  147.0061  136.1500  156.3464 N   0  0  0  0  0  0  0  0  0  0  0  0
  147.7244  137.1966  156.0376 C   0  0  0  0  0  0  0  0  0  0  0  0
  147.5643  137.6661  154.7523 N   0  0  0  0  0  0  0  0  0  0  0  0
  148.2470  138.8364  154.1173 C   0  0  2  0  0  0  0  0  0  0  0  0
  149.1149  139.4224  155.0413 O   0  0  0  0  0  0  0  0  0  0  0  0
  148.8455  140.8180  155.1590 C   0  0  1  0  0  0  0  0  0  0  0  0
  150.1418  141.6080  155.4081 C   0  0  0  0  0  0  0  0  0  0  0  0
  151.2037  141.0600  154.6562 O   0  0  0  0  0  0  0  0  0  0  0  0
  148.0367  141.1848  153.9045 C   0  0  1  0  0  0  0  0  0  0  0  0
  148.8586  141.5009  152.7961 O   0  0  0  0  0  0  0  0  0  0  0  0
  147.2558  139.9116  153.6474 C   0  0  2  0  0  0  0  0  0  0  0  0
  146.1483  139.9034  154.3933 F   0  0  0  0  0  0  0  0  0  0  0  0
  148.8309  138.4140  153.2987 H   0  0  0  0  0  0  0  0  0  0  0  0
  148.1939  140.9309  156.0270 H   0  0  0  0  0  0  0  0  0  0  0  0
  147.3785  142.0354  154.0858 H   0  0  0  0  0  0  0  0  0  0  0  0
  146.9611  139.7597  152.6084 H   0  0  0  0  0  0  0  0  0  0  0  0
  145.2835  133.8922  156.5863 H   0  0  0  0  0  0  0  0  0  0  0  0
  144.2453  133.2571  155.3279 H   0  0  0  0  0  0  0  0  0  0  0  0
  148.3981  137.6579  156.7449 H   0  0  0  0  0  0  0  0  0  0  0  0
  150.0063  142.6457  155.1029 H   0  0  0  0  0  0  0  0  0  0  0  0
  150.4068  141.6208  156.4655 H   0  0  0  0  0  0  0  0  0  0  0  0
  151.4035  140.2023  154.9997 H   0  0  0  0  0  0  0  0  0  0  0  0
  148.7731  140.8097  152.1567 H   0  0  0  0  0  0  0  0  0  0  0  0
  1  2  1  0  0  0  0
  1 25  1  0  0  0  0
  1 26  1  0  0  0  0
  2  8  1  0  0  0  0
  2  3  2  0  0  0  0
  3  4  1  0  0  0  0
  4  5  1  0  0  0  0
  4  6  2  0  0  0  0
  6  7  1  0  0  0  0
  7 11  1  0  0  0  0
  7  8  2  0  0  0  0
  8  9  1  0  0  0  0
  9 10  2  0  0  0  0
 10 11  1  0  0  0  0
 10 27  1  0  0  0  0
 11 12  1  0  0  0  0
 12 21  1  0  0  0  0
 12 19  1  0  0  0  0
 12 13  1  0  0  0  0
 13 14  1  0  0  0  0
 14 22  1  0  0  0  0
 14 15  1  0  0  0  0
 14 17  1  0  0  0  0
 15 16  1  0  0  0  0
 15 28  1  0  0  0  0
 15 29  1  0  0  0  0
 16 30  1  0  0  0  0
 17 23  1  0  0  0  0
 17 18  1  0  0  0  0
 17 19  1  0  0  0  0
 18 31  1  0  0  0  0
 19 24  1  0  0  0  0
 19 20  1  0  0  0  0
M  END
> <s_m_source_file>
AV-unprocessed.smi

> <i_m_source_file_index>
158

> <i_lp_mmshare_version>
43012

> <i_f3d_flags>
0

> <s_epik_input>
Q2xjKG4xKW5jKFtOSDJdKWMoYzEyKW5bY0hdbjJbQ0BASF0zT1tDQEhdKFtDSDJdW09IXSlbQ0BASF0oW09IXSlbQ0BASF0zRg==

> <s_epik_cmdline>
J2VwaWtfcHl0aG9uJywgJy1waCcsICc3LjAnLCAnLXRuJywgJzgnLCAnLW1hJywgJzIwMCcsICctbWV0YWxfYmluZGluZycsICctaW1hZScsICc8aW5maWxlLm1hZT4nLCAnLW9tYWUnLCAnPG91dGZpbGUubWFlPic=

> <r_lp_tautomer_probability>
1

> <r_epik_Ionization_Penalty>
6.51543e-05

> <r_epik_Ionization_Penalty_Charging>
0

> <r_epik_Ionization_Penalty_Neutral>
6.51543e-05

> <r_epik_State_Penalty>
-0

> <r_epik_Charging_Adjusted_Penalty>
0

> <i_epik_Tot_Q>
0

> <i_epik_Tot_abs_Q>
0

> <r_epik_Metal_State_Penalty>
-0

> <b_epik_Metal_Only>
0

> <s_epik_Chemistry_Notes>
This compound contains an acetal/aminal-like group ( X-CH(R)-Y where X, Y are N, S, or O) that may be acid/base labile, releasing an aldehyde.

> <s_lp_Force_Field>
OPLS_2005

> <r_lp_Energy>
35.164

> <b_lp_Chiralities_Consistent>
1

> <s_lp_Variant>
AV-unprocessed.smi:158-3

> <Gold.Version>
5.8.1

> <Gold.Id.Protein>
6NUR|6NUR_protein|mol2

> <Gold.PLP.Fitness>
29.3365

> <Gold.PLP.PLP>
-18.5650

> <Gold.PLP.part.hbond>
-4.4055

> <Gold.PLP.part.metal>
0.0000

> <Gold.PLP.part.buried>
-3.9168

> <Gold.PLP.part.nonpolar>
-11.9080

> <Gold.PLP.part.repulsive>
1.3570

> <Gold.PLP.ligand.clash>
0.0000

> <Gold.PLP.ligand.torsion>
0.2305

> <Gold.PLP.Chemscore.Hbond>
3.7440

> <Gold.PLP.Chemscore.CHOScore>
0.0000

> <Gold.PLP.Chemscore.Metal>
0.0000

> <Gold.Chemscore.Hbonds>
donor molecule, donor type, donor heavy atom, donor atom, acceptor molecule, acceptor atom, score
      L1  H     1    26       P1 10957  0.50
      L1  H    18    31       P1  7957  0.73
      P1  H  7989  7998       L1    16  0.15
      P1  H  8011  8017       L1    18  0.60

> <Gold.PLP.Chemscore.Internal.Correction>
0.0004

> <Gold.Rescore>
     Score         DG    S(hbond)    S(metal)    S(lipo)     H(rot)  DE(clash)    DE(int)     intcor
     11.71     -11.81       3.26        0.00      29.35       3.12       0.03       0.06       ----

> <Gold.Chemscore.Fitness>
11.7129

> <Gold.Chemscore.DG>
-11.8078

> <Gold.Chemscore.ZeroCoef>
-5.4800

> <Gold.Chemscore.Hbond>
3.2600

> <Gold.Chemscore.Metal>
0.0000

> <Gold.Chemscore.Lipo>
29.3525

> <Gold.Chemscore.Internal_Hbond>
0.0000

> <Gold.Chemscore.DEClash>
0.0310

> <Gold.Chemscore.DEInternal>
0.0639

> <Gold.Chemscore.Rot>
3.1230

> <Gold.Chemscore.Internal.Correction>
   9.000000E+99

> <Gold.Chemscore.Hbonds>
donor molecule, donor type, donor heavy atom, donor atom, acceptor molecule, acceptor atom, score
      L1  H     1    26       P1 10957  0.50
      L1  H    18    31       P1  7957  0.69
      P1  H  7989  7998       L1    16  0.04
      P1  H  8011  8017       L1    18  0.38

> <Gold.Chemscore.Hbond.Weighted>
-10.8885

> <Gold.Chemscore.Metal.Weighted>
-0.0000

> <Gold.Chemscore.Lipo.Weighted>
-3.4342

> <Gold.Chemscore.Internal_Hbond.Weighted>
0.0000

> <Gold.Chemscore.DEClash.Weighted>
0.0310

> <Gold.Chemscore.DEInternal.Weighted>
0.0639

> <Gold.Chemscore.Rot.Weighted>
7.9950

> <Gold.Chemscore.Internal.Correction.Weighted>
   9.000000E+99

> <Gold.Protein.RotatedTorsions>
[ 6907 6896 6895 6894 ] final   20.54 input  -60.11 | X-H torsion
[ 7974 7965 7964 7962 ] final  148.78 input  175.53 | X-H torsion
[ 8008 7997 7996 7995 ] final   64.36 input   59.86 | X-H torsion
[ 10167 10162 10161 10158 ] final   57.29 input  -65.29 | X-H torsion
[ 10718 10713 10712 10709 ] final  -93.85 input   66.30 | X-H torsion
[ 10763 10752 10751 10750 ] final  -65.14 input  -60.55 | X-H torsion
[ 11005 11000 10999 10996 ] final  158.16 input  -57.11 | X-H torsion

> <Gold.Protein.ActiveResidues>
 VAL166  LYS551  ARG553  GLY616  TRP617  ASP618  TYR619  PRO620  LYS621  CYS622 
 ASP623  PHE694  ASN695  SER759  ASP760  ASP761  ALA762  ILE779  LEU786  VAL792 
 PHE793  MET794  SER795  GLU796  ALA797  LYS798  CYS799  TRP800  GLU811  SER814 

> <Gold.Protein.RotatedAtoms>
  151.8980  135.0390  160.0503 H   0  0  0  0  0  0  0  0  0  0  0  0  # atno 6907 bound_to 6896
  152.2382  133.5109  159.5263 H   0  0  0  0  0  0  0  0  0  0  0  0  # atno 6908 bound_to 6896
  150.7045  134.1042  159.4019 H   0  0  0  0  0  0  0  0  0  0  0  0  # atno 6909 bound_to 6896
  144.8487  139.6197  143.5983 H   0  0  0  0  0  0  0  0  0  0  0  0  # atno 7974 bound_to 7965
  155.6448  140.3497  155.4727 H   0  0  0  0  0  0  0  0  0  0  0  0  # atno 8008 bound_to 7997
  155.9896  140.1191  157.0674 H   0  0  0  0  0  0  0  0  0  0  0  0  # atno 8009 bound_to 7997
  154.4215  140.1122  156.5533 H   0  0  0  0  0  0  0  0  0  0  0  0  # atno 8010 bound_to 7997
  140.1996  144.4001  150.6535 H   0  0  0  0  0  0  0  0  0  0  0  0  # atno 10167 bound_to 10162
  156.0019  130.5044  150.5838 H   0  0  0  0  0  0  0  0  0  0  0  0  # atno 10718 bound_to 10713
  154.3406  135.6157  153.5594 H   0  0  0  0  0  0  0  0  0  0  0  0  # atno 10763 bound_to 10752
  152.9804  135.5768  154.4857 H   0  0  0  0  0  0  0  0  0  0  0  0  # atno 10764 bound_to 10752
  154.4560  135.2854  155.1724 H   0  0  0  0  0  0  0  0  0  0  0  0  # atno 10765 bound_to 10752
  140.1838  134.8456  157.2834 H   0  0  0  0  0  0  0  0  0  0  0  0  # atno 11005 bound_to 11000
  146.2767  139.6770  142.9258 LP  0  0  0  0  0  0  0  0  0  0  0  0  # atno 17320 bound_to 7965
  145.4543  141.0430  143.2787 LP  0  0  0  0  0  0  0  0  0  0  0  0  # atno 17321 bound_to 7965
  140.6399  143.2201  151.6312 LP  0  0  0  0  0  0  0  0  0  0  0  0  # atno 17342 bound_to 10162
  139.5222  144.3169  152.0945 LP  0  0  0  0  0  0  0  0  0  0  0  0  # atno 17343 bound_to 10162
  157.3714  131.0766  151.1554 LP  0  0  0  0  0  0  0  0  0  0  0  0  # atno 17370 bound_to 10713
  157.2306  130.6523  149.5848 LP  0  0  0  0  0  0  0  0  0  0  0  0  # atno 17371 bound_to 10713
  140.2237  134.3993  155.7554 LP  0  0  0  0  0  0  0  0  0  0  0  0  # atno 17394 bound_to 11000
  141.2224  133.7179  156.8531 LP  0  0  0  0  0  0  0  0  0  0  0  0  # atno 17395 bound_to 11000

$$$$
