AV-unprocessed.smi:1543|AV-procd|sdf|6205|dock10
  -GOLD-   22720 6373D 1   1.00000     0.00000
 Structure written by MMmdl.
 48 49  0  0  0  0  0  0  0  0  1 V2000
  151.2859  137.9278  154.3871 C   0  0  0  0  0  0  0  0  0  0  0  0
  150.4059  139.0082  155.0251 C   0  0  2  0  0  0  0  0  0  0  0  0
  149.0571  139.1580  154.2980 C   0  0  0  0  0  0  0  0  0  0  0  0
  148.2534  140.2537  154.8473 N   0  0  0  0  0  0  0  0  0  0  0  0
  146.8684  140.3531  154.3064 C   0  0  0  0  0  0  0  0  0  0  0  0
  146.1017  141.5898  154.8329 C   0  0  0  0  0  0  0  0  0  0  0  0
  146.8790  140.4433  152.7591 C   0  0  0  0  0  0  0  0  0  0  0  0
  146.0209  139.0964  154.6616 C   0  0  0  0  0  0  0  0  0  0  0  0
  146.3331  137.9548  153.8015 N   0  0  0  0  0  0  0  0  0  0  0  0
  145.4513  137.0751  153.3075 C   0  0  0  0  0  0  0  0  0  0  0  0
  144.2448  137.1119  153.5466 O   0  0  0  0  0  0  0  0  0  0  0  0
  146.0667  136.1606  152.5382 N   0  0  0  0  0  0  0  0  0  0  0  0
  145.5087  135.0489  151.8494 C   0  0  0  0  0  0  0  0  0  0  0  0
  144.1287  134.7311  151.8193 C   0  0  0  0  0  0  0  0  0  0  0  0
  143.7065  133.6041  151.0876 C   0  0  0  0  0  0  0  0  0  0  0  0
  144.6752  132.8417  150.4072 C   0  0  0  0  0  0  0  0  0  0  0  0
  145.9913  133.1394  150.4162 N   0  0  0  0  0  0  0  0  0  0  0  0
  146.3885  134.2208  151.1202 C   0  0  0  0  0  0  0  0  0  0  0  0
  149.0378  141.4911  154.7666 C   0  0  0  0  0  0  0  0  0  0  0  0
  150.4043  141.3752  155.4685 C   0  0  1  0  0  0  0  0  0  0  0  0
  150.2959  141.3662  157.0031 C   0  0  0  0  0  0  0  0  0  0  0  0
  151.1186  140.2416  154.9763 O   0  0  0  0  0  0  0  0  0  0  0  0
  150.7901  136.9570  154.4035 H   0  0  0  0  0  0  0  0  0  0  0  0
  152.2300  137.8276  154.9232 H   0  0  0  0  0  0  0  0  0  0  0  0
  151.5161  138.1689  153.3491 H   0  0  0  0  0  0  0  0  0  0  0  0
  150.2282  138.7345  156.0656 H   0  0  0  0  0  0  0  0  0  0  0  0
  149.2400  139.3238  153.2360 H   0  0  0  0  0  0  0  0  0  0  0  0
  148.5312  138.2091  154.3835 H   0  0  0  0  0  0  0  0  0  0  0  0
  145.0976  141.6368  154.4094 H   0  0  0  0  0  0  0  0  0  0  0  0
  146.5972  142.5240  154.5688 H   0  0  0  0  0  0  0  0  0  0  0  0
  145.9849  141.5708  155.9162 H   0  0  0  0  0  0  0  0  0  0  0  0
  145.8758  140.3350  152.3449 H   0  0  0  0  0  0  0  0  0  0  0  0
  147.4982  139.6632  152.3145 H   0  0  0  0  0  0  0  0  0  0  0  0
  147.2507  141.4034  152.4017 H   0  0  0  0  0  0  0  0  0  0  0  0
  146.1829  138.7914  155.6952 H   0  0  0  0  0  0  0  0  0  0  0  0
  144.9578  139.3393  154.6157 H   0  0  0  0  0  0  0  0  0  0  0  0
  147.3028  137.8446  153.5433 H   0  0  0  0  0  0  0  0  0  0  0  0
  147.0720  136.2373  152.4844 H   0  0  0  0  0  0  0  0  0  0  0  0
  143.3866  135.3270  152.3266 H   0  0  0  0  0  0  0  0  0  0  0  0
  142.6619  133.3324  151.0458 H   0  0  0  0  0  0  0  0  0  0  0  0
  144.3842  131.9722  149.8365 H   0  0  0  0  0  0  0  0  0  0  0  0
  147.4485  134.4289  151.1033 H   0  0  0  0  0  0  0  0  0  0  0  0
  149.2083  141.7517  153.7218 H   0  0  0  0  0  0  0  0  0  0  0  0
  148.5037  142.3282  155.2117 H   0  0  0  0  0  0  0  0  0  0  0  0
  150.9956  142.2497  155.1965 H   0  0  0  0  0  0  0  0  0  0  0  0
  149.8455  142.2914  157.3637 H   0  0  0  0  0  0  0  0  0  0  0  0
  151.2804  141.2771  157.4624 H   0  0  0  0  0  0  0  0  0  0  0  0
  149.6805  140.5435  157.3666 H   0  0  0  0  0  0  0  0  0  0  0  0
  1  2  1  0  0  0  0
  1 23  1  0  0  0  0
  1 24  1  0  0  0  0
  1 25  1  0  0  0  0
  2 22  1  0  0  0  0
  2  3  1  0  0  0  0
  2 26  1  0  0  0  0
  3  4  1  0  0  0  0
  3 27  1  0  0  0  0
  3 28  1  0  0  0  0
  4  5  1  0  0  0  0
  4 19  1  0  0  0  0
  5  6  1  0  0  0  0
  5  7  1  0  0  0  0
  5  8  1  0  0  0  0
  6 29  1  0  0  0  0
  6 30  1  0  0  0  0
  6 31  1  0  0  0  0
  7 32  1  0  0  0  0
  7 33  1  0  0  0  0
  7 34  1  0  0  0  0
  8  9  1  0  0  0  0
  8 35  1  0  0  0  0
  8 36  1  0  0  0  0
  9 10  1  0  0  0  0
  9 37  1  0  0  0  0
 10 11  2  0  0  0  0
 10 12  1  0  0  0  0
 12 13  1  0  0  0  0
 12 38  1  0  0  0  0
 13 18  1  0  0  0  0
 13 14  2  0  0  0  0
 14 15  1  0  0  0  0
 14 39  1  0  0  0  0
 15 16  2  0  0  0  0
 15 40  1  0  0  0  0
 16 17  1  0  0  0  0
 16 41  1  0  0  0  0
 17 18  2  0  0  0  0
 18 42  1  0  0  0  0
 19 20  1  0  0  0  0
 19 43  1  0  0  0  0
 19 44  1  0  0  0  0
 20 21  1  0  0  0  0
 20 22  1  0  0  0  0
 20 45  1  0  0  0  0
 21 46  1  0  0  0  0
 21 47  1  0  0  0  0
 21 48  1  0  0  0  0
M  END
> <s_m_source_file>
AV-unprocessed.smi

> <i_m_source_file_index>
1543

> <i_lp_mmshare_version>
43012

> <i_f3d_flags>
0

> <s_epik_input>
W0NIM11bQ0BASF0xW0NIMl1OKFtDSDJdW0NASF0oTzEpW0NIM10pQyhbQ0gzXSkoW0NIM10pW0NIMl1bTkhdQyg9TylbTkhdYzJbY0hdW2NIXVtjSF1uW2NIXTI=

> <s_epik_cmdline>
J2VwaWtfcHl0aG9uJywgJy1waCcsICc3LjAnLCAnLXRuJywgJzgnLCAnLW1hJywgJzIwMCcsICctbWV0YWxfYmluZGluZycsICctaW1hZScsICc8aW5maWxlLm1hZT4nLCAnLW9tYWUnLCAnPG91dGZpbGUubWFlPic=

> <r_epik_Ionization_Penalty>
0.270794

> <r_epik_Ionization_Penalty_Charging>
0

> <r_epik_Ionization_Penalty_Neutral>
0.270794

> <r_epik_State_Penalty>
0.268291

> <r_epik_Charging_Adjusted_Penalty>
0.268291

> <i_epik_Tot_Q>
0

> <i_epik_Tot_abs_Q>
0

> <r_epik_Metal_State_Penalty>
0.264827

> <b_epik_Metal_Only>
0

> <s_lp_Force_Field>
OPLS_2005

> <r_lp_Energy>
46.6988

> <b_lp_Chiralities_Consistent>
1

> <s_lp_Variant>
AV-unprocessed.smi:1543-1

> <Gold.Version>
5.8.1

> <Gold.Id.Protein>
6NUR|6NUR_protein|mol2

> <Gold.PLP.Fitness>
40.6465

> <Gold.PLP.PLP>
-33.7078

> <Gold.PLP.part.hbond>
-2.0000

> <Gold.PLP.part.metal>
0.0000

> <Gold.PLP.part.buried>
-4.6983

> <Gold.PLP.part.nonpolar>
-27.5223

> <Gold.PLP.part.repulsive>
0.4527

> <Gold.PLP.ligand.clash>
0.0000

> <Gold.PLP.ligand.torsion>
0.5288

> <Gold.PLP.Chemscore.Hbond>
2.0000

> <Gold.PLP.Chemscore.CHOScore>
0.6474

> <Gold.PLP.Chemscore.Metal>
0.0000

> <Gold.Chemscore.Hbonds>
donor molecule, donor type, donor heavy atom, donor atom, acceptor molecule, acceptor atom, score
      L1  H    12    38       P1  7948  1.00
      P1  H  7989  7998       L1    22  0.95
      L1  C    18    42       P1  7948  0.71

> <Gold.PLP.Chemscore.Internal.Correction>
0.0540

> <Gold.Rescore>
     Score         DG    S(hbond)    S(metal)    S(lipo)     H(rot)  DE(clash)    DE(int)     intcor
     16.14     -18.25       1.66        0.00      93.08       1.43       0.17       1.94       ----

> <Gold.Chemscore.Fitness>
16.1358

> <Gold.Chemscore.DG>
-18.2480

> <Gold.Chemscore.ZeroCoef>
-5.4800

> <Gold.Chemscore.Hbond>
1.6575

> <Gold.Chemscore.Metal>
0.0000

> <Gold.Chemscore.Lipo>
93.0825

> <Gold.Chemscore.Internal_Hbond>
0.0000

> <Gold.Chemscore.DEClash>
0.1721

> <Gold.Chemscore.DEInternal>
1.9400

> <Gold.Chemscore.Rot>
1.4291

> <Gold.Chemscore.Internal.Correction>
   9.000000E+99

> <Gold.Chemscore.Hbonds>
donor molecule, donor type, donor heavy atom, donor atom, acceptor molecule, acceptor atom, score
      L1  H    12    38       P1  7948  0.98
      P1  H  7989  7998       L1    22  0.21

> <Gold.Chemscore.Hbond.Weighted>
-5.5359

> <Gold.Chemscore.Metal.Weighted>
-0.0000

> <Gold.Chemscore.Lipo.Weighted>
-10.8907

> <Gold.Chemscore.Internal_Hbond.Weighted>
0.0000

> <Gold.Chemscore.DEClash.Weighted>
0.1721

> <Gold.Chemscore.DEInternal.Weighted>
1.9400

> <Gold.Chemscore.Rot.Weighted>
3.6586

> <Gold.Chemscore.Internal.Correction.Weighted>
   9.000000E+99

> <Gold.Protein.RotatedTorsions>
[ 6907 6896 6895 6894 ] final  146.45 input  -60.11 | X-H torsion
[ 7974 7965 7964 7962 ] final  -51.41 input  175.53 | X-H torsion
[ 8008 7997 7996 7995 ] final   80.02 input   59.86 | X-H torsion
[ 10167 10162 10161 10158 ] final  -76.15 input  -65.29 | X-H torsion
[ 10718 10713 10712 10709 ] final   -9.41 input   66.30 | X-H torsion
[ 10763 10752 10751 10750 ] final  -40.15 input  -60.55 | X-H torsion
[ 11005 11000 10999 10996 ] final -138.77 input  -57.11 | X-H torsion

> <Gold.Protein.ActiveResidues>
 VAL166  LYS551  ARG553  GLY616  TRP617  ASP618  TYR619  PRO620  LYS621  CYS622 
 ASP623  PHE694  ASN695  SER759  ASP760  ASP761  ALA762  ILE779  LEU786  VAL792 
 PHE793  MET794  SER795  GLU796  ALA797  LYS798  CYS799  TRP800  GLU811  SER814 

> <Gold.Protein.RotatedAtoms>
  152.1678  133.4623  159.4893 H   0  0  0  0  0  0  0  0  0  0  0  0  # atno 6907 bound_to 6896
  150.6915  134.1992  159.4324 H   0  0  0  0  0  0  0  0  0  0  0  0  # atno 6908 bound_to 6896
  151.9897  134.9985  160.0611 H   0  0  0  0  0  0  0  0  0  0  0  0  # atno 6909 bound_to 6896
  145.9192  140.7848  142.9656 H   0  0  0  0  0  0  0  0  0  0  0  0  # atno 7974 bound_to 7965
  155.8778  140.3445  155.5866 H   0  0  0  0  0  0  0  0  0  0  0  0  # atno 8008 bound_to 7997
  155.7755  140.0851  157.2105 H   0  0  0  0  0  0  0  0  0  0  0  0  # atno 8009 bound_to 7997
  154.4022  140.1510  156.2978 H   0  0  0  0  0  0  0  0  0  0  0  0  # atno 8010 bound_to 7997
  140.4882  143.2386  151.7950 H   0  0  0  0  0  0  0  0  0  0  0  0  # atno 10167 bound_to 10162
  156.6884  130.5058  149.5950 H   0  0  0  0  0  0  0  0  0  0  0  0  # atno 10718 bound_to 10713
  153.9413  135.6761  153.4744 H   0  0  0  0  0  0  0  0  0  0  0  0  # atno 10763 bound_to 10752
  153.0930  135.4865  154.8723 H   0  0  0  0  0  0  0  0  0  0  0  0  # atno 10764 bound_to 10752
  154.7376  135.3153  154.8743 H   0  0  0  0  0  0  0  0  0  0  0  0  # atno 10765 bound_to 10752
  140.8584  134.2199  157.4721 H   0  0  0  0  0  0  0  0  0  0  0  0  # atno 11005 bound_to 11000
  144.6751  140.1949  143.7393 LP  0  0  0  0  0  0  0  0  0  0  0  0  # atno 17320 bound_to 7965
  145.8571  139.2204  143.1738 LP  0  0  0  0  0  0  0  0  0  0  0  0  # atno 17321 bound_to 7965
  139.4846  144.4684  151.9455 LP  0  0  0  0  0  0  0  0  0  0  0  0  # atno 17342 bound_to 10162
  140.3771  144.2783  150.5913 LP  0  0  0  0  0  0  0  0  0  0  0  0  # atno 17343 bound_to 10162
  156.1815  130.6502  151.0957 LP  0  0  0  0  0  0  0  0  0  0  0  0  # atno 17370 bound_to 10713
  157.7018  131.0773  150.6796 LP  0  0  0  0  0  0  0  0  0  0  0  0  # atno 17371 bound_to 10713
  139.8706  134.9717  156.4748 LP  0  0  0  0  0  0  0  0  0  0  0  0  # atno 17394 bound_to 11000
  140.8711  133.7988  155.9365 LP  0  0  0  0  0  0  0  0  0  0  0  0  # atno 17395 bound_to 11000

$$$$
