#       Name:                AV-unprocessed.smi:1503
#       Creating user name   scv26
#       Creation time:       Fri Mar 27 06:18:51 2020


#       File generated by GOLD software.
#

@<TRIPOS>MOLECULE
AV-unprocessed.smi:1503
    51    52     1
SMALL
NO_CHARGES


@<TRIPOS>ATOM
      1 ****        -4.3166   6.3524  -1.3454 C.2            1 S1                 0.0000
      2 ****        -4.5927   5.1082  -0.9270 C.2            1 S1                 0.0000
      3 ****        -4.3047   4.5891   0.4676 C.3            1 S1                 0.0000
      4 ****        -3.5146   3.3650   0.4285 N.am           1 S1                 0.0000
      5 ****        -2.1852   3.3111   0.2547 C.2            1 S1                 0.0000
      6 ****        -1.4828   4.3133   0.1152 O.2            1 S1                 0.0000
      7 ****        -1.5708   1.9077   0.2427 C.3            1 S1                 0.0000
      8 ****        -0.0920   1.8819  -0.1902 C.3            1 S1                 0.0000
      9 ****         0.4833   0.4685  -0.1855 C.2            1 S1                 0.0000
     10 ****         1.1820  -0.0428   0.8559 C.2            1 S1                 0.0000
     11 ****         1.4628   0.7023   2.1490 C.3            1 S1                 0.0000
     12 ****         1.6930  -1.3267   0.8104 N.pl3          1 S1                 0.0000
     13 ****         1.5019  -2.0941  -0.3322 C.2            1 S1                 0.0000
     14 ****         2.0664  -3.3677  -0.2732 N.pl3          1 S1                 0.0000
     15 ****         3.4859  -3.5204   0.0468 C.3            1 S1                 0.0000
     16 ****         3.7945  -4.9418   0.5465 C.3            1 S1                 0.0000
     17 ****         3.3682  -5.8921  -0.4207 O.3            1 S1                 0.0000
     18 ****         1.9662  -5.8155  -0.6421 C.3            1 S1                 0.0000
     19 ****         1.6020  -4.4203  -1.1765 C.3            1 S1                 0.0000
     20 ****         0.8394  -1.6685  -1.3693 N.2            1 S1                 0.0000
     21 ****         0.2853  -0.3798  -1.3789 C.2            1 S1                 0.0000
     22 ****        -0.3488   0.0194  -2.3545 O.2            1 S1                 0.0000
     23 ****         2.1981  -1.6634   1.6171 H              1 S1                 0.0000
     24 ****        -3.8551   7.0755  -0.6890 H              1 S1                 0.0000
     25 ****        -4.5490   6.6633  -2.3531 H              1 S1                 0.0000
     26 ****        -5.0564   4.4127  -1.6114 H              1 S1                 0.0000
     27 ****        -3.8042   5.3516   1.0674 H              1 S1                 0.0000
     28 ****        -5.2527   4.3708   0.9593 H              1 S1                 0.0000
     29 ****        -4.0150   2.4946   0.5365 H              1 S1                 0.0000
     30 ****        -1.6700   1.4823   1.2419 H              1 S1                 0.0000
     31 ****        -2.1600   1.2782  -0.4255 H              1 S1                 0.0000
     32 ****         0.0206   2.3177  -1.1844 H              1 S1                 0.0000
     33 ****         0.4974   2.5189   0.4691 H              1 S1                 0.0000
     34 ****         0.5319   1.0481   2.5992 H              1 S1                 0.0000
     35 ****         2.0970   1.5682   1.9585 H              1 S1                 0.0000
     36 ****         1.9713   0.0684   2.8764 H              1 S1                 0.0000
     37 ****         3.8005  -2.8008   0.8031 H              1 S1                 0.0000
     38 ****         4.0708  -3.3079  -0.8492 H              1 S1                 0.0000
     39 ****         4.8662  -5.0582   0.7082 H              1 S1                 0.0000
     40 ****         3.3051  -5.1321   1.5032 H              1 S1                 0.0000
     41 ****         1.6790  -6.5802  -1.3637 H              1 S1                 0.0000
     42 ****         1.4277  -6.0308   0.2822 H              1 S1                 0.0000
     43 ****         2.0513  -4.2685  -2.1588 H              1 S1                 0.0000
     44 ****         0.5208  -4.3568  -1.3074 H              1 S1                 0.0000
     45 ****        -1.8999   5.2220   0.1285 LP             1 S1                 0.0000
     46 ****        -0.4954   4.2182  -0.0114 LP             1 S1                 0.0000
     47 ****         3.5966  -6.8103  -0.0970 LP             1 S1                 0.0000
     48 ****         3.8436  -5.7147  -1.2824 LP             1 S1                 0.0000
     49 ****         0.7249  -2.2643  -2.1643 LP             1 S1                 0.0000
     50 ****        -0.7445   0.9378  -2.3520 LP             1 S1                 0.0000
     51 ****        -0.4685  -0.5745  -3.1501 LP             1 S1                 0.0000
@<TRIPOS>BOND
    1    1    2 2     
    2    1   24 1     
    3    1   25 1     
    4    2    3 1     
    5    2   26 1     
    6    3    4 1     
    7    3   27 1     
    8    3   28 1     
    9    4    5 am    
   10    4   29 1     
   11    5    6 2     
   12    5    7 1     
   13    7    8 1     
   14    7   30 1     
   15    7   31 1     
   16    8   32 1     
   17    8   33 1     
   18    8    9 1     
   19    9   21 1     
   20    9   10 2     
   21   10   12 1     
   22   10   11 1     
   23   11   34 1     
   24   11   35 1     
   25   11   36 1     
   26   12   23 1     
   27   12   13 1     
   28   13   14 1     
   29   13   20 2     
   30   14   19 1     
   31   14   15 1     
   32   15   16 1     
   33   15   37 1     
   34   15   38 1     
   35   16   17 1     
   36   16   39 1     
   37   16   40 1     
   38   17   18 1     
   39   18   19 1     
   40   18   41 1     
   41   18   42 1     
   42   19   43 1     
   43   19   44 1     
   44   20   21 1     
   45   21   22 2     
   46    6   45 1     
   47    6   46 1     
   48   17   47 1     
   49   17   48 1     
   50   20   49 1     
   51   22   50 1     
   52   22   51 1     
@<TRIPOS>SUBSTRUCTURE
      1 S1             1
@<TRIPOS>SET
LONE_PAIRS      STATIC     ATOMS    <user>   **** ""
7 45 46 47 48 49 50 51
DONOR_HYDROGENS      STATIC     ATOMS    <user>   **** ""
2 29 23
ATOM$BLUE        STATIC     ATOMS    COLORGROUP SYSTEM
7 45 46 47 48 49 50 51
ATOM$RED        STATIC     ATOMS    COLORGROUP SYSTEM
2 29 23
