AV-unprocessed.smi:648|AV-procd|sdf|3172|dock9
  -GOLD-   22720 0 93D 1   1.00000     0.00000
 Structure written by MMmdl.
 46 47  0  0  0  0  0  0  0  0  2 V2000
  153.5976  140.8992  160.1373 C   0  0  0  0  0  0  0  0  0  0  0  0
  152.7834  141.8380  159.2347 C   0  0  2  0  0  0  0  0  0  0  0  0
  152.6733  143.2438  159.8562 C   0  0  0  0  0  0  0  0  0  0  0  0
  151.8735  144.2491  158.9933 C   0  0  0  0  0  0  0  0  0  0  0  0
  151.5660  145.4923  159.8563 C   0  0  0  0  0  0  0  0  0  0  0  0
  152.7216  144.7467  157.8003 C   0  0  0  0  0  0  0  0  0  0  0  0
  150.5132  143.6269  158.5550 C   0  0  0  0  0  0  0  0  0  0  0  0
  150.5162  142.1585  158.0294 C   0  0  2  0  0  0  0  0  0  0  0  0
  151.0419  142.0934  156.5691 C   0  0  0  0  0  0  0  0  0  0  0  0
  150.0775  142.5547  155.6418 O   0  0  0  0  0  0  0  0  0  0  0  0
  149.1040  141.6805  157.9509 N   0  3  0  0  0  0  0  0  0  0  0  0
  148.0102  142.6709  157.8166 C   0  0  0  0  0  0  0  0  0  0  0  0
  146.8097  142.2714  158.6861 C   0  0  0  0  0  0  0  0  0  0  0  0
  146.5718  143.2320  159.7454 N   0  0  0  0  0  0  0  0  0  0  0  0
  146.3507  144.5467  159.6950 C   0  0  0  0  0  0  0  0  0  0  0  0
  146.1719  145.1047  160.8842 N   0  0  0  0  0  0  0  0  0  0  0  0
  146.3086  144.0008  161.6779 C   0  0  0  0  0  0  0  0  0  0  0  0
  146.5489  142.8525  161.0442 N   0  0  0  0  0  0  0  0  0  0  0  0
  151.3755  141.2706  158.9737 C   0  0  0  0  0  0  0  0  0  0  0  0
  153.1227  140.7698  161.1105 H   0  0  0  0  0  0  0  0  0  0  0  0
  154.6014  141.2901  160.3068 H   0  0  0  0  0  0  0  0  0  0  0  0
  153.7026  139.9126  159.6848 H   0  0  0  0  0  0  0  0  0  0  0  0
  153.3247  141.9058  158.2924 H   0  0  0  0  0  0  0  0  0  0  0  0
  152.1953  143.1482  160.8326 H   0  0  0  0  0  0  0  0  0  0  0  0
  153.6702  143.6406  160.0547 H   0  0  0  0  0  0  0  0  0  0  0  0
  151.0049  146.2384  159.2919 H   0  0  0  0  0  0  0  0  0  0  0  0
  152.4802  145.9699  160.2114 H   0  0  0  0  0  0  0  0  0  0  0  0
  150.9754  145.2384  160.7373 H   0  0  0  0  0  0  0  0  0  0  0  0
  152.1213  145.3247  157.0970 H   0  0  0  0  0  0  0  0  0  0  0  0
  153.2074  143.9475  157.2489 H   0  0  0  0  0  0  0  0  0  0  0  0
  153.5297  145.3957  158.1400 H   0  0  0  0  0  0  0  0  0  0  0  0
  149.8652  143.6648  159.4295 H   0  0  0  0  0  0  0  0  0  0  0  0
  150.0279  144.2790  157.8274 H   0  0  0  0  0  0  0  0  0  0  0  0
  151.9413  142.6999  156.4562 H   0  0  0  0  0  0  0  0  0  0  0  0
  151.3046  141.0886  156.2593 H   0  0  0  0  0  0  0  0  0  0  0  0
  149.7370  143.3822  155.9475 H   0  0  0  0  0  0  0  0  0  0  0  0
  149.0454  141.0371  157.1748 H   0  0  0  0  0  0  0  0  0  0  0  0
  148.3644  143.6524  158.1328 H   0  0  0  0  0  0  0  0  0  0  0  0
  147.6931  142.7590  156.7783 H   0  0  0  0  0  0  0  0  0  0  0  0
  145.9058  142.1944  158.0797 H   0  0  0  0  0  0  0  0  0  0  0  0
  146.9747  141.2919  159.1373 H   0  0  0  0  0  0  0  0  0  0  0  0
  146.3170  145.1068  158.7720 H   0  0  0  0  0  0  0  0  0  0  0  0
  146.2281  144.0448  162.7541 H   0  0  0  0  0  0  0  0  0  0  0  0
  151.4473  140.2561  158.5800 H   0  0  0  0  0  0  0  0  0  0  0  0
  150.8961  141.1779  159.9480 H   0  0  0  0  0  0  0  0  0  0  0  0
  148.9253  141.1598  158.7984 H   0  0  0  0  0  0  0  0  0  0  0  0
  1  2  1  0  0  0  0
  1 20  1  0  0  0  0
  1 21  1  0  0  0  0
  1 22  1  0  0  0  0
  2 19  1  0  0  0  0
  2  3  1  0  0  0  0
  2 23  1  0  0  0  0
  3  4  1  0  0  0  0
  3 24  1  0  0  0  0
  3 25  1  0  0  0  0
  4  5  1  0  0  0  0
  4  6  1  0  0  0  0
  4  7  1  0  0  0  0
  5 26  1  0  0  0  0
  5 27  1  0  0  0  0
  5 28  1  0  0  0  0
  6 29  1  0  0  0  0
  6 30  1  0  0  0  0
  6 31  1  0  0  0  0
  7  8  1  0  0  0  0
  7 32  1  0  0  0  0
  7 33  1  0  0  0  0
  8  9  1  0  0  0  0
  8 11  1  0  0  0  0
  8 19  1  0  0  0  0
  9 10  1  0  0  0  0
  9 34  1  0  0  0  0
  9 35  1  0  0  0  0
 10 36  1  0  0  0  0
 11 12  1  0  0  0  0
 11 37  1  0  0  0  0
 11 46  1  0  0  0  0
 12 13  1  0  0  0  0
 12 38  1  0  0  0  0
 12 39  1  0  0  0  0
 13 14  1  0  0  0  0
 13 40  1  0  0  0  0
 13 41  1  0  0  0  0
 14 18  1  0  0  0  0
 14 15  1  0  0  0  0
 15 16  2  0  0  0  0
 15 42  1  0  0  0  0
 16 17  1  0  0  0  0
 17 18  2  0  0  0  0
 17 43  1  0  0  0  0
 19 44  1  0  0  0  0
 19 45  1  0  0  0  0
M  CHG  1  11   1
M  END
> <s_m_source_file>
AV-unprocessed.smi

> <i_m_source_file_index>
648

> <i_lp_mmshare_version>
43012

> <i_f3d_flags>
0

> <s_epik_input>
W0NIM11DMShbQ0gzXSlbQ0gyXVtDQEBIXShbQ0gzXSlbQ0gyXVtDQF0oW0NIMl0xKShbQ0gyXVtPSF0pW05IXVtDSDJdW0NIMl1uMltjSF1uW2NIXW4y

> <s_epik_cmdline>
J2VwaWtfcHl0aG9uJywgJy1waCcsICc3LjAnLCAnLXRuJywgJzgnLCAnLW1hJywgJzIwMCcsICctbWV0YWxfYmluZGluZycsICctaW1hZScsICc8aW5maWxlLm1hZT4nLCAnLW9tYWUnLCAnPG91dGZpbGUubWFlPic=

> <r_lp_tautomer_probability>
1

> <r_epik_Ionization_Penalty>
0.00942316

> <r_epik_Ionization_Penalty_Charging>
0.00942185

> <r_epik_Ionization_Penalty_Neutral>
1.31257e-06

> <r_epik_State_Penalty>
0.00715409

> <r_epik_Charging_Adjusted_Penalty>
0.0165759

> <i_epik_Tot_Q>
1

> <i_epik_Tot_abs_Q>
1

> <r_epik_Metal_State_Penalty>
0.00715563

> <b_epik_Metal_Only>
0

> <s_lp_Force_Field>
OPLS_2005

> <r_lp_Energy>
31.5344

> <b_lp_Chiralities_Consistent>
1

> <s_lp_Variant>
AV-unprocessed.smi:648-3

> <Gold.Version>
5.8.1

> <Gold.Id.Protein>
6NUR|6NUR_protein|mol2

> <Gold.PLP.Fitness>
48.3139

> <Gold.PLP.PLP>
-40.7064

> <Gold.PLP.part.hbond>
-2.9569

> <Gold.PLP.part.metal>
0.0000

> <Gold.PLP.part.buried>
-3.6501

> <Gold.PLP.part.nonpolar>
-33.2837

> <Gold.PLP.part.repulsive>
0.2797

> <Gold.PLP.ligand.clash>
0.0000

> <Gold.PLP.ligand.torsion>
1.5934

> <Gold.PLP.Chemscore.Hbond>
2.5912

> <Gold.PLP.Chemscore.CHOScore>
1.0000

> <Gold.PLP.Chemscore.Metal>
0.0000

> <Gold.Chemscore.Hbonds>
donor molecule, donor type, donor heavy atom, donor atom, acceptor molecule, acceptor atom, score
      L1  H    10    36       P1  8028  0.99
      P1  H  6933  6944       L1    18  0.84
      P1  H  6934  6946       L1    18  0.77
      L1  C    15    42       P1  8029  1.00

> <Gold.PLP.Chemscore.Internal.Correction>
0.0206

> <Gold.Rescore>
     Score         DG    S(hbond)    S(metal)    S(lipo)     H(rot)  DE(clash)    DE(int)     intcor
     12.19     -15.21       1.83        0.00     100.47       3.17       0.59       2.43       ----

> <Gold.Chemscore.Fitness>
12.1917

> <Gold.Chemscore.DG>
-15.2106

> <Gold.Chemscore.ZeroCoef>
-5.4800

> <Gold.Chemscore.Hbond>
1.8275

> <Gold.Chemscore.Metal>
0.0000

> <Gold.Chemscore.Lipo>
100.4678

> <Gold.Chemscore.Internal_Hbond>
0.0000

> <Gold.Chemscore.DEClash>
0.5921

> <Gold.Chemscore.DEInternal>
2.4268

> <Gold.Chemscore.Rot>
3.1750

> <Gold.Chemscore.Internal.Correction>
   9.000000E+99

> <Gold.Chemscore.Hbonds>
donor molecule, donor type, donor heavy atom, donor atom, acceptor molecule, acceptor atom, score
      L1  H    10    36       P1  8028  0.92
      P1  H  6933  6944       L1    18  0.23
      P1  H  6934  6946       L1    18  0.14

> <Gold.Chemscore.Hbond.Weighted>
-6.1038

> <Gold.Chemscore.Metal.Weighted>
-0.0000

> <Gold.Chemscore.Lipo.Weighted>
-11.7547

> <Gold.Chemscore.Internal_Hbond.Weighted>
0.0000

> <Gold.Chemscore.DEClash.Weighted>
0.5921

> <Gold.Chemscore.DEInternal.Weighted>
2.4268

> <Gold.Chemscore.Rot.Weighted>
8.1279

> <Gold.Chemscore.Internal.Correction.Weighted>
   9.000000E+99

> <Gold.Protein.RotatedTorsions>
[ 6907 6896 6895 6894 ] final  163.63 input  -60.11 | X-H torsion
[ 7974 7965 7964 7962 ] final  -60.85 input  175.53 | X-H torsion
[ 8008 7997 7996 7995 ] final    3.53 input   59.86 | X-H torsion
[ 10167 10162 10161 10158 ] final -140.90 input  -65.29 | X-H torsion
[ 10718 10713 10712 10709 ] final  -33.21 input   66.30 | X-H torsion
[ 10763 10752 10751 10750 ] final  -53.58 input  -60.55 | X-H torsion
[ 11005 11000 10999 10996 ] final  167.89 input  -57.11 | X-H torsion

> <Gold.Protein.ActiveResidues>
 VAL166  LYS551  ARG553  GLY616  TRP617  ASP618  TYR619  PRO620  LYS621  CYS622 
 ASP623  PHE694  ASN695  SER759  ASP760  ASP761  ALA762  ILE779  LEU786  VAL792 
 PHE793  MET794  SER795  GLU796  ALA797  LYS798  CYS799  TRP800  GLU811  SER814 

> <Gold.Protein.RotatedAtoms>
  151.9222  133.3588  159.3900 H   0  0  0  0  0  0  0  0  0  0  0  0  # atno 6907 bound_to 6896
  150.7034  134.4623  159.5396 H   0  0  0  0  0  0  0  0  0  0  0  0  # atno 6908 bound_to 6896
  152.2249  134.8378  160.0532 H   0  0  0  0  0  0  0  0  0  0  0  0  # atno 6909 bound_to 6896
  145.8105  140.8601  143.0184 H   0  0  0  0  0  0  0  0  0  0  0  0  # atno 7974 bound_to 7965
  154.7048  140.2680  155.6685 H   0  0  0  0  0  0  0  0  0  0  0  0  # atno 8008 bound_to 7997
  156.2776  140.2765  156.1594 H   0  0  0  0  0  0  0  0  0  0  0  0  # atno 8009 bound_to 7997
  155.0715  140.0372  157.2600 H   0  0  0  0  0  0  0  0  0  0  0  0  # atno 8010 bound_to 7997
  139.8237  143.7540  152.2666 H   0  0  0  0  0  0  0  0  0  0  0  0  # atno 10167 bound_to 10162
  156.3655  130.4331  149.7588 H   0  0  0  0  0  0  0  0  0  0  0  0  # atno 10718 bound_to 10713
  154.1611  135.6474  153.4986 H   0  0  0  0  0  0  0  0  0  0  0  0  # atno 10763 bound_to 10752
  153.0110  135.5361  154.6709 H   0  0  0  0  0  0  0  0  0  0  0  0  # atno 10764 bound_to 10752
  154.6023  135.2945  155.0493 H   0  0  0  0  0  0  0  0  0  0  0  0  # atno 10765 bound_to 10752
  140.2816  134.7746  157.3762 H   0  0  0  0  0  0  0  0  0  0  0  0  # atno 11005 bound_to 11000
  144.6758  140.0389  143.7481 LP  0  0  0  0  0  0  0  0  0  0  0  0  # atno 17320 bound_to 7965
  145.9782  139.2921  143.1058 LP  0  0  0  0  0  0  0  0  0  0  0  0  # atno 17321 bound_to 7965
  139.7726  144.7471  151.0203 LP  0  0  0  0  0  0  0  0  0  0  0  0  # atno 17342 bound_to 10162
  140.7811  143.4628  151.0253 LP  0  0  0  0  0  0  0  0  0  0  0  0  # atno 17343 bound_to 10162
  156.4736  130.8008  151.3025 LP  0  0  0  0  0  0  0  0  0  0  0  0  # atno 17370 bound_to 10713
  157.7478  131.0028  150.3014 LP  0  0  0  0  0  0  0  0  0  0  0  0  # atno 17371 bound_to 10713
  140.1278  134.5134  155.8130 LP  0  0  0  0  0  0  0  0  0  0  0  0  # atno 17394 bound_to 11000
  141.2162  133.6779  156.6985 LP  0  0  0  0  0  0  0  0  0  0  0  0  # atno 17395 bound_to 11000

$$$$
