#       Name:                AV-unprocessed.smi:1381
#       Creating user name   scv26
#       Creation time:       Fri Mar 27 05:21:01 2020


#       File generated by GOLD software.
#

@<TRIPOS>MOLECULE
AV-unprocessed.smi:1381
    50    51     1
SMALL
NO_CHARGES


@<TRIPOS>ATOM
      1 ****        -5.1157   6.2475   1.8429 C.3            1 S1                 0.0000
      2 ****        -4.3161   5.0870   1.3576 C.2            1 S1                 0.0000
      3 ****        -4.2725   3.7712   1.7243 C.2            1 S1                 0.0000
      4 ****        -3.2900   3.2289   0.8538 C.2            1 S1                 0.0000
      5 ****        -2.9421   1.8552   0.9149 N.am           1 S1                 0.0000
      6 ****        -2.0437   1.2030   0.1574 C.2            1 S1                 0.0000
      7 ****        -1.3648   1.7120  -0.7351 O.2            1 S1                 0.0000
      8 ****        -1.9716  -0.0931   0.4935 N.am           1 S1                 0.0000
      9 ****        -1.0944  -1.0718  -0.1377 C.3            1 S1                 0.0000
     10 ****         0.3500  -0.9470   0.3823 C.3            1 S1                 0.0000
     11 ****         1.2729  -1.9688  -0.1084 N.3            1 S1                 0.0000
     12 ****         1.5356  -1.8452  -1.5405 C.3            1 S1                 0.0000
     13 ****         2.5308  -2.9112  -2.0391 C.3            1 S1                 0.0000
     14 ****         2.8771  -2.7330  -3.5210 C.3            1 S1                 0.0000
     15 ****         3.7352  -2.8173  -1.2835 O.3            1 S1                 0.0000
     16 ****         3.5345  -2.9800   0.1176 C.3            1 S1                 0.0000
     17 ****         4.8948  -2.8725   0.8146 C.3            1 S1                 0.0000
     18 ****         2.5412  -1.9102   0.6092 C.3            1 S1                 0.0000
     19 ****        -2.7791   4.1320   0.0309 N.2            1 S1                 0.0000
     20 ****        -3.4337   5.3275   0.3499 O.3            1 S1                 0.0000
     21 ****        -4.6470   6.6993   2.7171 H              1 S1                 0.0000
     22 ****        -6.1223   5.9352   2.1216 H              1 S1                 0.0000
     23 ****        -5.2026   7.0132   1.0717 H              1 S1                 0.0000
     24 ****        -4.8513   3.2795   2.4919 H              1 S1                 0.0000
     25 ****        -3.4309   1.3105   1.6098 H              1 S1                 0.0000
     26 ****        -2.5675  -0.4289   1.2359 H              1 S1                 0.0000
     27 ****        -1.4833  -2.0661   0.0836 H              1 S1                 0.0000
     28 ****        -1.1419  -0.9511  -1.2205 H              1 S1                 0.0000
     29 ****         0.7428   0.0434   0.1467 H              1 S1                 0.0000
     30 ****         0.3141  -1.0023   1.4712 H              1 S1                 0.0000
     31 ****         0.6089  -1.9457  -2.1043 H              1 S1                 0.0000
     32 ****         1.9281  -0.8506  -1.7586 H              1 S1                 0.0000
     33 ****         2.1020  -3.9048  -1.8972 H              1 S1                 0.0000
     34 ****         1.9857  -2.8091  -4.1443 H              1 S1                 0.0000
     35 ****         3.5797  -3.4984  -3.8513 H              1 S1                 0.0000
     36 ****         3.3330  -1.7599  -3.7055 H              1 S1                 0.0000
     37 ****         3.1228  -3.9737   0.3031 H              1 S1                 0.0000
     38 ****         4.7948  -3.0018   1.8924 H              1 S1                 0.0000
     39 ****         5.3542  -1.9001   0.6348 H              1 S1                 0.0000
     40 ****         5.5807  -3.6373   0.4497 H              1 S1                 0.0000
     41 ****         2.9857  -0.9204   0.4909 H              1 S1                 0.0000
     42 ****         2.3658  -2.0467   1.6771 H              1 S1                 0.0000
     43 ****        -1.4608   2.6855  -0.9429 LP             1 S1                 0.0000
     44 ****        -0.7175   1.1519  -1.2520 LP             1 S1                 0.0000
     45 ****         0.8264  -2.8486   0.0543 LP             1 S1                 0.0000
     46 ****         4.1413  -1.9176  -1.4438 LP             1 S1                 0.0000
     47 ****         4.3642  -3.5279  -1.5988 LP             1 S1                 0.0000
     48 ****        -2.0774   3.9905  -0.6674 LP             1 S1                 0.0000
     49 ****        -2.7642   6.0094   0.6446 LP             1 S1                 0.0000
     50 ****        -3.9241   5.6671  -0.4527 LP             1 S1                 0.0000
@<TRIPOS>BOND
    1    1    2 1     
    2    1   21 1     
    3    1   22 1     
    4    1   23 1     
    5    2   20 1     
    6    2    3 2     
    7    3    4 1     
    8    3   24 1     
    9    4    5 1     
   10    4   19 2     
   11    5    6 am    
   12    5   25 1     
   13    6    7 2     
   14    6    8 am    
   15    8    9 1     
   16    8   26 1     
   17    9   10 1     
   18    9   27 1     
   19    9   28 1     
   20   10   11 1     
   21   10   29 1     
   22   10   30 1     
   23   11   18 1     
   24   11   12 1     
   25   12   13 1     
   26   12   31 1     
   27   12   32 1     
   28   13   14 1     
   29   13   15 1     
   30   13   33 1     
   31   14   34 1     
   32   14   35 1     
   33   14   36 1     
   34   15   16 1     
   35   16   17 1     
   36   16   18 1     
   37   16   37 1     
   38   17   38 1     
   39   17   39 1     
   40   17   40 1     
   41   18   41 1     
   42   18   42 1     
   43   19   20 1     
   44    7   43 1     
   45    7   44 1     
   46   11   45 1     
   47   15   46 1     
   48   15   47 1     
   49   19   48 1     
   50   20   49 1     
   51   20   50 1     
@<TRIPOS>SUBSTRUCTURE
      1 S1             1
@<TRIPOS>SET
LONE_PAIRS      STATIC     ATOMS    <user>   **** ""
8 43 44 45 46 47 48 49 50
DONOR_HYDROGENS      STATIC     ATOMS    <user>   **** ""
2 25 26
ATOM$BLUE        STATIC     ATOMS    COLORGROUP SYSTEM
8 43 44 45 46 47 48 49 50
ATOM$RED        STATIC     ATOMS    COLORGROUP SYSTEM
2 25 26
