AV-unprocessed.smi:2031|AV-procd|sdf|8228|dock3
  -GOLD-   2272010503D 1   1.00000     0.00000
 Structure written by MMmdl.
 42 43  0  0  0  0  0  0  0  0  2 V2000
  151.7824  140.7738  157.5187 C   0  0  0  0  0  0  0  0  0  0  0  0
  151.2194  139.9173  156.4369 C   0  0  0  0  0  0  0  0  0  0  0  0
  150.8935  138.5919  156.3764 C   0  0  0  0  0  0  0  0  0  0  0  0
  150.4106  138.4425  155.0435 C   0  0  0  0  0  0  0  0  0  0  0  0
  149.9355  137.2441  154.4507 N   0  0  0  0  0  0  0  0  0  0  0  0
  149.6669  136.0694  155.0450 C   0  0  0  0  0  0  0  0  0  0  0  0
  149.7931  135.8306  156.2460 O   0  0  0  0  0  0  0  0  0  0  0  0
  149.2265  135.1636  154.1597 N   0  0  0  0  0  0  0  0  0  0  0  0
  148.8407  133.7967  154.4920 C   0  0  0  0  0  0  0  0  0  0  0  0
  148.2341  133.0720  153.2734 C   0  0  0  0  0  0  0  0  0  0  0  0
  147.2023  133.8771  152.5665 N   0  3  0  0  0  0  0  0  0  0  0  0
  146.1808  134.4286  153.4962 C   0  0  0  0  0  0  0  0  0  0  0  0
  145.8060  135.8691  153.1082 C   0  0  0  0  0  0  0  0  0  0  0  0
  144.8265  135.9778  151.9314 C   0  0  0  0  0  0  0  0  0  0  0  0
  145.3028  135.2812  150.6476 C   0  0  0  0  0  0  0  0  0  0  0  0
  145.3398  133.7519  150.7927 C   0  0  0  0  0  0  0  0  0  0  0  0
  146.6525  133.1811  151.3669 C   0  0  0  0  0  0  0  0  0  0  0  0
  150.4434  139.5720  154.3610 N   0  0  0  0  0  0  0  0  0  0  0  0
  150.9609  140.5239  155.2471 O   0  0  0  0  0  0  0  0  0  0  0  0
  151.7229  140.2703  158.4838 H   0  0  0  0  0  0  0  0  0  0  0  0
  151.2357  141.7141  157.5942 H   0  0  0  0  0  0  0  0  0  0  0  0
  152.8293  141.0047  157.3218 H   0  0  0  0  0  0  0  0  0  0  0  0
  150.9928  137.8643  157.1673 H   0  0  0  0  0  0  0  0  0  0  0  0
  149.7767  137.2915  153.4551 H   0  0  0  0  0  0  0  0  0  0  0  0
  149.1532  135.4378  153.1905 H   0  0  0  0  0  0  0  0  0  0  0  0
  149.7285  133.2664  154.8378 H   0  0  0  0  0  0  0  0  0  0  0  0
  148.1450  133.8227  155.3315 H   0  0  0  0  0  0  0  0  0  0  0  0
  149.0114  132.7839  152.5638 H   0  0  0  0  0  0  0  0  0  0  0  0
  147.7849  132.1456  153.6343 H   0  0  0  0  0  0  0  0  0  0  0  0
  145.3081  133.7784  153.5699 H   0  0  0  0  0  0  0  0  0  0  0  0
  146.5905  134.4749  154.5057 H   0  0  0  0  0  0  0  0  0  0  0  0
  145.3473  136.3538  153.9708 H   0  0  0  0  0  0  0  0  0  0  0  0
  146.7099  136.4413  152.8946 H   0  0  0  0  0  0  0  0  0  0  0  0
  143.8566  135.5754  152.2267 H   0  0  0  0  0  0  0  0  0  0  0  0
  144.6555  137.0335  151.7181 H   0  0  0  0  0  0  0  0  0  0  0  0
  144.6011  135.5337  149.8518 H   0  0  0  0  0  0  0  0  0  0  0  0
  146.2718  135.6662  150.3272 H   0  0  0  0  0  0  0  0  0  0  0  0
  144.4878  133.4135  151.3836 H   0  0  0  0  0  0  0  0  0  0  0  0
  145.1921  133.3063  149.8083 H   0  0  0  0  0  0  0  0  0  0  0  0
  147.4097  133.2141  150.5834 H   0  0  0  0  0  0  0  0  0  0  0  0
  146.4939  132.1267  151.5981 H   0  0  0  0  0  0  0  0  0  0  0  0
  147.6902  134.6894  152.2170 H   0  0  0  0  0  0  0  0  0  0  0  0
  1  2  1  0  0  0  0
  1 20  1  0  0  0  0
  1 21  1  0  0  0  0
  1 22  1  0  0  0  0
  2 19  1  0  0  0  0
  2  3  2  0  0  0  0
  3  4  1  0  0  0  0
  3 23  1  0  0  0  0
  4  5  1  0  0  0  0
  4 18  2  0  0  0  0
  5  6  1  0  0  0  0
  5 24  1  0  0  0  0
  6  7  2  0  0  0  0
  6  8  1  0  0  0  0
  8  9  1  0  0  0  0
  8 25  1  0  0  0  0
  9 10  1  0  0  0  0
  9 26  1  0  0  0  0
  9 27  1  0  0  0  0
 10 11  1  0  0  0  0
 10 28  1  0  0  0  0
 10 29  1  0  0  0  0
 11 17  1  0  0  0  0
 11 12  1  0  0  0  0
 11 42  1  0  0  0  0
 12 13  1  0  0  0  0
 12 30  1  0  0  0  0
 12 31  1  0  0  0  0
 13 14  1  0  0  0  0
 13 32  1  0  0  0  0
 13 33  1  0  0  0  0
 14 15  1  0  0  0  0
 14 34  1  0  0  0  0
 14 35  1  0  0  0  0
 15 16  1  0  0  0  0
 15 36  1  0  0  0  0
 15 37  1  0  0  0  0
 16 17  1  0  0  0  0
 16 38  1  0  0  0  0
 16 39  1  0  0  0  0
 17 40  1  0  0  0  0
 17 41  1  0  0  0  0
 18 19  1  0  0  0  0
M  CHG  1  11   1
M  END
> <s_m_source_file>
AV-unprocessed.smi

> <i_m_source_file_index>
2031

> <i_lp_mmshare_version>
43012

> <i_f3d_flags>
0

> <s_epik_input>
W0NIM11jMVtjSF1jKG5vMSlbTkhdQyg9TylbTkhdW0NIMl1bQ0gyXU4yW0NIMl1bQ0gyXVtDSDJdW0NIMl1bQ0gyXVtDSDJdMg==

> <s_epik_cmdline>
J2VwaWtfcHl0aG9uJywgJy1waCcsICc3LjAnLCAnLXRuJywgJzgnLCAnLW1hJywgJzIwMCcsICctbWV0YWxfYmluZGluZycsICctaW1hZScsICc8aW5maWxlLm1hZT4nLCAnLW9tYWUnLCAnPG91dGZpbGUubWFlPic=

> <r_epik_Ionization_Penalty>
0.00265971

> <r_epik_Ionization_Penalty_Charging>
0.00262393

> <r_epik_Ionization_Penalty_Neutral>
3.57846e-05

> <r_epik_State_Penalty>
0.00182566

> <r_epik_Charging_Adjusted_Penalty>
0.00444959

> <i_epik_Tot_Q>
1

> <i_epik_Tot_abs_Q>
1

> <r_epik_Metal_State_Penalty>
0.0216344

> <b_epik_Metal_Only>
0

> <s_lp_Force_Field>
OPLS_2005

> <r_lp_Energy>
20.9695

> <b_lp_Chiralities_Consistent>
1

> <s_lp_Variant>
AV-unprocessed.smi:2031-1

> <Gold.Version>
5.8.1

> <Gold.Id.Protein>
6NUR|6NUR_protein|mol2

> <Gold.PLP.Fitness>
40.3769

> <Gold.PLP.PLP>
-29.0498

> <Gold.PLP.part.hbond>
-4.9336

> <Gold.PLP.part.metal>
0.0000

> <Gold.PLP.part.buried>
-3.3725

> <Gold.PLP.part.nonpolar>
-21.5288

> <Gold.PLP.part.repulsive>
0.2801

> <Gold.PLP.ligand.clash>
0.0000

> <Gold.PLP.ligand.torsion>
0.1055

> <Gold.PLP.Chemscore.Hbond>
3.8314

> <Gold.PLP.Chemscore.CHOScore>
0.0000

> <Gold.PLP.Chemscore.Metal>
0.0000

> <Gold.Chemscore.Hbonds>
donor molecule, donor type, donor heavy atom, donor atom, acceptor molecule, acceptor atom, score
      L1  H     5    24       P1  7948  0.83
      L1  H     8    25       P1  7948  0.99
      L1  H    11    42       P1  7948  2.00

> <Gold.PLP.Chemscore.Internal.Correction>
0.0439

> <Gold.Rescore>
     Score         DG    S(hbond)    S(metal)    S(lipo)     H(rot)  DE(clash)    DE(int)     intcor
     14.10     -15.40       2.24        0.00      55.14       1.57       0.07       1.23       ----

> <Gold.Chemscore.Fitness>
14.0972

> <Gold.Chemscore.DG>
-15.3983

> <Gold.Chemscore.ZeroCoef>
-5.4800

> <Gold.Chemscore.Hbond>
2.2413

> <Gold.Chemscore.Metal>
0.0000

> <Gold.Chemscore.Lipo>
55.1370

> <Gold.Chemscore.Internal_Hbond>
0.0000

> <Gold.Chemscore.DEClash>
0.0749

> <Gold.Chemscore.DEInternal>
1.2262

> <Gold.Chemscore.Rot>
1.5697

> <Gold.Chemscore.Internal.Correction>
   9.000000E+99

> <Gold.Chemscore.Hbonds>
donor molecule, donor type, donor heavy atom, donor atom, acceptor molecule, acceptor atom, score
      L1  H     5    24       P1  7948  0.51
      L1  H     8    25       P1  7948  0.28
      L1  H    11    42       P1  7948  0.68

> <Gold.Chemscore.Hbond.Weighted>
-7.4858

> <Gold.Chemscore.Metal.Weighted>
-0.0000

> <Gold.Chemscore.Lipo.Weighted>
-6.4510

> <Gold.Chemscore.Internal_Hbond.Weighted>
0.0000

> <Gold.Chemscore.DEClash.Weighted>
0.0749

> <Gold.Chemscore.DEInternal.Weighted>
1.2262

> <Gold.Chemscore.Rot.Weighted>
4.0185

> <Gold.Chemscore.Internal.Correction.Weighted>
   9.000000E+99

> <Gold.Protein.RotatedTorsions>
[ 6907 6896 6895 6894 ] final   85.50 input  -60.11 | X-H torsion
[ 7974 7965 7964 7962 ] final  119.83 input  175.53 | X-H torsion
[ 8008 7997 7996 7995 ] final  -46.59 input   59.86 | X-H torsion
[ 10167 10162 10161 10158 ] final  134.55 input  -65.29 | X-H torsion
[ 10718 10713 10712 10709 ] final  173.51 input   66.30 | X-H torsion
[ 10763 10752 10751 10750 ] final -112.71 input  -60.55 | X-H torsion
[ 11005 11000 10999 10996 ] final  148.86 input  -57.11 | X-H torsion

> <Gold.Protein.ActiveResidues>
 VAL166  LYS551  ARG553  GLY616  TRP617  ASP618  TYR619  PRO620  LYS621  CYS622 
 ASP623  PHE694  ASN695  SER759  ASP760  ASP761  ALA762  ILE779  LEU786  VAL792 
 PHE793  MET794  SER795  GLU796  ALA797  LYS798  CYS799  TRP800  GLU811  SER814 

> <Gold.Protein.RotatedAtoms>
  152.5376  134.2576  159.8922 H   0  0  0  0  0  0  0  0  0  0  0  0  # atno 6907 bound_to 6896
  151.2537  133.4330  159.2620 H   0  0  0  0  0  0  0  0  0  0  0  0  # atno 6908 bound_to 6896
  151.0515  134.9690  159.8270 H   0  0  0  0  0  0  0  0  0  0  0  0  # atno 6909 bound_to 6896
  145.1384  139.3283  143.4629 H   0  0  0  0  0  0  0  0  0  0  0  0  # atno 7974 bound_to 7965
  154.4009  140.1368  156.4036 H   0  0  0  0  0  0  0  0  0  0  0  0  # atno 8008 bound_to 7997
  155.7801  140.3481  155.5272 H   0  0  0  0  0  0  0  0  0  0  0  0  # atno 8009 bound_to 7997
  155.8682  140.0967  157.1558 H   0  0  0  0  0  0  0  0  0  0  0  0  # atno 8010 bound_to 7997
  139.5252  144.6561  151.5156 H   0  0  0  0  0  0  0  0  0  0  0  0  # atno 10167 bound_to 10162
  156.9632  131.0067  151.2922 H   0  0  0  0  0  0  0  0  0  0  0  0  # atno 10718 bound_to 10713
  154.8362  135.4481  154.1235 H   0  0  0  0  0  0  0  0  0  0  0  0  # atno 10763 bound_to 10752
  153.2465  135.6922  153.7732 H   0  0  0  0  0  0  0  0  0  0  0  0  # atno 10764 bound_to 10752
  153.7060  135.3364  155.3211 H   0  0  0  0  0  0  0  0  0  0  0  0  # atno 10765 bound_to 10752
  140.0995  134.8992  157.1775 H   0  0  0  0  0  0  0  0  0  0  0  0  # atno 11005 bound_to 11000
  146.3507  140.1411  142.8594 LP  0  0  0  0  0  0  0  0  0  0  0  0  # atno 17320 bound_to 7965
  145.0559  140.9052  143.4967 LP  0  0  0  0  0  0  0  0  0  0  0  0  # atno 17321 bound_to 7965
  140.6388  143.8931  150.6672 LP  0  0  0  0  0  0  0  0  0  0  0  0  # atno 17342 bound_to 10162
  140.2258  143.3773  152.1606 LP  0  0  0  0  0  0  0  0  0  0  0  0  # atno 17343 bound_to 10162
  157.5643  130.8267  149.8307 LP  0  0  0  0  0  0  0  0  0  0  0  0  # atno 17370 bound_to 10713
  156.0313  130.3764  150.1679 LP  0  0  0  0  0  0  0  0  0  0  0  0  # atno 17371 bound_to 10713
  140.3239  134.2885  155.7241 LP  0  0  0  0  0  0  0  0  0  0  0  0  # atno 17394 bound_to 11000
  141.2102  133.7727  156.9949 LP  0  0  0  0  0  0  0  0  0  0  0  0  # atno 17395 bound_to 11000

$$$$
