AV-unprocessed.smi:1504|AV-procd|sdf|6073|dock4
  -GOLD-   22720 6193D 1   1.00000     0.00000
 Structure written by MMmdl.
 40 41  0  0  0  0  0  0  0  0  2 V2000
  146.7760  141.2777  156.4323 O   0  0  0  0  0  0  0  0  0  0  0  0
  147.3570  142.1772  155.8249 C   0  0  0  0  0  0  0  0  0  0  0  0
  148.6706  142.4238  155.9251 N   0  0  0  0  0  0  0  0  0  0  0  0
  149.5985  141.6692  156.7595 C   0  0  0  0  0  0  0  0  0  0  0  0
  151.0462  142.1566  156.5791 C   0  0  0  0  0  0  0  0  0  0  0  0
  151.4664  143.1278  157.6648 C   0  0  0  0  0  0  0  0  0  0  0  0
  152.4047  142.7807  158.6611 C   0  0  0  0  0  0  0  0  0  0  0  0
  152.7526  143.7331  159.6415 C   0  0  0  0  0  0  0  0  0  0  0  0
  152.1570  145.0112  159.6047 C   0  0  0  0  0  0  0  0  0  0  0  0
  151.2279  145.3051  158.5857 C   0  0  0  0  0  0  0  0  0  0  0  0
  150.9202  144.3655  157.6647 N   0  3  0  0  0  0  0  0  0  0  0  0
  146.7521  143.0289  154.9877 N   0  0  0  0  0  0  0  0  0  0  0  0
  145.3284  143.0040  154.6782 C   0  0  0  0  0  0  0  0  0  0  0  0
  144.7449  144.4266  154.6368 C   0  0  2  0  0  0  0  0  0  0  0  0
  143.2529  144.4617  155.0210 C   0  0  0  0  0  0  0  0  0  0  0  0
  142.6994  145.8524  154.6967 C   0  0  0  0  0  0  0  0  0  0  0  0
  143.5795  146.3879  153.1833 S   0  0  0  0  0  0  0  0  0  0  0  0
  142.7359  146.1262  152.0075 O   0  0  0  0  0  0  0  0  0  0  0  0
  144.1664  147.7166  153.4141 O   0  0  0  0  0  0  0  0  0  0  0  0
  144.8938  145.1114  153.2662 C   0  0  0  0  0  0  0  0  0  0  0  0
  149.0556  143.1849  155.3849 H   0  0  0  0  0  0  0  0  0  0  0  0
  149.2996  141.7389  157.8068 H   0  0  0  0  0  0  0  0  0  0  0  0
  149.5203  140.6174  156.4833 H   0  0  0  0  0  0  0  0  0  0  0  0
  151.7304  141.3068  156.5816 H   0  0  0  0  0  0  0  0  0  0  0  0
  151.1632  142.6419  155.6090 H   0  0  0  0  0  0  0  0  0  0  0  0
  152.8537  141.7980  158.6753 H   0  0  0  0  0  0  0  0  0  0  0  0
  153.4679  143.4863  160.4124 H   0  0  0  0  0  0  0  0  0  0  0  0
  152.4097  145.7547  160.3466 H   0  0  0  0  0  0  0  0  0  0  0  0
  150.7250  146.2554  158.4805 H   0  0  0  0  0  0  0  0  0  0  0  0
  147.3092  143.7376  154.5332 H   0  0  0  0  0  0  0  0  0  0  0  0
  145.1765  142.5052  153.7196 H   0  0  0  0  0  0  0  0  0  0  0  0
  144.8075  142.4121  155.4327 H   0  0  0  0  0  0  0  0  0  0  0  0
  145.2773  145.0381  155.3673 H   0  0  0  0  0  0  0  0  0  0  0  0
  142.7120  143.7211  154.4301 H   0  0  0  0  0  0  0  0  0  0  0  0
  143.0987  144.2072  156.0699 H   0  0  0  0  0  0  0  0  0  0  0  0
  141.6220  145.8588  154.5318 H   0  0  0  0  0  0  0  0  0  0  0  0
  142.9368  146.5581  155.4930 H   0  0  0  0  0  0  0  0  0  0  0  0
  145.8713  145.5720  153.1234 H   0  0  0  0  0  0  0  0  0  0  0  0
  144.7212  144.4054  152.4531 H   0  0  0  0  0  0  0  0  0  0  0  0
  150.2452  144.6002  156.9365 H   0  0  0  0  0  0  0  0  0  0  0  0
  1  2  2  0  0  0  0
  2  3  1  0  0  0  0
  2 12  1  0  0  0  0
  3  4  1  0  0  0  0
  3 21  1  0  0  0  0
  4  5  1  0  0  0  0
  4 22  1  0  0  0  0
  4 23  1  0  0  0  0
  5  6  1  0  0  0  0
  5 24  1  0  0  0  0
  5 25  1  0  0  0  0
  6 11  1  0  0  0  0
  6  7  2  0  0  0  0
  7  8  1  0  0  0  0
  7 26  1  0  0  0  0
  8  9  2  0  0  0  0
  8 27  1  0  0  0  0
  9 10  1  0  0  0  0
  9 28  1  0  0  0  0
 10 11  2  0  0  0  0
 10 29  1  0  0  0  0
 11 40  1  0  0  0  0
 12 13  1  0  0  0  0
 12 30  1  0  0  0  0
 13 14  1  0  0  0  0
 13 31  1  0  0  0  0
 13 32  1  0  0  0  0
 14 20  1  0  0  0  0
 14 15  1  0  0  0  0
 14 33  1  0  0  0  0
 15 16  1  0  0  0  0
 15 34  1  0  0  0  0
 15 35  1  0  0  0  0
 16 17  1  0  0  0  0
 16 36  1  0  0  0  0
 16 37  1  0  0  0  0
 17 18  2  0  0  0  0
 17 19  2  0  0  0  0
 17 20  1  0  0  0  0
 20 38  1  0  0  0  0
 20 39  1  0  0  0  0
M  CHG  1  11   1
M  END
> <s_m_source_file>
AV-unprocessed.smi

> <i_m_source_file_index>
1504

> <i_lp_mmshare_version>
43012

> <i_f3d_flags>
0

> <s_epik_input>
Tz1TMSg9TylbQ0gyXVtDSDJdW0NASF0oW0NIMl0xKVtDSDJdW05IXUMoPU8pW05IXVtDSDJdW0NIMl1jMltjSF1bY0hdW2NIXVtjSF1uMg==

> <s_epik_cmdline>
J2VwaWtfcHl0aG9uJywgJy1waCcsICc3LjAnLCAnLXRuJywgJzgnLCAnLW1hJywgJzIwMCcsICctbWV0YWxfYmluZGluZycsICctaW1hZScsICc8aW5maWxlLm1hZT4nLCAnLW9tYWUnLCAnPG91dGZpbGUubWFlPic=

> <r_epik_Ionization_Penalty>
1.57393

> <r_epik_Ionization_Penalty_Charging>
1.57388

> <r_epik_Ionization_Penalty_Neutral>
4.82054e-05

> <r_epik_State_Penalty>
1.66991

> <r_epik_Charging_Adjusted_Penalty>
3.24379

> <i_epik_Tot_Q>
1

> <i_epik_Tot_abs_Q>
1

> <r_epik_Metal_State_Penalty>
1.71052

> <b_epik_Metal_Only>
0

> <s_lp_Force_Field>
OPLS_2005

> <r_lp_Energy>
6.68719

> <b_lp_Chiralities_Consistent>
1

> <s_lp_Variant>
AV-unprocessed.smi:1504-3

> <Gold.Version>
5.8.1

> <Gold.Id.Protein>
6NUR|6NUR_protein|mol2

> <Gold.PLP.Fitness>
46.3702

> <Gold.PLP.PLP>
-38.8338

> <Gold.PLP.part.hbond>
-4.5894

> <Gold.PLP.part.metal>
0.0000

> <Gold.PLP.part.buried>
-7.1633

> <Gold.PLP.part.nonpolar>
-27.8280

> <Gold.PLP.part.repulsive>
0.3325

> <Gold.PLP.ligand.clash>
0.0000

> <Gold.PLP.ligand.torsion>
0.8190

> <Gold.PLP.Chemscore.Hbond>
3.0507

> <Gold.PLP.Chemscore.CHOScore>
0.0000

> <Gold.PLP.Chemscore.Metal>
0.0000

> <Gold.Chemscore.Hbonds>
donor molecule, donor type, donor heavy atom, donor atom, acceptor molecule, acceptor atom, score
      L1  H     3    21       P1  8028  0.54
      L1  H    11    40       P1  8028  2.00
      L1  H    12    30       P1  8028  0.19

> <Gold.PLP.Chemscore.Internal.Correction>
0.0224

> <Gold.Rescore>
     Score         DG    S(hbond)    S(metal)    S(lipo)     H(rot)  DE(clash)    DE(int)     intcor
     16.30     -17.25       1.92        0.00      89.90       2.01       0.09       0.86       ----

> <Gold.Chemscore.Fitness>
16.3025

> <Gold.Chemscore.DG>
-17.2530

> <Gold.Chemscore.ZeroCoef>
-5.4800

> <Gold.Chemscore.Hbond>
1.9197

> <Gold.Chemscore.Metal>
0.0000

> <Gold.Chemscore.Lipo>
89.9014

> <Gold.Chemscore.Internal_Hbond>
0.0000

> <Gold.Chemscore.DEClash>
0.0936

> <Gold.Chemscore.DEInternal>
0.8569

> <Gold.Chemscore.Rot>
2.0146

> <Gold.Chemscore.Internal.Correction>
   9.000000E+99

> <Gold.Chemscore.Hbonds>
donor molecule, donor type, donor heavy atom, donor atom, acceptor molecule, acceptor atom, score
      L1  H     3    21       P1  8028  0.54
      L1  H    11    40       P1  8028  0.70
      L1  H    12    30       P1  8028  0.01

> <Gold.Chemscore.Hbond.Weighted>
-6.4118

> <Gold.Chemscore.Metal.Weighted>
-0.0000

> <Gold.Chemscore.Lipo.Weighted>
-10.5185

> <Gold.Chemscore.Internal_Hbond.Weighted>
0.0000

> <Gold.Chemscore.DEClash.Weighted>
0.0936

> <Gold.Chemscore.DEInternal.Weighted>
0.8569

> <Gold.Chemscore.Rot.Weighted>
5.1573

> <Gold.Chemscore.Internal.Correction.Weighted>
   9.000000E+99

> <Gold.Protein.RotatedTorsions>
[ 6907 6896 6895 6894 ] final -118.78 input  -60.11 | X-H torsion
[ 7974 7965 7964 7962 ] final  170.93 input  175.53 | X-H torsion
[ 8008 7997 7996 7995 ] final    6.97 input   59.86 | X-H torsion
[ 10167 10162 10161 10158 ] final   -9.51 input  -65.29 | X-H torsion
[ 10718 10713 10712 10709 ] final  164.14 input   66.30 | X-H torsion
[ 10763 10752 10751 10750 ] final -167.73 input  -60.55 | X-H torsion
[ 11005 11000 10999 10996 ] final   31.77 input  -57.11 | X-H torsion

> <Gold.Protein.ActiveResidues>
 VAL166  LYS551  ARG553  GLY616  TRP617  ASP618  TYR619  PRO620  LYS621  CYS622 
 ASP623  PHE694  ASN695  SER759  ASP760  ASP761  ALA762  ILE779  LEU786  VAL792 
 PHE793  MET794  SER795  GLU796  ALA797  LYS798  CYS799  TRP800  GLU811  SER814 

> <Gold.Protein.RotatedAtoms>
  150.8249  133.8189  159.3122 H   0  0  0  0  0  0  0  0  0  0  0  0  # atno 6907 bound_to 6896
  151.5936  135.1050  160.0054 H   0  0  0  0  0  0  0  0  0  0  0  0  # atno 6908 bound_to 6896
  152.4335  133.7278  159.6626 H   0  0  0  0  0  0  0  0  0  0  0  0  # atno 6909 bound_to 6896
  144.7309  139.9274  143.6423 H   0  0  0  0  0  0  0  0  0  0  0  0  # atno 7974 bound_to 7965
  154.7479  140.2761  155.6317 H   0  0  0  0  0  0  0  0  0  0  0  0  # atno 8008 bound_to 7997
  156.2889  140.2684  156.2150 H   0  0  0  0  0  0  0  0  0  0  0  0  # atno 8009 bound_to 7997
  155.0175  140.0371  157.2414 H   0  0  0  0  0  0  0  0  0  0  0  0  # atno 8010 bound_to 7997
  140.7089  143.5850  150.8952 H   0  0  0  0  0  0  0  0  0  0  0  0  # atno 10167 bound_to 10162
  157.0985  131.0436  151.2508 H   0  0  0  0  0  0  0  0  0  0  0  0  # atno 10718 bound_to 10713
  154.6702  135.2938  154.9752 H   0  0  0  0  0  0  0  0  0  0  0  0  # atno 10763 bound_to 10752
  154.0782  135.6608  153.4838 H   0  0  0  0  0  0  0  0  0  0  0  0  # atno 10764 bound_to 10752
  153.0482  135.5191  154.7694 H   0  0  0  0  0  0  0  0  0  0  0  0  # atno 10765 bound_to 10752
  140.2804  134.2980  155.7802 H   0  0  0  0  0  0  0  0  0  0  0  0  # atno 11005 bound_to 11000
  146.0883  139.3872  143.0421 LP  0  0  0  0  0  0  0  0  0  0  0  0  # atno 17320 bound_to 7965
  145.7746  140.9882  143.1131 LP  0  0  0  0  0  0  0  0  0  0  0  0  # atno 17321 bound_to 7965
  139.9576  143.6200  152.3011 LP  0  0  0  0  0  0  0  0  0  0  0  0  # atno 17342 bound_to 10162
  139.6741  144.7659  151.1728 LP  0  0  0  0  0  0  0  0  0  0  0  0  # atno 17343 bound_to 10162
  157.4661  130.7681  149.7280 LP  0  0  0  0  0  0  0  0  0  0  0  0  # atno 17370 bound_to 10713
  155.9879  130.3963  150.3141 LP  0  0  0  0  0  0  0  0  0  0  0  0  # atno 17371 bound_to 10713
  141.2163  133.7522  156.9471 LP  0  0  0  0  0  0  0  0  0  0  0  0  # atno 17394 bound_to 11000
  140.1289  134.9369  157.2309 LP  0  0  0  0  0  0  0  0  0  0  0  0  # atno 17395 bound_to 11000

$$$$
