AV-unprocessed.smi:1119|AV-procd|sdf|4817|dock7
  -GOLD-   22720 3373D 1   1.00000     0.00000
 Structure written by MMmdl.
 31 32  0  0  0  0  0  0  0  0  1 V2000
  151.8162  138.2623  154.7475 C   0  0  0  0  0  0  0  0  0  0  0  0
  150.4497  138.2113  154.3518 O   0  0  0  0  0  0  0  0  0  0  0  0
  149.7047  139.3740  154.4032 C   0  0  0  0  0  0  0  0  0  0  0  0
  150.2869  140.4918  154.9061 N   0  0  0  0  0  0  0  0  0  0  0  0
  149.5602  141.6267  154.9602 C   0  0  0  0  0  0  0  0  0  0  0  0
  148.2242  141.7074  154.5265 C   0  0  0  0  0  0  0  0  0  0  0  0
  147.6182  140.5500  154.0037 C   0  0  0  0  0  0  0  0  0  0  0  0
  148.3731  139.3547  153.9268 C   0  0  0  0  0  0  0  0  0  0  0  0
  147.8465  138.1275  153.4384 N   0  0  0  0  0  0  0  0  0  0  0  0
  146.5958  137.6519  153.5606 C   0  0  0  0  0  0  0  0  0  0  0  0
  145.6635  138.2383  154.1107 O   0  0  0  0  0  0  0  0  0  0  0  0
  146.4760  136.4492  152.9819 N   0  0  0  0  0  0  0  0  0  0  0  0
  145.2417  135.6780  152.9086 C   0  0  0  0  0  0  0  0  0  0  0  0
  145.1289  134.7745  151.6960 C   0  0  0  0  0  0  0  0  0  0  0  0
  144.4347  135.2371  150.4359 C   0  0  0  0  0  0  0  0  0  0  0  0
  143.7948  134.1823  151.3053 C   0  0  0  0  0  0  0  0  0  0  0  0
  152.2600  137.2730  154.6387 H   0  0  0  0  0  0  0  0  0  0  0  0
  151.9177  138.5572  155.7928 H   0  0  0  0  0  0  0  0  0  0  0  0
  152.3876  138.9509  154.1232 H   0  0  0  0  0  0  0  0  0  0  0  0
  150.0570  142.4950  155.3671 H   0  0  0  0  0  0  0  0  0  0  0  0
  147.6750  142.6346  154.5975 H   0  0  0  0  0  0  0  0  0  0  0  0
  146.5873  140.5960  153.6882 H   0  0  0  0  0  0  0  0  0  0  0  0
  148.4791  137.5808  152.8725 H   0  0  0  0  0  0  0  0  0  0  0  0
  147.2939  136.0429  152.5519 H   0  0  0  0  0  0  0  0  0  0  0  0
  145.1903  135.0542  153.8010 H   0  0  0  0  0  0  0  0  0  0  0  0
  144.3778  136.3437  152.9535 H   0  0  0  0  0  0  0  0  0  0  0  0
  145.9867  134.1183  151.5597 H   0  0  0  0  0  0  0  0  0  0  0  0
  143.9872  136.2292  150.4378 H   0  0  0  0  0  0  0  0  0  0  0  0
  144.8586  134.9192  149.4855 H   0  0  0  0  0  0  0  0  0  0  0  0
  143.7883  133.1598  150.9329 H   0  0  0  0  0  0  0  0  0  0  0  0
  142.9199  134.4736  151.8834 H   0  0  0  0  0  0  0  0  0  0  0  0
  1  2  1  0  0  0  0
  1 17  1  0  0  0  0
  1 18  1  0  0  0  0
  1 19  1  0  0  0  0
  2  3  1  0  0  0  0
  3  8  1  0  0  0  0
  3  4  2  0  0  0  0
  4  5  1  0  0  0  0
  5  6  2  0  0  0  0
  5 20  1  0  0  0  0
  6  7  1  0  0  0  0
  6 21  1  0  0  0  0
  7  8  2  0  0  0  0
  7 22  1  0  0  0  0
  8  9  1  0  0  0  0
  9 10  1  0  0  0  0
  9 23  1  0  0  0  0
 10 11  2  0  0  0  0
 10 12  1  0  0  0  0
 12 13  1  0  0  0  0
 12 24  1  0  0  0  0
 13 14  1  0  0  0  0
 13 25  1  0  0  0  0
 13 26  1  0  0  0  0
 14 16  1  0  0  0  0
 14 15  1  0  0  0  0
 14 27  1  0  0  0  0
 15 16  1  0  0  0  0
 15 28  1  0  0  0  0
 15 29  1  0  0  0  0
 16 30  1  0  0  0  0
 16 31  1  0  0  0  0
M  END
> <s_m_source_file>
AV-unprocessed.smi

> <i_m_source_file_index>
1119

> <i_lp_mmshare_version>
43012

> <i_f3d_flags>
0

> <s_epik_input>
W0NIM11PYzFuW2NIXVtjSF1bY0hdYzFbTkhdQyg9TylbTkhdW0NIMl1bQ0hdMltDSDJdW0NIMl0y

> <s_epik_cmdline>
J2VwaWtfcHl0aG9uJywgJy1waCcsICc3LjAnLCAnLXRuJywgJzgnLCAnLW1hJywgJzIwMCcsICctbWV0YWxfYmluZGluZycsICctaW1hZScsICc8aW5maWxlLm1hZT4nLCAnLW9tYWUnLCAnPG91dGZpbGUubWFlPic=

> <r_lp_tautomer_probability>
1

> <r_epik_Ionization_Penalty>
9.92152e-05

> <r_epik_Ionization_Penalty_Charging>
0

> <r_epik_Ionization_Penalty_Neutral>
9.92152e-05

> <r_epik_State_Penalty>
-0

> <r_epik_Charging_Adjusted_Penalty>
0

> <i_epik_Tot_Q>
0

> <i_epik_Tot_abs_Q>
0

> <r_epik_Metal_State_Penalty>
-0

> <b_epik_Metal_Only>
0

> <s_lp_Force_Field>
OPLS_2005

> <r_lp_Energy>
14.7926

> <b_lp_Chiralities_Consistent>
1

> <s_lp_Variant>
AV-unprocessed.smi:1119-1

> <Gold.Version>
5.8.1

> <Gold.Id.Protein>
6NUR|6NUR_protein|mol2

> <Gold.PLP.Fitness>
37.4888

> <Gold.PLP.PLP>
-26.8272

> <Gold.PLP.part.hbond>
-3.0000

> <Gold.PLP.part.metal>
0.0000

> <Gold.PLP.part.buried>
-3.0781

> <Gold.PLP.part.nonpolar>
-21.5979

> <Gold.PLP.part.repulsive>
0.4649

> <Gold.PLP.ligand.clash>
0.0000

> <Gold.PLP.ligand.torsion>
0.7345

> <Gold.PLP.Chemscore.Hbond>
2.9600

> <Gold.PLP.Chemscore.CHOScore>
0.9027

> <Gold.PLP.Chemscore.Metal>
0.0000

> <Gold.Chemscore.Hbonds>
donor molecule, donor type, donor heavy atom, donor atom, acceptor molecule, acceptor atom, score
      L1  H     9    23       P1  7948  1.00
      L1  H    12    24       P1  7948  1.00
      P1  H  7989  7998       L1     4  0.98
      L1  C     5    20       P1  8028  0.85

> <Gold.PLP.Chemscore.Internal.Correction>
0.5426

> <Gold.Rescore>
     Score         DG    S(hbond)    S(metal)    S(lipo)     H(rot)  DE(clash)    DE(int)     intcor
     13.78     -15.81       2.23        0.00      56.31       1.45       0.40       1.64       ----

> <Gold.Chemscore.Fitness>
13.7799

> <Gold.Chemscore.DG>
-15.8135

> <Gold.Chemscore.ZeroCoef>
-5.4800

> <Gold.Chemscore.Hbond>
2.2326

> <Gold.Chemscore.Metal>
0.0000

> <Gold.Chemscore.Lipo>
56.3053

> <Gold.Chemscore.Internal_Hbond>
0.0000

> <Gold.Chemscore.DEClash>
0.3977

> <Gold.Chemscore.DEInternal>
1.6359

> <Gold.Chemscore.Rot>
1.4497

> <Gold.Chemscore.Internal.Correction>
   9.000000E+99

> <Gold.Chemscore.Hbonds>
donor molecule, donor type, donor heavy atom, donor atom, acceptor molecule, acceptor atom, score
      L1  H     9    23       P1  7948  0.99
      L1  H    12    24       P1  7948  0.95
      P1  H  7989  7998       L1     4  0.11

> <Gold.Chemscore.Hbond.Weighted>
-7.4569

> <Gold.Chemscore.Metal.Weighted>
-0.0000

> <Gold.Chemscore.Lipo.Weighted>
-6.5877

> <Gold.Chemscore.Internal_Hbond.Weighted>
0.0000

> <Gold.Chemscore.DEClash.Weighted>
0.3977

> <Gold.Chemscore.DEInternal.Weighted>
1.6359

> <Gold.Chemscore.Rot.Weighted>
3.7111

> <Gold.Chemscore.Internal.Correction.Weighted>
   9.000000E+99

> <Gold.Protein.RotatedTorsions>
[ 6907 6896 6895 6894 ] final -134.79 input  -60.11 | X-H torsion
[ 7974 7965 7964 7962 ] final   -4.59 input  175.53 | X-H torsion
[ 8008 7997 7996 7995 ] final  174.62 input   59.86 | X-H torsion
[ 10167 10162 10161 10158 ] final  108.26 input  -65.29 | X-H torsion
[ 10718 10713 10712 10709 ] final -114.65 input   66.30 | X-H torsion
[ 10763 10752 10751 10750 ] final   -4.11 input  -60.55 | X-H torsion
[ 11005 11000 10999 10996 ] final -153.06 input  -57.11 | X-H torsion

> <Gold.Protein.ActiveResidues>
 VAL166  LYS551  ARG553  GLY616  TRP617  ASP618  TYR619  PRO620  LYS621  CYS622 
 ASP623  PHE694  ASN695  SER759  ASP760  ASP761  ALA762  ILE779  LEU786  VAL792 
 PHE793  MET794  SER795  GLU796  ALA797  LYS798  CYS799  TRP800  GLU811  SER814 

> <Gold.Protein.RotatedAtoms>
  150.9901  133.6158  159.2709 H   0  0  0  0  0  0  0  0  0  0  0  0  # atno 6907 bound_to 6896
  151.3382  135.0856  159.9371 H   0  0  0  0  0  0  0  0  0  0  0  0  # atno 6908 bound_to 6896
  152.5243  133.9517  159.7729 H   0  0  0  0  0  0  0  0  0  0  0  0  # atno 6909 bound_to 6896
  146.2369  140.1894  142.8332 H   0  0  0  0  0  0  0  0  0  0  0  0  # atno 7974 bound_to 7965
  156.0955  140.1429  156.9537 H   0  0  0  0  0  0  0  0  0  0  0  0  # atno 8008 bound_to 7997
  154.4668  140.0923  156.7088 H   0  0  0  0  0  0  0  0  0  0  0  0  # atno 8009 bound_to 7997
  155.4848  140.3446  155.4347 H   0  0  0  0  0  0  0  0  0  0  0  0  # atno 8010 bound_to 7997
  139.6860  144.7113  151.1431 H   0  0  0  0  0  0  0  0  0  0  0  0  # atno 10167 bound_to 10162
  156.0844  130.6038  150.8803 H   0  0  0  0  0  0  0  0  0  0  0  0  # atno 10718 bound_to 10713
  153.3805  135.6998  153.6569 H   0  0  0  0  0  0  0  0  0  0  0  0  # atno 10763 bound_to 10752
  153.5183  135.3617  155.2620 H   0  0  0  0  0  0  0  0  0  0  0  0  # atno 10764 bound_to 10752
  154.8692  135.4151  154.3101 H   0  0  0  0  0  0  0  0  0  0  0  0  # atno 10765 bound_to 10752
  140.7122  134.3820  157.5196 H   0  0  0  0  0  0  0  0  0  0  0  0  # atno 11005 bound_to 11000
  144.9870  140.8512  143.5362 LP  0  0  0  0  0  0  0  0  0  0  0  0  # atno 17320 bound_to 7965
  145.1894  139.2309  143.5250 LP  0  0  0  0  0  0  0  0  0  0  0  0  # atno 17321 bound_to 7965
  140.7668  143.5628  150.9080 LP  0  0  0  0  0  0  0  0  0  0  0  0  # atno 17342 bound_to 10162
  139.9303  143.6501  152.3078 LP  0  0  0  0  0  0  0  0  0  0  0  0  # atno 17343 bound_to 10162
  157.5973  131.0942  150.9020 LP  0  0  0  0  0  0  0  0  0  0  0  0  # atno 17370 bound_to 10713
  156.9184  130.5306  149.5279 LP  0  0  0  0  0  0  0  0  0  0  0  0  # atno 17371 bound_to 10713
  139.8869  134.8898  156.2560 LP  0  0  0  0  0  0  0  0  0  0  0  0  # atno 17394 bound_to 11000
  141.0075  133.7115  156.1058 LP  0  0  0  0  0  0  0  0  0  0  0  0  # atno 17395 bound_to 11000

$$$$
