#       Name:                AV-unprocessed.smi:2062
#       Creating user name   scv26
#       Creation time:       Fri Mar 27 11:09:24 2020


#       File generated by GOLD software.
#

@<TRIPOS>MOLECULE
AV-unprocessed.smi:2062
    48    49     1
SMALL
NO_CHARGES


@<TRIPOS>ATOM
      1 ****        -3.2209   3.2216   1.8280 C.3            1 S1                 0.0000
      2 ****        -3.6157   2.9316   0.3701 C.3            1 S1                 0.0000
      3 ****        -5.1244   3.1405   0.1721 C.3            1 S1                 0.0000
      4 ****        -3.2030   1.5090  -0.0663 C.3            1 S1                 0.0000
      5 ****        -1.7349   1.2885  -0.0182 N.4            1 S1                 1.0000
      6 ****        -0.9983   1.9213  -1.1402 C.3            1 S1                 0.0000
      7 ****         0.5129   1.6835  -0.9887 C.3            1 S1                 0.0000
      8 ****         0.7671   0.2875  -0.9127 O.3            1 S1                 0.0000
      9 ****         0.1471  -0.3147   0.2194 C.3            1 S1                 0.0000
     10 ****         0.5637  -1.7907   0.2705 C.3            1 S1                 0.0000
     11 ****         1.9935  -1.9013   0.5355 N.am           1 S1                 0.0000
     12 ****         2.8441  -2.7581  -0.0442 C.2            1 S1                 0.0000
     13 ****         2.4340  -3.5738  -0.8730 O.2            1 S1                 0.0000
     14 ****         4.1213  -2.6121   0.3744 N.pl3          1 S1                -1.0000
     15 ****         5.0861  -3.4051  -0.1195 C.2            1 S1                 0.0000
     16 ****         5.5666  -4.4652   0.5400 N.2            1 S1                 0.0000
     17 ****         6.5695  -5.1436  -0.1550 C.2            1 S1                 0.0000
     18 ****         6.8653  -4.5818  -1.3685 C.2            1 S1                 0.0000
     19 ****         5.8880  -3.1747  -1.6761 S.3            1 S1                 0.0000
     20 ****        -1.3788  -0.1464   0.0877 C.3            1 S1                 0.0000
     21 ****        -3.6902   2.5157   2.5141 H              1 S1                 0.0000
     22 ****        -3.5274   4.2252   2.1247 H              1 S1                 0.0000
     23 ****        -2.1419   3.1580   1.9707 H              1 S1                 0.0000
     24 ****        -3.1136   3.6608  -0.2650 H              1 S1                 0.0000
     25 ****        -5.7051   2.4513   0.7860 H              1 S1                 0.0000
     26 ****        -5.4106   2.9824  -0.8681 H              1 S1                 0.0000
     27 ****        -5.4204   4.1548   0.4418 H              1 S1                 0.0000
     28 ****        -3.6979   0.7936   0.5924 H              1 S1                 0.0000
     29 ****        -3.5652   1.2944  -1.0731 H              1 S1                 0.0000
     30 ****        -1.3455   1.5059  -2.0877 H              1 S1                 0.0000
     31 ****        -1.1905   2.9930  -1.1714 H              1 S1                 0.0000
     32 ****         1.0460   2.0928  -1.8470 H              1 S1                 0.0000
     33 ****         0.9017   2.1870  -0.1020 H              1 S1                 0.0000
     34 ****         0.4895   0.1812   1.1301 H              1 S1                 0.0000
     35 ****         0.0331  -2.3040   1.0729 H              1 S1                 0.0000
     36 ****         0.2828  -2.2843  -0.6613 H              1 S1                 0.0000
     37 ****         2.3824  -1.2585   1.2095 H              1 S1                 0.0000
     38 ****         7.0196  -6.0177   0.2912 H              1 S1                 0.0000
     39 ****         7.5945  -4.9057  -2.0955 H              1 S1                 0.0000
     40 ****        -1.8706  -0.5827   0.9581 H              1 S1                 0.0000
     41 ****        -1.7460  -0.6804  -0.7905 H              1 S1                 0.0000
     42 ****        -1.4075   1.7218   0.8334 H              1 S1                 0.0000
     43 ****         1.7548   0.1434  -0.8528 LP             1 S1                 0.0000
     44 ****         0.4162  -0.1487  -1.7413 LP             1 S1                 0.0000
     45 ****         1.4638  -3.5969  -1.1140 LP             1 S1                 0.0000
     46 ****         3.0716  -4.2122  -1.3040 LP             1 S1                 0.0000
     47 ****         4.3478  -1.9129   1.0525 LP             1 S1                 0.0000
     48 ****         5.2393  -4.7445   1.4428 LP             1 S1                 0.0000
@<TRIPOS>BOND
    1    1    2 1     
    2    1   21 1     
    3    1   22 1     
    4    1   23 1     
    5    2    3 1     
    6    2    4 1     
    7    2   24 1     
    8    3   25 1     
    9    3   26 1     
   10    3   27 1     
   11    4    5 1     
   12    4   28 1     
   13    4   29 1     
   14    5   20 1     
   15    5    6 1     
   16    5   42 1     
   17    6    7 1     
   18    6   30 1     
   19    6   31 1     
   20    7    8 1     
   21    7   32 1     
   22    7   33 1     
   23    8    9 1     
   24    9   10 1     
   25    9   20 1     
   26    9   34 1     
   27   10   11 1     
   28   10   35 1     
   29   10   36 1     
   30   11   12 am    
   31   11   37 1     
   32   12   13 2     
   33   12   14 1     
   34   14   15 1     
   35   15   19 1     
   36   15   16 2     
   37   16   17 1     
   38   17   18 2     
   39   17   38 1     
   40   18   19 1     
   41   18   39 1     
   42   20   40 1     
   43   20   41 1     
   44    8   43 1     
   45    8   44 1     
   46   13   45 1     
   47   13   46 1     
   48   14   47 1     
   49   16   48 1     
@<TRIPOS>SUBSTRUCTURE
      1 S1             1
@<TRIPOS>SET
LONE_PAIRS      STATIC     ATOMS    <user>   **** ""
6 43 44 45 46 47 48
DONOR_HYDROGENS      STATIC     ATOMS    <user>   **** ""
2 42 37
ATOM$BLUE        STATIC     ATOMS    COLORGROUP SYSTEM
6 43 44 45 46 47 48
ATOM$RED        STATIC     ATOMS    COLORGROUP SYSTEM
2 42 37
