AV-unprocessed.smi:148|AV-procd|sdf|1202|dock3
  -GOLD-   2262018363D 1   1.00000     0.00000
 Structure written by MMmdl.
 63 67  0  0  0  0  0  0  0  0  1 V2000
  148.2390  136.4761  154.9515 O   0  0  0  0  0  0  0  0  0  0  0  0
  147.9945  135.0969  155.1319 C   0  0  0  0  0  0  0  0  0  0  0  0
  149.1538  134.4172  155.8984 C   0  0  2  0  0  0  0  0  0  0  0  0
  150.5346  134.9405  155.4242 C   0  0  0  0  0  0  0  0  0  0  0  0
  150.7619  136.3264  155.7935 N   0  0  0  0  0  0  0  0  0  0  0  0
  151.1675  137.3420  154.9579 C   0  0  0  0  0  0  0  0  0  0  0  0
  151.3112  138.5070  155.5283 N   0  0  0  0  0  0  0  0  0  0  0  0
  150.9773  138.2765  156.8577 C   0  0  0  0  0  0  0  0  0  0  0  0
  150.9271  139.0870  158.0272 C   0  0  0  0  0  0  0  0  0  0  0  0
  151.2472  140.4002  158.0712 N   0  0  0  0  0  0  0  0  0  0  0  0
  152.3662  140.6093  158.9896 C   0  0  0  0  0  0  0  0  0  0  0  0
  152.9169  142.0370  158.8851 C   0  0  0  0  0  0  0  0  0  0  0  0
  151.7956  143.0549  159.1137 C   0  0  0  0  0  0  0  0  0  0  0  0
  150.6516  142.8058  158.1216 C   0  0  0  0  0  0  0  0  0  0  0  0
  150.1250  141.3486  158.2025 C   0  0  1  0  0  0  0  0  0  0  0  0
  148.9607  141.0542  157.2043 C   0  0  2  0  0  0  0  0  0  0  0  0
  149.2823  141.2414  155.7083 C   0  0  0  0  0  0  0  0  0  0  0  0
  147.9670  141.6593  155.0303 C   0  0  0  0  0  0  0  0  0  0  0  0
  146.8923  141.6237  156.1210 C   0  0  0  0  0  0  0  0  0  0  0  0
  147.6657  141.8517  157.4188 C   0  0  1  0  0  0  0  0  0  0  0  0
  146.9381  141.3962  158.5407 O   0  0  0  0  0  0  0  0  0  0  0  0
  150.5282  138.5083  159.1865 N   0  0  0  0  0  0  0  0  0  0  0  0
  150.2162  137.2091  159.2112 C   0  0  0  0  0  0  0  0  0  0  0  0
  150.2308  136.3272  158.2090 N   0  0  0  0  0  0  0  0  0  0  0  0
  150.6183  136.9119  157.0390 C   0  0  0  0  0  0  0  0  0  0  0  0
  149.0383  132.8679  155.8684 C   0  0  2  0  0  0  0  0  0  0  0  0
  150.0928  132.1108  156.6785 C   0  0  0  0  0  0  0  0  0  0  0  0
  150.6527  131.0830  155.6961 C   0  0  0  0  0  0  0  0  0  0  0  0
  149.6121  130.9161  154.7472 O   0  0  0  0  0  0  0  0  0  0  0  0
  149.0960  132.2099  154.4822 C   0  0  0  0  0  0  0  0  0  0  0  0
  148.5109  136.6181  154.0576 H   0  0  0  0  0  0  0  0  0  0  0  0
  147.0479  134.9611  155.6551 H   0  0  0  0  0  0  0  0  0  0  0  0
  147.8711  134.6646  154.1393 H   0  0  0  0  0  0  0  0  0  0  0  0
  149.0520  134.7103  156.9446 H   0  0  0  0  0  0  0  0  0  0  0  0
  151.3485  134.3537  155.8474 H   0  0  0  0  0  0  0  0  0  0  0  0
  150.6304  134.8578  154.3422 H   0  0  0  0  0  0  0  0  0  0  0  0
  151.3609  137.1879  153.9061 H   0  0  0  0  0  0  0  0  0  0  0  0
  152.0360  140.4167  160.0115 H   0  0  0  0  0  0  0  0  0  0  0  0
  153.1644  139.8969  158.7749 H   0  0  0  0  0  0  0  0  0  0  0  0
  153.7135  142.1848  159.6145 H   0  0  0  0  0  0  0  0  0  0  0  0
  153.3611  142.1900  157.9006 H   0  0  0  0  0  0  0  0  0  0  0  0
  151.4234  142.9722  160.1355 H   0  0  0  0  0  0  0  0  0  0  0  0
  152.1786  144.0696  159.0002 H   0  0  0  0  0  0  0  0  0  0  0  0
  149.8572  143.5188  158.3358 H   0  0  0  0  0  0  0  0  0  0  0  0
  151.0075  143.0305  157.1168 H   0  0  0  0  0  0  0  0  0  0  0  0
  149.7228  141.2243  159.2082 H   0  0  0  0  0  0  0  0  0  0  0  0
  148.6680  140.0093  157.3187 H   0  0  0  0  0  0  0  0  0  0  0  0
  150.0374  142.0080  155.5414 H   0  0  0  0  0  0  0  0  0  0  0  0
  149.6715  140.3175  155.2797 H   0  0  0  0  0  0  0  0  0  0  0  0
  148.0644  142.6732  154.6407 H   0  0  0  0  0  0  0  0  0  0  0  0
  147.7117  141.0108  154.1916 H   0  0  0  0  0  0  0  0  0  0  0  0
  146.1073  142.3636  155.9621 H   0  0  0  0  0  0  0  0  0  0  0  0
  146.4223  140.6388  156.1326 H   0  0  0  0  0  0  0  0  0  0  0  0
  147.8617  142.9179  157.5217 H   0  0  0  0  0  0  0  0  0  0  0  0
  146.0844  141.1129  158.2505 H   0  0  0  0  0  0  0  0  0  0  0  0
  149.9154  136.8197  160.1726 H   0  0  0  0  0  0  0  0  0  0  0  0
  148.0786  132.5917  156.3071 H   0  0  0  0  0  0  0  0  0  0  0  0
  150.8781  132.7424  157.0926 H   0  0  0  0  0  0  0  0  0  0  0  0
  149.6158  131.6045  157.5187 H   0  0  0  0  0  0  0  0  0  0  0  0
  151.5404  131.4720  155.1945 H   0  0  0  0  0  0  0  0  0  0  0  0
  150.9153  130.1404  156.1766 H   0  0  0  0  0  0  0  0  0  0  0  0
  148.1174  132.1570  154.0043 H   0  0  0  0  0  0  0  0  0  0  0  0
  149.7759  132.7210  153.8015 H   0  0  0  0  0  0  0  0  0  0  0  0
  1  2  1  0  0  0  0
  1 31  1  0  0  0  0
  2  3  1  0  0  0  0
  2 32  1  0  0  0  0
  2 33  1  0  0  0  0
  3  4  1  0  0  0  0
  3 26  1  0  0  0  0
  3 34  1  0  0  0  0
  4  5  1  0  0  0  0
  4 35  1  0  0  0  0
  4 36  1  0  0  0  0
  5 25  1  0  0  0  0
  5  6  1  0  0  0  0
  6  7  2  0  0  0  0
  6 37  1  0  0  0  0
  7  8  1  0  0  0  0
  8 25  2  0  0  0  0
  8  9  1  0  0  0  0
  9 10  1  0  0  0  0
  9 22  2  0  0  0  0
 10 15  1  0  0  0  0
 10 11  1  0  0  0  0
 11 12  1  0  0  0  0
 11 38  1  0  0  0  0
 11 39  1  0  0  0  0
 12 13  1  0  0  0  0
 12 40  1  0  0  0  0
 12 41  1  0  0  0  0
 13 14  1  0  0  0  0
 13 42  1  0  0  0  0
 13 43  1  0  0  0  0
 14 15  1  0  0  0  0
 14 44  1  0  0  0  0
 14 45  1  0  0  0  0
 15 16  1  0  0  0  0
 15 46  1  0  0  0  0
 16 20  1  0  0  0  0
 16 17  1  0  0  0  0
 16 47  1  0  0  0  0
 17 18  1  0  0  0  0
 17 48  1  0  0  0  0
 17 49  1  0  0  0  0
 18 19  1  0  0  0  0
 18 50  1  0  0  0  0
 18 51  1  0  0  0  0
 19 20  1  0  0  0  0
 19 52  1  0  0  0  0
 19 53  1  0  0  0  0
 20 21  1  0  0  0  0
 20 54  1  0  0  0  0
 21 55  1  0  0  0  0
 22 23  1  0  0  0  0
 23 24  2  0  0  0  0
 23 56  1  0  0  0  0
 24 25  1  0  0  0  0
 26 30  1  0  0  0  0
 26 27  1  0  0  0  0
 26 57  1  0  0  0  0
 27 28  1  0  0  0  0
 27 58  1  0  0  0  0
 27 59  1  0  0  0  0
 28 29  1  0  0  0  0
 28 60  1  0  0  0  0
 28 61  1  0  0  0  0
 29 30  1  0  0  0  0
 30 62  1  0  0  0  0
 30 63  1  0  0  0  0
M  END
> <s_m_source_file>
AV-unprocessed.smi

> <i_m_source_file_index>
148

> <i_lp_mmshare_version>
43012

> <i_f3d_flags>
0

> <s_epik_input>
W0NIMl0xT1tDSDJdW0NIMl1bQ0BIXTFbQ0BIXShbQ0gyXVtPSF0pW0NIMl1uKFtjSF1uMiljKGMyMyluW2NIXW5jM040W0NIMl1bQ0gyXVtDSDJdW0NIMl1bQ0BIXTRbQ0BASF01W0NIMl1bQ0gyXVtDSDJdW0NASF01W09IXQ==

> <s_epik_cmdline>
J2VwaWtfcHl0aG9uJywgJy1waCcsICc3LjAnLCAnLXRuJywgJzgnLCAnLW1hJywgJzIwMCcsICctbWV0YWxfYmluZGluZycsICctaW1hZScsICc8aW5maWxlLm1hZT4nLCAnLW9tYWUnLCAnPG91dGZpbGUubWFlPic=

> <r_lp_tautomer_probability>
1

> <r_epik_Ionization_Penalty>
0.00556303

> <r_epik_Ionization_Penalty_Charging>
0

> <r_epik_Ionization_Penalty_Neutral>
0.00556303

> <r_epik_State_Penalty>
0.00401767

> <r_epik_Charging_Adjusted_Penalty>
0.00401767

> <i_epik_Tot_Q>
0

> <i_epik_Tot_abs_Q>
0

> <r_epik_Metal_State_Penalty>
-0

> <b_epik_Metal_Only>
0

> <s_lp_Force_Field>
OPLS_2005

> <r_lp_Energy>
68.457

> <b_lp_Chiralities_Consistent>
1

> <s_lp_Variant>
AV-unprocessed.smi:148-1

> <Gold.Version>
5.8.1

> <Gold.Id.Protein>
6NUR|6NUR_protein|mol2

> <Gold.PLP.Fitness>
45.8300

> <Gold.PLP.PLP>
-40.9967

> <Gold.PLP.part.hbond>
-2.9967

> <Gold.PLP.part.metal>
0.0000

> <Gold.PLP.part.buried>
-6.4140

> <Gold.PLP.part.nonpolar>
-31.4776

> <Gold.PLP.part.repulsive>
0.0778

> <Gold.PLP.ligand.clash>
0.0000

> <Gold.PLP.ligand.torsion>
0.4814

> <Gold.PLP.Chemscore.Hbond>
1.0998

> <Gold.PLP.Chemscore.CHOScore>
0.6991

> <Gold.PLP.Chemscore.Metal>
0.0000

> <Gold.Chemscore.Hbonds>
donor molecule, donor type, donor heavy atom, donor atom, acceptor molecule, acceptor atom, score
      L1  H     1    31       P1  7948  0.41
      P1  H  6896  6907       L1    24  0.05
      P1  H  6934  6946       L1    21  0.23
      L1  C     6    37       P1  7949  0.57

> <Gold.PLP.Chemscore.Internal.Correction>
0.3991

> <Gold.Rescore>
     Score         DG    S(hbond)    S(metal)    S(lipo)     H(rot)  DE(clash)    DE(int)     intcor
      9.86     -11.73       1.46        0.00      84.33       3.32       0.00       1.87       ----

> <Gold.Chemscore.Fitness>
9.8606

> <Gold.Chemscore.DG>
-11.7317

> <Gold.Chemscore.ZeroCoef>
-5.4800

> <Gold.Chemscore.Hbond>
1.4627

> <Gold.Chemscore.Metal>
0.0000

> <Gold.Chemscore.Lipo>
84.3278

> <Gold.Chemscore.Internal_Hbond>
0.0000

> <Gold.Chemscore.DEClash>
0.0000

> <Gold.Chemscore.DEInternal>
1.8712

> <Gold.Chemscore.Rot>
3.3203

> <Gold.Chemscore.Internal.Correction>
   9.000000E+99

> <Gold.Chemscore.Hbonds>
donor molecule, donor type, donor heavy atom, donor atom, acceptor molecule, acceptor atom, score
      L1  H     1    31       P1  7948  0.41
      P1  H  6896  6907       L1    24  0.01
      P1  H  6934  6946       L1    21  0.09

> <Gold.Chemscore.Hbond.Weighted>
-4.8854

> <Gold.Chemscore.Metal.Weighted>
-0.0000

> <Gold.Chemscore.Lipo.Weighted>
-9.8663

> <Gold.Chemscore.Internal_Hbond.Weighted>
0.0000

> <Gold.Chemscore.DEClash.Weighted>
0.0000

> <Gold.Chemscore.DEInternal.Weighted>
1.8712

> <Gold.Chemscore.Rot.Weighted>
8.5000

> <Gold.Chemscore.Internal.Correction.Weighted>
   9.000000E+99

> <Gold.Protein.RotatedTorsions>
[ 6907 6896 6895 6894 ] final  -89.99 input  -60.11 | X-H torsion
[ 7974 7965 7964 7962 ] final  -12.56 input  175.53 | X-H torsion
[ 8008 7997 7996 7995 ] final   86.50 input   59.86 | X-H torsion
[ 10167 10162 10161 10158 ] final  159.55 input  -65.29 | X-H torsion
[ 10718 10713 10712 10709 ] final   59.19 input   66.30 | X-H torsion
[ 10763 10752 10751 10750 ] final -163.28 input  -60.55 | X-H torsion
[ 11005 11000 10999 10996 ] final  169.43 input  -57.11 | X-H torsion

> <Gold.Protein.ActiveResidues>
 VAL166  LYS551  ARG553  GLY616  TRP617  ASP618  TYR619  PRO620  LYS621  CYS622 
 ASP623  PHE694  ASN695  SER759  ASP760  ASP761  ALA762  ILE779  LEU786  VAL792 
 PHE793  MET794  SER795  GLU796  ALA797  LYS798  CYS799  TRP800  GLU811  SER814 

> <Gold.Protein.RotatedAtoms>
  150.6878  134.2501  159.4506 H   0  0  0  0  0  0  0  0  0  0  0  0  # atno 6907 bound_to 6896
  152.0439  134.9692  160.0583 H   0  0  0  0  0  0  0  0  0  0  0  0  # atno 6908 bound_to 6896
  152.1183  133.4304  159.4700 H   0  0  0  0  0  0  0  0  0  0  0  0  # atno 6909 bound_to 6896
  146.2147  140.3075  142.8380 H   0  0  0  0  0  0  0  0  0  0  0  0  # atno 7974 bound_to 7965
  155.9635  140.3391  155.6512 H   0  0  0  0  0  0  0  0  0  0  0  0  # atno 8008 bound_to 7997
  155.6767  140.0733  157.2518 H   0  0  0  0  0  0  0  0  0  0  0  0  # atno 8009 bound_to 7997
  154.4149  140.1682  156.1925 H   0  0  0  0  0  0  0  0  0  0  0  0  # atno 8010 bound_to 7997
  139.4833  144.4719  151.8564 H   0  0  0  0  0  0  0  0  0  0  0  0  # atno 10167 bound_to 10162
  157.5656  130.8868  149.9182 H   0  0  0  0  0  0  0  0  0  0  0  0  # atno 10718 bound_to 10713
  154.7137  135.3011  154.9157 H   0  0  0  0  0  0  0  0  0  0  0  0  # atno 10763 bound_to 10752
  154.0050  135.6702  153.4765 H   0  0  0  0  0  0  0  0  0  0  0  0  # atno 10764 bound_to 10752
  153.0776  135.5026  154.8351 H   0  0  0  0  0  0  0  0  0  0  0  0  # atno 10765 bound_to 10752
  140.2977  134.7621  157.3890 H   0  0  0  0  0  0  0  0  0  0  0  0  # atno 11005 bound_to 11000
  144.9012  140.7645  143.5866 LP  0  0  0  0  0  0  0  0  0  0  0  0  # atno 17320 bound_to 7965
  145.3001  139.1853  143.4694 LP  0  0  0  0  0  0  0  0  0  0  0  0  # atno 17321 bound_to 7965
  140.4189  144.2270  150.5887 LP  0  0  0  0  0  0  0  0  0  0  0  0  # atno 17342 bound_to 10162
  140.4894  143.2352  151.8841 LP  0  0  0  0  0  0  0  0  0  0  0  0  # atno 17343 bound_to 10162
  156.0705  130.3686  150.0786 LP  0  0  0  0  0  0  0  0  0  0  0  0  # atno 17370 bound_to 10713
  156.8945  130.9600  151.3584 LP  0  0  0  0  0  0  0  0  0  0  0  0  # atno 17371 bound_to 10713
  140.1138  134.5310  155.8243 LP  0  0  0  0  0  0  0  0  0  0  0  0  # atno 17394 bound_to 11000
  141.2134  133.6733  156.6738 LP  0  0  0  0  0  0  0  0  0  0  0  0  # atno 17395 bound_to 11000

$$$$
