AV-unprocessed.smi:2177|AV-procd|sdf|8849|dock6
  -GOLD-   2272012 43D 1   1.00000     0.00000
 Structure written by MMmdl.
 42 43  0  0  0  0  0  0  0  0  1 V2000
  154.2376  140.8504  160.4897 C   0  0  0  0  0  0  0  0  0  0  0  0
  153.2354  141.6978  159.7592 C   0  0  0  0  0  0  0  0  0  0  0  0
  153.2557  143.0109  159.9160 N   0  0  0  0  0  0  0  0  0  0  0  0
  152.2449  143.4648  159.1484 N   0  0  0  0  0  0  0  0  0  0  0  0
  151.9828  144.8898  159.0926 C   0  0  0  0  0  0  0  0  0  0  0  0
  151.5891  142.4368  158.4990 C   0  0  0  0  0  0  0  0  0  0  0  0
  150.4281  142.6818  157.5894 C   0  0  0  0  0  0  0  0  0  0  0  0
  152.2034  141.2711  158.8729 C   0  0  0  0  0  0  0  0  0  0  0  0
  151.8796  139.8556  158.4644 C   0  0  0  0  0  0  0  0  0  0  0  0
  151.7495  139.7718  156.9434 C   0  0  0  0  0  0  0  0  0  0  0  0
  152.7495  139.5862  156.2505 O   0  0  0  0  0  0  0  0  0  0  0  0
  150.5114  139.9102  156.4428 N   0  0  0  0  0  0  0  0  0  0  0  0
  150.1462  139.8424  155.0308 C   0  0  1  0  0  0  0  0  0  0  0  0
  150.4676  138.4313  154.5154 C   0  0  0  0  0  0  0  0  0  0  0  0
  148.6572  140.2050  154.8564 C   0  0  2  0  0  0  0  0  0  0  0  0
  148.1349  140.0935  153.4231 C   0  0  0  0  0  0  0  0  0  0  0  0
  146.9573  141.0552  153.3920 C   0  0  0  0  0  0  0  0  0  0  0  0
  147.1410  141.9110  154.6478 C   0  0  0  0  0  0  0  0  0  0  0  0
  148.4320  141.5781  155.1372 O   0  0  0  0  0  0  0  0  0  0  0  0
  153.7413  140.0610  161.0545 H   0  0  0  0  0  0  0  0  0  0  0  0
  154.8294  141.4371  161.1930 H   0  0  0  0  0  0  0  0  0  0  0  0
  154.9268  140.3751  159.7917 H   0  0  0  0  0  0  0  0  0  0  0  0
  152.3620  145.2938  158.1539 H   0  0  0  0  0  0  0  0  0  0  0  0
  152.4701  145.4023  159.9230 H   0  0  0  0  0  0  0  0  0  0  0  0
  150.9096  145.0722  159.1526 H   0  0  0  0  0  0  0  0  0  0  0  0
  150.1514  141.7787  157.0465 H   0  0  0  0  0  0  0  0  0  0  0  0
  150.6643  143.4515  156.8546 H   0  0  0  0  0  0  0  0  0  0  0  0
  149.5573  143.0099  158.1570 H   0  0  0  0  0  0  0  0  0  0  0  0
  152.6452  139.1532  158.7947 H   0  0  0  0  0  0  0  0  0  0  0  0
  150.9486  139.5175  158.9206 H   0  0  0  0  0  0  0  0  0  0  0  0
  149.7576  140.0615  157.0969 H   0  0  0  0  0  0  0  0  0  0  0  0
  150.7508  140.5491  154.4594 H   0  0  0  0  0  0  0  0  0  0  0  0
  150.2680  138.3416  153.4476 H   0  0  0  0  0  0  0  0  0  0  0  0
  149.8736  137.6753  155.0302 H   0  0  0  0  0  0  0  0  0  0  0  0
  151.5196  138.1892  154.6695 H   0  0  0  0  0  0  0  0  0  0  0  0
  148.0373  139.6033  155.5244 H   0  0  0  0  0  0  0  0  0  0  0  0
  148.8960  140.4299  152.7180 H   0  0  0  0  0  0  0  0  0  0  0  0
  147.8550  139.0747  153.1546 H   0  0  0  0  0  0  0  0  0  0  0  0
  146.9720  141.6597  152.4847 H   0  0  0  0  0  0  0  0  0  0  0  0
  146.0058  140.5238  153.4263 H   0  0  0  0  0  0  0  0  0  0  0  0
  147.0630  142.9790  154.4432 H   0  0  0  0  0  0  0  0  0  0  0  0
  146.3949  141.6529  155.4003 H   0  0  0  0  0  0  0  0  0  0  0  0
  1  2  1  0  0  0  0
  1 20  1  0  0  0  0
  1 21  1  0  0  0  0
  1 22  1  0  0  0  0
  2  8  1  0  0  0  0
  2  3  2  0  0  0  0
  3  4  1  0  0  0  0
  4  5  1  0  0  0  0
  4  6  1  0  0  0  0
  5 23  1  0  0  0  0
  5 24  1  0  0  0  0
  5 25  1  0  0  0  0
  6  7  1  0  0  0  0
  6  8  2  0  0  0  0
  7 26  1  0  0  0  0
  7 27  1  0  0  0  0
  7 28  1  0  0  0  0
  8  9  1  0  0  0  0
  9 10  1  0  0  0  0
  9 29  1  0  0  0  0
  9 30  1  0  0  0  0
 10 11  2  0  0  0  0
 10 12  1  0  0  0  0
 12 13  1  0  0  0  0
 12 31  1  0  0  0  0
 13 14  1  0  0  0  0
 13 15  1  0  0  0  0
 13 32  1  0  0  0  0
 14 33  1  0  0  0  0
 14 34  1  0  0  0  0
 14 35  1  0  0  0  0
 15 19  1  0  0  0  0
 15 16  1  0  0  0  0
 15 36  1  0  0  0  0
 16 17  1  0  0  0  0
 16 37  1  0  0  0  0
 16 38  1  0  0  0  0
 17 18  1  0  0  0  0
 17 39  1  0  0  0  0
 17 40  1  0  0  0  0
 18 19  1  0  0  0  0
 18 41  1  0  0  0  0
 18 42  1  0  0  0  0
M  END
> <s_m_source_file>
AV-unprocessed.smi

> <i_m_source_file_index>
2177

> <i_lp_mmshare_version>
43012

> <i_f3d_flags>
0

> <s_epik_input>
W0NIM11jMW5uKFtDSDNdKWMoW0NIM10pYzFbQ0gyXUMoPU8pW05IXVtDQEhdKFtDSDNdKVtDQEBIXTJbQ0gyXVtDSDJdW0NIMl1PMg==

> <s_epik_cmdline>
J2VwaWtfcHl0aG9uJywgJy1waCcsICc3LjAnLCAnLXRuJywgJzgnLCAnLW1hJywgJzIwMCcsICctbWV0YWxfYmluZGluZycsICctaW1hZScsICc8aW5maWxlLm1hZT4nLCAnLW9tYWUnLCAnPG91dGZpbGUubWFlPic=

> <r_lp_tautomer_probability>
1

> <r_epik_Ionization_Penalty>
0.00310467

> <r_epik_Ionization_Penalty_Charging>
0

> <r_epik_Ionization_Penalty_Neutral>
0.00310467

> <r_epik_State_Penalty>
0.00218493

> <r_epik_Charging_Adjusted_Penalty>
0.00218493

> <i_epik_Tot_Q>
0

> <i_epik_Tot_abs_Q>
0

> <r_epik_Metal_State_Penalty>
-0

> <b_epik_Metal_Only>
0

> <s_lp_Force_Field>
OPLS_2005

> <r_lp_Energy>
13.1065

> <b_lp_Chiralities_Consistent>
1

> <s_lp_Variant>
AV-unprocessed.smi:2177-2

> <Gold.Version>
5.8.1

> <Gold.Id.Protein>
6NUR|6NUR_protein|mol2

> <Gold.PLP.Fitness>
41.7787

> <Gold.PLP.PLP>
-39.8345

> <Gold.PLP.part.hbond>
-1.0000

> <Gold.PLP.part.metal>
0.0000

> <Gold.PLP.part.buried>
-0.6118

> <Gold.PLP.part.nonpolar>
-38.2900

> <Gold.PLP.part.repulsive>
0.2025

> <Gold.PLP.ligand.clash>
0.0000

> <Gold.PLP.ligand.torsion>
0.5403

> <Gold.PLP.Chemscore.Hbond>
1.0000

> <Gold.PLP.Chemscore.CHOScore>
0.0000

> <Gold.PLP.Chemscore.Metal>
0.0000

> <Gold.Chemscore.Hbonds>
donor molecule, donor type, donor heavy atom, donor atom, acceptor molecule, acceptor atom, score
      P1  H  7997  8010       L1    11  1.00

> <Gold.PLP.Chemscore.Internal.Correction>
0.0247

> <Gold.Rescore>
     Score         DG    S(hbond)    S(metal)    S(lipo)     H(rot)  DE(clash)    DE(int)     intcor
     16.04     -16.65       0.96        0.00     100.05       1.46       0.21       0.40       ----

> <Gold.Chemscore.Fitness>
16.0392

> <Gold.Chemscore.DG>
-16.6454

> <Gold.Chemscore.ZeroCoef>
-5.4800

> <Gold.Chemscore.Hbond>
0.9592

> <Gold.Chemscore.Metal>
0.0000

> <Gold.Chemscore.Lipo>
100.0513

> <Gold.Chemscore.Internal_Hbond>
0.0000

> <Gold.Chemscore.DEClash>
0.2052

> <Gold.Chemscore.DEInternal>
0.4009

> <Gold.Chemscore.Rot>
1.4627

> <Gold.Chemscore.Internal.Correction>
   9.000000E+99

> <Gold.Chemscore.Hbonds>
donor molecule, donor type, donor heavy atom, donor atom, acceptor molecule, acceptor atom, score
      P1  H  7997  8010       L1    11  0.99

> <Gold.Chemscore.Hbond.Weighted>
-3.2038

> <Gold.Chemscore.Metal.Weighted>
-0.0000

> <Gold.Chemscore.Lipo.Weighted>
-11.7060

> <Gold.Chemscore.Internal_Hbond.Weighted>
0.0000

> <Gold.Chemscore.DEClash.Weighted>
0.2052

> <Gold.Chemscore.DEInternal.Weighted>
0.4009

> <Gold.Chemscore.Rot.Weighted>
3.7445

> <Gold.Chemscore.Internal.Correction.Weighted>
   9.000000E+99

> <Gold.Protein.RotatedTorsions>
[ 6907 6896 6895 6894 ] final  -21.46 input  -60.11 | X-H torsion
[ 7974 7965 7964 7962 ] final -116.65 input  175.53 | X-H torsion
[ 8008 7997 7996 7995 ] final   62.60 input   59.86 | X-H torsion
[ 10167 10162 10161 10158 ] final -155.18 input  -65.29 | X-H torsion
[ 10718 10713 10712 10709 ] final  178.64 input   66.30 | X-H torsion
[ 10763 10752 10751 10750 ] final -109.00 input  -60.55 | X-H torsion
[ 11005 11000 10999 10996 ] final  -75.84 input  -57.11 | X-H torsion

> <Gold.Protein.ActiveResidues>
 VAL166  LYS551  ARG553  GLY616  TRP617  ASP618  TYR619  PRO620  LYS621  CYS622 
 ASP623  PHE694  ASN695  SER759  ASP760  ASP761  ALA762  ILE779  LEU786  VAL792 
 PHE793  MET794  SER795  GLU796  ALA797  LYS798  CYS799  TRP800  GLU811  SER814 

> <Gold.Protein.RotatedAtoms>
  151.2330  135.0561  159.8995 H   0  0  0  0  0  0  0  0  0  0  0  0  # atno 6907 bound_to 6896
  152.5402  134.0516  159.8122 H   0  0  0  0  0  0  0  0  0  0  0  0  # atno 6908 bound_to 6896
  151.0698  133.5426  159.2659 H   0  0  0  0  0  0  0  0  0  0  0  0  # atno 6909 bound_to 6896
  145.0943  140.8510  143.3964 H   0  0  0  0  0  0  0  0  0  0  0  0  # atno 7974 bound_to 7965
  155.6168  140.3495  155.4639 H   0  0  0  0  0  0  0  0  0  0  0  0  # atno 8008 bound_to 7997
  156.0110  140.1233  157.0477 H   0  0  0  0  0  0  0  0  0  0  0  0  # atno 8009 bound_to 7997
  154.4281  140.1081  156.5816 H   0  0  0  0  0  0  0  0  0  0  0  0  # atno 8010 bound_to 7997
  139.6952  143.9354  152.2403 H   0  0  0  0  0  0  0  0  0  0  0  0  # atno 10167 bound_to 10162
  156.8876  130.9837  151.3054 H   0  0  0  0  0  0  0  0  0  0  0  0  # atno 10718 bound_to 10713
  154.8168  135.4617  154.0666 H   0  0  0  0  0  0  0  0  0  0  0  0  # atno 10763 bound_to 10752
  153.2052  135.6874  153.8188 H   0  0  0  0  0  0  0  0  0  0  0  0  # atno 10764 bound_to 10752
  153.7659  135.3277  155.3321 H   0  0  0  0  0  0  0  0  0  0  0  0  # atno 10765 bound_to 10752
  141.1649  133.6961  156.7578 H   0  0  0  0  0  0  0  0  0  0  0  0  # atno 11005 bound_to 11000
  145.1029  139.2810  143.5677 LP  0  0  0  0  0  0  0  0  0  0  0  0  # atno 17320 bound_to 7965
  146.3531  140.0602  142.8630 LP  0  0  0  0  0  0  0  0  0  0  0  0  # atno 17321 bound_to 7965
  139.9181  144.6816  150.8490 LP  0  0  0  0  0  0  0  0  0  0  0  0  # atno 17342 bound_to 10162
  140.7694  143.3394  151.2239 LP  0  0  0  0  0  0  0  0  0  0  0  0  # atno 17343 bound_to 10162
  157.6103  130.8578  149.8941 LP  0  0  0  0  0  0  0  0  0  0  0  0  # atno 17370 bound_to 10713
  156.0645  130.3694  150.0909 LP  0  0  0  0  0  0  0  0  0  0  0  0  # atno 17371 bound_to 10713
  140.2556  134.8507  157.3709 LP  0  0  0  0  0  0  0  0  0  0  0  0  # atno 17394 bound_to 11000
  140.1660  134.4668  155.7862 LP  0  0  0  0  0  0  0  0  0  0  0  0  # atno 17395 bound_to 11000

$$$$
