AV-unprocessed.smi:2511|AV-procd|sdf|9887|dock6
  -GOLD-   2272013523D 1   1.00000     0.00000
 Structure written by MMmdl.
 40 41  0  0  0  0  0  0  0  0  1 V2000
  142.8976  132.2305  150.3050 N   0  0  0  0  0  0  0  0  0  0  0  0
  144.0793  132.3459  150.9203 C   0  0  0  0  0  0  0  0  0  0  0  0
  144.7338  131.3648  151.2699 O   0  0  0  0  0  0  0  0  0  0  0  0
  144.5928  133.7464  151.1239 C   0  0  0  0  0  0  0  0  0  0  0  0
  145.3695  134.0532  152.2644 C   0  0  0  0  0  0  0  0  0  0  0  0
  145.8343  135.3700  152.4442 C   0  0  0  0  0  0  0  0  0  0  0  0
  145.5110  136.3477  151.4744 C   0  0  0  0  0  0  0  0  0  0  0  0
  145.9032  137.7114  151.5448 N   0  0  0  0  0  0  0  0  0  0  0  0
  146.4938  138.3717  152.5606 C   0  0  0  0  0  0  0  0  0  0  0  0
  146.7858  137.8731  153.6453 O   0  0  0  0  0  0  0  0  0  0  0  0
  146.7736  139.6604  152.2923 N   0  0  0  0  0  0  0  0  0  0  0  0
  147.4067  140.6567  153.1597 C   0  0  1  0  0  0  0  0  0  0  0  0
  146.3523  141.2434  154.1154 C   0  0  0  0  0  0  0  0  0  0  0  0
  146.9798  142.2515  155.0894 C   0  0  0  0  0  0  0  0  0  0  0  0
  148.1407  141.6210  155.8741 C   0  0  0  0  0  0  0  0  0  0  0  0
  149.2141  141.0382  154.9310 C   0  0  1  0  0  0  0  0  0  0  0  0
  150.3937  140.4187  155.7089 C   0  0  0  0  0  0  0  0  0  0  0  0
  149.9559  139.5662  156.6360 F   0  0  0  0  0  0  0  0  0  0  0  0
  151.2012  139.7677  154.8714 F   0  0  0  0  0  0  0  0  0  0  0  0
  151.1009  141.3786  156.3053 F   0  0  0  0  0  0  0  0  0  0  0  0
  148.5713  140.0288  153.9558 C   0  0  0  0  0  0  0  0  0  0  0  0
  144.7143  135.9479  150.3827 C   0  0  0  0  0  0  0  0  0  0  0  0
  144.2678  134.6871  150.2039 N   0  0  0  0  0  0  0  0  0  0  0  0
  142.5008  131.3167  150.1426 H   0  0  0  0  0  0  0  0  0  0  0  0
  142.4088  133.0631  150.0088 H   0  0  0  0  0  0  0  0  0  0  0  0
  145.6097  133.2957  152.9965 H   0  0  0  0  0  0  0  0  0  0  0  0
  146.4135  135.6013  153.3242 H   0  0  0  0  0  0  0  0  0  0  0  0
  145.7850  138.2376  150.6914 H   0  0  0  0  0  0  0  0  0  0  0  0
  146.5184  139.9870  151.3712 H   0  0  0  0  0  0  0  0  0  0  0  0
  147.7907  141.4770  152.5505 H   0  0  0  0  0  0  0  0  0  0  0  0
  145.5597  141.7298  153.5452 H   0  0  0  0  0  0  0  0  0  0  0  0
  145.8776  140.4413  154.6828 H   0  0  0  0  0  0  0  0  0  0  0  0
  147.3408  143.1193  154.5360 H   0  0  0  0  0  0  0  0  0  0  0  0
  146.2216  142.6197  155.7813 H   0  0  0  0  0  0  0  0  0  0  0  0
  148.5835  142.3721  156.5287 H   0  0  0  0  0  0  0  0  0  0  0  0
  147.7538  140.8360  156.5248 H   0  0  0  0  0  0  0  0  0  0  0  0
  149.6146  141.8615  154.3369 H   0  0  0  0  0  0  0  0  0  0  0  0
  148.2089  139.1631  154.5121 H   0  0  0  0  0  0  0  0  0  0  0  0
  149.3294  139.6529  153.2685 H   0  0  0  0  0  0  0  0  0  0  0  0
  144.4284  136.6614  149.6234 H   0  0  0  0  0  0  0  0  0  0  0  0
  1  2  1  0  0  0  0
  1 24  1  0  0  0  0
  1 25  1  0  0  0  0
  2  3  2  0  0  0  0
  2  4  1  0  0  0  0
  4 23  1  0  0  0  0
  4  5  2  0  0  0  0
  5  6  1  0  0  0  0
  5 26  1  0  0  0  0
  6  7  2  0  0  0  0
  6 27  1  0  0  0  0
  7  8  1  0  0  0  0
  7 22  1  0  0  0  0
  8  9  1  0  0  0  0
  8 28  1  0  0  0  0
  9 10  2  0  0  0  0
  9 11  1  0  0  0  0
 11 12  1  0  0  0  0
 11 29  1  0  0  0  0
 12 21  1  0  0  0  0
 12 13  1  0  0  0  0
 12 30  1  0  0  0  0
 13 14  1  0  0  0  0
 13 31  1  0  0  0  0
 13 32  1  0  0  0  0
 14 15  1  0  0  0  0
 14 33  1  0  0  0  0
 14 34  1  0  0  0  0
 15 16  1  0  0  0  0
 15 35  1  0  0  0  0
 15 36  1  0  0  0  0
 16 17  1  0  0  0  0
 16 21  1  0  0  0  0
 16 37  1  0  0  0  0
 17 18  1  0  0  0  0
 17 19  1  0  0  0  0
 17 20  1  0  0  0  0
 21 38  1  0  0  0  0
 21 39  1  0  0  0  0
 22 23  2  0  0  0  0
 22 40  1  0  0  0  0
M  END
> <s_m_source_file>
AV-unprocessed.smi

> <i_m_source_file_index>
2511

> <i_lp_mmshare_version>
43012

> <i_f3d_flags>
0

> <s_epik_input>
W05IMl1DKD1PKWMxW2NIXVtjSF1jKFtjSF1uMSlbTkhdQyg9TylbTkhdW0NAQEhdMltDSDJdW0NIMl1bQ0gyXVtDQEBIXShDKEYpKEYpRilbQ0gyXTI=

> <s_epik_cmdline>
J2VwaWtfcHl0aG9uJywgJy1waCcsICc3LjAnLCAnLXRuJywgJzgnLCAnLW1hJywgJzIwMCcsICctbWV0YWxfYmluZGluZycsICctaW1hZScsICc8aW5maWxlLm1hZT4nLCAnLW9tYWUnLCAnPG91dGZpbGUubWFlPic=

> <r_lp_tautomer_probability>
1

> <r_epik_Ionization_Penalty>
4.28758e-05

> <r_epik_Ionization_Penalty_Charging>
0

> <r_epik_Ionization_Penalty_Neutral>
4.28758e-05

> <r_epik_State_Penalty>
-0

> <r_epik_Charging_Adjusted_Penalty>
0

> <i_epik_Tot_Q>
0

> <i_epik_Tot_abs_Q>
0

> <r_epik_Metal_State_Penalty>
-0

> <b_epik_Metal_Only>
0

> <s_lp_Force_Field>
OPLS_2005

> <r_lp_Energy>
28.5247

> <b_lp_Chiralities_Consistent>
1

> <s_lp_Variant>
AV-unprocessed.smi:2511-2

> <Gold.Version>
5.8.1

> <Gold.Id.Protein>
6NUR|6NUR_protein|mol2

> <Gold.PLP.Fitness>
45.0925

> <Gold.PLP.PLP>
-37.5102

> <Gold.PLP.part.hbond>
-4.3923

> <Gold.PLP.part.metal>
0.0000

> <Gold.PLP.part.buried>
2.0717

> <Gold.PLP.part.nonpolar>
-36.1293

> <Gold.PLP.part.repulsive>
0.7878

> <Gold.PLP.ligand.clash>
0.0000

> <Gold.PLP.ligand.torsion>
0.9483

> <Gold.PLP.Chemscore.Hbond>
2.1678

> <Gold.PLP.Chemscore.CHOScore>
0.9837

> <Gold.PLP.Chemscore.Metal>
0.0000

> <Gold.Chemscore.Hbonds>
donor molecule, donor type, donor heavy atom, donor atom, acceptor molecule, acceptor atom, score
      L1  H     1    24       P1 10952  0.86
      L1  H     1    25       P1 10186  1.00
      L1  H     8    28       P1 10171  0.37
      L1  C    22    40       P1 10171  0.88

> <Gold.PLP.Chemscore.Internal.Correction>
0.0241

> <Gold.Rescore>
     Score         DG    S(hbond)    S(metal)    S(lipo)     H(rot)  DE(clash)    DE(int)     intcor
     13.65     -18.54       2.50        0.00      62.07       1.00       1.56       3.33       ----

> <Gold.Chemscore.Fitness>
13.6455

> <Gold.Chemscore.DG>
-18.5392

> <Gold.Chemscore.ZeroCoef>
-5.4800

> <Gold.Chemscore.Hbond>
2.5020

> <Gold.Chemscore.Metal>
0.0000

> <Gold.Chemscore.Lipo>
62.0738

> <Gold.Chemscore.Internal_Hbond>
0.0000

> <Gold.Chemscore.DEClash>
1.5644

> <Gold.Chemscore.DEInternal>
3.3293

> <Gold.Chemscore.Rot>
1.0000

> <Gold.Chemscore.Internal.Correction>
   9.000000E+99

> <Gold.Chemscore.Hbonds>
donor molecule, donor type, donor heavy atom, donor atom, acceptor molecule, acceptor atom, score
      L1  H     1    24       P1 10952  0.66
      L1  H     1    25       P1 10186  0.96
      L1  H     8    28       P1 10171  0.37

> <Gold.Chemscore.Hbond.Weighted>
-8.3566

> <Gold.Chemscore.Metal.Weighted>
-0.0000

> <Gold.Chemscore.Lipo.Weighted>
-7.2626

> <Gold.Chemscore.Internal_Hbond.Weighted>
0.0000

> <Gold.Chemscore.DEClash.Weighted>
1.5644

> <Gold.Chemscore.DEInternal.Weighted>
3.3293

> <Gold.Chemscore.Rot.Weighted>
2.5600

> <Gold.Chemscore.Internal.Correction.Weighted>
   9.000000E+99

> <Gold.Protein.RotatedTorsions>
[ 6907 6896 6895 6894 ] final  -66.57 input  -60.11 | X-H torsion
[ 7974 7965 7964 7962 ] final   26.37 input  175.53 | X-H torsion
[ 8008 7997 7996 7995 ] final  166.29 input   59.86 | X-H torsion
[ 10167 10162 10161 10158 ] final   46.58 input  -65.29 | X-H torsion
[ 10718 10713 10712 10709 ] final -104.96 input   66.30 | X-H torsion
[ 10763 10752 10751 10750 ] final   30.66 input  -60.55 | X-H torsion
[ 11005 11000 10999 10996 ] final  139.83 input  -57.11 | X-H torsion

> <Gold.Protein.ActiveResidues>
 VAL166  LYS551  ARG553  GLY616  TRP617  ASP618  TYR619  PRO620  LYS621  CYS622 
 ASP623  PHE694  ASN695  SER759  ASP760  ASP761  ALA762  ILE779  LEU786  VAL792 
 PHE793  MET794  SER795  GLU796  ALA797  LYS798  CYS799  TRP800  GLU811  SER814 

> <Gold.Protein.RotatedAtoms>
  150.7458  134.6002  159.6032 H   0  0  0  0  0  0  0  0  0  0  0  0  # atno 6907 bound_to 6896
  152.3365  134.7188  160.0284 H   0  0  0  0  0  0  0  0  0  0  0  0  # atno 6908 bound_to 6896
  151.7654  133.3301  159.3466 H   0  0  0  0  0  0  0  0  0  0  0  0  # atno 6909 bound_to 6896
  146.1841  139.7338  142.8879 H   0  0  0  0  0  0  0  0  0  0  0  0  # atno 7974 bound_to 7965
  156.1731  140.1647  156.8412 H   0  0  0  0  0  0  0  0  0  0  0  0  # atno 8008 bound_to 7997
  154.5277  140.0763  156.8323 H   0  0  0  0  0  0  0  0  0  0  0  0  # atno 8009 bound_to 7997
  155.3471  140.3388  155.4241 H   0  0  0  0  0  0  0  0  0  0  0  0  # atno 8010 bound_to 7997
  140.3125  144.2803  150.6197 H   0  0  0  0  0  0  0  0  0  0  0  0  # atno 10167 bound_to 10162
  156.0326  130.5540  150.7470 H   0  0  0  0  0  0  0  0  0  0  0  0  # atno 10718 bound_to 10713
  153.0359  135.6458  154.1080 H   0  0  0  0  0  0  0  0  0  0  0  0  # atno 10763 bound_to 10752
  154.0794  135.2874  155.3295 H   0  0  0  0  0  0  0  0  0  0  0  0  # atno 10764 bound_to 10752
  154.6540  135.5416  153.8000 H   0  0  0  0  0  0  0  0  0  0  0  0  # atno 10765 bound_to 10752
  140.0283  134.9364  157.0613 H   0  0  0  0  0  0  0  0  0  0  0  0  # atno 11005 bound_to 11000
  145.3990  141.0382  143.3081 LP  0  0  0  0  0  0  0  0  0  0  0  0  # atno 17320 bound_to 7965
  144.8366  139.5540  143.6919 LP  0  0  0  0  0  0  0  0  0  0  0  0  # atno 17321 bound_to 7965
  140.5556  143.2199  151.7854 LP  0  0  0  0  0  0  0  0  0  0  0  0  # atno 17342 bound_to 10162
  139.4891  144.4419  151.9755 LP  0  0  0  0  0  0  0  0  0  0  0  0  # atno 17343 bound_to 10162
  157.5024  131.0919  151.0297 LP  0  0  0  0  0  0  0  0  0  0  0  0  # atno 17370 bound_to 10713
  157.0675  130.5850  149.5396 LP  0  0  0  0  0  0  0  0  0  0  0  0  # atno 17371 bound_to 10713
  140.4268  134.1822  155.7166 LP  0  0  0  0  0  0  0  0  0  0  0  0  # atno 17394 bound_to 11000
  141.1816  133.8402  157.1237 LP  0  0  0  0  0  0  0  0  0  0  0  0  # atno 17395 bound_to 11000

$$$$
