AV-unprocessed.smi:111|AV-procd|sdf|1080|dock3
  -GOLD-   2262018173D 1   1.00000     0.00000
 Structure written by MMmdl.
 46 48  0  0  0  0  0  0  0  0  1 V2000
  147.7611  138.5564  157.1939 O   0  0  0  0  0  0  0  0  0  0  0  0
  148.3427  137.5896  156.6985 C   0  0  0  0  0  0  0  0  0  0  0  0
  147.6463  136.4210  156.1728 C   0  0  0  0  0  0  0  0  0  0  0  0
  146.3051  136.3632  156.2336 F   0  0  0  0  0  0  0  0  0  0  0  0
  148.3277  135.3898  155.6300 C   0  0  0  0  0  0  0  0  0  0  0  0
  149.7080  135.3658  155.5305 N   0  0  0  0  0  0  0  0  0  0  0  0
  150.4236  134.1883  154.9079 C   0  0  1  0  0  0  0  0  0  0  0  0
  151.1439  133.3706  155.9860 C   0  0  0  0  0  0  0  0  0  0  0  0
  150.1565  132.2538  156.2480 C   0  0  0  0  0  0  0  0  0  0  0  0
  149.5511  132.0499  154.8648 C   0  0  0  0  0  0  0  0  0  0  0  0
  149.4795  133.3549  154.2990 O   0  0  0  0  0  0  0  0  0  0  0  0
  150.4675  136.4425  156.0385 C   0  0  0  0  0  0  0  0  0  0  0  0
  151.6995  136.4173  155.9940 O   0  0  0  0  0  0  0  0  0  0  0  0
  149.7558  137.5295  156.6037 N   0  0  0  0  0  0  0  0  0  0  0  0
  150.5080  138.6569  157.1406 C   0  0  0  0  0  0  0  0  0  0  0  0
  150.3386  139.9709  156.3421 C   0  0  2  0  0  0  0  0  0  0  0  0
  151.2683  139.9673  155.2784 O   0  0  0  0  0  0  0  0  0  0  0  0
  150.5250  141.2629  157.1732 C   0  0  0  0  0  0  0  0  0  0  0  0
  151.7693  141.2408  158.0776 C   0  0  0  0  0  0  0  0  0  0  0  0
  151.8582  142.4606  158.9798 C   0  0  0  0  0  0  0  0  0  0  0  0
  152.3081  142.3349  160.3114 C   0  0  0  0  0  0  0  0  0  0  0  0
  152.4095  143.4730  161.1349 C   0  0  0  0  0  0  0  0  0  0  0  0
  152.0552  144.7401  160.6331 C   0  0  0  0  0  0  0  0  0  0  0  0
  151.5982  144.8683  159.3077 C   0  0  0  0  0  0  0  0  0  0  0  0
  151.5011  143.7315  158.4826 C   0  0  0  0  0  0  0  0  0  0  0  0
  147.7577  134.5489  155.2641 H   0  0  0  0  0  0  0  0  0  0  0  0
  151.0897  134.5948  154.1456 H   0  0  0  0  0  0  0  0  0  0  0  0
  152.0660  132.9721  155.5612 H   0  0  0  0  0  0  0  0  0  0  0  0
  151.3900  133.9662  156.8653 H   0  0  0  0  0  0  0  0  0  0  0  0
  150.6241  131.3536  156.6474 H   0  0  0  0  0  0  0  0  0  0  0  0
  149.3891  132.5814  156.9494 H   0  0  0  0  0  0  0  0  0  0  0  0
  150.2077  131.4343  154.2486 H   0  0  0  0  0  0  0  0  0  0  0  0
  148.5706  131.5747  154.8997 H   0  0  0  0  0  0  0  0  0  0  0  0
  150.2527  138.7935  158.1917 H   0  0  0  0  0  0  0  0  0  0  0  0
  151.5521  138.3368  157.1490 H   0  0  0  0  0  0  0  0  0  0  0  0
  149.3579  139.9712  155.8696 H   0  0  0  0  0  0  0  0  0  0  0  0
  151.4443  139.0710  155.0363 H   0  0  0  0  0  0  0  0  0  0  0  0
  150.5919  142.1349  156.5261 H   0  0  0  0  0  0  0  0  0  0  0  0
  149.6394  141.4416  157.7851 H   0  0  0  0  0  0  0  0  0  0  0  0
  151.7441  140.3517  158.7085 H   0  0  0  0  0  0  0  0  0  0  0  0
  152.6725  141.1579  157.4717 H   0  0  0  0  0  0  0  0  0  0  0  0
  152.5875  141.3675  160.7024 H   0  0  0  0  0  0  0  0  0  0  0  0
  152.7612  143.3739  162.1513 H   0  0  0  0  0  0  0  0  0  0  0  0
  152.1345  145.6127  161.2645 H   0  0  0  0  0  0  0  0  0  0  0  0
  151.3240  145.8388  158.9230 H   0  0  0  0  0  0  0  0  0  0  0  0
  151.1564  143.8372  157.4644 H   0  0  0  0  0  0  0  0  0  0  0  0
  1  2  2  0  0  0  0
  2 14  1  0  0  0  0
  2  3  1  0  0  0  0
  3  4  1  0  0  0  0
  3  5  2  0  0  0  0
  5  6  1  0  0  0  0
  5 26  1  0  0  0  0
  6  7  1  0  0  0  0
  6 12  1  0  0  0  0
  7 11  1  0  0  0  0
  7  8  1  0  0  0  0
  7 27  1  0  0  0  0
  8  9  1  0  0  0  0
  8 28  1  0  0  0  0
  8 29  1  0  0  0  0
  9 10  1  0  0  0  0
  9 30  1  0  0  0  0
  9 31  1  0  0  0  0
 10 11  1  0  0  0  0
 10 32  1  0  0  0  0
 10 33  1  0  0  0  0
 12 13  2  0  0  0  0
 12 14  1  0  0  0  0
 14 15  1  0  0  0  0
 15 16  1  0  0  0  0
 15 34  1  0  0  0  0
 15 35  1  0  0  0  0
 16 17  1  0  0  0  0
 16 18  1  0  0  0  0
 16 36  1  0  0  0  0
 17 37  1  0  0  0  0
 18 19  1  0  0  0  0
 18 38  1  0  0  0  0
 18 39  1  0  0  0  0
 19 20  1  0  0  0  0
 19 40  1  0  0  0  0
 19 41  1  0  0  0  0
 20 25  1  0  0  0  0
 20 21  2  0  0  0  0
 21 22  1  0  0  0  0
 21 42  1  0  0  0  0
 22 23  2  0  0  0  0
 22 43  1  0  0  0  0
 23 24  1  0  0  0  0
 23 44  1  0  0  0  0
 24 25  2  0  0  0  0
 24 45  1  0  0  0  0
 25 46  1  0  0  0  0
M  END
> <s_m_source_file>
AV-unprocessed.smi

> <i_m_source_file_index>
111

> <i_lp_mmshare_version>
43012

> <i_f3d_flags>
0

> <s_epik_input>
TzFbQ0gyXVtDSDJdW0NIMl1bQ0BIXTFuKFtjSF1jKEYpYzI9TyljKD1PKW4yW0NIMl1bQ0BIXShbT0hdKVtDSDJdW0NIMl1jM1tjSF1bY0hdW2NIXVtjSF1bY0hdMw==

> <s_epik_cmdline>
J2VwaWtfcHl0aG9uJywgJy1waCcsICc3LjAnLCAnLXRuJywgJzgnLCAnLW1hJywgJzIwMCcsICctbWV0YWxfYmluZGluZycsICctaW1hZScsICc8aW5maWxlLm1hZT4nLCAnLW9tYWUnLCAnPG91dGZpbGUubWFlPic=

> <r_lp_tautomer_probability>
1

> <r_epik_Ionization_Penalty>
1.88248e-07

> <r_epik_Ionization_Penalty_Charging>
4.03974e-08

> <r_epik_Ionization_Penalty_Neutral>
1.47851e-07

> <r_epik_State_Penalty>
-0

> <r_epik_Charging_Adjusted_Penalty>
4.03974e-08

> <i_epik_Tot_Q>
0

> <i_epik_Tot_abs_Q>
0

> <r_epik_Metal_State_Penalty>
-0

> <b_epik_Metal_Only>
0

> <s_epik_Chemistry_Notes>
This compound contains an acetal/aminal-like group ( X-CH(R)-Y where X, Y are N, S, or O) that may be acid/base labile, releasing an aldehyde.

> <s_lp_Force_Field>
OPLS_2005

> <r_lp_Energy>
34.7798

> <b_lp_Chiralities_Consistent>
1

> <s_lp_Variant>
AV-unprocessed.smi:111-2

> <Gold.Version>
5.8.1

> <Gold.Id.Protein>
6NUR|6NUR_protein|mol2

> <Gold.PLP.Fitness>
46.2736

> <Gold.PLP.PLP>
-42.1750

> <Gold.PLP.part.hbond>
-2.0000

> <Gold.PLP.part.metal>
0.0000

> <Gold.PLP.part.buried>
-6.6807

> <Gold.PLP.part.nonpolar>
-33.9787

> <Gold.PLP.part.repulsive>
0.2145

> <Gold.PLP.ligand.clash>
0.0000

> <Gold.PLP.ligand.torsion>
0.9775

> <Gold.PLP.Chemscore.Hbond>
1.9920

> <Gold.PLP.Chemscore.CHOScore>
0.0000

> <Gold.PLP.Chemscore.Metal>
0.0000

> <Gold.Chemscore.Hbonds>
donor molecule, donor type, donor heavy atom, donor atom, acceptor molecule, acceptor atom, score
      P1  H  7989  7998       L1    17  0.95
      P1  H 10752 10765       L1    13  1.00

> <Gold.PLP.Chemscore.Internal.Correction>
0.0777

> <Gold.Rescore>
     Score         DG    S(hbond)    S(metal)    S(lipo)     H(rot)  DE(clash)    DE(int)     intcor
     15.89     -17.98       1.85        0.00     112.51       2.67       0.34       1.75       ----

> <Gold.Chemscore.Fitness>
15.8909

> <Gold.Chemscore.DG>
-17.9815

> <Gold.Chemscore.ZeroCoef>
-5.4800

> <Gold.Chemscore.Hbond>
1.8516

> <Gold.Chemscore.Metal>
0.0000

> <Gold.Chemscore.Lipo>
112.5088

> <Gold.Chemscore.Internal_Hbond>
0.0000

> <Gold.Chemscore.DEClash>
0.3371

> <Gold.Chemscore.DEInternal>
1.7535

> <Gold.Chemscore.Rot>
2.6743

> <Gold.Chemscore.Internal.Correction>
   9.000000E+99

> <Gold.Chemscore.Hbonds>
donor molecule, donor type, donor heavy atom, donor atom, acceptor molecule, acceptor atom, score
      P1  H  7989  7998       L1    17  0.20
      P1  H 10752 10765       L1    13  0.99

> <Gold.Chemscore.Hbond.Weighted>
-6.1842

> <Gold.Chemscore.Metal.Weighted>
-0.0000

> <Gold.Chemscore.Lipo.Weighted>
-13.1635

> <Gold.Chemscore.Internal_Hbond.Weighted>
0.0000

> <Gold.Chemscore.DEClash.Weighted>
0.3371

> <Gold.Chemscore.DEInternal.Weighted>
1.7535

> <Gold.Chemscore.Rot.Weighted>
6.8463

> <Gold.Chemscore.Internal.Correction.Weighted>
   9.000000E+99

> <Gold.Protein.RotatedTorsions>
[ 6907 6896 6895 6894 ] final  -48.07 input  -60.11 | X-H torsion
[ 7974 7965 7964 7962 ] final   -5.55 input  175.53 | X-H torsion
[ 8008 7997 7996 7995 ] final  -77.43 input   59.86 | X-H torsion
[ 10167 10162 10161 10158 ] final -116.47 input  -65.29 | X-H torsion
[ 10718 10713 10712 10709 ] final -162.36 input   66.30 | X-H torsion
[ 10763 10752 10751 10750 ] final -155.70 input  -60.55 | X-H torsion
[ 11005 11000 10999 10996 ] final   71.00 input  -57.11 | X-H torsion

> <Gold.Protein.ActiveResidues>
 VAL166  LYS551  ARG553  GLY616  TRP617  ASP618  TYR619  PRO620  LYS621  CYS622 
 ASP623  PHE694  ASN695  SER759  ASP760  ASP761  ALA762  ILE779  LEU786  VAL792 
 PHE793  MET794  SER795  GLU796  ALA797  LYS798  CYS799  TRP800  GLU811  SER814 

> <Gold.Protein.RotatedAtoms>
  150.8943  134.8350  159.7315 H   0  0  0  0  0  0  0  0  0  0  0  0  # atno 6907 bound_to 6896
  152.4856  134.4599  159.9612 H   0  0  0  0  0  0  0  0  0  0  0  0  # atno 6908 bound_to 6896
  151.4658  133.3542  159.2851 H   0  0  0  0  0  0  0  0  0  0  0  0  # atno 6909 bound_to 6896
  146.2350  140.2037  142.8334 H   0  0  0  0  0  0  0  0  0  0  0  0  # atno 7974 bound_to 7965
  154.5595  140.0710  156.8796 H   0  0  0  0  0  0  0  0  0  0  0  0  # atno 8008 bound_to 7997
  155.2838  140.3373  155.4238 H   0  0  0  0  0  0  0  0  0  0  0  0  # atno 8009 bound_to 7997
  156.2030  140.1729  156.7844 H   0  0  0  0  0  0  0  0  0  0  0  0  # atno 8010 bound_to 7997
  140.0788  143.4807  152.1937 H   0  0  0  0  0  0  0  0  0  0  0  0  # atno 10167 bound_to 10162
  156.6094  130.8844  151.2933 H   0  0  0  0  0  0  0  0  0  0  0  0  # atno 10718 bound_to 10713
  154.7768  135.3162  154.8075 H   0  0  0  0  0  0  0  0  0  0  0  0  # atno 10763 bound_to 10752
  153.8797  135.6836  153.4772 H   0  0  0  0  0  0  0  0  0  0  0  0  # atno 10764 bound_to 10752
  153.1393  135.4746  154.9408 H   0  0  0  0  0  0  0  0  0  0  0  0  # atno 10765 bound_to 10752
  139.9567  134.7132  156.0737 H   0  0  0  0  0  0  0  0  0  0  0  0  # atno 11005 bound_to 11000
  144.9761  140.8415  143.5425 LP  0  0  0  0  0  0  0  0  0  0  0  0  # atno 17320 bound_to 7965
  145.2025  139.2245  143.5185 LP  0  0  0  0  0  0  0  0  0  0  0  0  # atno 17321 bound_to 7965
  139.5792  144.7502  151.3685 LP  0  0  0  0  0  0  0  0  0  0  0  0  # atno 17342 bound_to 10162
  140.7088  143.7444  150.7530 LP  0  0  0  0  0  0  0  0  0  0  0  0  # atno 17343 bound_to 10162
  157.7258  130.9621  150.1631 LP  0  0  0  0  0  0  0  0  0  0  0  0  # atno 17370 bound_to 10713
  156.2403  130.3690  149.8345 LP  0  0  0  0  0  0  0  0  0  0  0  0  # atno 17371 bound_to 10713
  141.1239  133.6605  156.3286 LP  0  0  0  0  0  0  0  0  0  0  0  0  # atno 17394 bound_to 11000
  140.5593  134.5950  157.5429 LP  0  0  0  0  0  0  0  0  0  0  0  0  # atno 17395 bound_to 11000

$$$$
