AV-unprocessed.smi:1667|AV-procd|sdf|6674|dock3
  -GOLD-   22720 7383D 1   1.00000     0.00000
 Structure written by MMmdl.
 45 47  0  0  0  0  0  0  0  0  1 V2000
  148.0476  135.9763  160.3162 C   0  0  0  0  0  0  0  0  0  0  0  0
  148.6555  135.5882  158.9730 C   0  0  0  0  0  0  0  0  0  0  0  0
  148.8998  134.4072  158.7309 O   0  0  0  0  0  0  0  0  0  0  0  0
  148.8907  136.6022  158.1219 N   0  0  0  0  0  0  0  0  0  0  0  0
  149.4592  136.5600  156.7686 C   0  0  2  0  0  0  0  0  0  0  0  0
  150.9909  136.4080  156.7293 C   0  0  0  0  0  0  0  0  0  0  0  0
  148.9623  137.7282  155.9470 C   0  0  0  0  0  0  0  0  0  0  0  0
  148.1318  137.5772  154.9111 N   0  0  0  0  0  0  0  0  0  0  0  0
  147.9369  138.8704  154.4728 C   0  0  0  0  0  0  0  0  0  0  0  0
  147.1662  139.3707  153.3993 C   0  0  0  0  0  0  0  0  0  0  0  0
  147.1190  140.7561  153.1398 C   0  0  0  0  0  0  0  0  0  0  0  0
  147.8394  141.6584  153.9493 C   0  0  0  0  0  0  0  0  0  0  0  0
  148.6123  141.1797  155.0245 C   0  0  0  0  0  0  0  0  0  0  0  0
  148.6562  139.7953  155.2782 C   0  0  0  0  0  0  0  0  0  0  0  0
  149.3007  139.0149  156.2328 N   0  0  0  0  0  0  0  0  0  0  0  0
  150.1533  139.5270  157.2988 C   0  0  0  0  0  0  0  0  0  0  0  0
  151.2984  140.4143  156.7694 C   0  0  2  0  0  0  0  0  0  0  0  0
  152.4004  139.6187  156.3750 O   0  0  0  0  0  0  0  0  0  0  0  0
  151.6881  141.4742  157.7878 C   0  0  0  0  0  0  0  0  0  0  0  0
  151.3627  142.8280  157.5560 C   0  0  0  0  0  0  0  0  0  0  0  0
  151.7132  143.8141  158.4990 C   0  0  0  0  0  0  0  0  0  0  0  0
  152.3896  143.4518  159.6798 C   0  0  0  0  0  0  0  0  0  0  0  0
  152.7132  142.1026  159.9187 C   0  0  0  0  0  0  0  0  0  0  0  0
  153.3606  141.7529  161.0551 F   0  0  0  0  0  0  0  0  0  0  0  0
  152.3617  141.1162  158.9768 C   0  0  0  0  0  0  0  0  0  0  0  0
  149.0438  135.6408  156.3617 H   0  0  0  0  0  0  0  0  0  0  0  0
  147.0483  136.3892  160.1754 H   0  0  0  0  0  0  0  0  0  0  0  0
  148.6655  136.7249  160.8128 H   0  0  0  0  0  0  0  0  0  0  0  0
  147.9700  135.1090  160.9725 H   0  0  0  0  0  0  0  0  0  0  0  0
  148.6498  137.5250  158.4531 H   0  0  0  0  0  0  0  0  0  0  0  0
  151.3303  136.2148  155.7113 H   0  0  0  0  0  0  0  0  0  0  0  0
  151.3208  135.5742  157.3495 H   0  0  0  0  0  0  0  0  0  0  0  0
  151.5025  137.3076  157.0713 H   0  0  0  0  0  0  0  0  0  0  0  0
  146.6109  138.6868  152.7746 H   0  0  0  0  0  0  0  0  0  0  0  0
  146.5274  141.1280  152.3161 H   0  0  0  0  0  0  0  0  0  0  0  0
  147.7977  142.7182  153.7445 H   0  0  0  0  0  0  0  0  0  0  0  0
  149.1649  141.8682  155.6463 H   0  0  0  0  0  0  0  0  0  0  0  0
  149.5276  140.1083  157.9773 H   0  0  0  0  0  0  0  0  0  0  0  0
  150.5351  138.7009  157.8977 H   0  0  0  0  0  0  0  0  0  0  0  0
  150.9529  140.9225  155.8680 H   0  0  0  0  0  0  0  0  0  0  0  0
  152.1832  139.1901  155.5611 H   0  0  0  0  0  0  0  0  0  0  0  0
  150.8414  143.1153  156.6546 H   0  0  0  0  0  0  0  0  0  0  0  0
  151.4629  144.8488  158.3172 H   0  0  0  0  0  0  0  0  0  0  0  0
  152.6582  144.2080  160.4025 H   0  0  0  0  0  0  0  0  0  0  0  0
  152.6096  140.0831  159.1716 H   0  0  0  0  0  0  0  0  0  0  0  0
  1  2  1  0  0  0  0
  1 27  1  0  0  0  0
  1 28  1  0  0  0  0
  1 29  1  0  0  0  0
  2  3  2  0  0  0  0
  2  4  1  0  0  0  0
  4  5  1  0  0  0  0
  4 30  1  0  0  0  0
  5 26  1  0  0  0  0
  5  6  1  0  0  0  0
  5  7  1  0  0  0  0
  6 31  1  0  0  0  0
  6 32  1  0  0  0  0
  6 33  1  0  0  0  0
  7 15  1  0  0  0  0
  7  8  2  0  0  0  0
  8  9  1  0  0  0  0
  9 14  2  0  0  0  0
  9 10  1  0  0  0  0
 10 11  2  0  0  0  0
 10 34  1  0  0  0  0
 11 12  1  0  0  0  0
 11 35  1  0  0  0  0
 12 13  2  0  0  0  0
 12 36  1  0  0  0  0
 13 14  1  0  0  0  0
 13 37  1  0  0  0  0
 14 15  1  0  0  0  0
 15 16  1  0  0  0  0
 16 17  1  0  0  0  0
 16 38  1  0  0  0  0
 16 39  1  0  0  0  0
 17 18  1  0  0  0  0
 17 19  1  0  0  0  0
 17 40  1  0  0  0  0
 18 41  1  0  0  0  0
 19 25  1  0  0  0  0
 19 20  2  0  0  0  0
 20 21  1  0  0  0  0
 20 42  1  0  0  0  0
 21 22  2  0  0  0  0
 21 43  1  0  0  0  0
 22 23  1  0  0  0  0
 22 44  1  0  0  0  0
 23 24  1  0  0  0  0
 23 25  2  0  0  0  0
 25 45  1  0  0  0  0
M  END
> <s_m_source_file>
AV-unprocessed.smi

> <i_m_source_file_index>
1667

> <i_lp_mmshare_version>
43012

> <i_f3d_flags>
0

> <s_epik_input>
W0NIM11DKD1PKVtOSF1bQ0BASF0oW0NIM10pYyhuMSluKGMoYzEyKVtjSF1bY0hdW2NIXVtjSF0yKVtDSDJdW0NASF0oW09IXSljM1tjSF1bY0hdW2NIXWMoRilbY0hdMw==

> <s_epik_cmdline>
J2VwaWtfcHl0aG9uJywgJy1waCcsICc3LjAnLCAnLXRuJywgJzgnLCAnLW1hJywgJzIwMCcsICctbWV0YWxfYmluZGluZycsICctaW1hZScsICc8aW5maWxlLm1hZT4nLCAnLW9tYWUnLCAnPG91dGZpbGUubWFlPic=

> <r_epik_Ionization_Penalty>
0.133011

> <r_epik_Ionization_Penalty_Charging>
0

> <r_epik_Ionization_Penalty_Neutral>
0.133011

> <r_epik_State_Penalty>
0.122384

> <r_epik_Charging_Adjusted_Penalty>
0.122384

> <i_epik_Tot_Q>
0

> <i_epik_Tot_abs_Q>
0

> <r_epik_Metal_State_Penalty>
0.0997374

> <b_epik_Metal_Only>
0

> <s_lp_Force_Field>
OPLS_2005

> <r_lp_Energy>
10.1709

> <b_lp_Chiralities_Consistent>
1

> <s_lp_Variant>
AV-unprocessed.smi:1667-2

> <Gold.Version>
5.8.1

> <Gold.Id.Protein>
6NUR|6NUR_protein|mol2

> <Gold.PLP.Fitness>
48.2628

> <Gold.PLP.PLP>
-43.8057

> <Gold.PLP.part.hbond>
-2.0000

> <Gold.PLP.part.metal>
0.0000

> <Gold.PLP.part.buried>
-5.8159

> <Gold.PLP.part.nonpolar>
-36.3248

> <Gold.PLP.part.repulsive>
0.1952

> <Gold.PLP.ligand.clash>
0.0000

> <Gold.PLP.ligand.torsion>
0.8790

> <Gold.PLP.Chemscore.Hbond>
2.0000

> <Gold.PLP.Chemscore.CHOScore>
0.0000

> <Gold.PLP.Chemscore.Metal>
0.0000

> <Gold.Chemscore.Hbonds>
donor molecule, donor type, donor heavy atom, donor atom, acceptor molecule, acceptor atom, score
      P1  H  6896  6907       L1     3  1.00
      P1  H  7997  8010       L1    18  0.98

> <Gold.PLP.Chemscore.Internal.Correction>
0.2151

> <Gold.Rescore>
     Score         DG    S(hbond)    S(metal)    S(lipo)     H(rot)  DE(clash)    DE(int)     intcor
     18.76     -19.96       1.91        0.00     123.55       2.48       0.38       0.82       ----

> <Gold.Chemscore.Fitness>
18.7630

> <Gold.Chemscore.DG>
-19.9606

> <Gold.Chemscore.ZeroCoef>
-5.4800

> <Gold.Chemscore.Hbond>
1.9052

> <Gold.Chemscore.Metal>
0.0000

> <Gold.Chemscore.Lipo>
123.5534

> <Gold.Chemscore.Internal_Hbond>
0.0000

> <Gold.Chemscore.DEClash>
0.3807

> <Gold.Chemscore.DEInternal>
0.8169

> <Gold.Chemscore.Rot>
2.4760

> <Gold.Chemscore.Internal.Correction>
   9.000000E+99

> <Gold.Chemscore.Hbonds>
donor molecule, donor type, donor heavy atom, donor atom, acceptor molecule, acceptor atom, score
      P1  H  6896  6907       L1     3  0.45
      P1  H  7997  8010       L1    18  0.41

> <Gold.Chemscore.Hbond.Weighted>
-6.3633

> <Gold.Chemscore.Metal.Weighted>
-0.0000

> <Gold.Chemscore.Lipo.Weighted>
-14.4557

> <Gold.Chemscore.Internal_Hbond.Weighted>
0.0000

> <Gold.Chemscore.DEClash.Weighted>
0.3807

> <Gold.Chemscore.DEInternal.Weighted>
0.8169

> <Gold.Chemscore.Rot.Weighted>
6.3385

> <Gold.Chemscore.Internal.Correction.Weighted>
   9.000000E+99

> <Gold.Protein.RotatedTorsions>
[ 6907 6896 6895 6894 ] final  -97.42 input  -60.11 | X-H torsion
[ 7974 7965 7964 7962 ] final -167.81 input  175.53 | X-H torsion
[ 8008 7997 7996 7995 ] final   89.16 input   59.86 | X-H torsion
[ 10167 10162 10161 10158 ] final  134.76 input  -65.29 | X-H torsion
[ 10718 10713 10712 10709 ] final -148.75 input   66.30 | X-H torsion
[ 10763 10752 10751 10750 ] final   74.68 input  -60.55 | X-H torsion
[ 11005 11000 10999 10996 ] final  -85.59 input  -57.11 | X-H torsion

> <Gold.Protein.ActiveResidues>
 VAL166  LYS551  ARG553  GLY616  TRP617  ASP618  TYR619  PRO620  LYS621  CYS622 
 ASP623  PHE694  ASN695  SER759  ASP760  ASP761  ALA762  ILE779  LEU786  VAL792 
 PHE793  MET794  SER795  GLU796  ALA797  LYS798  CYS799  TRP800  GLU811  SER814 

> <Gold.Protein.RotatedAtoms>
  150.7016  134.1352  159.4084 H   0  0  0  0  0  0  0  0  0  0  0  0  # atno 6907 bound_to 6896
  151.9337  135.0242  160.0540 H   0  0  0  0  0  0  0  0  0  0  0  0  # atno 6908 bound_to 6896
  152.2153  133.4907  159.5169 H   0  0  0  0  0  0  0  0  0  0  0  0  # atno 6909 bound_to 6896
  144.7215  140.2464  143.6284 H   0  0  0  0  0  0  0  0  0  0  0  0  # atno 7974 bound_to 7965
  155.9966  140.3364  155.6804 H   0  0  0  0  0  0  0  0  0  0  0  0  # atno 8008 bound_to 7997
  155.6348  140.0689  157.2655 H   0  0  0  0  0  0  0  0  0  0  0  0  # atno 8009 bound_to 7997
  154.4236  140.1753  156.1498 H   0  0  0  0  0  0  0  0  0  0  0  0  # atno 8010 bound_to 7997
  139.5243  144.6551  151.5186 H   0  0  0  0  0  0  0  0  0  0  0  0  # atno 10167 bound_to 10162
  156.4243  130.8044  151.2268 H   0  0  0  0  0  0  0  0  0  0  0  0  # atno 10718 bound_to 10713
  153.0603  135.5017  154.8077 H   0  0  0  0  0  0  0  0  0  0  0  0  # atno 10763 bound_to 10752
  154.6872  135.2978  154.9533 H   0  0  0  0  0  0  0  0  0  0  0  0  # atno 10764 bound_to 10752
  154.0300  135.6731  153.4832 H   0  0  0  0  0  0  0  0  0  0  0  0  # atno 10765 bound_to 10752
  141.1639  133.7408  156.9037 H   0  0  0  0  0  0  0  0  0  0  0  0  # atno 11005 bound_to 11000
  145.8270  139.2069  143.1904 LP  0  0  0  0  0  0  0  0  0  0  0  0  # atno 17320 bound_to 7965
  146.0464  140.8114  142.9803 LP  0  0  0  0  0  0  0  0  0  0  0  0  # atno 17321 bound_to 7965
  140.6373  143.8959  150.6659 LP  0  0  0  0  0  0  0  0  0  0  0  0  # atno 17342 bound_to 10162
  140.2282  143.3756  152.1587 LP  0  0  0  0  0  0  0  0  0  0  0  0  # atno 17343 bound_to 10162
  157.7508  131.0218  150.3766 LP  0  0  0  0  0  0  0  0  0  0  0  0  # atno 17370 bound_to 10713
  156.4090  130.3930  149.6905 LP  0  0  0  0  0  0  0  0  0  0  0  0  # atno 17371 bound_to 10713
  140.1564  134.9195  157.2659 LP  0  0  0  0  0  0  0  0  0  0  0  0  # atno 17394 bound_to 11000
  140.2662  134.3514  155.7389 LP  0  0  0  0  0  0  0  0  0  0  0  0  # atno 17395 bound_to 11000

$$$$
