AV-unprocessed.smi:2228|AV-procd|sdf|9026|dock1
  -GOLD-   2272012233D 1   1.00000     0.00000
 Structure written by MMmdl.
 40 41  0  0  0  0  0  0  0  0  1 V2000
  153.6859  141.5399  160.3834 C   0  0  0  0  0  0  0  0  0  0  0  0
  153.5009  142.5767  159.4319 O   0  0  0  0  0  0  0  0  0  0  0  0
  152.1874  143.1190  159.4281 C   0  0  1  0  0  0  0  0  0  0  0  0
  151.9098  143.8009  160.7706 C   0  0  0  0  0  0  0  0  0  0  0  0
  150.8764  144.8726  160.4422 C   0  0  0  0  0  0  0  0  0  0  0  0
  151.3187  145.4042  159.0787 C   0  0  0  0  0  0  0  0  0  0  0  0
  151.9886  144.2178  158.3590 C   0  0  2  0  0  0  0  0  0  0  0  0
  151.1455  143.7262  157.2721 N   0  0  0  0  0  0  0  0  0  0  0  0
  151.1955  142.4925  156.7503 C   0  0  0  0  0  0  0  0  0  0  0  0
  151.9924  141.6296  157.1198 O   0  0  0  0  0  0  0  0  0  0  0  0
  150.2679  142.3357  155.7896 N   0  0  0  0  0  0  0  0  0  0  0  0
  149.9818  141.1725  155.0271 C   0  0  0  0  0  0  0  0  0  0  0  0
  148.6684  141.1035  154.5105 C   0  0  0  0  0  0  0  0  0  0  0  0
  148.2819  139.9871  153.7421 C   0  0  0  0  0  0  0  0  0  0  0  0
  146.8789  139.8931  153.1798 C   0  0  0  0  0  0  0  0  0  0  0  0
  149.2245  138.9676  153.5090 C   0  0  0  0  0  0  0  0  0  0  0  0
  150.5130  139.1149  154.0590 C   0  0  0  0  0  0  0  0  0  0  0  0
  151.5772  138.0593  153.8445 C   0  0  0  0  0  0  0  0  0  0  0  0
  150.8815  140.1845  154.7956 N   0  0  0  0  0  0  0  0  0  0  0  0
  154.7207  141.1990  160.3529 H   0  0  0  0  0  0  0  0  0  0  0  0
  153.0477  140.6809  160.1741 H   0  0  0  0  0  0  0  0  0  0  0  0
  153.4779  141.8902  161.3950 H   0  0  0  0  0  0  0  0  0  0  0  0
  151.4529  142.3201  159.3032 H   0  0  0  0  0  0  0  0  0  0  0  0
  151.5672  143.1020  161.5342 H   0  0  0  0  0  0  0  0  0  0  0  0
  152.8179  144.2791  161.1412 H   0  0  0  0  0  0  0  0  0  0  0  0
  149.8882  144.4183  160.3599 H   0  0  0  0  0  0  0  0  0  0  0  0
  150.8240  145.6536  161.2012 H   0  0  0  0  0  0  0  0  0  0  0  0
  150.4889  145.8398  158.5200 H   0  0  0  0  0  0  0  0  0  0  0  0
  152.0552  146.1957  159.2242 H   0  0  0  0  0  0  0  0  0  0  0  0
  152.9590  144.5410  157.9772 H   0  0  0  0  0  0  0  0  0  0  0  0
  150.4624  144.3713  156.9030 H   0  0  0  0  0  0  0  0  0  0  0  0
  149.6868  143.1369  155.5926 H   0  0  0  0  0  0  0  0  0  0  0  0
  147.9608  141.8976  154.7015 H   0  0  0  0  0  0  0  0  0  0  0  0
  146.7185  138.9426  152.6702 H   0  0  0  0  0  0  0  0  0  0  0  0
  146.7044  140.6972  152.4648 H   0  0  0  0  0  0  0  0  0  0  0  0
  146.1436  139.9786  153.9801 H   0  0  0  0  0  0  0  0  0  0  0  0
  148.9673  138.0966  152.9239 H   0  0  0  0  0  0  0  0  0  0  0  0
  151.1673  137.1809  153.3454 H   0  0  0  0  0  0  0  0  0  0  0  0
  151.9974  137.7413  154.7992 H   0  0  0  0  0  0  0  0  0  0  0  0
  152.3842  138.4568  153.2285 H   0  0  0  0  0  0  0  0  0  0  0  0
  1  2  1  0  0  0  0
  1 20  1  0  0  0  0
  1 21  1  0  0  0  0
  1 22  1  0  0  0  0
  2  3  1  0  0  0  0
  3  7  1  0  0  0  0
  3  4  1  0  0  0  0
  3 23  1  0  0  0  0
  4  5  1  0  0  0  0
  4 24  1  0  0  0  0
  4 25  1  0  0  0  0
  5  6  1  0  0  0  0
  5 26  1  0  0  0  0
  5 27  1  0  0  0  0
  6  7  1  0  0  0  0
  6 28  1  0  0  0  0
  6 29  1  0  0  0  0
  7  8  1  0  0  0  0
  7 30  1  0  0  0  0
  8  9  1  0  0  0  0
  8 31  1  0  0  0  0
  9 10  2  0  0  0  0
  9 11  1  0  0  0  0
 11 12  1  0  0  0  0
 11 32  1  0  0  0  0
 12 19  1  0  0  0  0
 12 13  2  0  0  0  0
 13 14  1  0  0  0  0
 13 33  1  0  0  0  0
 14 15  1  0  0  0  0
 14 16  2  0  0  0  0
 15 34  1  0  0  0  0
 15 35  1  0  0  0  0
 15 36  1  0  0  0  0
 16 17  1  0  0  0  0
 16 37  1  0  0  0  0
 17 18  1  0  0  0  0
 17 19  2  0  0  0  0
 18 38  1  0  0  0  0
 18 39  1  0  0  0  0
 18 40  1  0  0  0  0
M  END
> <s_m_source_file>
AV-unprocessed.smi

> <i_m_source_file_index>
2228

> <i_lp_mmshare_version>
43012

> <i_f3d_flags>
0

> <s_epik_input>
W0NIM11PW0NAQEhdMVtDSDJdW0NIMl1bQ0gyXVtDQEhdMVtOSF1DKD1PKVtOSF1jMltjSF1jKFtDSDNdKVtjSF1jKG4yKVtDSDNd

> <s_epik_cmdline>
J2VwaWtfcHl0aG9uJywgJy1waCcsICc3LjAnLCAnLXRuJywgJzgnLCAnLW1hJywgJzIwMCcsICctbWV0YWxfYmluZGluZycsICctaW1hZScsICc8aW5maWxlLm1hZT4nLCAnLW9tYWUnLCAnPG91dGZpbGUubWFlPic=

> <r_lp_tautomer_probability>
1

> <r_epik_Ionization_Penalty>
0.000275391

> <r_epik_Ionization_Penalty_Charging>
0

> <r_epik_Ionization_Penalty_Neutral>
0.000275391

> <r_epik_State_Penalty>
-0

> <r_epik_Charging_Adjusted_Penalty>
0

> <i_epik_Tot_Q>
0

> <i_epik_Tot_abs_Q>
0

> <r_epik_Metal_State_Penalty>
-0

> <b_epik_Metal_Only>
0

> <s_lp_Force_Field>
OPLS_2005

> <r_lp_Energy>
19.8708

> <b_lp_Chiralities_Consistent>
1

> <s_lp_Variant>
AV-unprocessed.smi:2228-4

> <Gold.Version>
5.8.1

> <Gold.Id.Protein>
6NUR|6NUR_protein|mol2

> <Gold.PLP.Fitness>
48.7117

> <Gold.PLP.PLP>
-42.2680

> <Gold.PLP.part.hbond>
-3.0000

> <Gold.PLP.part.metal>
0.0000

> <Gold.PLP.part.buried>
-0.6495

> <Gold.PLP.part.nonpolar>
-38.9711

> <Gold.PLP.part.repulsive>
0.1979

> <Gold.PLP.ligand.clash>
0.0000

> <Gold.PLP.ligand.torsion>
0.4506

> <Gold.PLP.Chemscore.Hbond>
2.4463

> <Gold.PLP.Chemscore.CHOScore>
0.0000

> <Gold.PLP.Chemscore.Metal>
0.0000

> <Gold.Chemscore.Hbonds>
donor molecule, donor type, donor heavy atom, donor atom, acceptor molecule, acceptor atom, score
      L1  H     8    31       P1  8028  1.00
      L1  H    11    32       P1  8028  1.00
      P1  H  7989  7998       L1    19  0.54

> <Gold.PLP.Chemscore.Internal.Correction>
0.0061

> <Gold.Rescore>
     Score         DG    S(hbond)    S(metal)    S(lipo)     H(rot)  DE(clash)    DE(int)     intcor
     15.95     -21.58       1.88        0.00     110.43       1.21       1.31       4.31       ----

> <Gold.Chemscore.Fitness>
15.9511

> <Gold.Chemscore.DG>
-21.5784

> <Gold.Chemscore.ZeroCoef>
-5.4800

> <Gold.Chemscore.Hbond>
1.8804

> <Gold.Chemscore.Metal>
0.0000

> <Gold.Chemscore.Lipo>
110.4298

> <Gold.Chemscore.Internal_Hbond>
0.0000

> <Gold.Chemscore.DEClash>
1.3124

> <Gold.Chemscore.DEInternal>
4.3149

> <Gold.Chemscore.Rot>
1.2119

> <Gold.Chemscore.Internal.Correction>
   9.000000E+99

> <Gold.Chemscore.Hbonds>
donor molecule, donor type, donor heavy atom, donor atom, acceptor molecule, acceptor atom, score
      L1  H     8    31       P1  8028  0.83
      L1  H    11    32       P1  8028  1.00
      P1  H  7989  7998       L1    19  0.01

> <Gold.Chemscore.Hbond.Weighted>
-6.2807

> <Gold.Chemscore.Metal.Weighted>
-0.0000

> <Gold.Chemscore.Lipo.Weighted>
-12.9203

> <Gold.Chemscore.Internal_Hbond.Weighted>
0.0000

> <Gold.Chemscore.DEClash.Weighted>
1.3124

> <Gold.Chemscore.DEInternal.Weighted>
4.3149

> <Gold.Chemscore.Rot.Weighted>
3.1026

> <Gold.Chemscore.Internal.Correction.Weighted>
   9.000000E+99

> <Gold.Protein.RotatedTorsions>
[ 6907 6896 6895 6894 ] final -102.82 input  -60.11 | X-H torsion
[ 7974 7965 7964 7962 ] final  127.46 input  175.53 | X-H torsion
[ 8008 7997 7996 7995 ] final   -6.77 input   59.86 | X-H torsion
[ 10167 10162 10161 10158 ] final  -98.31 input  -65.29 | X-H torsion
[ 10718 10713 10712 10709 ] final  157.14 input   66.30 | X-H torsion
[ 10763 10752 10751 10750 ] final  -34.77 input  -60.55 | X-H torsion
[ 11005 11000 10999 10996 ] final  -95.41 input  -57.11 | X-H torsion

> <Gold.Protein.ActiveResidues>
 VAL166  LYS551  ARG553  GLY616  TRP617  ASP618  TYR619  PRO620  LYS621  CYS622 
 ASP623  PHE694  ASN695  SER759  ASP760  ASP761  ALA762  ILE779  LEU786  VAL792 
 PHE793  MET794  SER795  GLU796  ALA797  LYS798  CYS799  TRP800  GLU811  SER814 

> <Gold.Protein.RotatedAtoms>
  150.7213  134.0523  159.3802 H   0  0  0  0  0  0  0  0  0  0  0  0  # atno 6907 bound_to 6896
  151.8501  135.0558  160.0467 H   0  0  0  0  0  0  0  0  0  0  0  0  # atno 6908 bound_to 6896
  152.2797  133.5423  159.5526 H   0  0  0  0  0  0  0  0  0  0  0  0  # atno 6909 bound_to 6896
  145.0504  139.3888  143.5057 H   0  0  0  0  0  0  0  0  0  0  0  0  # atno 7974 bound_to 7965
  154.5904  140.2424  155.7929 H   0  0  0  0  0  0  0  0  0  0  0  0  # atno 8008 bound_to 7997
  156.2243  140.2987  155.9983 H   0  0  0  0  0  0  0  0  0  0  0  0  # atno 8009 bound_to 7997
  155.2384  140.0406  157.2962 H   0  0  0  0  0  0  0  0  0  0  0  0  # atno 8010 bound_to 7997
  140.2743  143.3323  152.0504 H   0  0  0  0  0  0  0  0  0  0  0  0  # atno 10167 bound_to 10162
  157.1955  131.0664  151.2055 H   0  0  0  0  0  0  0  0  0  0  0  0  # atno 10718 bound_to 10713
  153.8523  135.6848  153.4791 H   0  0  0  0  0  0  0  0  0  0  0  0  # atno 10763 bound_to 10752
  153.1390  135.4665  154.9465 H   0  0  0  0  0  0  0  0  0  0  0  0  # atno 10764 bound_to 10752
  154.7797  135.3264  154.7965 H   0  0  0  0  0  0  0  0  0  0  0  0  # atno 10765 bound_to 10752
  141.1443  133.8024  157.0431 H   0  0  0  0  0  0  0  0  0  0  0  0  # atno 11005 bound_to 11000
  146.3517  140.0151  142.8663 LP  0  0  0  0  0  0  0  0  0  0  0  0  # atno 17320 bound_to 7965
  145.1535  140.9635  143.4419 LP  0  0  0  0  0  0  0  0  0  0  0  0  # atno 17321 bound_to 7965
  139.4980  144.6635  151.6410 LP  0  0  0  0  0  0  0  0  0  0  0  0  # atno 17342 bound_to 10162
  140.5864  143.9856  150.6298 LP  0  0  0  0  0  0  0  0  0  0  0  0  # atno 17343 bound_to 10162
  157.3819  130.7236  149.6636 LP  0  0  0  0  0  0  0  0  0  0  0  0  # atno 17370 bound_to 10713
  155.9706  130.4170  150.4258 LP  0  0  0  0  0  0  0  0  0  0  0  0  # atno 17371 bound_to 10713
  140.0680  134.9718  157.1419 LP  0  0  0  0  0  0  0  0  0  0  0  0  # atno 17394 bound_to 11000
  140.3752  134.2347  155.7175 LP  0  0  0  0  0  0  0  0  0  0  0  0  # atno 17395 bound_to 11000

$$$$
