#       Name:                AV-unprocessed.smi:837
#       Creating user name   scv26
#       Creation time:       Fri Mar 27 01:36:53 2020


#       File generated by GOLD software.
#

@<TRIPOS>MOLECULE
AV-unprocessed.smi:837
    56    58     1
SMALL
NO_CHARGES


@<TRIPOS>ATOM
      1 ****         0.4813   1.8972  -1.4458 C.3            1 S1                 0.0000
      2 ****        -1.0093   2.2660  -1.2852 C.3            1 S1                 0.0000
      3 ****        -1.1474   3.7810  -1.0127 C.3            1 S1                 0.0000
      4 ****        -2.6161   4.2172  -0.9144 C.3            1 S1                 0.0000
      5 ****        -3.3623   3.4165   0.1596 C.3            1 S1                 0.0000
      6 ****        -3.2512   1.9052  -0.1048 C.3            1 S1                 0.0000
      7 ****        -1.7869   1.4051  -0.2335 C.3            1 S1                 0.0000
      8 ****        -1.8145   0.0092  -0.6384 N.pl3          1 S1                -1.0000
      9 ****        -1.2727  -0.7466   0.3434 C.2            1 S1                 0.0000
     10 ****        -1.1460  -1.9710   0.3427 O.2            1 S1                 0.0000
     11 ****        -0.8533   0.0180   1.3688 N.am           1 S1                 0.0000
     12 ****        -0.1663  -0.4926   2.5611 C.3            1 S1                 0.0000
     13 ****         1.3182  -0.7483   2.2819 C.2            1 S1                 0.0000
     14 ****         2.0661   0.1836   1.9865 O.2            1 S1                 0.0000
     15 ****         1.7238  -2.0231   2.3777 N.am           1 S1                 0.0000
     16 ****         3.0703  -2.5156   2.1021 C.3            1 S1                 0.0000
     17 ****         3.5068  -2.3471   0.6292 C.3            1 S1                 0.0000
     18 ****         2.4329  -2.6886  -0.3938 C.ar           1 S1                 0.0000
     19 ****         2.0140  -1.7245  -1.3378 C.ar           1 S1                 0.0000
     20 ****         1.0079  -2.0557  -2.2685 C.ar           1 S1                 0.0000
     21 ****         0.4371  -3.3432  -2.2320 C.ar           1 S1                 0.0000
     22 ****         0.8632  -4.2412  -1.3170 N.pl3          1 S1                 1.0000
     23 ****         1.8292  -3.9650  -0.4132 C.ar           1 S1                 0.0000
     24 ****        -1.1004   1.3101   1.1284 C.2            1 S1                 0.0000
     25 ****        -0.8221   2.2671   1.8517 O.2            1 S1                 0.0000
     26 ****         1.0495   2.0857  -0.5347 H              1 S1                 0.0000
     27 ****         0.9418   2.4807  -2.2430 H              1 S1                 0.0000
     28 ****         0.6053   0.8478  -1.7056 H              1 S1                 0.0000
     29 ****        -1.4757   2.0811  -2.2546 H              1 S1                 0.0000
     30 ****        -0.6239   4.0510  -0.0953 H              1 S1                 0.0000
     31 ****        -0.6630   4.3439  -1.8113 H              1 S1                 0.0000
     32 ****        -2.6736   5.2826  -0.6902 H              1 S1                 0.0000
     33 ****        -3.1041   4.0768  -1.8796 H              1 S1                 0.0000
     34 ****        -2.9655   3.6597   1.1451 H              1 S1                 0.0000
     35 ****        -4.4119   3.7104   0.1749 H              1 S1                 0.0000
     36 ****        -3.7706   1.3660   0.6894 H              1 S1                 0.0000
     37 ****        -3.7952   1.6744  -1.0223 H              1 S1                 0.0000
     38 ****        -0.2477   0.2145   3.3881 H              1 S1                 0.0000
     39 ****        -0.6535  -1.4068   2.9056 H              1 S1                 0.0000
     40 ****         1.0321  -2.7137   2.6313 H              1 S1                 0.0000
     41 ****         3.7901  -2.0425   2.7717 H              1 S1                 0.0000
     42 ****         3.0701  -3.5763   2.3541 H              1 S1                 0.0000
     43 ****         3.8278  -1.3171   0.4695 H              1 S1                 0.0000
     44 ****         4.3842  -2.9643   0.4343 H              1 S1                 0.0000
     45 ****         2.4509  -0.7366  -1.3451 H              1 S1                 0.0000
     46 ****         0.6665  -1.3266  -2.9885 H              1 S1                 0.0000
     47 ****        -0.3468  -3.6757  -2.8964 H              1 S1                 0.0000
     48 ****         2.0787  -4.7640   0.2695 H              1 S1                 0.0000
     49 ****         0.4318  -5.1654  -1.3044 H              1 S1                 0.0000
     50 ****        -2.1762  -0.3367  -1.5041 LP             1 S1                 0.0000
     51 ****        -1.4606  -2.5058  -0.4415 LP             1 S1                 0.0000
     52 ****        -0.7284  -2.4309   1.1264 LP             1 S1                 0.0000
     53 ****         1.7057   1.1146   1.9276 LP             1 S1                 0.0000
     54 ****         3.0341   0.0098   1.8055 LP             1 S1                 0.0000
     55 ****        -1.0472   3.1967   1.5597 LP             1 S1                 0.0000
     56 ****        -0.3710   2.1147   2.7311 LP             1 S1                 0.0000
@<TRIPOS>BOND
    1    1    2 1     
    2    1   26 1     
    3    1   27 1     
    4    1   28 1     
    5    2    7 1     
    6    2    3 1     
    7    2   29 1     
    8    3    4 1     
    9    3   30 1     
   10    3   31 1     
   11    4    5 1     
   12    4   32 1     
   13    4   33 1     
   14    5    6 1     
   15    5   34 1     
   16    5   35 1     
   17    6    7 1     
   18    6   36 1     
   19    6   37 1     
   20    7   24 1     
   21    7    8 1     
   22    8    9 1     
   23    9   10 2     
   24    9   11 am    
   25   11   12 1     
   26   11   24 am    
   27   12   13 1     
   28   12   38 1     
   29   12   39 1     
   30   13   14 2     
   31   13   15 am    
   32   15   16 1     
   33   15   40 1     
   34   16   17 1     
   35   16   41 1     
   36   16   42 1     
   37   17   18 1     
   38   17   43 1     
   39   17   44 1     
   40   18   23 ar    
   41   18   19 ar    
   42   19   20 ar    
   43   19   45 1     
   44   20   21 ar    
   45   20   46 1     
   46   21   22 ar    
   47   21   47 1     
   48   22   23 ar    
   49   22   49 1     
   50   23   48 1     
   51   24   25 2     
   52    8   50 1     
   53   10   51 1     
   54   10   52 1     
   55   14   53 1     
   56   14   54 1     
   57   25   55 1     
   58   25   56 1     
@<TRIPOS>SUBSTRUCTURE
      1 S1             1
@<TRIPOS>SET
LONE_PAIRS      STATIC     ATOMS    <user>   **** ""
7 50 51 52 53 54 55 56
DONOR_HYDROGENS      STATIC     ATOMS    <user>   **** ""
2 40 49
ATOM$BLUE        STATIC     ATOMS    COLORGROUP SYSTEM
7 50 51 52 53 54 55 56
ATOM$RED        STATIC     ATOMS    COLORGROUP SYSTEM
2 40 49
