AV-unprocessed.smi:2525|AV-procd|sdf|9933|dock1
  -GOLD-   2272013573D 1   1.00000     0.00000
 Structure written by MMmdl.
 44 45  0  0  0  0  0  0  0  0  1 V2000
  147.8425  142.1843  153.9463 C   0  0  0  0  0  0  0  0  0  0  0  0
  148.5365  140.8253  153.7521 C   0  0  0  0  0  0  0  0  0  0  0  0
  148.9610  140.1077  155.0567 C   0  0  0  0  0  0  0  0  0  0  0  0
  147.7747  140.1578  156.0553 C   0  0  0  0  0  0  0  0  0  0  0  0
  146.4996  139.4371  155.5881 C   0  0  0  0  0  0  0  0  0  0  0  0
  149.6542  138.7346  154.8139 C   0  0  2  0  0  0  0  0  0  0  0  0
  149.5044  137.7882  155.9178 N   0  0  0  0  0  0  0  0  0  0  0  0
  150.1546  136.6209  156.0316 C   0  0  0  0  0  0  0  0  0  0  0  0
  150.9449  136.2006  155.1871 O   0  0  0  0  0  0  0  0  0  0  0  0
  149.8583  135.7921  157.2839 C   0  0  0  0  0  0  0  0  0  0  0  0
  149.5060  134.4217  156.9497 N   0  0  0  0  0  0  0  0  0  0  0  0
  149.3680  133.8492  155.7016 C   0  0  0  0  0  0  0  0  0  0  0  0
  149.0509  132.5507  155.9811 C   0  0  0  0  0  0  0  0  0  0  0  0
  149.0098  132.3884  157.3649 N   0  0  0  0  0  0  0  0  0  0  0  0
  149.2817  133.5195  157.9360 N   0  0  0  0  0  0  0  0  0  0  0  0
  151.0229  139.4350  154.8540 C   0  0  2  0  0  0  0  0  0  0  0  0
  152.2533  138.7330  155.4276 C   0  0  0  0  0  0  0  0  0  0  0  0
  150.3321  140.5854  155.6096 C   0  0  2  0  0  0  0  0  0  0  0  0
  150.4177  140.4375  157.0230 O   0  0  0  0  0  0  0  0  0  0  0  0
  151.6863  140.7931  157.5455 C   0  0  0  0  0  0  0  0  0  0  0  0
  147.4619  142.5573  152.9955 H   0  0  0  0  0  0  0  0  0  0  0  0
  148.5266  142.9388  154.3331 H   0  0  0  0  0  0  0  0  0  0  0  0
  146.9977  142.1120  154.6310 H   0  0  0  0  0  0  0  0  0  0  0  0
  147.8473  140.1927  153.1927 H   0  0  0  0  0  0  0  0  0  0  0  0
  149.3866  140.9485  153.0818 H   0  0  0  0  0  0  0  0  0  0  0  0
  148.0719  139.7762  157.0315 H   0  0  0  0  0  0  0  0  0  0  0  0
  147.4878  141.1909  156.2500 H   0  0  0  0  0  0  0  0  0  0  0  0
  145.6777  139.6319  156.2773 H   0  0  0  0  0  0  0  0  0  0  0  0
  146.6329  138.3565  155.5482 H   0  0  0  0  0  0  0  0  0  0  0  0
  146.1881  139.7783  154.6007 H   0  0  0  0  0  0  0  0  0  0  0  0
  149.4509  138.2994  153.8344 H   0  0  0  0  0  0  0  0  0  0  0  0
  148.8637  138.0488  156.6539 H   0  0  0  0  0  0  0  0  0  0  0  0
  150.7303  135.7970  157.9402 H   0  0  0  0  0  0  0  0  0  0  0  0
  149.0330  136.2381  157.8411 H   0  0  0  0  0  0  0  0  0  0  0  0
  149.5056  134.3871  154.7752 H   0  0  0  0  0  0  0  0  0  0  0  0
  148.8530  131.7283  155.3093 H   0  0  0  0  0  0  0  0  0  0  0  0
  151.2512  139.7808  153.8446 H   0  0  0  0  0  0  0  0  0  0  0  0
  152.1133  138.4430  156.4694 H   0  0  0  0  0  0  0  0  0  0  0  0
  153.1300  139.3785  155.3823 H   0  0  0  0  0  0  0  0  0  0  0  0
  152.4847  137.8276  154.8665 H   0  0  0  0  0  0  0  0  0  0  0  0
  150.6063  141.5829  155.2605 H   0  0  0  0  0  0  0  0  0  0  0  0
  151.6974  140.6251  158.6223 H   0  0  0  0  0  0  0  0  0  0  0  0
  151.8991  141.8483  157.3684 H   0  0  0  0  0  0  0  0  0  0  0  0
  152.4857  140.1984  157.1034 H   0  0  0  0  0  0  0  0  0  0  0  0
  1  2  1  0  0  0  0
  1 21  1  0  0  0  0
  1 22  1  0  0  0  0
  1 23  1  0  0  0  0
  2  3  1  0  0  0  0
  2 24  1  0  0  0  0
  2 25  1  0  0  0  0
  3 18  1  0  0  0  0
  3  4  1  0  0  0  0
  3  6  1  0  0  0  0
  4  5  1  0  0  0  0
  4 26  1  0  0  0  0
  4 27  1  0  0  0  0
  5 28  1  0  0  0  0
  5 29  1  0  0  0  0
  5 30  1  0  0  0  0
  6  7  1  0  0  0  0
  6 16  1  0  0  0  0
  6 31  1  0  0  0  0
  7  8  1  0  0  0  0
  7 32  1  0  0  0  0
  8  9  2  0  0  0  0
  8 10  1  0  0  0  0
 10 11  1  0  0  0  0
 10 33  1  0  0  0  0
 10 34  1  0  0  0  0
 11 15  1  0  0  0  0
 11 12  1  0  0  0  0
 12 13  2  0  0  0  0
 12 35  1  0  0  0  0
 13 14  1  0  0  0  0
 13 36  1  0  0  0  0
 14 15  2  0  0  0  0
 16 17  1  0  0  0  0
 16 18  1  0  0  0  0
 16 37  1  0  0  0  0
 17 38  1  0  0  0  0
 17 39  1  0  0  0  0
 17 40  1  0  0  0  0
 18 19  1  0  0  0  0
 18 41  1  0  0  0  0
 19 20  1  0  0  0  0
 20 42  1  0  0  0  0
 20 43  1  0  0  0  0
 20 44  1  0  0  0  0
M  END
> <s_m_source_file>
AV-unprocessed.smi

> <i_m_source_file_index>
2525

> <i_lp_mmshare_version>
43012

> <i_f3d_flags>
0

> <s_epik_input>
W0NIM11PW0NAQEhdMVtDQEhdKFtDSDNdKVtDQEBIXShDMShbQ0gyXVtDSDNdKVtDSDJdW0NIM10pW05IXUMoPU8pW0NIMl1uMltjSF1bY0hdbm4y

> <s_epik_cmdline>
J2VwaWtfcHl0aG9uJywgJy1waCcsICc3LjAnLCAnLXRuJywgJzgnLCAnLW1hJywgJzIwMCcsICctbWV0YWxfYmluZGluZycsICctaW1hZScsICc8aW5maWxlLm1hZT4nLCAnLW9tYWUnLCAnPG91dGZpbGUubWFlPic=

> <r_lp_tautomer_probability>
1

> <r_epik_Ionization_Penalty>
1.18045e-06

> <r_epik_Ionization_Penalty_Charging>
0

> <r_epik_Ionization_Penalty_Neutral>
1.18045e-06

> <r_epik_State_Penalty>
-0

> <r_epik_Charging_Adjusted_Penalty>
0

> <i_epik_Tot_Q>
0

> <i_epik_Tot_abs_Q>
0

> <r_epik_Metal_State_Penalty>
-0

> <b_epik_Metal_Only>
0

> <s_lp_Force_Field>
OPLS_2005

> <r_lp_Energy>
29.0326

> <b_lp_Chiralities_Consistent>
1

> <s_lp_Variant>
AV-unprocessed.smi:2525-8

> <Gold.Version>
5.8.1

> <Gold.Id.Protein>
6NUR|6NUR_protein|mol2

> <Gold.PLP.Fitness>
34.7760

> <Gold.PLP.PLP>
-29.1048

> <Gold.PLP.part.hbond>
-2.0000

> <Gold.PLP.part.metal>
0.0000

> <Gold.PLP.part.buried>
-1.2491

> <Gold.PLP.part.nonpolar>
-26.9137

> <Gold.PLP.part.repulsive>
0.1634

> <Gold.PLP.ligand.clash>
0.0000

> <Gold.PLP.ligand.torsion>
0.4846

> <Gold.PLP.Chemscore.Hbond>
1.9920

> <Gold.PLP.Chemscore.CHOScore>
0.0000

> <Gold.PLP.Chemscore.Metal>
0.0000

> <Gold.Chemscore.Hbonds>
donor molecule, donor type, donor heavy atom, donor atom, acceptor molecule, acceptor atom, score
      P1  H  6896  6909       L1    15  0.56
      P1  H 10752 10763       L1     9  0.62

> <Gold.PLP.Chemscore.Internal.Correction>
0.6644

> <Gold.Rescore>
     Score         DG    S(hbond)    S(metal)    S(lipo)     H(rot)  DE(clash)    DE(int)     intcor
     12.58     -14.03       1.96        0.00      60.59       1.98       0.01       1.44       ----

> <Gold.Chemscore.Fitness>
12.5809

> <Gold.Chemscore.DG>
-14.0275

> <Gold.Chemscore.ZeroCoef>
-5.4800

> <Gold.Chemscore.Hbond>
1.9554

> <Gold.Chemscore.Metal>
0.0000

> <Gold.Chemscore.Lipo>
60.5948

> <Gold.Chemscore.Internal_Hbond>
0.0000

> <Gold.Chemscore.DEClash>
0.0098

> <Gold.Chemscore.DEInternal>
1.4369

> <Gold.Chemscore.Rot>
1.9817

> <Gold.Chemscore.Internal.Correction>
   9.000000E+99

> <Gold.Chemscore.Hbonds>
donor molecule, donor type, donor heavy atom, donor atom, acceptor molecule, acceptor atom, score
      P1  H  6896  6909       L1    15  0.31
      P1  H 10752 10763       L1     9  0.62

> <Gold.Chemscore.Hbond.Weighted>
-6.5310

> <Gold.Chemscore.Metal.Weighted>
-0.0000

> <Gold.Chemscore.Lipo.Weighted>
-7.0896

> <Gold.Chemscore.Internal_Hbond.Weighted>
0.0000

> <Gold.Chemscore.DEClash.Weighted>
0.0098

> <Gold.Chemscore.DEInternal.Weighted>
1.4369

> <Gold.Chemscore.Rot.Weighted>
5.0731

> <Gold.Chemscore.Internal.Correction.Weighted>
   9.000000E+99

> <Gold.Protein.RotatedTorsions>
[ 6907 6896 6895 6894 ] final  -21.67 input  -60.11 | X-H torsion
[ 7974 7965 7964 7962 ] final  -66.09 input  175.53 | X-H torsion
[ 8008 7997 7996 7995 ] final   -9.36 input   59.86 | X-H torsion
[ 10167 10162 10161 10158 ] final  -29.15 input  -65.29 | X-H torsion
[ 10718 10713 10712 10709 ] final  -20.52 input   66.30 | X-H torsion
[ 10763 10752 10751 10750 ] final   72.74 input  -60.55 | X-H torsion
[ 11005 11000 10999 10996 ] final -108.94 input  -57.11 | X-H torsion

> <Gold.Protein.ActiveResidues>
 VAL166  LYS551  ARG553  GLY616  TRP617  ASP618  TYR619  PRO620  LYS621  CYS622 
 ASP623  PHE694  ASN695  SER759  ASP760  ASP761  ALA762  ILE779  LEU786  VAL792 
 PHE793  MET794  SER795  GLU796  ALA797  LYS798  CYS799  TRP800  GLU811  SER814 

> <Gold.Protein.RotatedAtoms>
  151.2299  135.0550  159.8983 H   0  0  0  0  0  0  0  0  0  0  0  0  # atno 6907 bound_to 6896
  152.5406  134.0549  159.8136 H   0  0  0  0  0  0  0  0  0  0  0  0  # atno 6908 bound_to 6896
  151.0727  133.5405  159.2657 H   0  0  0  0  0  0  0  0  0  0  0  0  # atno 6909 bound_to 6896
  145.7461  140.8931  143.0504 H   0  0  0  0  0  0  0  0  0  0  0  0  # atno 7974 bound_to 7965
  154.5654  140.2357  155.8272 H   0  0  0  0  0  0  0  0  0  0  0  0  # atno 8008 bound_to 7997
  156.2064  140.3038  155.9594 H   0  0  0  0  0  0  0  0  0  0  0  0  # atno 8009 bound_to 7997
  155.2811  140.0422  157.3006 H   0  0  0  0  0  0  0  0  0  0  0  0  # atno 8010 bound_to 7997
  140.7263  143.3952  151.1360 H   0  0  0  0  0  0  0  0  0  0  0  0  # atno 10167 bound_to 10162
  156.5307  130.4654  149.6549 H   0  0  0  0  0  0  0  0  0  0  0  0  # atno 10718 bound_to 10713
  153.0478  135.5088  154.7789 H   0  0  0  0  0  0  0  0  0  0  0  0  # atno 10763 bound_to 10752
  154.6676  135.2948  154.9787 H   0  0  0  0  0  0  0  0  0  0  0  0  # atno 10764 bound_to 10752
  154.0617  135.6690  153.4865 H   0  0  0  0  0  0  0  0  0  0  0  0  # atno 10765 bound_to 10752
  141.0874  133.9114  157.2153 H   0  0  0  0  0  0  0  0  0  0  0  0  # atno 11005 bound_to 11000
  144.6860  139.9527  143.7478 LP  0  0  0  0  0  0  0  0  0  0  0  0  # atno 17320 bound_to 7965
  146.0401  139.3414  143.0702 LP  0  0  0  0  0  0  0  0  0  0  0  0  # atno 17321 bound_to 7965
  139.7563  143.8702  152.3089 LP  0  0  0  0  0  0  0  0  0  0  0  0  # atno 17342 bound_to 10162
  139.8573  144.7135  150.9142 LP  0  0  0  0  0  0  0  0  0  0  0  0  # atno 17343 bound_to 10162
  156.3063  130.7204  151.2087 LP  0  0  0  0  0  0  0  0  0  0  0  0  # atno 17370 bound_to 10713
  157.7422  131.0493  150.5040 LP  0  0  0  0  0  0  0  0  0  0  0  0  # atno 17371 bound_to 10713
  139.9695  135.0132  156.9474 LP  0  0  0  0  0  0  0  0  0  0  0  0  # atno 17394 bound_to 11000
  140.5330  134.0794  155.7321 LP  0  0  0  0  0  0  0  0  0  0  0  0  # atno 17395 bound_to 11000

$$$$
