#       Name:                AV-unprocessed.smi:2124
#       Creating user name   scv26
#       Creation time:       Fri Mar 27 11:40:06 2020


#       File generated by GOLD software.
#

@<TRIPOS>MOLECULE
AV-unprocessed.smi:2124
    52    54     1
SMALL
NO_CHARGES


@<TRIPOS>ATOM
      1 ****        -4.1122   5.5200  -0.6649 C.3            1 S1                 0.0000
      2 ****        -3.5221   4.1378  -0.8470 C.2            1 S1                 0.0000
      3 ****        -3.1645   3.6528  -1.9902 N.2            1 S1                 0.0000
      4 ****        -2.6301   2.3577  -2.0353 C.2            1 S1                 0.0000
      5 ****        -2.2303   1.8609  -3.4136 C.3            1 S1                 0.0000
      6 ****        -2.4850   1.6036  -0.9064 C.2            1 S1                 0.0000
      7 ****        -1.9066   0.1891  -0.9201 C.3            1 S1                 0.0000
      8 ****        -0.3801   0.0794  -0.8789 C.2            1 S1                 0.0000
      9 ****         0.3211   1.0910  -0.8470 O.2            1 S1                 0.0000
     10 ****         0.1153  -1.1679  -0.8707 N.am           1 S1                 0.0000
     11 ****         1.5306  -1.5307  -0.8108 C.3            1 S1                 0.0000
     12 ****         1.8684  -2.3650  -2.0574 C.3            1 S1                 0.0000
     13 ****         1.8354  -2.2887   0.5058 C.3            1 S1                 0.0000
     14 ****         3.3417  -2.5834   0.7134 C.3            1 S1                 0.0000
     15 ****         3.6310  -1.9964   2.1061 C.3            1 S1                 0.0000
     16 ****         2.9374  -2.8525   3.1810 C.3            1 S1                 0.0000
     17 ****         1.4518  -2.4976   2.9862 C.3            1 S1                 0.0000
     18 ****         1.4894  -1.5112   1.8031 C.3            1 S1                 0.0000
     19 ****         2.7719  -0.7393   2.0932 C.3            1 S1                 0.0000
     20 ****        -2.8912   2.1694   0.3945 C.2            1 S1                 0.0000
     21 ****        -2.7910   1.5833   1.4713 O.2            1 S1                 0.0000
     22 ****        -3.3963   3.4225   0.3429 N.am           1 S1                 0.0000
     23 ****        -3.6887   3.8540   1.2074 H              1 S1                 0.0000
     24 ****        -3.4074   6.2769  -1.0097 H              1 S1                 0.0000
     25 ****        -4.3483   5.7237   0.3804 H              1 S1                 0.0000
     26 ****        -5.0292   5.6152  -1.2466 H              1 S1                 0.0000
     27 ****        -2.8584   1.0219  -3.7137 H              1 S1                 0.0000
     28 ****        -1.1896   1.5369  -3.4201 H              1 S1                 0.0000
     29 ****        -2.3385   2.6455  -4.1634 H              1 S1                 0.0000
     30 ****        -2.3178  -0.3910  -0.0927 H              1 S1                 0.0000
     31 ****        -2.2532  -0.3235  -1.8175 H              1 S1                 0.0000
     32 ****        -0.5436  -1.9325  -0.8980 H              1 S1                 0.0000
     33 ****         2.1466  -0.6307  -0.8434 H              1 S1                 0.0000
     34 ****         2.9277  -2.6176  -2.0978 H              1 S1                 0.0000
     35 ****         1.6325  -1.8167  -2.9703 H              1 S1                 0.0000
     36 ****         1.3044  -3.2982  -2.0759 H              1 S1                 0.0000
     37 ****         1.2763  -3.2260   0.4904 H              1 S1                 0.0000
     38 ****         3.5678  -3.6489   0.6561 H              1 S1                 0.0000
     39 ****         3.9563  -2.0766  -0.0316 H              1 S1                 0.0000
     40 ****         4.6912  -1.8280   2.2973 H              1 S1                 0.0000
     41 ****         3.1328  -3.9175   3.0498 H              1 S1                 0.0000
     42 ****         3.2711  -2.5699   4.1804 H              1 S1                 0.0000
     43 ****         0.8350  -3.3735   2.7821 H              1 S1                 0.0000
     44 ****         1.0556  -2.0136   3.8798 H              1 S1                 0.0000
     45 ****         0.5921  -0.8955   1.7442 H              1 S1                 0.0000
     46 ****         2.7550  -0.2164   3.0511 H              1 S1                 0.0000
     47 ****         3.0441  -0.0339   1.3065 H              1 S1                 0.0000
     48 ****        -3.2670   4.1911  -2.8267 LP             1 S1                 0.0000
     49 ****        -0.1056   1.9954  -0.8478 LP             1 S1                 0.0000
     50 ****         1.3173   1.0082  -0.8202 LP             1 S1                 0.0000
     51 ****        -2.4124   0.6583   1.5038 LP             1 S1                 0.0000
     52 ****        -3.0881   2.0318   2.3142 LP             1 S1                 0.0000
@<TRIPOS>BOND
    1    1    2 1     
    2    1   24 1     
    3    1   25 1     
    4    1   26 1     
    5    2   22 1     
    6    2    3 2     
    7    3    4 1     
    8    4    5 1     
    9    4    6 2     
   10    5   27 1     
   11    5   28 1     
   12    5   29 1     
   13    6    7 1     
   14    6   20 1     
   15    7    8 1     
   16    7   30 1     
   17    7   31 1     
   18    8    9 2     
   19    8   10 am    
   20   10   11 1     
   21   10   32 1     
   22   11   12 1     
   23   11   13 1     
   24   11   33 1     
   25   12   34 1     
   26   12   35 1     
   27   12   36 1     
   28   13   18 1     
   29   13   14 1     
   30   13   37 1     
   31   14   15 1     
   32   14   38 1     
   33   14   39 1     
   34   15   19 1     
   35   15   16 1     
   36   15   40 1     
   37   16   17 1     
   38   16   41 1     
   39   16   42 1     
   40   17   18 1     
   41   17   43 1     
   42   17   44 1     
   43   18   19 1     
   44   18   45 1     
   45   19   46 1     
   46   19   47 1     
   47   20   21 2     
   48   20   22 am    
   49   22   23 1     
   50    3   48 1     
   51    9   49 1     
   52    9   50 1     
   53   21   51 1     
   54   21   52 1     
@<TRIPOS>SUBSTRUCTURE
      1 S1             1
@<TRIPOS>SET
LONE_PAIRS      STATIC     ATOMS    <user>   **** ""
5 48 49 50 51 52
DONOR_HYDROGENS      STATIC     ATOMS    <user>   **** ""
2 32 23
ATOM$BLUE        STATIC     ATOMS    COLORGROUP SYSTEM
5 48 49 50 51 52
ATOM$RED        STATIC     ATOMS    COLORGROUP SYSTEM
2 32 23
