#       Name:                AV-unprocessed.smi:1074
#       Creating user name   scv26
#       Creation time:       Fri Mar 27 03:21:12 2020


#       File generated by GOLD software.
#

@<TRIPOS>MOLECULE
AV-unprocessed.smi:1074
    51    52     1
SMALL
NO_CHARGES


@<TRIPOS>ATOM
      1 ****        -6.9585  -3.5130  -0.8510 C.3            1 S1                 0.0000
      2 ****        -5.5552  -3.1669  -0.6858 N.am           1 S1                 0.0000
      3 ****        -5.1162  -1.9718  -0.2652 C.2            1 S1                 0.0000
      4 ****        -5.8701  -1.0425   0.0251 O.2            1 S1                 0.0000
      5 ****        -3.5950  -1.8003  -0.1552 C.3            1 S1                 0.0000
      6 ****        -3.1764  -1.4715   1.2928 C.3            1 S1                 0.0000
      7 ****        -1.6534  -1.2990   1.4076 C.3            1 S1                 0.0000
      8 ****        -1.1324  -0.2184   0.4420 C.3            1 S1                 0.0000
      9 ****         0.3223  -0.1412   0.5381 N.am           1 S1                 0.0000
     10 ****         1.0656   0.9290   0.2230 C.2            1 S1                 0.0000
     11 ****         0.5912   1.9898  -0.1824 O.2            1 S1                 0.0000
     12 ****         2.3720   0.6854   0.4251 N.am           1 S1                 0.0000
     13 ****         3.4862   1.5343   0.1830 C.ar           1 S1                 0.0000
     14 ****         3.4597   2.6731  -0.6574 C.ar           1 S1                 0.0000
     15 ****         4.6411   3.4200  -0.8286 C.ar           1 S1                 0.0000
     16 ****         5.8124   3.0066  -0.1636 C.ar           1 S1                 0.0000
     17 ****         6.9655   3.7444  -0.3362 O.3            1 S1                 0.0000
     18 ****         8.1435   3.3261   0.3445 C.3            1 S1                 0.0000
     19 ****         5.8479   1.9111   0.6341 N.ar           1 S1                 0.0000
     20 ****         4.7127   1.1992   0.7934 C.ar           1 S1                 0.0000
     21 ****        -1.5666  -0.5239  -1.0066 C.3            1 S1                 0.0000
     22 ****        -3.0899  -0.7019  -1.1133 C.3            1 S1                 0.0000
     23 ****        -7.0485  -4.5328  -1.2251 H              1 S1                 0.0000
     24 ****        -7.4429  -2.8444  -1.5636 H              1 S1                 0.0000
     25 ****        -7.4881  -3.4510   0.1005 H              1 S1                 0.0000
     26 ****        -4.8738  -3.8788  -0.9058 H              1 S1                 0.0000
     27 ****        -3.1225  -2.7426  -0.4391 H              1 S1                 0.0000
     28 ****        -3.6667  -0.5563   1.6290 H              1 S1                 0.0000
     29 ****        -3.5045  -2.2628   1.9681 H              1 S1                 0.0000
     30 ****        -1.3908  -1.0409   2.4341 H              1 S1                 0.0000
     31 ****        -1.1667  -2.2519   1.1947 H              1 S1                 0.0000
     32 ****        -1.5602   0.7398   0.7435 H              1 S1                 0.0000
     33 ****         0.7980  -0.9678   0.8686 H              1 S1                 0.0000
     34 ****         2.5949  -0.2089   0.8368 H              1 S1                 0.0000
     35 ****         2.5701   2.9822  -1.1832 H              1 S1                 0.0000
     36 ****         4.6489   4.2935  -1.4637 H              1 S1                 0.0000
     37 ****         8.9587   4.0100   0.1088 H              1 S1                 0.0000
     38 ****         8.4504   2.3265   0.0339 H              1 S1                 0.0000
     39 ****         8.0045   3.3386   1.4263 H              1 S1                 0.0000
     40 ****         4.7869   0.3328   1.4343 H              1 S1                 0.0000
     41 ****        -1.2480   0.2783  -1.6730 H              1 S1                 0.0000
     42 ****        -1.0716  -1.4304  -1.3580 H              1 S1                 0.0000
     43 ****        -3.3556  -0.9487  -2.1420 H              1 S1                 0.0000
     44 ****        -3.5777   0.2481  -0.8889 H              1 S1                 0.0000
     45 ****        -6.8604  -1.1605  -0.0482 LP             1 S1                 0.0000
     46 ****        -5.4921  -0.1699   0.3342 LP             1 S1                 0.0000
     47 ****        -0.3982   2.0856  -0.2918 LP             1 S1                 0.0000
     48 ****         1.1951   2.7559  -0.4024 LP             1 S1                 0.0000
     49 ****         6.7669   4.6779  -0.0377 LP             1 S1                 0.0000
     50 ****         7.1732   3.7443  -1.3144 LP             1 S1                 0.0000
     51 ****         6.6934   1.6376   1.0926 LP             1 S1                 0.0000
@<TRIPOS>BOND
    1    1    2 1     
    2    1   23 1     
    3    1   24 1     
    4    1   25 1     
    5    2    3 am    
    6    2   26 1     
    7    3    4 2     
    8    3    5 1     
    9    5   22 1     
   10    5    6 1     
   11    5   27 1     
   12    6    7 1     
   13    6   28 1     
   14    6   29 1     
   15    7    8 1     
   16    7   30 1     
   17    7   31 1     
   18    8    9 1     
   19    8   21 1     
   20    8   32 1     
   21    9   10 am    
   22    9   33 1     
   23   10   11 2     
   24   10   12 am    
   25   12   13 1     
   26   12   34 1     
   27   13   20 ar    
   28   13   14 ar    
   29   14   15 ar    
   30   14   35 1     
   31   15   16 ar    
   32   15   36 1     
   33   16   17 1     
   34   16   19 ar    
   35   17   18 1     
   36   18   37 1     
   37   18   38 1     
   38   18   39 1     
   39   19   20 ar    
   40   20   40 1     
   41   21   22 1     
   42   21   41 1     
   43   21   42 1     
   44   22   43 1     
   45   22   44 1     
   46    4   45 1     
   47    4   46 1     
   48   11   47 1     
   49   11   48 1     
   50   17   49 1     
   51   17   50 1     
   52   19   51 1     
@<TRIPOS>SUBSTRUCTURE
      1 S1             1
@<TRIPOS>SET
LONE_PAIRS      STATIC     ATOMS    <user>   **** ""
7 45 46 47 48 49 50 51
DONOR_HYDROGENS      STATIC     ATOMS    <user>   **** ""
3 26 33 34
ATOM$BLUE        STATIC     ATOMS    COLORGROUP SYSTEM
7 45 46 47 48 49 50 51
ATOM$RED        STATIC     ATOMS    COLORGROUP SYSTEM
3 26 33 34
