AV-unprocessed.smi:2988|AV-procd|sdf|11388|dock10
  -GOLD-   2272016313D 1   1.00000     0.00000
 Structure written by MMmdl.
 37 38  0  0  0  0  0  0  0  0  1 V2000
  148.6430  139.4478  154.0343 C   0  0  0  0  0  0  0  0  0  0  0  0
  149.8336  140.0930  154.7647 C   0  0  1  0  0  0  0  0  0  0  0  0
  149.3885  140.7682  156.0801 C   0  0  0  0  0  0  0  0  0  0  0  0
  150.5655  141.4549  156.7916 C   0  0  0  0  0  0  0  0  0  0  0  0
  151.7212  140.4741  157.0404 C   0  0  0  0  0  0  0  0  0  0  0  0
  152.1687  139.7975  155.7325 C   0  0  0  0  0  0  0  0  0  0  0  0
  150.9958  139.0990  155.0107 C   0  0  1  0  0  0  0  0  0  0  0  0
  150.5292  137.9522  155.7842 N   0  0  0  0  0  0  0  0  0  0  0  0
  150.6865  136.6544  155.4771 C   0  0  0  0  0  0  0  0  0  0  0  0
  151.2306  136.2719  154.4422 O   0  0  0  0  0  0  0  0  0  0  0  0
  150.1667  135.6160  156.4879 C   0  0  0  0  0  0  0  0  0  0  0  0
  149.8429  134.3033  155.9015 N   0  0  0  0  0  0  0  0  0  0  0  0
  149.3281  134.3713  154.6185 N   0  0  0  0  0  0  0  0  0  0  0  0
  148.9507  133.2901  154.0281 C   0  0  0  0  0  0  0  0  0  0  0  0
  149.0483  131.9930  154.6603 C   0  0  0  0  0  0  0  0  0  0  0  0
  148.5171  130.5780  153.8222 Cl  0  0  0  0  0  0  0  0  0  0  0  0
  149.5659  131.9356  155.9132 C   0  0  0  0  0  0  0  0  0  0  0  0
  149.7085  130.4210  156.7374 Cl  0  0  0  0  0  0  0  0  0  0  0  0
  150.0110  133.1469  156.6152 C   0  0  0  0  0  0  0  0  0  0  0  0
  150.4770  133.1378  157.7551 O   0  0  0  0  0  0  0  0  0  0  0  0
  148.1641  138.6782  154.6408 H   0  0  0  0  0  0  0  0  0  0  0  0
  148.9607  138.9861  153.0991 H   0  0  0  0  0  0  0  0  0  0  0  0
  147.8847  140.1927  153.7916 H   0  0  0  0  0  0  0  0  0  0  0  0
  150.2154  140.8783  154.1105 H   0  0  0  0  0  0  0  0  0  0  0  0
  148.6105  141.5044  155.8755 H   0  0  0  0  0  0  0  0  0  0  0  0
  148.9407  140.0300  156.7473 H   0  0  0  0  0  0  0  0  0  0  0  0
  150.9206  142.2895  156.1855 H   0  0  0  0  0  0  0  0  0  0  0  0
  150.2302  141.8810  157.7375 H   0  0  0  0  0  0  0  0  0  0  0  0
  152.5627  140.9999  157.4923 H   0  0  0  0  0  0  0  0  0  0  0  0
  151.4108  139.7174  157.7622 H   0  0  0  0  0  0  0  0  0  0  0  0
  152.5986  140.5501  155.0705 H   0  0  0  0  0  0  0  0  0  0  0  0
  152.9692  139.0858  155.9376 H   0  0  0  0  0  0  0  0  0  0  0  0
  151.3489  138.7394  154.0423 H   0  0  0  0  0  0  0  0  0  0  0  0
  150.0648  138.1656  156.6549 H   0  0  0  0  0  0  0  0  0  0  0  0
  150.9220  135.4999  157.2672 H   0  0  0  0  0  0  0  0  0  0  0  0
  149.2916  136.0271  156.9942 H   0  0  0  0  0  0  0  0  0  0  0  0
  148.5353  133.2953  153.0201 H   0  0  0  0  0  0  0  0  0  0  0  0
  1  2  1  0  0  0  0
  1 21  1  0  0  0  0
  1 22  1  0  0  0  0
  1 23  1  0  0  0  0
  2  7  1  0  0  0  0
  2  3  1  0  0  0  0
  2 24  1  0  0  0  0
  3  4  1  0  0  0  0
  3 25  1  0  0  0  0
  3 26  1  0  0  0  0
  4  5  1  0  0  0  0
  4 27  1  0  0  0  0
  4 28  1  0  0  0  0
  5  6  1  0  0  0  0
  5 29  1  0  0  0  0
  5 30  1  0  0  0  0
  6  7  1  0  0  0  0
  6 31  1  0  0  0  0
  6 32  1  0  0  0  0
  7  8  1  0  0  0  0
  7 33  1  0  0  0  0
  8  9  1  0  0  0  0
  8 34  1  0  0  0  0
  9 10  2  0  0  0  0
  9 11  1  0  0  0  0
 11 12  1  0  0  0  0
 11 35  1  0  0  0  0
 11 36  1  0  0  0  0
 12 19  1  0  0  0  0
 12 13  1  0  0  0  0
 13 14  2  0  0  0  0
 14 15  1  0  0  0  0
 14 37  1  0  0  0  0
 15 16  1  0  0  0  0
 15 17  2  0  0  0  0
 17 18  1  0  0  0  0
 17 19  1  0  0  0  0
 19 20  2  0  0  0  0
M  END
> <s_m_source_file>
AV-unprocessed.smi

> <i_m_source_file_index>
2988

> <i_lp_mmshare_version>
43012

> <i_f3d_flags>
0

> <s_epik_input>
W0NIM11bQ0BASF0xW0NIMl1bQ0gyXVtDSDJdW0NIMl1bQ0BIXTFbTkhdQyg9TylbQ0gyXW4ybltjSF1jKENsKWMoQ2wpYzI9Tw==

> <s_epik_cmdline>
J2VwaWtfcHl0aG9uJywgJy1waCcsICc3LjAnLCAnLXRuJywgJzgnLCAnLW1hJywgJzIwMCcsICctbWV0YWxfYmluZGluZycsICctaW1hZScsICc8aW5maWxlLm1hZT4nLCAnLW9tYWUnLCAnPG91dGZpbGUubWFlPic=

> <r_lp_tautomer_probability>
1

> <r_epik_Ionization_Penalty>
1.90782e-08

> <r_epik_Ionization_Penalty_Charging>
3.13143e-11

> <r_epik_Ionization_Penalty_Neutral>
1.90469e-08

> <r_epik_State_Penalty>
-0

> <r_epik_Charging_Adjusted_Penalty>
3.13143e-11

> <i_epik_Tot_Q>
0

> <i_epik_Tot_abs_Q>
0

> <r_epik_Metal_State_Penalty>
-0

> <b_epik_Metal_Only>
0

> <s_lp_Force_Field>
OPLS_2005

> <r_lp_Energy>
22.2561

> <b_lp_Chiralities_Consistent>
1

> <s_lp_Variant>
AV-unprocessed.smi:2988-2

> <Gold.Version>
5.8.1

> <Gold.Id.Protein>
6NUR|6NUR_protein|mol2

> <Gold.PLP.Fitness>
35.8702

> <Gold.PLP.PLP>
-31.5746

> <Gold.PLP.part.hbond>
-1.7382

> <Gold.PLP.part.metal>
0.0000

> <Gold.PLP.part.buried>
-3.3343

> <Gold.PLP.part.nonpolar>
-28.1750

> <Gold.PLP.part.repulsive>
1.5752

> <Gold.PLP.ligand.clash>
0.0000

> <Gold.PLP.ligand.torsion>
0.7956

> <Gold.PLP.Chemscore.Hbond>
1.9600

> <Gold.PLP.Chemscore.CHOScore>
0.0000

> <Gold.PLP.Chemscore.Metal>
0.0000

> <Gold.Chemscore.Hbonds>
donor molecule, donor type, donor heavy atom, donor atom, acceptor molecule, acceptor atom, score
      P1  H  6896  6909       L1    20  1.00
      P1  H 10752 10763       L1    10  0.98

> <Gold.PLP.Chemscore.Internal.Correction>
0.0068

> <Gold.Rescore>
     Score         DG    S(hbond)    S(metal)    S(lipo)     H(rot)  DE(clash)    DE(int)     intcor
     14.02     -16.47       1.98        0.00      70.12       1.50       0.18       2.27       ----

> <Gold.Chemscore.Fitness>
14.0165

> <Gold.Chemscore.DG>
-16.4681

> <Gold.Chemscore.ZeroCoef>
-5.4800

> <Gold.Chemscore.Hbond>
1.9816

> <Gold.Chemscore.Metal>
0.0000

> <Gold.Chemscore.Lipo>
70.1161

> <Gold.Chemscore.Internal_Hbond>
0.0000

> <Gold.Chemscore.DEClash>
0.1809

> <Gold.Chemscore.DEInternal>
2.2707

> <Gold.Chemscore.Rot>
1.4977

> <Gold.Chemscore.Internal.Correction>
   9.000000E+99

> <Gold.Chemscore.Hbonds>
donor molecule, donor type, donor heavy atom, donor atom, acceptor molecule, acceptor atom, score
      P1  H  6896  6909       L1    20  0.96
      P1  H 10752 10763       L1    10  0.93

> <Gold.Chemscore.Hbond.Weighted>
-6.6186

> <Gold.Chemscore.Metal.Weighted>
-0.0000

> <Gold.Chemscore.Lipo.Weighted>
-8.2036

> <Gold.Chemscore.Internal_Hbond.Weighted>
0.0000

> <Gold.Chemscore.DEClash.Weighted>
0.1809

> <Gold.Chemscore.DEInternal.Weighted>
2.2707

> <Gold.Chemscore.Rot.Weighted>
3.8341

> <Gold.Chemscore.Internal.Correction.Weighted>
   9.000000E+99

> <Gold.Protein.RotatedTorsions>
[ 6907 6896 6895 6894 ] final  -29.57 input  -60.11 | X-H torsion
[ 7974 7965 7964 7962 ] final  151.90 input  175.53 | X-H torsion
[ 8008 7997 7996 7995 ] final  -18.40 input   59.86 | X-H torsion
[ 10167 10162 10161 10158 ] final   28.49 input  -65.29 | X-H torsion
[ 10718 10713 10712 10709 ] final -159.88 input   66.30 | X-H torsion
[ 10763 10752 10751 10750 ] final   26.71 input  -60.55 | X-H torsion
[ 11005 11000 10999 10996 ] final -172.48 input  -57.11 | X-H torsion

> <Gold.Protein.ActiveResidues>
 VAL166  LYS551  ARG553  GLY616  TRP617  ASP618  TYR619  PRO620  LYS621  CYS622 
 ASP623  PHE694  ASN695  SER759  ASP760  ASP761  ALA762  ILE779  LEU786  VAL792 
 PHE793  MET794  SER795  GLU796  ALA797  LYS798  CYS799  TRP800  GLU811  SER814 

> <Gold.Protein.RotatedAtoms>
  151.1174  135.0060  159.8522 H   0  0  0  0  0  0  0  0  0  0  0  0  # atno 6907 bound_to 6896
  152.5446  134.1764  159.8627 H   0  0  0  0  0  0  0  0  0  0  0  0  # atno 6908 bound_to 6896
  151.1819  133.4675  159.2627 H   0  0  0  0  0  0  0  0  0  0  0  0  # atno 6909 bound_to 6896
  144.8260  139.6598  143.6080 H   0  0  0  0  0  0  0  0  0  0  0  0  # atno 7974 bound_to 7965
  154.4909  140.2117  155.9551 H   0  0  0  0  0  0  0  0  0  0  0  0  # atno 8008 bound_to 7997
  156.1303  140.3198  155.8308 H   0  0  0  0  0  0  0  0  0  0  0  0  # atno 8009 bound_to 7997
  155.4308  140.0503  157.3009 H   0  0  0  0  0  0  0  0  0  0  0  0  # atno 8010 bound_to 7997
  140.4848  144.0559  150.6277 H   0  0  0  0  0  0  0  0  0  0  0  0  # atno 10167 bound_to 10162
  156.5743  130.8702  151.2847 H   0  0  0  0  0  0  0  0  0  0  0  0  # atno 10718 bound_to 10713
  153.0604  135.6554  154.0476 H   0  0  0  0  0  0  0  0  0  0  0  0  # atno 10763 bound_to 10752
  154.0144  135.2925  155.3390 H   0  0  0  0  0  0  0  0  0  0  0  0  # atno 10764 bound_to 10752
  154.6940  135.5271  153.8500 H   0  0  0  0  0  0  0  0  0  0  0  0  # atno 10765 bound_to 10752
  140.4966  134.5934  157.4973 H   0  0  0  0  0  0  0  0  0  0  0  0  # atno 11005 bound_to 11000
  146.2565  139.6314  142.9391 LP  0  0  0  0  0  0  0  0  0  0  0  0  # atno 17320 bound_to 7965
  145.5000  141.0437  143.2546 LP  0  0  0  0  0  0  0  0  0  0  0  0  # atno 17321 bound_to 7965
  140.3811  143.2802  152.0169 LP  0  0  0  0  0  0  0  0  0  0  0  0  # atno 17342 bound_to 10162
  139.4840  144.6153  151.7357 LP  0  0  0  0  0  0  0  0  0  0  0  0  # atno 17343 bound_to 10162
  157.7341  130.9741  150.2012 LP  0  0  0  0  0  0  0  0  0  0  0  0  # atno 17370 bound_to 10713
  156.2687  130.3719  149.8054 LP  0  0  0  0  0  0  0  0  0  0  0  0  # atno 17371 bound_to 10713
  139.9738  134.7249  155.9989 LP  0  0  0  0  0  0  0  0  0  0  0  0  # atno 17394 bound_to 11000
  141.1457  133.6556  156.3861 LP  0  0  0  0  0  0  0  0  0  0  0  0  # atno 17395 bound_to 11000

$$$$
