AV-unprocessed.smi:1978|AV-procd|sdf|8010|dock6
  -GOLD-   2272010203D 1   1.00000     0.00000
 Structure written by MMmdl.
 44 45  0  0  0  0  0  0  0  0  3 V2000
  147.9356  135.8297  162.9853 C   0  0  0  0  0  0  0  0  0  0  0  0
  147.8167  135.8874  161.5011 C   0  0  0  0  0  0  0  0  0  0  0  0
  147.7516  134.9238  160.5343 C   0  0  0  0  0  0  0  0  0  0  0  0
  147.6551  135.6783  159.3349 C   0  0  0  0  0  0  0  0  0  0  0  0
  147.5694  135.0277  158.0758 N   0  0  0  0  0  0  0  0  0  0  0  0
  148.4351  134.1654  157.5130 C   0  0  0  0  0  0  0  0  0  0  0  0
  149.4675  133.8376  158.1098 O   0  0  0  0  0  0  0  0  0  0  0  0
  148.0253  133.7523  156.2818 N   0  5  0  0  0  0  0  0  0  0  0  0
  147.7113  134.6424  155.1630 C   0  0  0  0  0  0  0  0  0  0  0  0
  147.3959  133.8267  153.8635 C   0  0  2  0  0  0  0  0  0  0  0  0
  148.6431  133.1279  153.2682 C   0  0  0  0  0  0  0  0  0  0  0  0
  146.6497  134.5808  152.7892 N   0  3  2  0  0  0  0  0  0  0  0  0
  145.9749  135.8399  153.2391 C   0  0  0  0  0  0  0  0  0  0  0  0
  145.5711  136.7170  152.0467 C   0  0  0  0  0  0  0  0  0  0  0  0
  144.6501  135.9434  151.1019 C   0  0  0  0  0  0  0  0  0  0  0  0
  145.3393  134.6500  150.6578 C   0  0  0  0  0  0  0  0  0  0  0  0
  145.7776  133.7809  151.8574 C   0  0  1  0  0  0  0  0  0  0  0  0
  146.4499  132.5023  151.3156 C   0  0  0  0  0  0  0  0  0  0  0  0
  147.6536  136.9854  159.5520 N   0  0  0  0  0  0  0  0  0  0  0  0
  147.7577  137.1256  160.9408 O   0  0  0  0  0  0  0  0  0  0  0  0
  148.0983  134.8066  163.3242 H   0  0  0  0  0  0  0  0  0  0  0  0
  147.0284  136.2037  163.4599 H   0  0  0  0  0  0  0  0  0  0  0  0
  148.7734  136.4366  163.3290 H   0  0  0  0  0  0  0  0  0  0  0  0
  147.7740  133.8521  160.6650 H   0  0  0  0  0  0  0  0  0  0  0  0
  146.7462  135.2384  157.5313 H   0  0  0  0  0  0  0  0  0  0  0  0
  146.8619  135.2854  155.3961 H   0  0  0  0  0  0  0  0  0  0  0  0
  148.5346  135.3267  154.9587 H   0  0  0  0  0  0  0  0  0  0  0  0
  146.7553  132.9949  154.1491 H   0  0  0  0  0  0  0  0  0  0  0  0
  149.0483  132.3756  153.9475 H   0  0  0  0  0  0  0  0  0  0  0  0
  149.4551  133.8188  153.0377 H   0  0  0  0  0  0  0  0  0  0  0  0
  148.3880  132.6052  152.3459 H   0  0  0  0  0  0  0  0  0  0  0  0
  145.0870  135.6031  153.8273 H   0  0  0  0  0  0  0  0  0  0  0  0
  146.6292  136.4254  153.8827 H   0  0  0  0  0  0  0  0  0  0  0  0
  145.0692  137.6183  152.3999 H   0  0  0  0  0  0  0  0  0  0  0  0
  146.4623  137.0466  151.5109 H   0  0  0  0  0  0  0  0  0  0  0  0
  143.7105  135.7107  151.6049 H   0  0  0  0  0  0  0  0  0  0  0  0
  144.3994  136.5547  150.2346 H   0  0  0  0  0  0  0  0  0  0  0  0
  144.6622  134.0861  150.0150 H   0  0  0  0  0  0  0  0  0  0  0  0
  146.2085  134.8965  150.0461 H   0  0  0  0  0  0  0  0  0  0  0  0
  144.8774  133.4830  152.3970 H   0  0  0  0  0  0  0  0  0  0  0  0
  145.8366  132.0373  150.5433 H   0  0  0  0  0  0  0  0  0  0  0  0
  146.5835  131.7477  152.0897 H   0  0  0  0  0  0  0  0  0  0  0  0
  147.4242  132.7184  150.8758 H   0  0  0  0  0  0  0  0  0  0  0  0
  147.3955  134.9038  152.1903 H   0  0  0  0  0  0  0  0  0  0  0  0
  1  2  1  0  0  0  0
  1 21  1  0  0  0  0
  1 22  1  0  0  0  0
  1 23  1  0  0  0  0
  2 20  1  0  0  0  0
  2  3  2  0  0  0  0
  3  4  1  0  0  0  0
  3 24  1  0  0  0  0
  4  5  1  0  0  0  0
  4 19  2  0  0  0  0
  5  6  1  0  0  0  0
  5 25  1  0  0  0  0
  6  7  2  0  0  0  0
  6  8  1  0  0  0  0
  8  9  1  0  0  0  0
  9 10  1  0  0  0  0
  9 26  1  0  0  0  0
  9 27  1  0  0  0  0
 10 11  1  0  0  0  0
 10 12  1  0  0  0  0
 10 28  1  0  0  0  0
 11 29  1  0  0  0  0
 11 30  1  0  0  0  0
 11 31  1  0  0  0  0
 12 17  1  0  0  0  0
 12 13  1  0  0  0  0
 12 44  1  0  0  0  0
 13 14  1  0  0  0  0
 13 32  1  0  0  0  0
 13 33  1  0  0  0  0
 14 15  1  0  0  0  0
 14 34  1  0  0  0  0
 14 35  1  0  0  0  0
 15 16  1  0  0  0  0
 15 36  1  0  0  0  0
 15 37  1  0  0  0  0
 16 17  1  0  0  0  0
 16 38  1  0  0  0  0
 16 39  1  0  0  0  0
 17 18  1  0  0  0  0
 17 40  1  0  0  0  0
 18 41  1  0  0  0  0
 18 42  1  0  0  0  0
 18 43  1  0  0  0  0
 19 20  1  0  0  0  0
M  CHG  1   8  -1
M  CHG  1  12   1
M  END
> <s_m_source_file>
AV-unprocessed.smi

> <i_m_source_file_index>
1978

> <i_lp_mmshare_version>
43012

> <i_f3d_flags>
0

> <s_epik_input>
W0NIM11jMVtjSF1jKG5vMSlbTkhdQyg9TylbTkhdW0NIMl1bQ0BIXShbQ0gzXSlOMltDSDJdW0NIMl1bQ0gyXVtDSDJdW0NASF0yW0NIM10=

> <s_epik_cmdline>
J2VwaWtfcHl0aG9uJywgJy1waCcsICc3LjAnLCAnLXRuJywgJzgnLCAnLW1hJywgJzIwMCcsICctbWV0YWxfYmluZGluZycsICctaW1hZScsICc8aW5maWxlLm1hZT4nLCAnLW9tYWUnLCAnPG91dGZpbGUubWFlPic=

> <r_epik_Ionization_Penalty>
6.7666

> <r_epik_Ionization_Penalty_Charging>
6.7666

> <r_epik_Ionization_Penalty_Neutral>
5.77131e-06

> <r_epik_State_Penalty>
6.79217

> <r_epik_Charging_Adjusted_Penalty>
13.5588

> <i_epik_Tot_Q>
0

> <i_epik_Tot_abs_Q>
2

> <r_epik_Metal_State_Penalty>
2.72569

> <b_epik_Metal_Only>
1

> <s_lp_Force_Field>
OPLS_2005

> <r_lp_Energy>
22.3249

> <b_lp_Chiralities_Consistent>
1

> <s_lp_Variant>
AV-unprocessed.smi:1978-19

> <Gold.Version>
5.8.1

> <Gold.Id.Protein>
6NUR|6NUR_protein|mol2

> <Gold.PLP.Fitness>
40.0264

> <Gold.PLP.PLP>
-29.8383

> <Gold.PLP.part.hbond>
-4.3772

> <Gold.PLP.part.metal>
0.0000

> <Gold.PLP.part.buried>
-0.1667

> <Gold.PLP.part.nonpolar>
-25.3828

> <Gold.PLP.part.repulsive>
0.0202

> <Gold.PLP.ligand.clash>
0.0000

> <Gold.PLP.ligand.torsion>
1.9489

> <Gold.PLP.Chemscore.Hbond>
4.6296

> <Gold.PLP.Chemscore.CHOScore>
0.0000

> <Gold.PLP.Chemscore.Metal>
0.0000

> <Gold.Chemscore.Hbonds>
donor molecule, donor type, donor heavy atom, donor atom, acceptor molecule, acceptor atom, score
      L1  H    12    44       P1  7948  1.98
      P1  H  6896  6907       L1     7  1.00
      P1  H  6931  6943       L1    20  0.91
      P1  H  6934  6947       L1    20  0.62

> <Gold.PLP.Chemscore.Internal.Correction>
0.1972

> <Gold.Rescore>
     Score         DG    S(hbond)    S(metal)    S(lipo)     H(rot)  DE(clash)    DE(int)     intcor
     15.95     -19.15       2.83        0.00      69.29       1.52       0.22       2.97       ----

> <Gold.Chemscore.Fitness>
15.9519

> <Gold.Chemscore.DG>
-19.1457

> <Gold.Chemscore.ZeroCoef>
-5.4800

> <Gold.Chemscore.Hbond>
2.8284

> <Gold.Chemscore.Metal>
0.0000

> <Gold.Chemscore.Lipo>
69.2935

> <Gold.Chemscore.Internal_Hbond>
0.0000

> <Gold.Chemscore.DEClash>
0.2234

> <Gold.Chemscore.DEInternal>
2.9704

> <Gold.Chemscore.Rot>
1.5190

> <Gold.Chemscore.Internal.Correction>
   9.000000E+99

> <Gold.Chemscore.Hbonds>
donor molecule, donor type, donor heavy atom, donor atom, acceptor molecule, acceptor atom, score
      L1  H    12    44       P1  7948  0.82
      P1  H  6896  6907       L1     7  0.99
      P1  H  6931  6943       L1    20  0.53
      P1  H  6934  6947       L1    20  0.06

> <Gold.Chemscore.Hbond.Weighted>
-9.4470

> <Gold.Chemscore.Metal.Weighted>
-0.0000

> <Gold.Chemscore.Lipo.Weighted>
-8.1073

> <Gold.Chemscore.Internal_Hbond.Weighted>
0.0000

> <Gold.Chemscore.DEClash.Weighted>
0.2234

> <Gold.Chemscore.DEInternal.Weighted>
2.9704

> <Gold.Chemscore.Rot.Weighted>
3.8886

> <Gold.Chemscore.Internal.Correction.Weighted>
   9.000000E+99

> <Gold.Protein.RotatedTorsions>
[ 6907 6896 6895 6894 ] final -124.32 input  -60.11 | X-H torsion
[ 7974 7965 7964 7962 ] final  100.36 input  175.53 | X-H torsion
[ 8008 7997 7996 7995 ] final  -32.81 input   59.86 | X-H torsion
[ 10167 10162 10161 10158 ] final  152.97 input  -65.29 | X-H torsion
[ 10718 10713 10712 10709 ] final -162.63 input   66.30 | X-H torsion
[ 10763 10752 10751 10750 ] final  134.06 input  -60.55 | X-H torsion
[ 11005 11000 10999 10996 ] final  109.48 input  -57.11 | X-H torsion

> <Gold.Protein.ActiveResidues>
 VAL166  LYS551  ARG553  GLY616  TRP617  ASP618  TYR619  PRO620  LYS621  CYS622 
 ASP623  PHE694  ASN695  SER759  ASP760  ASP761  ALA762  ILE779  LEU786  VAL792 
 PHE793  MET794  SER795  GLU796  ALA797  LYS798  CYS799  TRP800  GLU811  SER814 

> <Gold.Protein.RotatedAtoms>
  150.8757  133.7443  159.2947 H   0  0  0  0  0  0  0  0  0  0  0  0  # atno 6907 bound_to 6896
  151.5041  135.1061  159.9846 H   0  0  0  0  0  0  0  0  0  0  0  0  # atno 6908 bound_to 6896
  152.4725  133.8018  159.7012 H   0  0  0  0  0  0  0  0  0  0  0  0  # atno 6909 bound_to 6896
  145.3865  139.2370  143.3375 H   0  0  0  0  0  0  0  0  0  0  0  0  # atno 7974 bound_to 7965
  154.4168  140.1727  156.1787 H   0  0  0  0  0  0  0  0  0  0  0  0  # atno 8008 bound_to 7997
  155.9700  140.3386  155.6543 H   0  0  0  0  0  0  0  0  0  0  0  0  # atno 8009 bound_to 7997
  155.6638  140.0704  157.2535 H   0  0  0  0  0  0  0  0  0  0  0  0  # atno 8010 bound_to 7997
  139.4829  144.5313  151.7718 H   0  0  0  0  0  0  0  0  0  0  0  0  # atno 10167 bound_to 10162
  156.6131  130.8859  151.2941 H   0  0  0  0  0  0  0  0  0  0  0  0  # atno 10718 bound_to 10713
  153.8174  135.3121  155.3407 H   0  0  0  0  0  0  0  0  0  0  0  0  # atno 10763 bound_to 10752
  154.8027  135.4717  154.0317 H   0  0  0  0  0  0  0  0  0  0  0  0  # atno 10764 bound_to 10752
  153.1715  135.6878  153.8691 H   0  0  0  0  0  0  0  0  0  0  0  0  # atno 10765 bound_to 10752
  139.8863  134.9459  156.6132 H   0  0  0  0  0  0  0  0  0  0  0  0  # atno 11005 bound_to 11000
  146.2817  140.4541  142.8773 LP  0  0  0  0  0  0  0  0  0  0  0  0  # atno 17320 bound_to 7965
  144.8470  140.6944  143.6193 LP  0  0  0  0  0  0  0  0  0  0  0  0  # atno 17321 bound_to 7965
  140.4839  144.1409  150.5937 LP  0  0  0  0  0  0  0  0  0  0  0  0  # atno 17342 bound_to 10162
  140.4247  143.2595  151.9672 LP  0  0  0  0  0  0  0  0  0  0  0  0  # atno 17343 bound_to 10162
  157.7248  130.9608  150.1591 LP  0  0  0  0  0  0  0  0  0  0  0  0  # atno 17370 bound_to 10713
  156.2373  130.3687  149.8377 LP  0  0  0  0  0  0  0  0  0  0  0  0  # atno 17371 bound_to 10713
  140.7795  133.8671  155.8556 LP  0  0  0  0  0  0  0  0  0  0  0  0  # atno 17394 bound_to 11000
  140.9772  134.1453  157.4525 LP  0  0  0  0  0  0  0  0  0  0  0  0  # atno 17395 bound_to 11000

$$$$
