AV-unprocessed.smi:2088|AV-procd|sdf|8526|dock3
  -GOLD-   2272011243D 1   1.00000     0.00000
 Structure written by MMmdl.
 33 34  0  0  0  0  0  0  0  0  1 V2000
  150.5270  140.8433  157.9500 O   0  0  0  0  0  0  0  0  0  0  0  0
  150.1998  141.6614  157.0901 C   0  0  0  0  0  0  0  0  0  0  0  0
  150.1257  141.2388  155.6215 C   0  0  0  0  0  0  0  0  0  0  0  0
  148.7935  141.4472  155.0829 N   0  0  0  0  0  0  0  0  0  0  0  0
  148.3215  141.1460  153.8232 C   0  0  0  0  0  0  0  0  0  0  0  0
  147.0086  141.5172  153.7824 C   0  0  0  0  0  0  0  0  0  0  0  0
  146.7566  142.0449  155.0822 C   0  0  0  0  0  0  0  0  0  0  0  0
  145.4723  142.6140  155.6254 C   0  0  0  0  0  0  0  0  0  0  0  0
  144.5290  141.6729  155.6626 F   0  0  0  0  0  0  0  0  0  0  0  0
  145.6647  143.0768  156.8606 F   0  0  0  0  0  0  0  0  0  0  0  0
  145.0525  143.6113  154.8470 F   0  0  0  0  0  0  0  0  0  0  0  0
  147.8338  142.0001  155.8555 N   0  0  0  0  0  0  0  0  0  0  0  0
  149.8940  142.9386  157.3653 N   0  0  0  0  0  0  0  0  0  0  0  0
  149.9003  143.5332  158.6971 C   0  0  0  0  0  0  0  0  0  0  0  0
  151.3284  143.8386  159.1803 C   0  0  2  0  0  0  0  0  0  0  0  0
  152.2997  142.6755  158.9998 C   0  0  0  0  0  0  0  0  0  0  0  0
  153.3781  143.0274  159.9991 C   0  0  0  0  0  0  0  0  0  0  0  0
  152.5706  143.6267  161.1492 C   0  0  0  0  0  0  0  0  0  0  0  0
  151.3466  144.0909  160.5821 O   0  0  0  0  0  0  0  0  0  0  0  0
  150.8519  141.7884  155.0198 H   0  0  0  0  0  0  0  0  0  0  0  0
  150.3753  140.1806  155.5364 H   0  0  0  0  0  0  0  0  0  0  0  0
  148.9519  140.6950  153.0708 H   0  0  0  0  0  0  0  0  0  0  0  0
  146.3286  141.4247  152.9487 H   0  0  0  0  0  0  0  0  0  0  0  0
  149.6389  143.5427  156.5975 H   0  0  0  0  0  0  0  0  0  0  0  0
  149.3104  144.4497  158.6689 H   0  0  0  0  0  0  0  0  0  0  0  0
  149.3992  142.8644  159.3986 H   0  0  0  0  0  0  0  0  0  0  0  0
  151.7297  144.7160  158.6701 H   0  0  0  0  0  0  0  0  0  0  0  0
  151.8274  141.7315  159.2755 H   0  0  0  0  0  0  0  0  0  0  0  0
  152.6740  142.5881  157.9794 H   0  0  0  0  0  0  0  0  0  0  0  0
  153.9804  142.1703  160.3010 H   0  0  0  0  0  0  0  0  0  0  0  0
  154.0443  143.7804  159.5762 H   0  0  0  0  0  0  0  0  0  0  0  0
  152.3402  142.8664  161.8961 H   0  0  0  0  0  0  0  0  0  0  0  0
  153.1071  144.4362  161.6447 H   0  0  0  0  0  0  0  0  0  0  0  0
  1  2  2  0  0  0  0
  2  3  1  0  0  0  0
  2 13  1  0  0  0  0
  3  4  1  0  0  0  0
  3 20  1  0  0  0  0
  3 21  1  0  0  0  0
  4 12  1  0  0  0  0
  4  5  1  0  0  0  0
  5  6  2  0  0  0  0
  5 22  1  0  0  0  0
  6  7  1  0  0  0  0
  6 23  1  0  0  0  0
  7  8  1  0  0  0  0
  7 12  2  0  0  0  0
  8  9  1  0  0  0  0
  8 10  1  0  0  0  0
  8 11  1  0  0  0  0
 13 14  1  0  0  0  0
 13 24  1  0  0  0  0
 14 15  1  0  0  0  0
 14 25  1  0  0  0  0
 14 26  1  0  0  0  0
 15 19  1  0  0  0  0
 15 16  1  0  0  0  0
 15 27  1  0  0  0  0
 16 17  1  0  0  0  0
 16 28  1  0  0  0  0
 16 29  1  0  0  0  0
 17 18  1  0  0  0  0
 17 30  1  0  0  0  0
 17 31  1  0  0  0  0
 18 19  1  0  0  0  0
 18 32  1  0  0  0  0
 18 33  1  0  0  0  0
M  END
> <s_m_source_file>
AV-unprocessed.smi

> <i_m_source_file_index>
2088

> <i_lp_mmshare_version>
43012

> <i_f3d_flags>
0

> <s_epik_input>
TzFbQ0gyXVtDSDJdW0NIMl1bQ0BIXTFbQ0gyXVtOSF1DKD1PKVtDSDJdbjJbY0hdW2NIXWMobjIpQyhGKShGKUY=

> <s_epik_cmdline>
J2VwaWtfcHl0aG9uJywgJy1waCcsICc3LjAnLCAnLXRuJywgJzgnLCAnLW1hJywgJzIwMCcsICctbWV0YWxfYmluZGluZycsICctaW1hZScsICc8aW5maWxlLm1hZT4nLCAnLW9tYWUnLCAnPG91dGZpbGUubWFlPic=

> <r_lp_tautomer_probability>
1

> <r_epik_Ionization_Penalty>
2.25732e-07

> <r_epik_Ionization_Penalty_Charging>
0

> <r_epik_Ionization_Penalty_Neutral>
2.25732e-07

> <r_epik_State_Penalty>
-0

> <r_epik_Charging_Adjusted_Penalty>
0

> <i_epik_Tot_Q>
0

> <i_epik_Tot_abs_Q>
0

> <r_epik_Metal_State_Penalty>
-0

> <b_epik_Metal_Only>
0

> <s_lp_Force_Field>
OPLS_2005

> <r_lp_Energy>
20.6352

> <b_lp_Chiralities_Consistent>
1

> <s_lp_Variant>
AV-unprocessed.smi:2088-1

> <Gold.Version>
5.8.1

> <Gold.Id.Protein>
6NUR|6NUR_protein|mol2

> <Gold.PLP.Fitness>
42.6095

> <Gold.PLP.PLP>
-37.0888

> <Gold.PLP.part.hbond>
-1.0000

> <Gold.PLP.part.metal>
0.0000

> <Gold.PLP.part.buried>
-5.9716

> <Gold.PLP.part.nonpolar>
-31.8579

> <Gold.PLP.part.repulsive>
1.6314

> <Gold.PLP.ligand.clash>
0.0000

> <Gold.PLP.ligand.torsion>
0.2456

> <Gold.PLP.Chemscore.Hbond>
1.0000

> <Gold.PLP.Chemscore.CHOScore>
1.0000

> <Gold.PLP.Chemscore.Metal>
0.0000

> <Gold.Chemscore.Hbonds>
donor molecule, donor type, donor heavy atom, donor atom, acceptor molecule, acceptor atom, score
      L1  H    13    24       P1  8028  1.00
      L1  C     5    22       P1  7957  1.00

> <Gold.PLP.Chemscore.Internal.Correction>
0.0118

> <Gold.Rescore>
     Score         DG    S(hbond)    S(metal)    S(lipo)     H(rot)  DE(clash)    DE(int)     intcor
     12.62     -13.53       1.00        0.00      81.72       1.89       0.20       0.71       ----

> <Gold.Chemscore.Fitness>
12.6154

> <Gold.Chemscore.DG>
-13.5260

> <Gold.Chemscore.ZeroCoef>
-5.4800

> <Gold.Chemscore.Hbond>
0.9972

> <Gold.Chemscore.Metal>
0.0000

> <Gold.Chemscore.Lipo>
81.7158

> <Gold.Chemscore.Internal_Hbond>
0.0000

> <Gold.Chemscore.DEClash>
0.2041

> <Gold.Chemscore.DEInternal>
0.7065

> <Gold.Chemscore.Rot>
1.8928

> <Gold.Chemscore.Internal.Correction>
   9.000000E+99

> <Gold.Chemscore.Hbonds>
donor molecule, donor type, donor heavy atom, donor atom, acceptor molecule, acceptor atom, score
      L1  H    13    24       P1  8028  1.00

> <Gold.Chemscore.Hbond.Weighted>
-3.3307

> <Gold.Chemscore.Metal.Weighted>
-0.0000

> <Gold.Chemscore.Lipo.Weighted>
-9.5608

> <Gold.Chemscore.Internal_Hbond.Weighted>
0.0000

> <Gold.Chemscore.DEClash.Weighted>
0.2041

> <Gold.Chemscore.DEInternal.Weighted>
0.7065

> <Gold.Chemscore.Rot.Weighted>
4.8455

> <Gold.Chemscore.Internal.Correction.Weighted>
   9.000000E+99

> <Gold.Protein.RotatedTorsions>
[ 6907 6896 6895 6894 ] final  -50.68 input  -60.11 | X-H torsion
[ 7974 7965 7964 7962 ] final  -23.54 input  175.53 | X-H torsion
[ 8008 7997 7996 7995 ] final -106.40 input   59.86 | X-H torsion
[ 10167 10162 10161 10158 ] final   73.92 input  -65.29 | X-H torsion
[ 10718 10713 10712 10709 ] final -164.29 input   66.30 | X-H torsion
[ 10763 10752 10751 10750 ] final   29.48 input  -60.55 | X-H torsion
[ 11005 11000 10999 10996 ] final   -0.08 input  -57.11 | X-H torsion

> <Gold.Protein.ActiveResidues>
 VAL166  LYS551  ARG553  GLY616  TRP617  ASP618  TYR619  PRO620  LYS621  CYS622 
 ASP623  PHE694  ASN695  SER759  ASP760  ASP761  ALA762  ILE779  LEU786  VAL792 
 PHE793  MET794  SER795  GLU796  ALA797  LYS798  CYS799  TRP800  GLU811  SER814 

> <Gold.Protein.RotatedAtoms>
  150.8684  134.8052  159.7135 H   0  0  0  0  0  0  0  0  0  0  0  0  # atno 6907 bound_to 6896
  152.4697  134.4986  159.9727 H   0  0  0  0  0  0  0  0  0  0  0  0  # atno 6908 bound_to 6896
  151.5079  133.3452  159.2915 H   0  0  0  0  0  0  0  0  0  0  0  0  # atno 6909 bound_to 6896
  146.1610  140.4630  142.8571 H   0  0  0  0  0  0  0  0  0  0  0  0  # atno 7974 bound_to 7965
  154.9140  140.0409  157.1961 H   0  0  0  0  0  0  0  0  0  0  0  0  # atno 8008 bound_to 7997
  154.8320  140.2900  155.5694 H   0  0  0  0  0  0  0  0  0  0  0  0  # atno 8009 bound_to 7997
  156.2987  140.2499  156.3247 H   0  0  0  0  0  0  0  0  0  0  0  0  # atno 8010 bound_to 7997
  140.0193  144.5553  150.7595 H   0  0  0  0  0  0  0  0  0  0  0  0  # atno 10167 bound_to 10162
  156.6369  130.8953  151.2988 H   0  0  0  0  0  0  0  0  0  0  0  0  # atno 10718 bound_to 10713
  153.0428  135.6488  154.0898 H   0  0  0  0  0  0  0  0  0  0  0  0  # atno 10763 bound_to 10752
  154.0601  135.2888  155.3328 H   0  0  0  0  0  0  0  0  0  0  0  0  # atno 10764 bound_to 10752
  154.6663  135.5373  153.8146 H   0  0  0  0  0  0  0  0  0  0  0  0  # atno 10765 bound_to 10752
  140.6323  133.9564  155.8281 H   0  0  0  0  0  0  0  0  0  0  0  0  # atno 11005 bound_to 11000
  144.8027  140.6242  143.6468 LP  0  0  0  0  0  0  0  0  0  0  0  0  # atno 17320 bound_to 7965
  145.4589  139.1515  143.3877 LP  0  0  0  0  0  0  0  0  0  0  0  0  # atno 17321 bound_to 7965
  140.7349  143.2734  151.3816 LP  0  0  0  0  0  0  0  0  0  0  0  0  # atno 17342 bound_to 10162
  139.6151  144.1020  152.2337 LP  0  0  0  0  0  0  0  0  0  0  0  0  # atno 17343 bound_to 10162
  157.7183  130.9525  150.1339 LP  0  0  0  0  0  0  0  0  0  0  0  0  # atno 17370 bound_to 10713
  156.2190  130.3672  149.8579 LP  0  0  0  0  0  0  0  0  0  0  0  0  # atno 17371 bound_to 10713
  141.0667  134.0267  157.3584 LP  0  0  0  0  0  0  0  0  0  0  0  0  # atno 17394 bound_to 11000
  139.9111  135.0190  156.7696 LP  0  0  0  0  0  0  0  0  0  0  0  0  # atno 17395 bound_to 11000

$$$$
