AV-unprocessed.smi:713|AV-procd|sdf|3474|dock8
  -GOLD-   22720 0463D 1   1.00000     0.00000
 Structure written by MMmdl.
 41 42  0  0  0  0  0  0  0  0  1 V2000
  145.5987  129.2427  151.8605 C   0  0  0  0  0  0  0  0  0  0  0  0
  146.3799  130.5530  151.6327 C   0  0  2  0  0  0  0  0  0  0  0  0
  146.8914  131.1870  152.9387 C   0  0  0  0  0  0  0  0  0  0  0  0
  146.1051  131.5504  153.8145 O   0  0  0  0  0  0  0  0  0  0  0  0
  148.2241  131.3012  153.0615 N   0  0  0  0  0  0  0  0  0  0  0  0
  148.9197  131.8773  154.2071 C   0  0  2  0  0  0  0  0  0  0  0  0
  149.1063  133.3893  153.9878 C   0  0  0  0  0  0  0  0  0  0  0  0
  149.8749  134.0402  155.1484 C   0  0  0  0  0  0  0  0  0  0  0  0
  151.2188  133.3344  155.4066 C   0  0  0  0  0  0  0  0  0  0  0  0
  151.0954  131.8019  155.5698 C   0  0  1  0  0  0  0  0  0  0  0  0
  150.4059  131.2810  157.2180 S   0  0  0  0  0  0  0  0  0  0  0  0
  150.4105  129.4449  157.0879 C   0  0  0  0  0  0  0  0  0  0  0  0
  151.3371  131.6518  158.2936 O   0  0  0  0  0  0  0  0  0  0  0  0
  149.0077  131.7310  157.2897 O   0  0  0  0  0  0  0  0  0  0  0  0
  150.2855  131.1894  154.4099 C   0  0  0  0  0  0  0  0  0  0  0  0
  145.6057  131.5156  150.8562 N   0  0  0  0  0  0  0  0  0  0  0  0
  144.3770  132.0632  151.1657 C   0  0  0  0  0  0  0  0  0  0  0  0
  144.0232  132.8871  150.1360 C   0  0  0  0  0  0  0  0  0  0  0  0
  145.1092  132.7733  149.2240 C   0  0  0  0  0  0  0  0  0  0  0  0
  146.0504  131.9492  149.6534 N   0  0  0  0  0  0  0  0  0  0  0  0
  146.2144  128.4998  152.3685 H   0  0  0  0  0  0  0  0  0  0  0  0
  145.2830  128.8091  150.9113 H   0  0  0  0  0  0  0  0  0  0  0  0
  144.7043  129.4006  152.4647 H   0  0  0  0  0  0  0  0  0  0  0  0
  147.2632  130.3023  151.0431 H   0  0  0  0  0  0  0  0  0  0  0  0
  148.7986  130.9767  152.2973 H   0  0  0  0  0  0  0  0  0  0  0  0
  148.3021  131.7343  155.0946 H   0  0  0  0  0  0  0  0  0  0  0  0
  149.6478  133.5627  153.0565 H   0  0  0  0  0  0  0  0  0  0  0  0
  148.1357  133.8738  153.8750 H   0  0  0  0  0  0  0  0  0  0  0  0
  150.0540  135.0917  154.9219 H   0  0  0  0  0  0  0  0  0  0  0  0
  149.2596  134.0353  156.0461 H   0  0  0  0  0  0  0  0  0  0  0  0
  151.8754  133.5354  154.5590 H   0  0  0  0  0  0  0  0  0  0  0  0
  151.7126  133.7780  156.2699 H   0  0  0  0  0  0  0  0  0  0  0  0
  152.0980  131.3753  155.5336 H   0  0  0  0  0  0  0  0  0  0  0  0
  149.9189  129.0230  157.9643 H   0  0  0  0  0  0  0  0  0  0  0  0
  151.4342  129.0753  157.0446 H   0  0  0  0  0  0  0  0  0  0  0  0
  149.8708  129.1400  156.1918 H   0  0  0  0  0  0  0  0  0  0  0  0
  150.1507  130.1203  154.5770 H   0  0  0  0  0  0  0  0  0  0  0  0
  150.8681  131.2767  153.4916 H   0  0  0  0  0  0  0  0  0  0  0  0
  143.8614  131.8229  152.0839 H   0  0  0  0  0  0  0  0  0  0  0  0
  143.1245  133.4789  150.0464 H   0  0  0  0  0  0  0  0  0  0  0  0
  145.2395  133.2592  148.2683 H   0  0  0  0  0  0  0  0  0  0  0  0
  1  2  1  0  0  0  0
  1 21  1  0  0  0  0
  1 22  1  0  0  0  0
  1 23  1  0  0  0  0
  2  3  1  0  0  0  0
  2 16  1  0  0  0  0
  2 24  1  0  0  0  0
  3  4  2  0  0  0  0
  3  5  1  0  0  0  0
  5  6  1  0  0  0  0
  5 25  1  0  0  0  0
  6 15  1  0  0  0  0
  6  7  1  0  0  0  0
  6 26  1  0  0  0  0
  7  8  1  0  0  0  0
  7 27  1  0  0  0  0
  7 28  1  0  0  0  0
  8  9  1  0  0  0  0
  8 29  1  0  0  0  0
  8 30  1  0  0  0  0
  9 10  1  0  0  0  0
  9 31  1  0  0  0  0
  9 32  1  0  0  0  0
 10 11  1  0  0  0  0
 10 15  1  0  0  0  0
 10 33  1  0  0  0  0
 11 12  1  0  0  0  0
 11 13  2  0  0  0  0
 11 14  2  0  0  0  0
 12 34  1  0  0  0  0
 12 35  1  0  0  0  0
 12 36  1  0  0  0  0
 15 37  1  0  0  0  0
 15 38  1  0  0  0  0
 16 20  1  0  0  0  0
 16 17  1  0  0  0  0
 17 18  2  0  0  0  0
 17 39  1  0  0  0  0
 18 19  1  0  0  0  0
 18 40  1  0  0  0  0
 19 20  2  0  0  0  0
 19 41  1  0  0  0  0
M  END
> <s_m_source_file>
AV-unprocessed.smi

> <i_m_source_file_index>
713

> <i_lp_mmshare_version>
43012

> <i_f3d_flags>
0

> <s_epik_input>
bjFbY0hdW2NIXVtjSF1uMVtDQEhdKFtDSDNdKUMoPU8pW05IXVtDQEBIXTJbQ0gyXVtDSDJdW0NIMl1bQ0BIXShbQ0gyXTIpUyg9TykoPU8pW0NIM10=

> <s_epik_cmdline>
J2VwaWtfcHl0aG9uJywgJy1waCcsICc3LjAnLCAnLXRuJywgJzgnLCAnLW1hJywgJzIwMCcsICctbWV0YWxfYmluZGluZycsICctaW1hZScsICc8aW5maWxlLm1hZT4nLCAnLW9tYWUnLCAnPG91dGZpbGUubWFlPic=

> <r_lp_tautomer_probability>
1

> <r_epik_Ionization_Penalty>
4.07816e-05

> <r_epik_Ionization_Penalty_Charging>
0

> <r_epik_Ionization_Penalty_Neutral>
4.07816e-05

> <r_epik_State_Penalty>
-0

> <r_epik_Charging_Adjusted_Penalty>
0

> <i_epik_Tot_Q>
0

> <i_epik_Tot_abs_Q>
0

> <r_epik_Metal_State_Penalty>
-0

> <b_epik_Metal_Only>
0

> <s_lp_Force_Field>
OPLS_2005

> <r_lp_Energy>
4.10812

> <b_lp_Chiralities_Consistent>
1

> <s_lp_Variant>
AV-unprocessed.smi:713-1

> <Gold.Version>
5.8.1

> <Gold.Id.Protein>
6NUR|6NUR_protein|mol2

> <Gold.PLP.Fitness>
40.8579

> <Gold.PLP.PLP>
-32.6774

> <Gold.PLP.part.hbond>
-2.0000

> <Gold.PLP.part.metal>
0.0000

> <Gold.PLP.part.buried>
-2.9653

> <Gold.PLP.part.nonpolar>
-25.3411

> <Gold.PLP.part.repulsive>
0.3625

> <Gold.PLP.ligand.clash>
0.0000

> <Gold.PLP.ligand.torsion>
0.5545

> <Gold.PLP.Chemscore.Hbond>
2.0000

> <Gold.PLP.Chemscore.CHOScore>
1.0000

> <Gold.PLP.Chemscore.Metal>
0.0000

> <Gold.Chemscore.Hbonds>
donor molecule, donor type, donor heavy atom, donor atom, acceptor molecule, acceptor atom, score
      L1  H     5    25       P1 10747  0.94
      P1  H  6896  6907       L1    13  1.00
      L1  C    19    41       P1  7921  0.61

> <Gold.PLP.Chemscore.Internal.Correction>
0.2894

> <Gold.Rescore>
     Score         DG    S(hbond)    S(metal)    S(lipo)     H(rot)  DE(clash)    DE(int)     intcor
     16.70     -17.96       1.94        0.00      88.94       1.72       0.13       1.12       ----

> <Gold.Chemscore.Fitness>
16.7012

> <Gold.Chemscore.DG>
-17.9576

> <Gold.Chemscore.ZeroCoef>
-5.4800

> <Gold.Chemscore.Hbond>
1.9423

> <Gold.Chemscore.Metal>
0.0000

> <Gold.Chemscore.Lipo>
88.9412

> <Gold.Chemscore.Internal_Hbond>
0.0000

> <Gold.Chemscore.DEClash>
0.1316

> <Gold.Chemscore.DEInternal>
1.1248

> <Gold.Chemscore.Rot>
1.7249

> <Gold.Chemscore.Internal.Correction>
   9.000000E+99

> <Gold.Chemscore.Hbonds>
donor molecule, donor type, donor heavy atom, donor atom, acceptor molecule, acceptor atom, score
      L1  H     5    25       P1 10747  0.61
      P1  H  6896  6907       L1    13  0.99

> <Gold.Chemscore.Hbond.Weighted>
-6.4872

> <Gold.Chemscore.Metal.Weighted>
-0.0000

> <Gold.Chemscore.Lipo.Weighted>
-10.4061

> <Gold.Chemscore.Internal_Hbond.Weighted>
0.0000

> <Gold.Chemscore.DEClash.Weighted>
0.1316

> <Gold.Chemscore.DEInternal.Weighted>
1.1248

> <Gold.Chemscore.Rot.Weighted>
4.4157

> <Gold.Chemscore.Internal.Correction.Weighted>
   9.000000E+99

> <Gold.Protein.RotatedTorsions>
[ 6907 6896 6895 6894 ] final -163.19 input  -60.11 | X-H torsion
[ 7974 7965 7964 7962 ] final   93.98 input  175.53 | X-H torsion
[ 8008 7997 7996 7995 ] final -177.06 input   59.86 | X-H torsion
[ 10167 10162 10161 10158 ] final   92.81 input  -65.29 | X-H torsion
[ 10718 10713 10712 10709 ] final   53.95 input   66.30 | X-H torsion
[ 10763 10752 10751 10750 ] final  -48.74 input  -60.55 | X-H torsion
[ 11005 11000 10999 10996 ] final -110.66 input  -57.11 | X-H torsion

> <Gold.Protein.ActiveResidues>
 VAL166  LYS551  ARG553  GLY616  TRP617  ASP618  TYR619  PRO620  LYS621  CYS622 
 ASP623  PHE694  ASN695  SER759  ASP760  ASP761  ALA762  ILE779  LEU786  VAL792 
 PHE793  MET794  SER795  GLU796  ALA797  LYS798  CYS799  TRP800  GLU811  SER814 

> <Gold.Protein.RotatedAtoms>
  151.3922  133.3785  159.2721 H   0  0  0  0  0  0  0  0  0  0  0  0  # atno 6907 bound_to 6896
  150.9496  134.8899  159.7674 H   0  0  0  0  0  0  0  0  0  0  0  0  # atno 6908 bound_to 6896
  152.5106  134.3877  159.9425 H   0  0  0  0  0  0  0  0  0  0  0  0  # atno 6909 bound_to 6896
  145.4717  139.2282  143.2931 H   0  0  0  0  0  0  0  0  0  0  0  0  # atno 7974 bound_to 7965
  156.0024  140.1223  157.0534 H   0  0  0  0  0  0  0  0  0  0  0  0  # atno 8008 bound_to 7997
  154.4247  140.1104  156.5784 H   0  0  0  0  0  0  0  0  0  0  0  0  # atno 8009 bound_to 7997
  155.6194  140.3472  155.4649 H   0  0  0  0  0  0  0  0  0  0  0  0  # atno 8010 bound_to 7997
  139.8241  144.6718  150.9482 H   0  0  0  0  0  0  0  0  0  0  0  0  # atno 10167 bound_to 10162
  157.5213  130.8567  149.8563 H   0  0  0  0  0  0  0  0  0  0  0  0  # atno 10718 bound_to 10713
  154.0828  135.6588  153.4840 H   0  0  0  0  0  0  0  0  0  0  0  0  # atno 10763 bound_to 10752
  153.0350  135.5184  154.7457 H   0  0  0  0  0  0  0  0  0  0  0  0  # atno 10764 bound_to 10752
  154.6557  135.3007  154.9898 H   0  0  0  0  0  0  0  0  0  0  0  0  # atno 10765 bound_to 10752
  141.0779  133.9270  157.2351 H   0  0  0  0  0  0  0  0  0  0  0  0  # atno 11005 bound_to 11000
  146.2393  140.5495  142.8941 LP  0  0  0  0  0  0  0  0  0  0  0  0  # atno 17320 bound_to 7965
  144.7941  140.6089  143.6521 LP  0  0  0  0  0  0  0  0  0  0  0  0  # atno 17321 bound_to 7965
  140.7811  143.4063  151.1065 LP  0  0  0  0  0  0  0  0  0  0  0  0  # atno 17342 bound_to 10162
  139.7722  143.8478  152.3122 LP  0  0  0  0  0  0  0  0  0  0  0  0  # atno 17343 bound_to 10162
  156.0356  130.3752  150.1571 LP  0  0  0  0  0  0  0  0  0  0  0  0  # atno 17370 bound_to 10713
  156.9758  130.9849  151.3448 LP  0  0  0  0  0  0  0  0  0  0  0  0  # atno 17371 bound_to 10713
  139.9592  135.0158  156.9213 LP  0  0  0  0  0  0  0  0  0  0  0  0  # atno 17394 bound_to 11000
  140.5533  134.0606  155.7376 LP  0  0  0  0  0  0  0  0  0  0  0  0  # atno 17395 bound_to 11000

$$$$
