AV-unprocessed.smi:465|AV-procd|sdf|2640|dock3
  -GOLD-   2262023 43D 1   1.00000     0.00000
 Structure written by MMmdl.
 43 45  0  0  0  0  0  0  0  0  2 V2000
  155.6845  137.9944  163.6604 C   0  0  0  0  0  0  0  0  0  0  0  0
  155.0582  138.1718  162.2926 C   0  0  0  0  0  0  0  0  0  0  0  0
  154.4971  137.0660  161.6248 C   0  0  0  0  0  0  0  0  0  0  0  0
  153.9185  137.2289  160.3515 C   0  0  0  0  0  0  0  0  0  0  0  0
  153.8911  138.4926  159.7261 C   0  0  0  0  0  0  0  0  0  0  0  0
  153.3093  138.5619  158.4788 O   0  0  0  0  0  0  0  0  0  0  0  0
  153.0128  139.8451  157.9435 C   0  0  0  0  0  0  0  0  0  0  0  0
  151.8553  140.4663  158.7363 C   0  0  0  0  0  0  0  0  0  0  0  0
  151.4352  141.7642  158.1842 N   0  0  0  0  0  0  0  0  0  0  0  0
  150.8610  142.0804  156.9853 C   0  0  0  0  0  0  0  0  0  0  0  0
  150.5082  141.1477  155.8693 C   0  0  0  0  0  0  0  0  0  0  0  0
  149.1451  141.4963  155.2545 C   0  0  0  0  0  0  0  0  0  0  0  0
  149.3122  142.4387  154.2179 O   0  0  0  0  0  0  0  0  0  0  0  0
  150.6618  143.4294  156.9800 N   0  3  0  0  0  0  0  0  0  0  0  0
  151.1328  143.9844  158.1697 C   0  0  0  0  0  0  0  0  0  0  0  0
  151.1578  145.3035  158.6120 C   0  0  0  0  0  0  0  0  0  0  0  0
  151.7213  145.5336  159.8841 C   0  0  0  0  0  0  0  0  0  0  0  0
  152.2323  144.4750  160.6628 C   0  0  0  0  0  0  0  0  0  0  0  0
  152.1989  143.1414  160.2042 C   0  0  0  0  0  0  0  0  0  0  0  0
  151.6376  142.9216  158.9460 C   0  0  0  0  0  0  0  0  0  0  0  0
  154.4569  139.6017  160.4042 C   0  0  0  0  0  0  0  0  0  0  0  0
  155.0370  139.4395  161.6775 C   0  0  0  0  0  0  0  0  0  0  0  0
  155.1134  137.2812  164.2556 H   0  0  0  0  0  0  0  0  0  0  0  0
  155.7161  138.9393  164.2039 H   0  0  0  0  0  0  0  0  0  0  0  0
  156.7039  137.6209  163.5610 H   0  0  0  0  0  0  0  0  0  0  0  0
  154.5080  136.0897  162.0873 H   0  0  0  0  0  0  0  0  0  0  0  0
  153.4874  136.3737  159.8523 H   0  0  0  0  0  0  0  0  0  0  0  0
  153.8890  140.4915  158.0143 H   0  0  0  0  0  0  0  0  0  0  0  0
  152.7349  139.7659  156.8913 H   0  0  0  0  0  0  0  0  0  0  0  0
  150.9928  139.8002  158.7335 H   0  0  0  0  0  0  0  0  0  0  0  0
  152.1280  140.5962  159.7836 H   0  0  0  0  0  0  0  0  0  0  0  0
  151.2791  141.1840  155.1001 H   0  0  0  0  0  0  0  0  0  0  0  0
  150.4990  140.1276  156.2546 H   0  0  0  0  0  0  0  0  0  0  0  0
  148.6610  140.6067  154.8505 H   0  0  0  0  0  0  0  0  0  0  0  0
  148.4785  141.9145  156.0089 H   0  0  0  0  0  0  0  0  0  0  0  0
  149.0355  143.2860  154.5326 H   0  0  0  0  0  0  0  0  0  0  0  0
  150.7695  146.1161  158.0158 H   0  0  0  0  0  0  0  0  0  0  0  0
  151.7646  146.5421  160.2695 H   0  0  0  0  0  0  0  0  0  0  0  0
  152.6588  144.6900  161.6318 H   0  0  0  0  0  0  0  0  0  0  0  0
  152.5965  142.3399  160.8087 H   0  0  0  0  0  0  0  0  0  0  0  0
  154.4608  140.5890  159.9683 H   0  0  0  0  0  0  0  0  0  0  0  0
  155.4661  140.2942  162.1801 H   0  0  0  0  0  0  0  0  0  0  0  0
  150.2408  143.9334  156.2101 H   0  0  0  0  0  0  0  0  0  0  0  0
  1  2  1  0  0  0  0
  1 23  1  0  0  0  0
  1 24  1  0  0  0  0
  1 25  1  0  0  0  0
  2 22  1  0  0  0  0
  2  3  2  0  0  0  0
  3  4  1  0  0  0  0
  3 26  1  0  0  0  0
  4  5  2  0  0  0  0
  4 27  1  0  0  0  0
  5  6  1  0  0  0  0
  5 21  1  0  0  0  0
  6  7  1  0  0  0  0
  7  8  1  0  0  0  0
  7 28  1  0  0  0  0
  7 29  1  0  0  0  0
  8  9  1  0  0  0  0
  8 30  1  0  0  0  0
  8 31  1  0  0  0  0
  9 20  1  0  0  0  0
  9 10  1  0  0  0  0
 10 11  1  0  0  0  0
 10 14  2  0  0  0  0
 11 12  1  0  0  0  0
 11 32  1  0  0  0  0
 11 33  1  0  0  0  0
 12 13  1  0  0  0  0
 12 34  1  0  0  0  0
 12 35  1  0  0  0  0
 13 36  1  0  0  0  0
 14 15  1  0  0  0  0
 14 43  1  0  0  0  0
 15 20  2  0  0  0  0
 15 16  1  0  0  0  0
 16 17  2  0  0  0  0
 16 37  1  0  0  0  0
 17 18  1  0  0  0  0
 17 38  1  0  0  0  0
 18 19  2  0  0  0  0
 18 39  1  0  0  0  0
 19 20  1  0  0  0  0
 19 40  1  0  0  0  0
 21 22  2  0  0  0  0
 21 41  1  0  0  0  0
 22 42  1  0  0  0  0
M  CHG  1  14   1
M  END
> <s_m_source_file>
AV-unprocessed.smi

> <i_m_source_file_index>
465

> <i_lp_mmshare_version>
43012

> <i_f3d_flags>
0

> <s_epik_input>
W0NIM11jMVtjSF1bY0hdYyhbY0hdW2NIXTEpT1tDSDJdW0NIMl1uKGMobjIpW0NIMl1bQ0gyXVtPSF0pYyhjMjMpW2NIXVtjSF1bY0hdW2NIXTM=

> <s_epik_cmdline>
J2VwaWtfcHl0aG9uJywgJy1waCcsICc3LjAnLCAnLXRuJywgJzgnLCAnLW1hJywgJzIwMCcsICctbWV0YWxfYmluZGluZycsICctaW1hZScsICc8aW5maWxlLm1hZT4nLCAnLW9tYWUnLCAnPG91dGZpbGUubWFlPic=

> <r_lp_tautomer_probability>
1

> <r_epik_Ionization_Penalty>
0.721766

> <r_epik_Ionization_Penalty_Charging>
0.721766

> <r_epik_Ionization_Penalty_Neutral>
5.89567e-08

> <r_epik_State_Penalty>
0.746256

> <r_epik_Charging_Adjusted_Penalty>
1.46802

> <i_epik_Tot_Q>
1

> <i_epik_Tot_abs_Q>
1

> <r_epik_Metal_State_Penalty>
4.64148

> <b_epik_Metal_Only>
0

> <s_lp_Force_Field>
OPLS_2005

> <r_lp_Energy>
20.4807

> <b_lp_Chiralities_Consistent>
1

> <s_lp_Variant>
AV-unprocessed.smi:465-2

> <Gold.Version>
5.8.1

> <Gold.Id.Protein>
6NUR|6NUR_protein|mol2

> <Gold.PLP.Fitness>
57.3077

> <Gold.PLP.PLP>
-49.2965

> <Gold.PLP.part.hbond>
-3.1135

> <Gold.PLP.part.metal>
0.0000

> <Gold.PLP.part.buried>
-4.7960

> <Gold.PLP.part.nonpolar>
-39.7009

> <Gold.PLP.part.repulsive>
0.0063

> <Gold.PLP.ligand.clash>
0.0000

> <Gold.PLP.ligand.torsion>
0.6426

> <Gold.PLP.Chemscore.Hbond>
3.0802

> <Gold.PLP.Chemscore.CHOScore>
0.0000

> <Gold.PLP.Chemscore.Metal>
0.0000

> <Gold.Chemscore.Hbonds>
donor molecule, donor type, donor heavy atom, donor atom, acceptor molecule, acceptor atom, score
      L1  H    13    36       P1  8028  1.00
      L1  H    14    43       P1  8028  1.86
      P1  H  8011  8017       L1    13  0.13

> <Gold.PLP.Chemscore.Internal.Correction>
0.0560

> <Gold.Rescore>
     Score         DG    S(hbond)    S(metal)    S(lipo)     H(rot)  DE(clash)    DE(int)     intcor
     21.10     -22.03       2.02        0.00     135.46       2.36       0.09       0.83       ----

> <Gold.Chemscore.Fitness>
21.1040

> <Gold.Chemscore.DG>
-22.0256

> <Gold.Chemscore.ZeroCoef>
-5.4800

> <Gold.Chemscore.Hbond>
2.0211

> <Gold.Chemscore.Metal>
0.0000

> <Gold.Chemscore.Lipo>
135.4630

> <Gold.Chemscore.Internal_Hbond>
0.0000

> <Gold.Chemscore.DEClash>
0.0868

> <Gold.Chemscore.DEInternal>
0.8347

> <Gold.Chemscore.Rot>
2.3648

> <Gold.Chemscore.Internal.Correction>
   9.000000E+99

> <Gold.Chemscore.Hbonds>
donor molecule, donor type, donor heavy atom, donor atom, acceptor molecule, acceptor atom, score
      L1  H    13    36       P1  8028  1.00
      L1  H    14    43       P1  8028  0.89
      P1  H  8011  8017       L1    13  0.13

> <Gold.Chemscore.Hbond.Weighted>
-6.7504

> <Gold.Chemscore.Metal.Weighted>
-0.0000

> <Gold.Chemscore.Lipo.Weighted>
-15.8492

> <Gold.Chemscore.Internal_Hbond.Weighted>
0.0000

> <Gold.Chemscore.DEClash.Weighted>
0.0868

> <Gold.Chemscore.DEInternal.Weighted>
0.8347

> <Gold.Chemscore.Rot.Weighted>
6.0540

> <Gold.Chemscore.Internal.Correction.Weighted>
   9.000000E+99

> <Gold.Protein.RotatedTorsions>
[ 6907 6896 6895 6894 ] final  103.67 input  -60.11 | X-H torsion
[ 7974 7965 7964 7962 ] final -124.49 input  175.53 | X-H torsion
[ 8008 7997 7996 7995 ] final -166.15 input   59.86 | X-H torsion
[ 10167 10162 10161 10158 ] final -161.77 input  -65.29 | X-H torsion
[ 10718 10713 10712 10709 ] final  -45.53 input   66.30 | X-H torsion
[ 10763 10752 10751 10750 ] final   43.36 input  -60.55 | X-H torsion
[ 11005 11000 10999 10996 ] final -112.68 input  -57.11 | X-H torsion

> <Gold.Protein.ActiveResidues>
 VAL166  LYS551  ARG553  GLY616  TRP617  ASP618  TYR619  PRO620  LYS621  CYS622 
 ASP623  PHE694  ASN695  SER759  ASP760  ASP761  ALA762  ILE779  LEU786  VAL792 
 PHE793  MET794  SER795  GLU796  ALA797  LYS798  CYS799  TRP800  GLU811  SER814 

> <Gold.Protein.RotatedAtoms>
  152.5288  133.9791  159.7797 H   0  0  0  0  0  0  0  0  0  0  0  0  # atno 6907 bound_to 6896
  151.0048  133.6013  159.2697 H   0  0  0  0  0  0  0  0  0  0  0  0  # atno 6908 bound_to 6896
  151.3109  135.0800  159.9325 H   0  0  0  0  0  0  0  0  0  0  0  0  # atno 6909 bound_to 6896
  145.0075  140.7876  143.4458 H   0  0  0  0  0  0  0  0  0  0  0  0  # atno 7974 bound_to 7965
  155.8598  140.0976  157.1621 H   0  0  0  0  0  0  0  0  0  0  0  0  # atno 8008 bound_to 7997
  154.3990  140.1367  156.4009 H   0  0  0  0  0  0  0  0  0  0  0  0  # atno 8009 bound_to 7997
  155.7869  140.3457  155.5330 H   0  0  0  0  0  0  0  0  0  0  0  0  # atno 8010 bound_to 7997
  139.6440  144.0206  152.2113 H   0  0  0  0  0  0  0  0  0  0  0  0  # atno 10167 bound_to 10162
  156.2274  130.4170  149.8916 H   0  0  0  0  0  0  0  0  0  0  0  0  # atno 10718 bound_to 10713
  152.9862  135.6104  154.3098 H   0  0  0  0  0  0  0  0  0  0  0  0  # atno 10763 bound_to 10752
  154.2814  135.2777  155.2697 H   0  0  0  0  0  0  0  0  0  0  0  0  # atno 10764 bound_to 10752
  154.5034  135.5860  153.6605 H   0  0  0  0  0  0  0  0  0  0  0  0  # atno 10765 bound_to 10752
  141.0661  133.9457  157.2576 H   0  0  0  0  0  0  0  0  0  0  0  0  # atno 11005 bound_to 11000
  145.2068  139.2224  143.5164 LP  0  0  0  0  0  0  0  0  0  0  0  0  # atno 17320 bound_to 7965
  146.3464  140.1897  142.8589 LP  0  0  0  0  0  0  0  0  0  0  0  0  # atno 17321 bound_to 7965
  139.9903  144.6366  150.7820 LP  0  0  0  0  0  0  0  0  0  0  0  0  # atno 17342 bound_to 10162
  140.7505  143.2957  151.3211 LP  0  0  0  0  0  0  0  0  0  0  0  0  # atno 17343 bound_to 10162
  156.6542  130.8756  151.3536 LP  0  0  0  0  0  0  0  0  0  0  0  0  # atno 17370 bound_to 10713
  157.7117  130.9448  150.1112 LP  0  0  0  0  0  0  0  0  0  0  0  0  # atno 17371 bound_to 10713
  139.9477  135.0181  156.8903 LP  0  0  0  0  0  0  0  0  0  0  0  0  # atno 17394 bound_to 11000
  140.5771  134.0388  155.7450 LP  0  0  0  0  0  0  0  0  0  0  0  0  # atno 17395 bound_to 11000

$$$$
