AV-unprocessed.smi:2467|AV-procd|sdf|9725|dock10
  -GOLD-   2272013363D 1   1.00000     0.00000
 Structure written by MMmdl.
 46 47  0  0  0  0  0  0  0  0  1 V2000
  151.3491  137.8248  154.4793 C   0  0  0  0  0  0  0  0  0  0  0  0
  150.8900  139.1179  155.1713 C   0  0  0  0  0  0  0  0  0  0  0  0
  149.7551  139.8793  154.4409 C   0  0  0  0  0  0  0  0  0  0  0  0
  149.4678  141.2429  155.1193 C   0  0  0  0  0  0  0  0  0  0  0  0
  150.6345  141.8000  155.9494 C   0  0  0  0  0  0  0  0  0  0  0  0
  148.4783  139.0076  154.3122 C   0  0  2  0  0  0  0  0  0  0  0  0
  147.4079  139.5725  153.3485 C   0  0  0  0  0  0  0  0  0  0  0  0
  146.1838  138.6456  153.2759 C   0  0  1  0  0  0  0  0  0  0  0  0
  146.5282  137.4202  152.5599 N   0  0  0  0  0  0  0  0  0  0  0  0
  145.7215  136.3709  152.3391 C   0  0  0  0  0  0  0  0  0  0  0  0
  144.5521  136.3392  152.7186 O   0  0  0  0  0  0  0  0  0  0  0  0
  146.2697  135.3313  151.6733 N   0  0  0  0  0  0  0  0  0  0  0  0
  145.7268  134.0746  151.2685 C   0  0  0  0  0  0  0  0  0  0  0  0
  144.3148  134.0373  151.2196 C   0  0  0  0  0  0  0  0  0  0  0  0
  143.6617  132.8510  150.8325 C   0  0  0  0  0  0  0  0  0  0  0  0
  144.4384  131.7267  150.5013 C   0  0  0  0  0  0  0  0  0  0  0  0
  145.8380  131.8441  150.5747 C   0  0  0  0  0  0  0  0  0  0  0  0
  146.4645  132.9805  150.9464 N   0  0  0  0  0  0  0  0  0  0  0  0
  145.6897  138.3466  154.7032 C   0  0  0  0  0  0  0  0  0  0  0  0
  146.8385  137.8602  155.6043 C   0  0  0  0  0  0  0  0  0  0  0  0
  147.9026  138.8068  155.6016 O   0  0  0  0  0  0  0  0  0  0  0  0
  152.2385  137.4265  154.9677 H   0  0  0  0  0  0  0  0  0  0  0  0
  151.5994  138.0027  153.4332 H   0  0  0  0  0  0  0  0  0  0  0  0
  150.5893  137.0454  154.5189 H   0  0  0  0  0  0  0  0  0  0  0  0
  150.5907  138.8961  156.1963 H   0  0  0  0  0  0  0  0  0  0  0  0
  151.7668  139.7583  155.2518 H   0  0  0  0  0  0  0  0  0  0  0  0
  150.1044  140.0863  153.4282 H   0  0  0  0  0  0  0  0  0  0  0  0
  149.2331  141.9938  154.3677 H   0  0  0  0  0  0  0  0  0  0  0  0
  148.5791  141.1662  155.7467 H   0  0  0  0  0  0  0  0  0  0  0  0
  150.4026  142.8025  156.3095 H   0  0  0  0  0  0  0  0  0  0  0  0
  151.5452  141.8672  155.3538 H   0  0  0  0  0  0  0  0  0  0  0  0
  150.8469  141.1870  156.8245 H   0  0  0  0  0  0  0  0  0  0  0  0
  148.7742  138.0362  153.9191 H   0  0  0  0  0  0  0  0  0  0  0  0
  147.0705  140.5522  153.6833 H   0  0  0  0  0  0  0  0  0  0  0  0
  147.8308  139.7176  152.3535 H   0  0  0  0  0  0  0  0  0  0  0  0
  145.3944  139.1556  152.7211 H   0  0  0  0  0  0  0  0  0  0  0  0
  147.4737  137.3555  152.2092 H   0  0  0  0  0  0  0  0  0  0  0  0
  147.2318  135.4734  151.4026 H   0  0  0  0  0  0  0  0  0  0  0  0
  143.7309  134.9095  151.4763 H   0  0  0  0  0  0  0  0  0  0  0  0
  142.5834  132.8065  150.7903 H   0  0  0  0  0  0  0  0  0  0  0  0
  143.9741  130.7997  150.1989 H   0  0  0  0  0  0  0  0  0  0  0  0
  146.4717  131.0052  150.3279 H   0  0  0  0  0  0  0  0  0  0  0  0
  145.2669  139.2561  155.1319 H   0  0  0  0  0  0  0  0  0  0  0  0
  144.8824  137.6136  154.6895 H   0  0  0  0  0  0  0  0  0  0  0  0
  146.4827  137.7368  156.6272 H   0  0  0  0  0  0  0  0  0  0  0  0
  147.2047  136.8853  155.2789 H   0  0  0  0  0  0  0  0  0  0  0  0
  1  2  1  0  0  0  0
  1 22  1  0  0  0  0
  1 23  1  0  0  0  0
  1 24  1  0  0  0  0
  2  3  1  0  0  0  0
  2 25  1  0  0  0  0
  2 26  1  0  0  0  0
  3  4  1  0  0  0  0
  3  6  1  0  0  0  0
  3 27  1  0  0  0  0
  4  5  1  0  0  0  0
  4 28  1  0  0  0  0
  4 29  1  0  0  0  0
  5 30  1  0  0  0  0
  5 31  1  0  0  0  0
  5 32  1  0  0  0  0
  6 21  1  0  0  0  0
  6  7  1  0  0  0  0
  6 33  1  0  0  0  0
  7  8  1  0  0  0  0
  7 34  1  0  0  0  0
  7 35  1  0  0  0  0
  8  9  1  0  0  0  0
  8 19  1  0  0  0  0
  8 36  1  0  0  0  0
  9 10  1  0  0  0  0
  9 37  1  0  0  0  0
 10 11  2  0  0  0  0
 10 12  1  0  0  0  0
 12 13  1  0  0  0  0
 12 38  1  0  0  0  0
 13 18  1  0  0  0  0
 13 14  2  0  0  0  0
 14 15  1  0  0  0  0
 14 39  1  0  0  0  0
 15 16  2  0  0  0  0
 15 40  1  0  0  0  0
 16 17  1  0  0  0  0
 16 41  1  0  0  0  0
 17 18  2  0  0  0  0
 17 42  1  0  0  0  0
 19 20  1  0  0  0  0
 19 43  1  0  0  0  0
 19 44  1  0  0  0  0
 20 21  1  0  0  0  0
 20 45  1  0  0  0  0
 20 46  1  0  0  0  0
M  END
> <s_m_source_file>
AV-unprocessed.smi

> <i_m_source_file_index>
2467

> <i_lp_mmshare_version>
43012

> <i_f3d_flags>
0

> <s_epik_input>
W0NIM11bQ0gyXVtDSF0oW0NIMl1bQ0gzXSlbQ0BASF0xW0NIMl1bQ0BIXShbQ0gyXVtDSDJdTzEpW05IXUMoPU8pW05IXWMyW2NIXVtjSF1bY0hdW2NIXW4y

> <s_epik_cmdline>
J2VwaWtfcHl0aG9uJywgJy1waCcsICc3LjAnLCAnLXRuJywgJzgnLCAnLW1hJywgJzIwMCcsICctbWV0YWxfYmluZGluZycsICctaW1hZScsICc8aW5maWxlLm1hZT4nLCAnLW9tYWUnLCAnPG91dGZpbGUubWFlPic=

> <r_lp_tautomer_probability>
1

> <r_epik_Ionization_Penalty>
4.80427e-05

> <r_epik_Ionization_Penalty_Charging>
0

> <r_epik_Ionization_Penalty_Neutral>
4.80427e-05

> <r_epik_State_Penalty>
-0

> <r_epik_Charging_Adjusted_Penalty>
0

> <i_epik_Tot_Q>
0

> <i_epik_Tot_abs_Q>
0

> <r_epik_Metal_State_Penalty>
-0

> <b_epik_Metal_Only>
0

> <s_lp_Force_Field>
OPLS_2005

> <r_lp_Energy>
18.1019

> <b_lp_Chiralities_Consistent>
1

> <s_lp_Variant>
AV-unprocessed.smi:2467-1

> <Gold.Version>
5.8.1

> <Gold.Id.Protein>
6NUR|6NUR_protein|mol2

> <Gold.PLP.Fitness>
43.6618

> <Gold.PLP.PLP>
-36.1391

> <Gold.PLP.part.hbond>
-2.0000

> <Gold.PLP.part.metal>
0.0000

> <Gold.PLP.part.buried>
-4.3213

> <Gold.PLP.part.nonpolar>
-30.5844

> <Gold.PLP.part.repulsive>
0.4479

> <Gold.PLP.ligand.clash>
0.0000

> <Gold.PLP.ligand.torsion>
0.6326

> <Gold.PLP.Chemscore.Hbond>
1.9040

> <Gold.PLP.Chemscore.CHOScore>
0.9974

> <Gold.PLP.Chemscore.Metal>
0.0000

> <Gold.Chemscore.Hbonds>
donor molecule, donor type, donor heavy atom, donor atom, acceptor molecule, acceptor atom, score
      L1  H     9    37       P1  7948  0.94
      L1  H    12    38       P1  7948  0.98
      L1  C    17    42       P1 10747  1.00

> <Gold.PLP.Chemscore.Internal.Correction>
0.0837

> <Gold.Rescore>
     Score         DG    S(hbond)    S(metal)    S(lipo)     H(rot)  DE(clash)    DE(int)     intcor
     16.04     -18.14       1.91        0.00      86.27       1.49       0.04       2.06       ----

> <Gold.Chemscore.Fitness>
16.0442

> <Gold.Chemscore.DG>
-18.1409

> <Gold.Chemscore.ZeroCoef>
-5.4800

> <Gold.Chemscore.Hbond>
1.9072

> <Gold.Chemscore.Metal>
0.0000

> <Gold.Chemscore.Lipo>
86.2732

> <Gold.Chemscore.Internal_Hbond>
0.0000

> <Gold.Chemscore.DEClash>
0.0381

> <Gold.Chemscore.DEInternal>
2.0586

> <Gold.Chemscore.Rot>
1.4856

> <Gold.Chemscore.Internal.Correction>
   9.000000E+99

> <Gold.Chemscore.Hbonds>
donor molecule, donor type, donor heavy atom, donor atom, acceptor molecule, acceptor atom, score
      L1  H     9    37       P1  7948  0.91
      L1  H    12    38       P1  7948  0.88

> <Gold.Chemscore.Hbond.Weighted>
-6.3700

> <Gold.Chemscore.Metal.Weighted>
-0.0000

> <Gold.Chemscore.Lipo.Weighted>
-10.0940

> <Gold.Chemscore.Internal_Hbond.Weighted>
0.0000

> <Gold.Chemscore.DEClash.Weighted>
0.0381

> <Gold.Chemscore.DEInternal.Weighted>
2.0586

> <Gold.Chemscore.Rot.Weighted>
3.8031

> <Gold.Chemscore.Internal.Correction.Weighted>
   9.000000E+99

> <Gold.Protein.RotatedTorsions>
[ 6907 6896 6895 6894 ] final  100.69 input  -60.11 | X-H torsion
[ 7974 7965 7964 7962 ] final  -84.12 input  175.53 | X-H torsion
[ 8008 7997 7996 7995 ] final  144.36 input   59.86 | X-H torsion
[ 10167 10162 10161 10158 ] final  -36.73 input  -65.29 | X-H torsion
[ 10718 10713 10712 10709 ] final  105.79 input   66.30 | X-H torsion
[ 10763 10752 10751 10750 ] final  158.46 input  -60.55 | X-H torsion
[ 11005 11000 10999 10996 ] final  175.31 input  -57.11 | X-H torsion

> <Gold.Protein.ActiveResidues>
 VAL166  LYS551  ARG553  GLY616  TRP617  ASP618  TYR619  PRO620  LYS621  CYS622 
 ASP623  PHE694  ASN695  SER759  ASP760  ASP761  ALA762  ILE779  LEU786  VAL792 
 PHE793  MET794  SER795  GLU796  ALA797  LYS798  CYS799  TRP800  GLU811  SER814 

> <Gold.Protein.RotatedAtoms>
  152.5366  134.0239  159.7993 H   0  0  0  0  0  0  0  0  0  0  0  0  # atno 6907 bound_to 6896
  151.0420  133.5690  159.2657 H   0  0  0  0  0  0  0  0  0  0  0  0  # atno 6908 bound_to 6896
  151.2656  135.0675  159.9168 H   0  0  0  0  0  0  0  0  0  0  0  0  # atno 6909 bound_to 6896
  145.5109  140.9540  143.1708 H   0  0  0  0  0  0  0  0  0  0  0  0  # atno 7974 bound_to 7965
  156.2910  140.2238  156.5040 H   0  0  0  0  0  0  0  0  0  0  0  0  # atno 8008 bound_to 7997
  154.7665  140.0469  157.1038 H   0  0  0  0  0  0  0  0  0  0  0  0  # atno 8009 bound_to 7997
  154.9926  140.3092  155.4903 H   0  0  0  0  0  0  0  0  0  0  0  0  # atno 8010 bound_to 7997
  140.7136  143.3389  151.2401 H   0  0  0  0  0  0  0  0  0  0  0  0  # atno 10167 bound_to 10162
  157.6692  131.0836  150.5910 H   0  0  0  0  0  0  0  0  0  0  0  0  # atno 10718 bound_to 10713
  154.2163  135.2784  155.2940 H   0  0  0  0  0  0  0  0  0  0  0  0  # atno 10763 bound_to 10752
  154.5738  135.5610  153.7123 H   0  0  0  0  0  0  0  0  0  0  0  0  # atno 10764 bound_to 10752
  153.0052  135.6328  154.2303 H   0  0  0  0  0  0  0  0  0  0  0  0  # atno 10765 bound_to 10752
  140.3609  134.7114  157.4330 H   0  0  0  0  0  0  0  0  0  0  0  0  # atno 11005 bound_to 11000
  144.7728  139.6697  143.7187 LP  0  0  0  0  0  0  0  0  0  0  0  0  # atno 17320 bound_to 7965
  146.2167  139.5562  142.9645 LP  0  0  0  0  0  0  0  0  0  0  0  0  # atno 17321 bound_to 7965
  139.6892  143.9722  152.2850 LP  0  0  0  0  0  0  0  0  0  0  0  0  # atno 17342 bound_to 10162
  139.9378  144.6701  150.8297 LP  0  0  0  0  0  0  0  0  0  0  0  0  # atno 17343 bound_to 10162
  156.6210  130.4406  149.5822 LP  0  0  0  0  0  0  0  0  0  0  0  0  # atno 17370 bound_to 10713
  156.2355  130.6820  151.1506 LP  0  0  0  0  0  0  0  0  0  0  0  0  # atno 17371 bound_to 10713
  140.0628  134.5972  155.8730 LP  0  0  0  0  0  0  0  0  0  0  0  0  # atno 17394 bound_to 11000
  141.1984  133.6601  156.5792 LP  0  0  0  0  0  0  0  0  0  0  0  0  # atno 17395 bound_to 11000

$$$$
