AV-unprocessed.smi:988|AV-procd|sdf|4324|dock7
  -GOLD-   22720 2233D 1   1.00000     0.00000
 Structure written by MMmdl.
 28 28  0  0  0  0  0  0  0  0  1 V2000
  152.1129  144.5054  159.6553 C   0  0  0  0  0  0  0  0  0  0  0  0
  152.5927  143.6980  158.5952 O   0  0  0  0  0  0  0  0  0  0  0  0
  151.6983  143.6528  157.4951 C   0  0  0  0  0  0  0  0  0  0  0  0
  151.0966  142.2449  157.3759 C   0  0  0  0  0  0  0  0  0  0  0  0
  150.0128  142.2221  156.4009 N   0  0  0  0  0  0  0  0  0  0  0  0
  149.8623  141.3062  155.4316 C   0  0  0  0  0  0  0  0  0  0  0  0
  150.5878  140.3200  155.3059 O   0  0  0  0  0  0  0  0  0  0  0  0
  148.7305  141.5536  154.4346 C   0  0  0  0  0  0  0  0  0  0  0  0
  147.8440  140.4049  154.3683 N   0  0  0  0  0  0  0  0  0  0  0  0
  148.0401  139.2095  153.7075 C   0  0  0  0  0  0  0  0  0  0  0  0
  146.9294  138.4435  153.9172 C   0  0  0  0  0  0  0  0  0  0  0  0
  146.6972  137.1458  153.4236 N   0  0  0  0  0  0  0  0  0  0  0  0
  146.0991  139.2649  154.7306 C   0  0  0  0  0  0  0  0  0  0  0  0
  146.6489  140.4384  154.9990 N   0  0  0  0  0  0  0  0  0  0  0  0
  152.8311  144.4974  160.4750 H   0  0  0  0  0  0  0  0  0  0  0  0
  151.1611  144.1331  160.0364 H   0  0  0  0  0  0  0  0  0  0  0  0
  151.9822  145.5394  159.3336 H   0  0  0  0  0  0  0  0  0  0  0  0
  150.9012  144.3823  157.6457 H   0  0  0  0  0  0  0  0  0  0  0  0
  152.2139  143.9202  156.5709 H   0  0  0  0  0  0  0  0  0  0  0  0
  151.8691  141.5134  157.1328 H   0  0  0  0  0  0  0  0  0  0  0  0
  150.6809  141.9457  158.3383 H   0  0  0  0  0  0  0  0  0  0  0  0
  149.3652  142.9967  156.4220 H   0  0  0  0  0  0  0  0  0  0  0  0
  148.1496  142.4264  154.7358 H   0  0  0  0  0  0  0  0  0  0  0  0
  149.1398  141.7632  153.4449 H   0  0  0  0  0  0  0  0  0  0  0  0
  148.9419  139.0111  153.1464 H   0  0  0  0  0  0  0  0  0  0  0  0
  147.3738  136.6648  152.8481 H   0  0  0  0  0  0  0  0  0  0  0  0
  145.8445  136.6426  153.6236 H   0  0  0  0  0  0  0  0  0  0  0  0
  145.1201  139.0458  155.1308 H   0  0  0  0  0  0  0  0  0  0  0  0
  1  2  1  0  0  0  0
  1 15  1  0  0  0  0
  1 16  1  0  0  0  0
  1 17  1  0  0  0  0
  2  3  1  0  0  0  0
  3  4  1  0  0  0  0
  3 18  1  0  0  0  0
  3 19  1  0  0  0  0
  4  5  1  0  0  0  0
  4 20  1  0  0  0  0
  4 21  1  0  0  0  0
  5  6  1  0  0  0  0
  5 22  1  0  0  0  0
  6  7  2  0  0  0  0
  6  8  1  0  0  0  0
  8  9  1  0  0  0  0
  8 23  1  0  0  0  0
  8 24  1  0  0  0  0
  9 14  1  0  0  0  0
  9 10  1  0  0  0  0
 10 11  2  0  0  0  0
 10 25  1  0  0  0  0
 11 12  1  0  0  0  0
 11 13  1  0  0  0  0
 12 26  1  0  0  0  0
 12 27  1  0  0  0  0
 13 14  2  0  0  0  0
 13 28  1  0  0  0  0
M  END
> <s_m_source_file>
AV-unprocessed.smi

> <i_m_source_file_index>
988

> <i_lp_mmshare_version>
43012

> <i_f3d_flags>
0

> <s_epik_input>
W0NIM11PW0NIMl1bQ0gyXVtOSF1DKD1PKVtDSDJdbjFbY0hdYyhbTkgyXSlbY0hdbjE=

> <s_epik_cmdline>
J2VwaWtfcHl0aG9uJywgJy1waCcsICc3LjAnLCAnLXRuJywgJzgnLCAnLW1hJywgJzIwMCcsICctbWV0YWxfYmluZGluZycsICctaW1hZScsICc8aW5maWxlLm1hZT4nLCAnLW9tYWUnLCAnPG91dGZpbGUubWFlPic=

> <r_lp_tautomer_probability>
1

> <r_epik_Ionization_Penalty>
0.00010261

> <r_epik_Ionization_Penalty_Charging>
0

> <r_epik_Ionization_Penalty_Neutral>
0.00010261

> <r_epik_State_Penalty>
-0

> <r_epik_Charging_Adjusted_Penalty>
0

> <i_epik_Tot_Q>
0

> <i_epik_Tot_abs_Q>
0

> <r_epik_Metal_State_Penalty>
-0

> <b_epik_Metal_Only>
0

> <s_lp_Force_Field>
OPLS_2005

> <r_lp_Energy>
5.59493

> <b_lp_Chiralities_Consistent>
1

> <s_lp_Variant>
AV-unprocessed.smi:988-1

> <Gold.Version>
5.8.1

> <Gold.Id.Protein>
6NUR|6NUR_protein|mol2

> <Gold.PLP.Fitness>
35.6522

> <Gold.PLP.PLP>
-25.4455

> <Gold.PLP.part.hbond>
-3.0000

> <Gold.PLP.part.metal>
0.0000

> <Gold.PLP.part.buried>
-2.9437

> <Gold.PLP.part.nonpolar>
-19.9967

> <Gold.PLP.part.repulsive>
0.2439

> <Gold.PLP.ligand.clash>
0.0000

> <Gold.PLP.ligand.torsion>
0.7160

> <Gold.PLP.Chemscore.Hbond>
2.8800

> <Gold.PLP.Chemscore.CHOScore>
0.9955

> <Gold.PLP.Chemscore.Metal>
0.0000

> <Gold.Chemscore.Hbonds>
donor molecule, donor type, donor heavy atom, donor atom, acceptor molecule, acceptor atom, score
      L1  H     5    22       P1  8028  0.93
      L1  H    12    26       P1  7948  1.00
      P1  H  7989  7998       L1     7  0.65
      L1  C    10    25       P1  7957  0.94

> <Gold.PLP.Chemscore.Internal.Correction>
0.0122

> <Gold.Rescore>
     Score         DG    S(hbond)    S(metal)    S(lipo)     H(rot)  DE(clash)    DE(int)     intcor
     13.63     -14.04       2.51        0.00      52.28       2.31       0.01       0.40       ----

> <Gold.Chemscore.Fitness>
13.6306

> <Gold.Chemscore.DG>
-14.0423

> <Gold.Chemscore.ZeroCoef>
-5.4800

> <Gold.Chemscore.Hbond>
2.5050

> <Gold.Chemscore.Metal>
0.0000

> <Gold.Chemscore.Lipo>
52.2784

> <Gold.Chemscore.Internal_Hbond>
0.0000

> <Gold.Chemscore.DEClash>
0.0081

> <Gold.Chemscore.DEInternal>
0.4036

> <Gold.Chemscore.Rot>
2.3129

> <Gold.Chemscore.Internal.Correction>
   9.000000E+99

> <Gold.Chemscore.Hbonds>
donor molecule, donor type, donor heavy atom, donor atom, acceptor molecule, acceptor atom, score
      L1  H     5    22       P1  8028  0.89
      L1  H    12    26       P1  7948  1.00
      P1  H  7989  7998       L1     7  0.14

> <Gold.Chemscore.Hbond.Weighted>
-8.3668

> <Gold.Chemscore.Metal.Weighted>
-0.0000

> <Gold.Chemscore.Lipo.Weighted>
-6.1166

> <Gold.Chemscore.Internal_Hbond.Weighted>
0.0000

> <Gold.Chemscore.DEClash.Weighted>
0.0081

> <Gold.Chemscore.DEInternal.Weighted>
0.4036

> <Gold.Chemscore.Rot.Weighted>
5.9211

> <Gold.Chemscore.Internal.Correction.Weighted>
   9.000000E+99

> <Gold.Protein.RotatedTorsions>
[ 6907 6896 6895 6894 ] final   91.83 input  -60.11 | X-H torsion
[ 7974 7965 7964 7962 ] final   60.54 input  175.53 | X-H torsion
[ 8008 7997 7996 7995 ] final  -53.80 input   59.86 | X-H torsion
[ 10167 10162 10161 10158 ] final   25.75 input  -65.29 | X-H torsion
[ 10718 10713 10712 10709 ] final  165.18 input   66.30 | X-H torsion
[ 10763 10752 10751 10750 ] final    2.42 input  -60.55 | X-H torsion
[ 11005 11000 10999 10996 ] final  151.56 input  -57.11 | X-H torsion

> <Gold.Protein.ActiveResidues>
 VAL166  LYS551  ARG553  GLY616  TRP617  ASP618  TYR619  PRO620  LYS621  CYS622 
 ASP623  PHE694  ASN695  SER759  ASP760  ASP761  ALA762  ILE779  LEU786  VAL792 
 PHE793  MET794  SER795  GLU796  ALA797  LYS798  CYS799  TRP800  GLU811  SER814 

> <Gold.Protein.RotatedAtoms>
  152.5451  134.1595  159.8551 H   0  0  0  0  0  0  0  0  0  0  0  0  # atno 6907 bound_to 6896
  151.1615  133.4835  159.2601 H   0  0  0  0  0  0  0  0  0  0  0  0  # atno 6908 bound_to 6896
  151.1368  135.0170  159.8662 H   0  0  0  0  0  0  0  0  0  0  0  0  # atno 6909 bound_to 6896
  145.8949  139.3538  143.0627 H   0  0  0  0  0  0  0  0  0  0  0  0  # atno 7974 bound_to 7965
  154.4143  140.1191  156.5212 H   0  0  0  0  0  0  0  0  0  0  0  0  # atno 8008 bound_to 7997
  155.6700  140.3496  155.4795 H   0  0  0  0  0  0  0  0  0  0  0  0  # atno 8009 bound_to 7997
  155.9641  140.1128  157.0860 H   0  0  0  0  0  0  0  0  0  0  0  0  # atno 8010 bound_to 7997
  140.5080  144.0207  150.6360 H   0  0  0  0  0  0  0  0  0  0  0  0  # atno 10167 bound_to 10162
  157.0837  131.0399  151.2565 H   0  0  0  0  0  0  0  0  0  0  0  0  # atno 10718 bound_to 10713
  153.2958  135.6952  153.7249 H   0  0  0  0  0  0  0  0  0  0  0  0  # atno 10763 bound_to 10752
  153.6182  135.3432  155.3003 H   0  0  0  0  0  0  0  0  0  0  0  0  # atno 10764 bound_to 10752
  154.8537  135.4380  154.2055 H   0  0  0  0  0  0  0  0  0  0  0  0  # atno 10765 bound_to 10752
  140.1229  134.8852  157.2098 H   0  0  0  0  0  0  0  0  0  0  0  0  # atno 11005 bound_to 11000
  145.8863  140.9331  143.0575 LP  0  0  0  0  0  0  0  0  0  0  0  0  # atno 17320 bound_to 7965
  144.6732  140.0847  143.7468 LP  0  0  0  0  0  0  0  0  0  0  0  0  # atno 17321 bound_to 7965
  140.3521  143.2957  152.0475 LP  0  0  0  0  0  0  0  0  0  0  0  0  # atno 17342 bound_to 10162
  139.4888  144.6366  151.6963 LP  0  0  0  0  0  0  0  0  0  0  0  0  # atno 17343 bound_to 10162
  157.4778  130.7747  149.7385 LP  0  0  0  0  0  0  0  0  0  0  0  0  # atno 17370 bound_to 10713
  155.9916  130.3936  150.2976 LP  0  0  0  0  0  0  0  0  0  0  0  0  # atno 17371 bound_to 10713
  140.2941  134.3207  155.7307 LP  0  0  0  0  0  0  0  0  0  0  0  0  # atno 17394 bound_to 11000
  141.2155  133.7552  156.9546 LP  0  0  0  0  0  0  0  0  0  0  0  0  # atno 17395 bound_to 11000

$$$$
