AV-unprocessed.smi:298|AV-procd|sdf|2263|dock6
  -GOLD-   2262022153D 1   1.00000     0.00000
 Structure written by MMmdl.
 39 41  0  0  0  0  0  0  0  0  2 V2000
  152.0025  145.2529  160.3510 C   0  0  0  0  0  0  0  0  0  0  0  0
  151.9188  144.0105  159.4807 C   0  0  0  0  0  0  0  0  0  0  0  0
  151.1853  144.0804  158.2747 C   0  0  0  0  0  0  0  0  0  0  0  0
  151.1252  142.9274  157.5012 C   0  0  0  0  0  0  0  0  0  0  0  0
  150.4936  142.6748  156.2816 N   0  3  0  0  0  0  0  0  0  0  0  0
  150.7186  141.3833  155.9123 C   0  0  0  0  0  0  0  0  0  0  0  0
  151.4861  140.8089  156.8781 N   0  0  0  0  0  0  0  0  0  0  0  0
  152.0191  139.4440  156.9755 C   0  0  0  0  0  0  0  0  0  0  0  0
  152.1316  138.7482  155.6055 C   0  0  2  0  0  0  0  0  0  0  0  0
  152.8162  139.5927  154.6984 O   0  0  0  0  0  0  0  0  0  0  0  0
  150.7506  138.3761  155.0341 C   0  0  0  0  0  0  0  0  0  0  0  0
  150.0866  137.3460  155.8112 N   0  0  0  0  0  0  0  0  0  0  0  0
  149.5668  136.1723  155.4370 C   0  0  0  0  0  0  0  0  0  0  0  0
  149.0333  135.4768  156.4336 N   0  0  0  0  0  0  0  0  0  0  0  0
  149.2803  136.3476  157.4551 C   0  0  0  0  0  0  0  0  0  0  0  0
  148.8776  136.0509  158.8193 C   0  0  0  0  0  0  0  0  0  0  0  0
  148.5565  135.8146  159.9057 N   0  0  0  0  0  0  0  0  0  0  0  0
  149.9053  137.4823  157.1470 N   0  0  0  0  0  0  0  0  0  0  0  0
  151.7639  141.7340  157.8894 C   0  0  0  0  0  0  0  0  0  0  0  0
  152.4924  141.6477  159.0728 C   0  0  0  0  0  0  0  0  0  0  0  0
  152.5650  142.8097  159.8741 C   0  0  0  0  0  0  0  0  0  0  0  0
  153.3516  142.7460  161.1722 C   0  0  0  0  0  0  0  0  0  0  0  0
  151.4209  146.0743  159.9315 H   0  0  0  0  0  0  0  0  0  0  0  0
  153.0363  145.5877  160.4399 H   0  0  0  0  0  0  0  0  0  0  0  0
  151.6160  145.0490  161.3499 H   0  0  0  0  0  0  0  0  0  0  0  0
  150.6925  144.9913  157.9681 H   0  0  0  0  0  0  0  0  0  0  0  0
  150.3583  140.9034  155.0138 H   0  0  0  0  0  0  0  0  0  0  0  0
  152.9892  139.4878  157.4726 H   0  0  0  0  0  0  0  0  0  0  0  0
  151.3581  138.8804  157.6356 H   0  0  0  0  0  0  0  0  0  0  0  0
  152.7236  137.8387  155.7163 H   0  0  0  0  0  0  0  0  0  0  0  0
  153.7411  139.4067  154.7525 H   0  0  0  0  0  0  0  0  0  0  0  0
  150.1040  139.2543  155.0082 H   0  0  0  0  0  0  0  0  0  0  0  0
  150.8441  138.0271  154.0047 H   0  0  0  0  0  0  0  0  0  0  0  0
  149.5814  135.8187  154.4164 H   0  0  0  0  0  0  0  0  0  0  0  0
  152.9846  140.7336  159.3706 H   0  0  0  0  0  0  0  0  0  0  0  0
  153.8210  141.7711  161.3070 H   0  0  0  0  0  0  0  0  0  0  0  0
  152.6954  142.9215  162.0250 H   0  0  0  0  0  0  0  0  0  0  0  0
  154.1407  143.4983  161.1809 H   0  0  0  0  0  0  0  0  0  0  0  0
  149.9503  143.3335  155.7382 H   0  0  0  0  0  0  0  0  0  0  0  0
  1  2  1  0  0  0  0
  1 23  1  0  0  0  0
  1 24  1  0  0  0  0
  1 25  1  0  0  0  0
  2 21  1  0  0  0  0
  2  3  2  0  0  0  0
  3  4  1  0  0  0  0
  3 26  1  0  0  0  0
  4 19  2  0  0  0  0
  4  5  1  0  0  0  0
  5  6  2  0  0  0  0
  5 39  1  0  0  0  0
  6  7  1  0  0  0  0
  6 27  1  0  0  0  0
  7  8  1  0  0  0  0
  7 19  1  0  0  0  0
  8  9  1  0  0  0  0
  8 28  1  0  0  0  0
  8 29  1  0  0  0  0
  9 10  1  0  0  0  0
  9 11  1  0  0  0  0
  9 30  1  0  0  0  0
 10 31  1  0  0  0  0
 11 12  1  0  0  0  0
 11 32  1  0  0  0  0
 11 33  1  0  0  0  0
 12 18  1  0  0  0  0
 12 13  1  0  0  0  0
 13 14  2  0  0  0  0
 13 34  1  0  0  0  0
 14 15  1  0  0  0  0
 15 16  1  0  0  0  0
 15 18  2  0  0  0  0
 16 17  3  0  0  0  0
 19 20  1  0  0  0  0
 20 21  2  0  0  0  0
 20 35  1  0  0  0  0
 21 22  1  0  0  0  0
 22 36  1  0  0  0  0
 22 37  1  0  0  0  0
 22 38  1  0  0  0  0
M  CHG  1   5   1
M  END
> <s_m_source_file>
AV-unprocessed.smi

> <i_m_source_file_index>
298

> <i_lp_mmshare_version>
43012

> <i_f3d_flags>
0

> <s_epik_input>
W0NIM11jKFtjSF0xKWMoW0NIM10pW2NIXWMoYzEyKW4oW2NIXW4yKVtDSDJdW0NASF0oW09IXSlbQ0gyXW4zW2NIXW5jKG4zKUMjTg==

> <s_epik_cmdline>
J2VwaWtfcHl0aG9uJywgJy1waCcsICc3LjAnLCAnLXRuJywgJzgnLCAnLW1hJywgJzIwMCcsICctbWV0YWxfYmluZGluZycsICctaW1hZScsICc8aW5maWxlLm1hZT4nLCAnLW9tYWUnLCAnPG91dGZpbGUubWFlPic=

> <r_epik_Ionization_Penalty>
1.12076

> <r_epik_Ionization_Penalty_Charging>
1.12075

> <r_epik_Ionization_Penalty_Neutral>
1.54565e-06

> <r_epik_State_Penalty>
1.17957

> <r_epik_Charging_Adjusted_Penalty>
2.30033

> <i_epik_Tot_Q>
1

> <i_epik_Tot_abs_Q>
1

> <r_epik_Metal_State_Penalty>
1.26402

> <b_epik_Metal_Only>
0

> <s_lp_Force_Field>
OPLS_2005

> <r_lp_Energy>
16.3626

> <b_lp_Chiralities_Consistent>
1

> <s_lp_Variant>
AV-unprocessed.smi:298-3

> <Gold.Version>
5.8.1

> <Gold.Id.Protein>
6NUR|6NUR_protein|mol2

> <Gold.PLP.Fitness>
52.7618

> <Gold.PLP.PLP>
-43.3722

> <Gold.PLP.part.hbond>
-2.7614

> <Gold.PLP.part.metal>
0.0000

> <Gold.PLP.part.buried>
-6.7104

> <Gold.PLP.part.nonpolar>
-34.3981

> <Gold.PLP.part.repulsive>
0.1285

> <Gold.PLP.ligand.clash>
0.0000

> <Gold.PLP.ligand.torsion>
0.4618

> <Gold.PLP.Chemscore.Hbond>
2.4298

> <Gold.PLP.Chemscore.CHOScore>
1.0000

> <Gold.PLP.Chemscore.Metal>
0.0000

> <Gold.Chemscore.Hbonds>
donor molecule, donor type, donor heavy atom, donor atom, acceptor molecule, acceptor atom, score
      L1  H     5    39       P1  8028  2.00
      P1  H  7989  7998       L1    10  0.41
      L1  C    13    34       P1  7948  0.75

> <Gold.PLP.Chemscore.Internal.Correction>
0.0238

> <Gold.Rescore>
     Score         DG    S(hbond)    S(metal)    S(lipo)     H(rot)  DE(clash)    DE(int)     intcor
     12.18     -14.62       1.51        0.00     102.65       3.09       0.04       2.40       ----

> <Gold.Chemscore.Fitness>
12.1843

> <Gold.Chemscore.DG>
-14.6206

> <Gold.Chemscore.ZeroCoef>
-5.4800

> <Gold.Chemscore.Hbond>
1.5086

> <Gold.Chemscore.Metal>
0.0000

> <Gold.Chemscore.Lipo>
102.6534

> <Gold.Chemscore.Internal_Hbond>
0.0000

> <Gold.Chemscore.DEClash>
0.0411

> <Gold.Chemscore.DEInternal>
2.3952

> <Gold.Chemscore.Rot>
3.0892

> <Gold.Chemscore.Internal.Correction>
   9.000000E+99

> <Gold.Chemscore.Hbonds>
donor molecule, donor type, donor heavy atom, donor atom, acceptor molecule, acceptor atom, score
      L1  H     5    39       P1  8028  0.94
      P1  H  7989  7998       L1    10  0.38

> <Gold.Chemscore.Hbond.Weighted>
-5.0386

> <Gold.Chemscore.Metal.Weighted>
-0.0000

> <Gold.Chemscore.Lipo.Weighted>
-12.0104

> <Gold.Chemscore.Internal_Hbond.Weighted>
0.0000

> <Gold.Chemscore.DEClash.Weighted>
0.0411

> <Gold.Chemscore.DEInternal.Weighted>
2.3952

> <Gold.Chemscore.Rot.Weighted>
7.9084

> <Gold.Chemscore.Internal.Correction.Weighted>
   9.000000E+99

> <Gold.Protein.RotatedTorsions>
[ 6907 6896 6895 6894 ] final  118.97 input  -60.11 | X-H torsion
[ 7974 7965 7964 7962 ] final  -38.72 input  175.53 | X-H torsion
[ 8008 7997 7996 7995 ] final  -11.87 input   59.86 | X-H torsion
[ 10167 10162 10161 10158 ] final  132.11 input  -65.29 | X-H torsion
[ 10718 10713 10712 10709 ] final   72.66 input   66.30 | X-H torsion
[ 10763 10752 10751 10750 ] final -156.59 input  -60.55 | X-H torsion
[ 11005 11000 10999 10996 ] final -115.88 input  -57.11 | X-H torsion

> <Gold.Protein.ActiveResidues>
 VAL166  LYS551  ARG553  GLY616  TRP617  ASP618  TYR619  PRO620  LYS621  CYS622 
 ASP623  PHE694  ASN695  SER759  ASP760  ASP761  ALA762  ILE779  LEU786  VAL792 
 PHE793  MET794  SER795  GLU796  ALA797  LYS798  CYS799  TRP800  GLU811  SER814 

> <Gold.Protein.RotatedAtoms>
  152.4505  133.7620  159.6751 H   0  0  0  0  0  0  0  0  0  0  0  0  # atno 6907 bound_to 6896
  150.8416  133.7917  159.3065 H   0  0  0  0  0  0  0  0  0  0  0  0  # atno 6908 bound_to 6896
  151.5540  135.1069  160.0008 H   0  0  0  0  0  0  0  0  0  0  0  0  # atno 6909 bound_to 6896
  146.0461  140.6544  142.9064 H   0  0  0  0  0  0  0  0  0  0  0  0  # atno 7974 bound_to 7965
  154.5427  140.2291  155.8614 H   0  0  0  0  0  0  0  0  0  0  0  0  # atno 8008 bound_to 7997
  156.1873  140.3085  155.9226 H   0  0  0  0  0  0  0  0  0  0  0  0  # atno 8009 bound_to 7997
  155.3226  140.0441  157.3030 H   0  0  0  0  0  0  0  0  0  0  0  0  # atno 8010 bound_to 7997
  139.5354  144.6677  151.4804 H   0  0  0  0  0  0  0  0  0  0  0  0  # atno 10167 bound_to 10162
  157.6511  130.9590  150.0960 H   0  0  0  0  0  0  0  0  0  0  0  0  # atno 10718 bound_to 10713
  154.7701  135.3142  154.8207 H   0  0  0  0  0  0  0  0  0  0  0  0  # atno 10763 bound_to 10752
  153.8944  135.6822  153.4763 H   0  0  0  0  0  0  0  0  0  0  0  0  # atno 10764 bound_to 10752
  153.1313  135.4779  154.9288 H   0  0  0  0  0  0  0  0  0  0  0  0  # atno 10765 bound_to 10752
  141.0458  133.9764  157.2919 H   0  0  0  0  0  0  0  0  0  0  0  0  # atno 11005 bound_to 11000
  144.7098  140.3996  143.7089 LP  0  0  0  0  0  0  0  0  0  0  0  0  # atno 17320 bound_to 7965
  145.6804  139.1617  143.2704 LP  0  0  0  0  0  0  0  0  0  0  0  0  # atno 17321 bound_to 7965
  140.6557  143.8604  150.6833 LP  0  0  0  0  0  0  0  0  0  0  0  0  # atno 17342 bound_to 10162
  140.1982  143.3980  152.1811 LP  0  0  0  0  0  0  0  0  0  0  0  0  # atno 17343 bound_to 10162
  156.1896  130.3654  149.8927 LP  0  0  0  0  0  0  0  0  0  0  0  0  # atno 17370 bound_to 10713
  156.6859  130.8876  151.3582 LP  0  0  0  0  0  0  0  0  0  0  0  0  # atno 17371 bound_to 10713
  139.9311  135.0200  156.8403 LP  0  0  0  0  0  0  0  0  0  0  0  0  # atno 17394 bound_to 11000
  140.6148  134.0048  155.7592 LP  0  0  0  0  0  0  0  0  0  0  0  0  # atno 17395 bound_to 11000

$$$$
