AV-unprocessed.smi:79|AV-procd|sdf|784|dock7
  -GOLD-   2262017153D 1   1.00000     0.00000
 Structure written by MMmdl.
 56 59  0  0  0  0  0  0  0  0  2 V2000
  146.1982  134.2883  150.8894 C   0  0  0  0  0  0  0  0  0  0  0  0
  144.6710  134.4330  150.9020 C   0  0  1  0  0  0  0  0  0  0  0  0
  144.2006  134.2515  149.5816 O   0  0  0  0  0  0  0  0  0  0  0  0
  143.9990  133.3988  151.8269 C   0  0  0  0  0  0  0  0  0  0  0  0
  144.5292  133.4419  153.2139 N   0  3  1  0  0  0  0  0  0  0  0  0
  145.7752  132.6479  153.3676 C   0  0  0  0  0  0  0  0  0  0  0  0
  146.2389  132.6163  154.8341 C   0  0  0  0  0  0  0  0  0  0  0  0
  146.3553  133.9715  155.3680 N   0  0  0  0  0  0  0  0  0  0  0  0
  147.5865  134.5366  155.2616 C   0  0  0  0  0  0  0  0  0  0  0  0
  148.6926  133.7496  155.1821 N   0  0  0  0  0  0  0  0  0  0  0  0
  149.9068  134.2978  155.0802 C   0  0  0  0  0  0  0  0  0  0  0  0
  150.2376  135.5894  155.0390 N   0  0  0  0  0  0  0  0  0  0  0  0
  149.1335  136.3857  155.1166 C   0  0  0  0  0  0  0  0  0  0  0  0
  147.7843  135.9460  155.2304 C   0  0  0  0  0  0  0  0  0  0  0  0
  146.9325  137.0430  155.2731 N   0  0  0  0  0  0  0  0  0  0  0  0
  147.7322  138.0715  155.1950 C   0  0  0  0  0  0  0  0  0  0  0  0
  149.0724  137.7687  155.1055 N   0  0  0  0  0  0  0  0  0  0  0  0
  150.1742  138.7131  154.9968 C   0  0  0  0  0  0  0  0  0  0  0  0
  149.8151  140.1441  155.4386 C   0  0  0  0  0  0  0  0  0  0  0  0
  148.8612  140.7550  154.3926 C   0  0  0  0  0  0  0  0  0  0  0  0
  149.5062  141.0267  153.1642 O   0  0  0  0  0  0  0  0  0  0  0  0
  149.3896  140.2816  156.9073 C   0  0  0  0  0  0  0  0  0  0  0  0
  150.3571  141.3264  157.1505 O   0  0  0  0  0  0  0  0  0  0  0  0
  150.9853  141.0332  155.8830 C   0  0  0  0  0  0  0  0  0  0  0  0
  145.1648  134.8150  155.2175 C   0  0  2  0  0  0  0  0  0  0  0  0
  144.0471  134.3843  156.1829 C   0  0  0  0  0  0  0  0  0  0  0  0
  144.6814  134.8222  153.7495 C   0  0  0  0  0  0  0  0  0  0  0  0
  146.6136  134.4402  151.8859 H   0  0  0  0  0  0  0  0  0  0  0  0
  146.6576  135.0233  150.2274 H   0  0  0  0  0  0  0  0  0  0  0  0
  146.5031  133.2977  150.5502 H   0  0  0  0  0  0  0  0  0  0  0  0
  144.4277  135.4476  151.2149 H   0  0  0  0  0  0  0  0  0  0  0  0
  144.9369  134.2829  148.9895 H   0  0  0  0  0  0  0  0  0  0  0  0
  142.9252  133.5932  151.8378 H   0  0  0  0  0  0  0  0  0  0  0  0
  144.1201  132.3907  151.4274 H   0  0  0  0  0  0  0  0  0  0  0  0
  145.6111  131.6267  153.0220 H   0  0  0  0  0  0  0  0  0  0  0  0
  146.5563  133.0763  152.7375 H   0  0  0  0  0  0  0  0  0  0  0  0
  145.5243  132.0595  155.4404 H   0  0  0  0  0  0  0  0  0  0  0  0
  147.1799  132.0715  154.9040 H   0  0  0  0  0  0  0  0  0  0  0  0
  150.7311  133.6021  155.0226 H   0  0  0  0  0  0  0  0  0  0  0  0
  147.3613  139.0862  155.1961 H   0  0  0  0  0  0  0  0  0  0  0  0
  151.0158  138.3316  155.5764 H   0  0  0  0  0  0  0  0  0  0  0  0
  150.5081  138.7074  153.9586 H   0  0  0  0  0  0  0  0  0  0  0  0
  148.0314  140.0828  154.1764 H   0  0  0  0  0  0  0  0  0  0  0  0
  148.4287  141.6864  154.7591 H   0  0  0  0  0  0  0  0  0  0  0  0
  149.3397  140.3097  152.5717 H   0  0  0  0  0  0  0  0  0  0  0  0
  148.3619  140.6171  157.0503 H   0  0  0  0  0  0  0  0  0  0  0  0
  149.5922  139.3974  157.5132 H   0  0  0  0  0  0  0  0  0  0  0  0
  151.9260  140.4991  156.0195 H   0  0  0  0  0  0  0  0  0  0  0  0
  151.1298  141.9227  155.2690 H   0  0  0  0  0  0  0  0  0  0  0  0
  145.4179  135.8392  155.4955 H   0  0  0  0  0  0  0  0  0  0  0  0
  143.1951  135.0614  156.1181 H   0  0  0  0  0  0  0  0  0  0  0  0
  144.3972  134.3990  157.2154 H   0  0  0  0  0  0  0  0  0  0  0  0
  143.6831  133.3791  155.9696 H   0  0  0  0  0  0  0  0  0  0  0  0
  145.3960  135.3618  153.1267 H   0  0  0  0  0  0  0  0  0  0  0  0
  143.7432  135.3714  153.6822 H   0  0  0  0  0  0  0  0  0  0  0  0
  143.8378  132.9837  153.7907 H   0  0  0  0  0  0  0  0  0  0  0  0
  1  2  1  0  0  0  0
  1 28  1  0  0  0  0
  1 29  1  0  0  0  0
  1 30  1  0  0  0  0
  2  3  1  0  0  0  0
  2  4  1  0  0  0  0
  2 31  1  0  0  0  0
  3 32  1  0  0  0  0
  4  5  1  0  0  0  0
  4 33  1  0  0  0  0
  4 34  1  0  0  0  0
  5 27  1  0  0  0  0
  5  6  1  0  0  0  0
  5 56  1  0  0  0  0
  6  7  1  0  0  0  0
  6 35  1  0  0  0  0
  6 36  1  0  0  0  0
  7  8  1  0  0  0  0
  7 37  1  0  0  0  0
  7 38  1  0  0  0  0
  8  9  1  0  0  0  0
  8 25  1  0  0  0  0
  9 14  1  0  0  0  0
  9 10  2  0  0  0  0
 10 11  1  0  0  0  0
 11 12  2  0  0  0  0
 11 39  1  0  0  0  0
 12 13  1  0  0  0  0
 13 17  1  0  0  0  0
 13 14  2  0  0  0  0
 14 15  1  0  0  0  0
 15 16  2  0  0  0  0
 16 17  1  0  0  0  0
 16 40  1  0  0  0  0
 17 18  1  0  0  0  0
 18 19  1  0  0  0  0
 18 41  1  0  0  0  0
 18 42  1  0  0  0  0
 19 24  1  0  0  0  0
 19 20  1  0  0  0  0
 19 22  1  0  0  0  0
 20 21  1  0  0  0  0
 20 43  1  0  0  0  0
 20 44  1  0  0  0  0
 21 45  1  0  0  0  0
 22 23  1  0  0  0  0
 22 46  1  0  0  0  0
 22 47  1  0  0  0  0
 23 24  1  0  0  0  0
 24 48  1  0  0  0  0
 24 49  1  0  0  0  0
 25 26  1  0  0  0  0
 25 27  1  0  0  0  0
 25 50  1  0  0  0  0
 26 51  1  0  0  0  0
 26 52  1  0  0  0  0
 26 53  1  0  0  0  0
 27 54  1  0  0  0  0
 27 55  1  0  0  0  0
M  CHG  1   5   1
M  END
> <s_m_source_file>
AV-unprocessed.smi

> <i_m_source_file_index>
79

> <i_lp_mmshare_version>
43012

> <i_f3d_flags>
0

> <s_epik_input>
W0NIM11bQ0BIXShbT0hdKVtDSDJdTjFbQ0gyXVtDSDJdTihbQ0BASF0oW0NIM10pW0NIMl0xKWMobltjSF1uMiljKGMyMyluW2NIXW4zW0NIMl1DNChbQ0gyXVtPSF0pW0NIMl1PW0NIMl00

> <s_epik_cmdline>
J2VwaWtfcHl0aG9uJywgJy1waCcsICc3LjAnLCAnLXRuJywgJzgnLCAnLW1hJywgJzIwMCcsICctbWV0YWxfYmluZGluZycsICctaW1hZScsICc8aW5maWxlLm1hZT4nLCAnLW9tYWUnLCAnPG91dGZpbGUubWFlPic=

> <r_lp_tautomer_probability>
1

> <r_epik_Ionization_Penalty>
0.00515943

> <r_epik_Ionization_Penalty_Charging>
0.00509693

> <r_epik_Ionization_Penalty_Neutral>
6.25007e-05

> <r_epik_State_Penalty>
-0

> <r_epik_Charging_Adjusted_Penalty>
0.00509693

> <i_epik_Tot_Q>
1

> <i_epik_Tot_abs_Q>
1

> <r_epik_Metal_State_Penalty>
-0

> <b_epik_Metal_Only>
0

> <s_lp_Force_Field>
OPLS_2005

> <r_lp_Energy>
50.645

> <b_lp_Chiralities_Consistent>
1

> <s_lp_Variant>
AV-unprocessed.smi:79-8

> <Gold.Version>
5.8.1

> <Gold.Id.Protein>
6NUR|6NUR_protein|mol2

> <Gold.PLP.Fitness>
44.9406

> <Gold.PLP.PLP>
-31.3583

> <Gold.PLP.part.hbond>
-5.3153

> <Gold.PLP.part.metal>
0.0000

> <Gold.PLP.part.buried>
-4.9853

> <Gold.PLP.part.nonpolar>
-20.4516

> <Gold.PLP.part.repulsive>
0.3144

> <Gold.PLP.ligand.clash>
0.0000

> <Gold.PLP.ligand.torsion>
0.8950

> <Gold.PLP.Chemscore.Hbond>
4.8714

> <Gold.PLP.Chemscore.CHOScore>
0.0000

> <Gold.PLP.Chemscore.Metal>
0.0000

> <Gold.Chemscore.Hbonds>
donor molecule, donor type, donor heavy atom, donor atom, acceptor molecule, acceptor atom, score
      L1  H     3    32       P1  7921  1.00
      L1  H     5    56       P1 10957  2.00
      L1  H    21    45       P1  7957  0.58
      P1  H  7989  7998       L1    21  0.10
      P1  H  8011  8017       L1    21  1.00

> <Gold.PLP.Chemscore.Internal.Correction>
0.7582

> <Gold.Rescore>
     Score         DG    S(hbond)    S(metal)    S(lipo)     H(rot)  DE(clash)    DE(int)     intcor
     12.79     -15.12       3.42        0.00      58.76       3.39       0.05       2.28       ----

> <Gold.Chemscore.Fitness>
12.7900

> <Gold.Chemscore.DG>
-15.1208

> <Gold.Chemscore.ZeroCoef>
-5.4800

> <Gold.Chemscore.Hbond>
3.4238

> <Gold.Chemscore.Metal>
0.0000

> <Gold.Chemscore.Lipo>
58.7644

> <Gold.Chemscore.Internal_Hbond>
0.0000

> <Gold.Chemscore.DEClash>
0.0541

> <Gold.Chemscore.DEInternal>
2.2767

> <Gold.Chemscore.Rot>
3.3868

> <Gold.Chemscore.Internal.Correction>
   9.000000E+99

> <Gold.Chemscore.Hbonds>
donor molecule, donor type, donor heavy atom, donor atom, acceptor molecule, acceptor atom, score
      L1  H     3    32       P1  7921  1.00
      L1  H     5    56       P1 10957  0.93
      L1  H    21    45       P1  7957  0.56
      P1  H  7989  7998       L1    21  0.03
      P1  H  8011  8017       L1    21  0.74

> <Gold.Chemscore.Hbond.Weighted>
-11.4355

> <Gold.Chemscore.Metal.Weighted>
-0.0000

> <Gold.Chemscore.Lipo.Weighted>
-6.8754

> <Gold.Chemscore.Internal_Hbond.Weighted>
0.0000

> <Gold.Chemscore.DEClash.Weighted>
0.0541

> <Gold.Chemscore.DEInternal.Weighted>
2.2767

> <Gold.Chemscore.Rot.Weighted>
8.6701

> <Gold.Chemscore.Internal.Correction.Weighted>
   9.000000E+99

> <Gold.Protein.RotatedTorsions>
[ 6907 6896 6895 6894 ] final   95.90 input  -60.11 | X-H torsion
[ 7974 7965 7964 7962 ] final  119.74 input  175.53 | X-H torsion
[ 8008 7997 7996 7995 ] final  116.60 input   59.86 | X-H torsion
[ 10167 10162 10161 10158 ] final   88.09 input  -65.29 | X-H torsion
[ 10718 10713 10712 10709 ] final   54.09 input   66.30 | X-H torsion
[ 10763 10752 10751 10750 ] final  111.10 input  -60.55 | X-H torsion
[ 11005 11000 10999 10996 ] final -136.67 input  -57.11 | X-H torsion

> <Gold.Protein.ActiveResidues>
 VAL166  LYS551  ARG553  GLY616  TRP617  ASP618  TYR619  PRO620  LYS621  CYS622 
 ASP623  PHE694  ASN695  SER759  ASP760  ASP761  ALA762  ILE779  LEU786  VAL792 
 PHE793  MET794  SER795  GLU796  ALA797  LYS798  CYS799  TRP800  GLU811  SER814 

> <Gold.Protein.RotatedAtoms>
  152.5440  134.0969  159.8300 H   0  0  0  0  0  0  0  0  0  0  0  0  # atno 6907 bound_to 6896
  151.1052  133.5207  159.2615 H   0  0  0  0  0  0  0  0  0  0  0  0  # atno 6908 bound_to 6896
  151.1946  135.0426  159.8901 H   0  0  0  0  0  0  0  0  0  0  0  0  # atno 6909 bound_to 6896
  145.1395  139.3276  143.4623 H   0  0  0  0  0  0  0  0  0  0  0  0  # atno 7974 bound_to 7965
  156.2448  140.2914  156.0548 H   0  0  0  0  0  0  0  0  0  0  0  0  # atno 8008 bound_to 7997
  155.1841  140.0405  157.2905 H   0  0  0  0  0  0  0  0  0  0  0  0  # atno 8009 bound_to 7997
  154.6239  140.2482  155.7522 H   0  0  0  0  0  0  0  0  0  0  0  0  # atno 8010 bound_to 7997
  139.8708  144.6494  150.8951 H   0  0  0  0  0  0  0  0  0  0  0  0  # atno 10167 bound_to 10162
  157.5226  130.8575  149.8579 H   0  0  0  0  0  0  0  0  0  0  0  0  # atno 10718 bound_to 10713
  153.4585  135.3727  155.2324 H   0  0  0  0  0  0  0  0  0  0  0  0  # atno 10763 bound_to 10752
  154.8757  135.3903  154.3953 H   0  0  0  0  0  0  0  0  0  0  0  0  # atno 10764 bound_to 10752
  153.4523  135.7085  153.6165 H   0  0  0  0  0  0  0  0  0  0  0  0  # atno 10765 bound_to 10752
  140.8784  134.1963  157.4607 H   0  0  0  0  0  0  0  0  0  0  0  0  # atno 11005 bound_to 11000
  146.3506  140.1427  142.8594 LP  0  0  0  0  0  0  0  0  0  0  0  0  # atno 17320 bound_to 7965
  145.0547  140.9044  143.4974 LP  0  0  0  0  0  0  0  0  0  0  0  0  # atno 17321 bound_to 7965
  140.7761  143.3665  151.1729 LP  0  0  0  0  0  0  0  0  0  0  0  0  # atno 17342 bound_to 10162
  139.7285  143.9109  152.3011 LP  0  0  0  0  0  0  0  0  0  0  0  0  # atno 17343 bound_to 10162
  156.0364  130.3750  150.1549 LP  0  0  0  0  0  0  0  0  0  0  0  0  # atno 17370 bound_to 10713
  156.9737  130.9842  151.3453 LP  0  0  0  0  0  0  0  0  0  0  0  0  # atno 17371 bound_to 10713
  139.8717  134.9806  156.5082 LP  0  0  0  0  0  0  0  0  0  0  0  0  # atno 17394 bound_to 11000
  140.8491  133.8146  155.9150 LP  0  0  0  0  0  0  0  0  0  0  0  0  # atno 17395 bound_to 11000

$$$$
