AV-unprocessed.smi:2270|AV-procd|sdf|9156|dock1
  -GOLD-   2272012363D 1   1.00000     0.00000
 Structure written by MMmdl.
 53 54  0  0  0  0  0  0  0  0  2 V2000
  153.4585  140.6558  160.3098 C   0  0  0  0  0  0  0  0  0  0  0  0
  152.8406  141.8983  159.7037 C   0  0  0  0  0  0  0  0  0  0  0  0
  152.9788  143.1539  160.3271 C   0  0  0  0  0  0  0  0  0  0  0  0
  152.3849  144.2694  159.7101 C   0  0  0  0  0  0  0  0  0  0  0  0
  151.6839  144.0852  158.5026 C   0  0  0  0  0  0  0  0  0  0  0  0
  151.5935  142.7912  157.9423 C   0  0  0  0  0  0  0  0  0  0  0  0
  150.8675  142.7116  156.7244 N   0  0  0  0  0  0  0  0  0  0  0  0
  150.3121  141.6255  156.1589 C   0  0  0  0  0  0  0  0  0  0  0  0
  150.3441  140.4839  156.6188 O   0  0  0  0  0  0  0  0  0  0  0  0
  149.6885  141.9394  155.0143 N   0  0  0  0  0  0  0  0  0  0  0  0
  149.0003  140.9848  154.1501 C   0  0  0  0  0  0  0  0  0  0  0  0
  147.6723  140.4209  154.7405 C   0  0  2  0  0  0  0  0  0  0  0  0
  147.2870  139.0409  154.1327 C   0  0  0  0  0  0  0  0  0  0  0  0
  148.3822  137.9813  154.3687 C   0  0  0  0  0  0  0  0  0  0  0  0
  146.9836  139.1119  152.6236 C   0  0  0  0  0  0  0  0  0  0  0  0
  146.5105  141.3591  154.6364 N   0  3  0  0  0  0  0  0  0  0  0  0
  146.8286  142.7756  154.3247 C   0  0  0  0  0  0  0  0  0  0  0  0
  145.5358  143.5445  153.9816 C   0  0  0  0  0  0  0  0  0  0  0  0
  144.5421  143.4629  155.0550 N   0  0  0  0  0  0  0  0  0  0  0  0
  144.9049  144.2417  156.2344 C   0  0  0  0  0  0  0  0  0  0  0  0
  144.2460  142.0614  155.3605 C   0  0  0  0  0  0  0  0  0  0  0  0
  145.5150  141.2672  155.7330 C   0  0  0  0  0  0  0  0  0  0  0  0
  152.1678  141.7212  158.5461 N   0  0  0  0  0  0  0  0  0  0  0  0
  153.7867  140.8381  161.3334 H   0  0  0  0  0  0  0  0  0  0  0  0
  154.3229  140.3417  159.7245 H   0  0  0  0  0  0  0  0  0  0  0  0
  152.7382  139.8373  160.3265 H   0  0  0  0  0  0  0  0  0  0  0  0
  153.5254  143.2622  161.2524 H   0  0  0  0  0  0  0  0  0  0  0  0
  152.4660  145.2506  160.1541 H   0  0  0  0  0  0  0  0  0  0  0  0
  151.2235  144.9326  158.0155 H   0  0  0  0  0  0  0  0  0  0  0  0
  150.7586  143.5838  156.2288 H   0  0  0  0  0  0  0  0  0  0  0  0
  149.7131  142.9005  154.7058 H   0  0  0  0  0  0  0  0  0  0  0  0
  148.8148  141.4690  153.1911 H   0  0  0  0  0  0  0  0  0  0  0  0
  149.7007  140.1765  153.9404 H   0  0  0  0  0  0  0  0  0  0  0  0
  147.8435  140.2384  155.8024 H   0  0  0  0  0  0  0  0  0  0  0  0
  146.3805  138.6871  154.6247 H   0  0  0  0  0  0  0  0  0  0  0  0
  149.3334  138.2916  153.9349 H   0  0  0  0  0  0  0  0  0  0  0  0
  148.1093  137.0272  153.9165 H   0  0  0  0  0  0  0  0  0  0  0  0
  148.5458  137.7891  155.4292 H   0  0  0  0  0  0  0  0  0  0  0  0
  147.8130  139.5559  152.0719 H   0  0  0  0  0  0  0  0  0  0  0  0
  146.0871  139.6937  152.4128 H   0  0  0  0  0  0  0  0  0  0  0  0
  146.8090  138.1180  152.2104 H   0  0  0  0  0  0  0  0  0  0  0  0
  147.3429  143.2531  155.1581 H   0  0  0  0  0  0  0  0  0  0  0  0
  147.5062  142.8201  153.4721 H   0  0  0  0  0  0  0  0  0  0  0  0
  145.7600  144.5900  153.7677 H   0  0  0  0  0  0  0  0  0  0  0  0
  145.0975  143.1308  153.0722 H   0  0  0  0  0  0  0  0  0  0  0  0
  144.1034  144.2021  156.9726 H   0  0  0  0  0  0  0  0  0  0  0  0
  145.0529  145.2877  155.9645 H   0  0  0  0  0  0  0  0  0  0  0  0
  145.8175  143.8844  156.7099 H   0  0  0  0  0  0  0  0  0  0  0  0
  143.5122  142.0074  156.1657 H   0  0  0  0  0  0  0  0  0  0  0  0
  143.7776  141.6085  154.4855 H   0  0  0  0  0  0  0  0  0  0  0  0
  145.2432  140.2238  155.8950 H   0  0  0  0  0  0  0  0  0  0  0  0
  145.9279  141.6316  156.6714 H   0  0  0  0  0  0  0  0  0  0  0  0
  146.0055  141.0234  153.8288 H   0  0  0  0  0  0  0  0  0  0  0  0
  1  2  1  0  0  0  0
  1 24  1  0  0  0  0
  1 25  1  0  0  0  0
  1 26  1  0  0  0  0
  2 23  1  0  0  0  0
  2  3  2  0  0  0  0
  3  4  1  0  0  0  0
  3 27  1  0  0  0  0
  4  5  2  0  0  0  0
  4 28  1  0  0  0  0
  5  6  1  0  0  0  0
  5 29  1  0  0  0  0
  6  7  1  0  0  0  0
  6 23  2  0  0  0  0
  7  8  1  0  0  0  0
  7 30  1  0  0  0  0
  8  9  2  0  0  0  0
  8 10  1  0  0  0  0
 10 11  1  0  0  0  0
 10 31  1  0  0  0  0
 11 12  1  0  0  0  0
 11 32  1  0  0  0  0
 11 33  1  0  0  0  0
 12 13  1  0  0  0  0
 12 16  1  0  0  0  0
 12 34  1  0  0  0  0
 13 14  1  0  0  0  0
 13 15  1  0  0  0  0
 13 35  1  0  0  0  0
 14 36  1  0  0  0  0
 14 37  1  0  0  0  0
 14 38  1  0  0  0  0
 15 39  1  0  0  0  0
 15 40  1  0  0  0  0
 15 41  1  0  0  0  0
 16 22  1  0  0  0  0
 16 17  1  0  0  0  0
 16 53  1  0  0  0  0
 17 18  1  0  0  0  0
 17 42  1  0  0  0  0
 17 43  1  0  0  0  0
 18 19  1  0  0  0  0
 18 44  1  0  0  0  0
 18 45  1  0  0  0  0
 19 20  1  0  0  0  0
 19 21  1  0  0  0  0
 20 46  1  0  0  0  0
 20 47  1  0  0  0  0
 20 48  1  0  0  0  0
 21 22  1  0  0  0  0
 21 49  1  0  0  0  0
 21 50  1  0  0  0  0
 22 51  1  0  0  0  0
 22 52  1  0  0  0  0
M  CHG  1  16   1
M  END
> <s_m_source_file>
AV-unprocessed.smi

> <i_m_source_file_index>
2270

> <i_lp_mmshare_version>
43012

> <i_f3d_flags>
0

> <s_epik_input>
W0NIM11jMVtjSF1bY0hdW2NIXWMobjEpW05IXUMoPU8pW05IXVtDSDJdW0NASF0oW0NIXShbQ0gzXSlbQ0gzXSlOMltDSDJdW0NIMl1OKFtDSDNdKVtDSDJdW0NIMl0y

> <s_epik_cmdline>
J2VwaWtfcHl0aG9uJywgJy1waCcsICc3LjAnLCAnLXRuJywgJzgnLCAnLW1hJywgJzIwMCcsICctbWV0YWxfYmluZGluZycsICctaW1hZScsICc8aW5maWxlLm1hZT4nLCAnLW9tYWUnLCAnPG91dGZpbGUubWFlPic=

> <r_epik_Ionization_Penalty>
0.201855

> <r_epik_Ionization_Penalty_Charging>
0.20006

> <r_epik_Ionization_Penalty_Neutral>
0.00179462

> <r_epik_State_Penalty>
1.43207

> <r_epik_Charging_Adjusted_Penalty>
1.63213

> <i_epik_Tot_Q>
1

> <i_epik_Tot_abs_Q>
1

> <r_epik_Metal_State_Penalty>
1.43208

> <b_epik_Metal_Only>
0

> <s_lp_Force_Field>
OPLS_2005

> <r_lp_Energy>
33.4642

> <b_lp_Chiralities_Consistent>
1

> <s_lp_Variant>
AV-unprocessed.smi:2270-3

> <Gold.Version>
5.8.1

> <Gold.Id.Protein>
6NUR|6NUR_protein|mol2

> <Gold.PLP.Fitness>
45.8289

> <Gold.PLP.PLP>
-44.6106

> <Gold.PLP.part.hbond>
-2.0000

> <Gold.PLP.part.metal>
0.0000

> <Gold.PLP.part.buried>
-5.3242

> <Gold.PLP.part.nonpolar>
-38.6412

> <Gold.PLP.part.repulsive>
0.4826

> <Gold.PLP.ligand.clash>
0.0000

> <Gold.PLP.ligand.torsion>
1.2881

> <Gold.PLP.Chemscore.Hbond>
1.1520

> <Gold.PLP.Chemscore.CHOScore>
0.0000

> <Gold.PLP.Chemscore.Metal>
0.0000

> <Gold.Chemscore.Hbonds>
donor molecule, donor type, donor heavy atom, donor atom, acceptor molecule, acceptor atom, score
      L1  H     7    30       P1  8028  0.28
      L1  H    10    31       P1  8028  0.37

> <Gold.PLP.Chemscore.Internal.Correction>
0.3385

> <Gold.Rescore>
     Score         DG    S(hbond)    S(metal)    S(lipo)     H(rot)  DE(clash)    DE(int)     intcor
     16.26     -19.00       1.72        0.00     101.73       1.61       0.08       2.66       ----

> <Gold.Chemscore.Fitness>
16.2632

> <Gold.Chemscore.DG>
-18.9979

> <Gold.Chemscore.ZeroCoef>
-5.4800

> <Gold.Chemscore.Hbond>
1.7153

> <Gold.Chemscore.Metal>
0.0000

> <Gold.Chemscore.Lipo>
101.7329

> <Gold.Chemscore.Internal_Hbond>
0.0000

> <Gold.Chemscore.DEClash>
0.0773

> <Gold.Chemscore.DEInternal>
2.6575

> <Gold.Chemscore.Rot>
1.6070

> <Gold.Chemscore.Internal.Correction>
   9.000000E+99

> <Gold.Chemscore.Hbonds>
donor molecule, donor type, donor heavy atom, donor atom, acceptor molecule, acceptor atom, score
      L1  H     7    30       P1  8028  0.28
      L1  H    10    31       P1  8028  0.36

> <Gold.Chemscore.Hbond.Weighted>
-5.7291

> <Gold.Chemscore.Metal.Weighted>
-0.0000

> <Gold.Chemscore.Lipo.Weighted>
-11.9028

> <Gold.Chemscore.Internal_Hbond.Weighted>
0.0000

> <Gold.Chemscore.DEClash.Weighted>
0.0773

> <Gold.Chemscore.DEInternal.Weighted>
2.6575

> <Gold.Chemscore.Rot.Weighted>
4.1140

> <Gold.Chemscore.Internal.Correction.Weighted>
   9.000000E+99

> <Gold.Protein.RotatedTorsions>
[ 6907 6896 6895 6894 ] final   72.45 input  -60.11 | X-H torsion
[ 7974 7965 7964 7962 ] final  -78.88 input  175.53 | X-H torsion
[ 8008 7997 7996 7995 ] final  -24.63 input   59.86 | X-H torsion
[ 10167 10162 10161 10158 ] final  -45.34 input  -65.29 | X-H torsion
[ 10718 10713 10712 10709 ] final -156.82 input   66.30 | X-H torsion
[ 10763 10752 10751 10750 ] final  -19.73 input  -60.55 | X-H torsion
[ 11005 11000 10999 10996 ] final  178.15 input  -57.11 | X-H torsion

> <Gold.Protein.ActiveResidues>
 VAL166  LYS551  ARG553  GLY616  TRP617  ASP618  TYR619  PRO620  LYS621  CYS622 
 ASP623  PHE694  ASN695  SER759  ASP760  ASP761  ALA762  ILE779  LEU786  VAL792 
 PHE793  MET794  SER795  GLU796  ALA797  LYS798  CYS799  TRP800  GLU811  SER814 

> <Gold.Protein.RotatedAtoms>
  152.4868  134.4569  159.9592 H   0  0  0  0  0  0  0  0  0  0  0  0  # atno 6907 bound_to 6896
  151.4564  133.3598  159.2810 H   0  0  0  0  0  0  0  0  0  0  0  0  # atno 6908 bound_to 6896
  150.8986  134.8421  159.7405 H   0  0  0  0  0  0  0  0  0  0  0  0  # atno 6909 bound_to 6896
  145.5806  140.9449  143.1346 H   0  0  0  0  0  0  0  0  0  0  0  0  # atno 7974 bound_to 7965
  154.4518  140.1948  156.0495 H   0  0  0  0  0  0  0  0  0  0  0  0  # atno 8008 bound_to 7997
  156.0665  140.3290  155.7496 H   0  0  0  0  0  0  0  0  0  0  0  0  # atno 8009 bound_to 7997
  155.5331  140.0579  157.2876 H   0  0  0  0  0  0  0  0  0  0  0  0  # atno 8010 bound_to 7997
  140.6862  143.2884  151.3625 H   0  0  0  0  0  0  0  0  0  0  0  0  # atno 10167 bound_to 10162
  156.5318  130.8524  151.2719 H   0  0  0  0  0  0  0  0  0  0  0  0  # atno 10718 bound_to 10713
  153.6093  135.6997  153.5353 H   0  0  0  0  0  0  0  0  0  0  0  0  # atno 10763 bound_to 10752
  153.3030  135.4123  155.1269 H   0  0  0  0  0  0  0  0  0  0  0  0  # atno 10764 bound_to 10752
  154.8567  135.3653  154.5631 H   0  0  0  0  0  0  0  0  0  0  0  0  # atno 10765 bound_to 10752
  140.3919  134.6855  157.4512 H   0  0  0  0  0  0  0  0  0  0  0  0  # atno 11005 bound_to 11000
  144.7396  139.7487  143.7316 LP  0  0  0  0  0  0  0  0  0  0  0  0  # atno 17320 bound_to 7965
  146.1719  139.4873  142.9922 LP  0  0  0  0  0  0  0  0  0  0  0  0  # atno 17321 bound_to 7965
  139.6222  144.0885  152.2401 LP  0  0  0  0  0  0  0  0  0  0  0  0  # atno 17342 bound_to 10162
  140.0333  144.6064  150.7470 LP  0  0  0  0  0  0  0  0  0  0  0  0  # atno 17343 bound_to 10162
  157.7420  130.9882  150.2487 LP  0  0  0  0  0  0  0  0  0  0  0  0  # atno 17370 bound_to 10713
  156.3052  130.3764  149.7713 LP  0  0  0  0  0  0  0  0  0  0  0  0  # atno 17371 bound_to 10713
  140.0400  134.6281  155.8993 LP  0  0  0  0  0  0  0  0  0  0  0  0  # atno 17394 bound_to 11000
  141.1888  133.6563  156.5339 LP  0  0  0  0  0  0  0  0  0  0  0  0  # atno 17395 bound_to 11000

$$$$
