AV-unprocessed.smi:2281|AV-procd|sdf|9193|dock9
  -GOLD-   2272012413D 1   1.00000     0.00000
 Structure written by MMmdl.
 40 41  0  0  0  0  0  0  0  0  1 V2000
  146.8065  140.8421  153.9459 C   0  0  0  0  0  0  0  0  0  0  0  0
  148.2034  140.6314  154.5027 C   0  0  0  0  0  0  0  0  0  0  0  0
  148.7854  141.7461  155.1120 N   0  0  0  0  0  0  0  0  0  0  0  0
  149.9775  141.6624  155.6049 C   0  0  0  0  0  0  0  0  0  0  0  0
  150.7240  140.4738  155.5415 N   0  0  0  0  0  0  0  0  0  0  0  0
  152.0676  140.5187  156.1544 C   0  0  0  0  0  0  0  0  0  0  0  0
  152.2002  139.7819  157.5234 C   0  0  1  0  0  0  0  0  0  0  0  0
  150.9976  138.8866  157.8959 C   0  0  0  0  0  0  0  0  0  0  0  0
  153.2950  138.8917  157.3907 O   0  0  0  0  0  0  0  0  0  0  0  0
  152.4486  140.8170  158.6311 C   0  0  0  0  0  0  0  0  0  0  0  0
  153.0930  140.4732  159.8441 C   0  0  0  0  0  0  0  0  0  0  0  0
  153.3129  141.4449  160.8385 C   0  0  0  0  0  0  0  0  0  0  0  0
  152.8933  142.7721  160.6356 C   0  0  0  0  0  0  0  0  0  0  0  0
  152.2472  143.1358  159.4363 C   0  0  0  0  0  0  0  0  0  0  0  0
  151.8068  144.5753  159.2139 C   0  0  0  0  0  0  0  0  0  0  0  0
  152.0461  145.3267  160.2892 F   0  0  0  0  0  0  0  0  0  0  0  0
  152.4567  145.1098  158.1794 F   0  0  0  0  0  0  0  0  0  0  0  0
  150.4994  144.5980  158.9578 F   0  0  0  0  0  0  0  0  0  0  0  0
  152.0350  142.1568  158.4413 C   0  0  0  0  0  0  0  0  0  0  0  0
  150.2183  139.3315  154.9886 C   0  0  0  0  0  0  0  0  0  0  0  0
  150.8650  138.2828  154.9604 O   0  0  0  0  0  0  0  0  0  0  0  0
  148.8631  139.4438  154.4253 C   0  0  0  0  0  0  0  0  0  0  0  0
  148.2807  138.1970  153.7710 C   0  0  0  0  0  0  0  0  0  0  0  0
  146.7877  140.6409  152.8745 H   0  0  0  0  0  0  0  0  0  0  0  0
  146.4679  141.8675  154.0990 H   0  0  0  0  0  0  0  0  0  0  0  0
  146.0954  140.1785  154.4385 H   0  0  0  0  0  0  0  0  0  0  0  0
  150.4743  142.5017  156.0947 H   0  0  0  0  0  0  0  0  0  0  0  0
  152.8225  140.1448  155.4591 H   0  0  0  0  0  0  0  0  0  0  0  0
  152.3449  141.5662  156.2800 H   0  0  0  0  0  0  0  0  0  0  0  0
  150.0683  139.4526  157.9536 H   0  0  0  0  0  0  0  0  0  0  0  0
  151.1497  138.4131  158.8666 H   0  0  0  0  0  0  0  0  0  0  0  0
  150.8454  138.0855  157.1720 H   0  0  0  0  0  0  0  0  0  0  0  0
  153.3134  138.3227  158.1448 H   0  0  0  0  0  0  0  0  0  0  0  0
  153.4315  139.4655  160.0326 H   0  0  0  0  0  0  0  0  0  0  0  0
  153.8072  141.1713  161.7589 H   0  0  0  0  0  0  0  0  0  0  0  0
  153.0728  143.5106  161.4030 H   0  0  0  0  0  0  0  0  0  0  0  0
  151.5549  142.4392  157.5161 H   0  0  0  0  0  0  0  0  0  0  0  0
  148.8951  137.8981  152.9211 H   0  0  0  0  0  0  0  0  0  0  0  0
  147.2635  138.3369  153.4089 H   0  0  0  0  0  0  0  0  0  0  0  0
  148.2630  137.3711  154.4829 H   0  0  0  0  0  0  0  0  0  0  0  0
  1  2  1  0  0  0  0
  1 24  1  0  0  0  0
  1 25  1  0  0  0  0
  1 26  1  0  0  0  0
  2 22  2  0  0  0  0
  2  3  1  0  0  0  0
  3  4  2  0  0  0  0
  4  5  1  0  0  0  0
  4 27  1  0  0  0  0
  5  6  1  0  0  0  0
  5 20  1  0  0  0  0
  6  7  1  0  0  0  0
  6 28  1  0  0  0  0
  6 29  1  0  0  0  0
  7  8  1  0  0  0  0
  7  9  1  0  0  0  0
  7 10  1  0  0  0  0
  8 30  1  0  0  0  0
  8 31  1  0  0  0  0
  8 32  1  0  0  0  0
  9 33  1  0  0  0  0
 10 19  1  0  0  0  0
 10 11  2  0  0  0  0
 11 12  1  0  0  0  0
 11 34  1  0  0  0  0
 12 13  2  0  0  0  0
 12 35  1  0  0  0  0
 13 14  1  0  0  0  0
 13 36  1  0  0  0  0
 14 15  1  0  0  0  0
 14 19  2  0  0  0  0
 15 16  1  0  0  0  0
 15 17  1  0  0  0  0
 15 18  1  0  0  0  0
 19 37  1  0  0  0  0
 20 21  2  0  0  0  0
 20 22  1  0  0  0  0
 22 23  1  0  0  0  0
 23 38  1  0  0  0  0
 23 39  1  0  0  0  0
 23 40  1  0  0  0  0
M  END
> <s_m_source_file>
AV-unprocessed.smi

> <i_m_source_file_index>
2281

> <i_lp_mmshare_version>
43012

> <i_f3d_flags>
0

> <s_epik_input>
W0NIM11jMW5bY0hdbihjKD1PKWMxW0NIM10pW0NIMl1bQ0BAXShbQ0gzXSkoW09IXSljMltjSF1bY0hdW2NIXWMoQyhGKShGKUYpW2NIXTI=

> <s_epik_cmdline>
J2VwaWtfcHl0aG9uJywgJy1waCcsICc3LjAnLCAnLXRuJywgJzgnLCAnLW1hJywgJzIwMCcsICctbWV0YWxfYmluZGluZycsICctaW1hZScsICc8aW5maWxlLm1hZT4nLCAnLW9tYWUnLCAnPG91dGZpbGUubWFlPic=

> <r_lp_tautomer_probability>
1

> <r_epik_Ionization_Penalty>
5.68222e-05

> <r_epik_Ionization_Penalty_Charging>
9.07816e-08

> <r_epik_Ionization_Penalty_Neutral>
5.67314e-05

> <r_epik_State_Penalty>
-0

> <r_epik_Charging_Adjusted_Penalty>
9.07816e-08

> <i_epik_Tot_Q>
0

> <i_epik_Tot_abs_Q>
0

> <r_epik_Metal_State_Penalty>
-0

> <b_epik_Metal_Only>
0

> <s_lp_Force_Field>
OPLS_2005

> <r_lp_Energy>
23.727

> <b_lp_Chiralities_Consistent>
1

> <s_lp_Variant>
AV-unprocessed.smi:2281-1

> <Gold.Version>
5.8.1

> <Gold.Id.Protein>
6NUR|6NUR_protein|mol2

> <Gold.PLP.Fitness>
46.8391

> <Gold.PLP.PLP>
-47.5502

> <Gold.PLP.part.hbond>
-1.0000

> <Gold.PLP.part.metal>
0.0000

> <Gold.PLP.part.buried>
-3.1081

> <Gold.PLP.part.nonpolar>
-44.2314

> <Gold.PLP.part.repulsive>
0.9671

> <Gold.PLP.ligand.clash>
1.3115

> <Gold.PLP.ligand.torsion>
2.1118

> <Gold.PLP.Chemscore.Hbond>
1.0000

> <Gold.PLP.Chemscore.CHOScore>
0.2556

> <Gold.PLP.Chemscore.Metal>
0.0000

> <Gold.Chemscore.Hbonds>
donor molecule, donor type, donor heavy atom, donor atom, acceptor molecule, acceptor atom, score
      P1  H  7997  8009       L1     9  0.95
      L1  C     4    27       P1  8028  0.23

> <Gold.PLP.Chemscore.Internal.Correction>
1.0571

> <Gold.Rescore>
     Score         DG    S(hbond)    S(metal)    S(lipo)     H(rot)  DE(clash)    DE(int)     intcor
     11.91     -15.13       0.73        0.00     107.28       2.09       1.19       2.03       ----

> <Gold.Chemscore.Fitness>
11.9140

> <Gold.Chemscore.DG>
-15.1342

> <Gold.Chemscore.ZeroCoef>
-5.4800

> <Gold.Chemscore.Hbond>
0.7314

> <Gold.Chemscore.Metal>
0.0000

> <Gold.Chemscore.Lipo>
107.2789

> <Gold.Chemscore.Internal_Hbond>
0.0000

> <Gold.Chemscore.DEClash>
1.1897

> <Gold.Chemscore.DEInternal>
2.0305

> <Gold.Chemscore.Rot>
2.0860

> <Gold.Chemscore.Internal.Correction>
   9.000000E+99

> <Gold.Chemscore.Hbonds>
donor molecule, donor type, donor heavy atom, donor atom, acceptor molecule, acceptor atom, score
      P1  H  7997  8009       L1     9  0.22

> <Gold.Chemscore.Hbond.Weighted>
-2.4428

> <Gold.Chemscore.Metal.Weighted>
-0.0000

> <Gold.Chemscore.Lipo.Weighted>
-12.5516

> <Gold.Chemscore.Internal_Hbond.Weighted>
0.0000

> <Gold.Chemscore.DEClash.Weighted>
1.1897

> <Gold.Chemscore.DEInternal.Weighted>
2.0305

> <Gold.Chemscore.Rot.Weighted>
5.3402

> <Gold.Chemscore.Internal.Correction.Weighted>
   9.000000E+99

> <Gold.Protein.RotatedTorsions>
[ 6907 6896 6895 6894 ] final  -87.25 input  -60.11 | X-H torsion
[ 7974 7965 7964 7962 ] final -153.75 input  175.53 | X-H torsion
[ 8008 7997 7996 7995 ] final  163.48 input   59.86 | X-H torsion
[ 10167 10162 10161 10158 ] final  112.23 input  -65.29 | X-H torsion
[ 10718 10713 10712 10709 ] final   50.95 input   66.30 | X-H torsion
[ 10763 10752 10751 10750 ] final  -21.65 input  -60.55 | X-H torsion
[ 11005 11000 10999 10996 ] final   99.62 input  -57.11 | X-H torsion

> <Gold.Protein.ActiveResidues>
 VAL166  LYS551  ARG553  GLY616  TRP617  ASP618  TYR619  PRO620  LYS621  CYS622 
 ASP623  PHE694  ASN695  SER759  ASP760  ASP761  ALA762  ILE779  LEU786  VAL792 
 PHE793  MET794  SER795  GLU796  ALA797  LYS798  CYS799  TRP800  GLU811  SER814 

> <Gold.Protein.RotatedAtoms>
  150.6866  134.2925  159.4672 H   0  0  0  0  0  0  0  0  0  0  0  0  # atno 6907 bound_to 6896
  152.0829  134.9456  160.0582 H   0  0  0  0  0  0  0  0  0  0  0  0  # atno 6908 bound_to 6896
  152.0802  133.4114  159.4535 H   0  0  0  0  0  0  0  0  0  0  0  0  # atno 6909 bound_to 6896
  144.7724  140.4482  143.5897 H   0  0  0  0  0  0  0  0  0  0  0  0  # atno 7974 bound_to 7965
  156.1954  140.1722  156.8009 H   0  0  0  0  0  0  0  0  0  0  0  0  # atno 8008 bound_to 7997
  154.5523  140.0715  156.8719 H   0  0  0  0  0  0  0  0  0  0  0  0  # atno 8009 bound_to 7997
  155.3005  140.3361  155.4250 H   0  0  0  0  0  0  0  0  0  0  0  0  # atno 8010 bound_to 7997
  139.6551  144.7129  151.1972 H   0  0  0  0  0  0  0  0  0  0  0  0  # atno 10167 bound_to 10162
  157.4934  130.8390  149.8229 H   0  0  0  0  0  0  0  0  0  0  0  0  # atno 10718 bound_to 10713
  153.6394  135.6985  153.5247 H   0  0  0  0  0  0  0  0  0  0  0  0  # atno 10763 bound_to 10752
  153.2794  135.4190  155.1064 H   0  0  0  0  0  0  0  0  0  0  0  0  # atno 10764 bound_to 10752
  154.8503  135.3598  154.5938 H   0  0  0  0  0  0  0  0  0  0  0  0  # atno 10765 bound_to 10752
  139.8770  134.9103  156.4633 H   0  0  0  0  0  0  0  0  0  0  0  0  # atno 11005 bound_to 11000
  145.6284  139.1533  143.2983 LP  0  0  0  0  0  0  0  0  0  0  0  0  # atno 17320 bound_to 7965
  146.1880  140.6389  142.9158 LP  0  0  0  0  0  0  0  0  0  0  0  0  # atno 17321 bound_to 7965
  140.7555  143.6085  150.8629 LP  0  0  0  0  0  0  0  0  0  0  0  0  # atno 17342 bound_to 10162
  139.9737  143.6028  152.2965 LP  0  0  0  0  0  0  0  0  0  0  0  0  # atno 17343 bound_to 10162
  156.0186  130.3804  150.2032 LP  0  0  0  0  0  0  0  0  0  0  0  0  # atno 17370 bound_to 10713
  157.0221  130.9982  151.3337 LP  0  0  0  0  0  0  0  0  0  0  0  0  # atno 17371 bound_to 10713
  140.8848  133.7891  155.9507 LP  0  0  0  0  0  0  0  0  0  0  0  0  # atno 17394 bound_to 11000
  140.8816  134.2605  157.5141 LP  0  0  0  0  0  0  0  0  0  0  0  0  # atno 17395 bound_to 11000

$$$$
