#       Name:                AV-unprocessed.smi:254
#       Creating user name   scv26
#       Creation time:       Thu Mar 26 21:08:09 2020


#       File generated by GOLD software.
#

@<TRIPOS>MOLECULE
AV-unprocessed.smi:254
    60    63     1
SMALL
NO_CHARGES


@<TRIPOS>ATOM
      1 ****        -5.1865   2.8374  -0.6858 O.2            1 S1                 0.0000
      2 ****        -4.4613   2.2256   0.0966 C.2            1 S1                 0.0000
      3 ****        -3.2791   1.3872  -0.3476 C.3            1 S1                 0.0000
      4 ****        -2.7474   0.8828   0.9169 N.3            1 S1                 0.0000
      5 ****        -1.4017   0.9459   1.0233 C.ar           1 S1                 0.0000
      6 ****        -0.7925   2.1355   1.2704 N.ar           1 S1                 0.0000
      7 ****         0.5397   2.1950   1.3619 C.ar           1 S1                 0.0000
      8 ****         1.4303   1.2079   1.2382 N.ar           1 S1                 0.0000
      9 ****         0.8179   0.0161   0.9814 C.ar           1 S1                 0.0000
     10 ****        -0.5823  -0.2002   0.8567 C.ar           1 S1                 0.0000
     11 ****        -0.8386  -1.5393   0.5932 N.2            1 S1                 0.0000
     12 ****         0.3459  -2.0875   0.5680 C.2            1 S1                 0.0000
     13 ****         1.3987  -1.2234   0.7756 N.pl3          1 S1                 0.0000
     14 ****         2.8097  -1.5660   0.8137 C.3            1 S1                 0.0000
     15 ****         3.3740  -2.1337  -0.5149 C.3            1 S1                 0.0000
     16 ****         4.7914  -2.6885  -0.2306 C.3            1 S1                 0.0000
     17 ****         5.1694  -3.6797  -1.1633 O.3            1 S1                 0.0000
     18 ****         3.3718  -1.0866  -1.6714 C.3            1 S1                 0.0000
     19 ****         4.0339  -1.5367  -2.9645 C.3            1 S1                 0.0000
     20 ****         3.4913  -0.5351  -3.9724 C.3            1 S1                 0.0000
     21 ****         2.1417  -0.3410  -3.5807 O.3            1 S1                 0.0000
     22 ****         1.9895  -0.6712  -2.2030 C.3            1 S1                 0.0000
     23 ****        -3.5233   1.4031   2.0443 C.3            1 S1                 0.0000
     24 ****        -4.5721   2.1959   1.4260 N.am           1 S1                 0.0000
     25 ****        -5.5671   2.8928   2.2385 C.3            1 S1                 0.0000
     26 ****        -6.9080   2.1399   2.2996 C.3            1 S1                 0.0000
     27 ****        -7.7426   2.8067   3.0958 F              1 S1                 0.0000
     28 ****        -7.4632   2.0436   1.0918 F              1 S1                 0.0000
     29 ****        -6.7306   0.9168   2.7994 F              1 S1                 0.0000
     30 ****        -3.6093   0.5624  -0.9793 H              1 S1                 0.0000
     31 ****        -2.5677   1.9984  -0.9063 H              1 S1                 0.0000
     32 ****         0.9511   3.1734   1.5616 H              1 S1                 0.0000
     33 ****         0.4861  -3.1437   0.3890 H              1 S1                 0.0000
     34 ****         3.3816  -0.6881   1.1164 H              1 S1                 0.0000
     35 ****         2.9291  -2.2961   1.6150 H              1 S1                 0.0000
     36 ****         2.7464  -2.9773  -0.8062 H              1 S1                 0.0000
     37 ****         5.5301  -1.8866  -0.2231 H              1 S1                 0.0000
     38 ****         4.8338  -3.1614   0.7508 H              1 S1                 0.0000
     39 ****         6.0312  -3.9938  -0.9358 H              1 S1                 0.0000
     40 ****         3.8906  -0.1883  -1.3324 H              1 S1                 0.0000
     41 ****         5.1230  -1.5255  -2.9176 H              1 S1                 0.0000
     42 ****         3.7094  -2.5433  -3.2320 H              1 S1                 0.0000
     43 ****         4.0240   0.4137  -3.8953 H              1 S1                 0.0000
     44 ****         3.5654  -0.8877  -5.0012 H              1 S1                 0.0000
     45 ****         1.2749  -1.4916  -2.1321 H              1 S1                 0.0000
     46 ****         1.5825   0.1823  -1.6625 H              1 S1                 0.0000
     47 ****        -3.9574   0.5749   2.6054 H              1 S1                 0.0000
     48 ****        -2.9413   2.0143   2.7359 H              1 S1                 0.0000
     49 ****        -5.1736   3.0212   3.2478 H              1 S1                 0.0000
     50 ****        -5.7206   3.8982   1.8433 H              1 S1                 0.0000
     51 ****        -5.9499   3.3819  -0.3383 LP             1 S1                 0.0000
     52 ****        -5.0127   2.7904  -1.6694 LP             1 S1                 0.0000
     53 ****        -2.8827  -0.1077   0.9387 LP             1 S1                 0.0000
     54 ****        -1.3399   2.9647   1.3836 LP             1 S1                 0.0000
     55 ****         2.4196   1.3270   1.3230 LP             1 S1                 0.0000
     56 ****        -1.7249  -1.9812   0.4549 LP             1 S1                 0.0000
     57 ****         5.1854  -3.2882  -2.0833 LP             1 S1                 0.0000
     58 ****         4.5163  -4.4364  -1.1343 LP             1 S1                 0.0000
     59 ****         1.5481  -0.9283  -4.1308 LP             1 S1                 0.0000
     60 ****         1.8885   0.6159  -3.7231 LP             1 S1                 0.0000
@<TRIPOS>BOND
    1    1    2 2     
    2    2   24 am    
    3    2    3 1     
    4    3    4 1     
    5    3   30 1     
    6    3   31 1     
    7    4    5 1     
    8    4   23 1     
    9    5   10 ar    
   10    5    6 ar    
   11    6    7 ar    
   12    7    8 ar    
   13    7   32 1     
   14    8    9 ar    
   15    9   13 1     
   16    9   10 ar    
   17   10   11 1     
   18   11   12 2     
   19   12   13 1     
   20   12   33 1     
   21   13   14 1     
   22   14   15 1     
   23   14   34 1     
   24   14   35 1     
   25   15   16 1     
   26   15   18 1     
   27   15   36 1     
   28   16   17 1     
   29   16   37 1     
   30   16   38 1     
   31   17   39 1     
   32   18   22 1     
   33   18   19 1     
   34   18   40 1     
   35   19   20 1     
   36   19   41 1     
   37   19   42 1     
   38   20   21 1     
   39   20   43 1     
   40   20   44 1     
   41   21   22 1     
   42   22   45 1     
   43   22   46 1     
   44   23   24 1     
   45   23   47 1     
   46   23   48 1     
   47   24   25 1     
   48   25   26 1     
   49   25   49 1     
   50   25   50 1     
   51   26   27 1     
   52   26   28 1     
   53   26   29 1     
   54    1   51 1     
   55    1   52 1     
   56    4   53 1     
   57    6   54 1     
   58    8   55 1     
   59   11   56 1     
   60   17   57 1     
   61   17   58 1     
   62   21   59 1     
   63   21   60 1     
@<TRIPOS>SUBSTRUCTURE
      1 S1             1
@<TRIPOS>SET
LONE_PAIRS      STATIC     ATOMS    <user>   **** ""
10 51 52 53 54 55 56 57 58 59 60
DONOR_HYDROGENS      STATIC     ATOMS    <user>   **** ""
1 39
ATOM$BLUE        STATIC     ATOMS    COLORGROUP SYSTEM
10 51 52 53 54 55 56 57 58 59 60
ATOM$RED        STATIC     ATOMS    COLORGROUP SYSTEM
1 39
