#       Name:                AV-unprocessed.smi:467
#       Creating user name   scv26
#       Creation time:       Thu Mar 26 23:05:41 2020


#       File generated by GOLD software.
#

@<TRIPOS>MOLECULE
AV-unprocessed.smi:467
    50    52     1
SMALL
NO_CHARGES


@<TRIPOS>ATOM
      1 ****        -4.3496   4.1099   2.5732 C.3            1 S1                 0.0000
      2 ****        -3.5652   3.1652   1.6797 C.ar           1 S1                 0.0000
      3 ****        -3.0966   3.6311   0.4307 C.ar           1 S1                 0.0000
      4 ****        -2.3661   2.7836  -0.4307 C.ar           1 S1                 0.0000
      5 ****        -1.8226   3.0258  -1.6807 N.2            1 S1                 0.0000
      6 ****        -1.2712   1.8500  -1.9656 C.2            1 S1                 0.0000
      7 ****        -1.3888   0.8738  -1.0451 N.pl3          1 S1                 0.0000
      8 ****        -0.8710  -0.4800  -1.1375 C.3            1 S1                 0.0000
      9 ****         0.6476  -0.5516  -0.8870 C.3            1 S1                 0.0000
     10 ****         0.9394  -0.0274   0.3952 O.3            1 S1                 0.0000
     11 ****         1.1714  -1.9992  -0.9613 C.3            1 S1                 0.0000
     12 ****         2.6531  -2.0713  -0.8878 N.4            1 S1                 1.0000
     13 ****         3.1343  -3.3757  -0.3740 C.3            1 S1                 0.0000
     14 ****         4.6682  -3.3772  -0.2611 C.3            1 S1                 0.0000
     15 ****         5.2402  -3.0784  -1.5283 O.3            1 S1                 0.0000
     16 ****         4.8574  -1.7905  -1.9941 C.3            1 S1                 0.0000
     17 ****         3.3297  -1.7371  -2.1660 C.3            1 S1                 0.0000
     18 ****        -2.1131   1.4467  -0.0044 C.ar           1 S1                 0.0000
     19 ****        -2.5714   0.9728   1.2378 C.ar           1 S1                 0.0000
     20 ****        -3.3017   1.8323   2.0852 C.ar           1 S1                 0.0000
     21 ****        -3.7962   1.3100   3.4227 C.3            1 S1                 0.0000
     22 ****        -4.5040   5.0765   2.0928 H              1 S1                 0.0000
     23 ****        -3.8157   4.2817   3.5082 H              1 S1                 0.0000
     24 ****        -5.3299   3.6927   2.8050 H              1 S1                 0.0000
     25 ****        -3.2964   4.6467   0.1218 H              1 S1                 0.0000
     26 ****        -0.7492   1.6885  -2.8975 H              1 S1                 0.0000
     27 ****        -1.4062  -1.1100  -0.4260 H              1 S1                 0.0000
     28 ****        -1.1067  -0.8657  -2.1304 H              1 S1                 0.0000
     29 ****         1.1488   0.0704  -1.6281 H              1 S1                 0.0000
     30 ****         0.4207  -0.4882   1.0374 H              1 S1                 0.0000
     31 ****         0.7320  -2.5694  -0.1410 H              1 S1                 0.0000
     32 ****         0.8345  -2.4840  -1.8791 H              1 S1                 0.0000
     33 ****         2.6963  -3.5730   0.6053 H              1 S1                 0.0000
     34 ****         2.8069  -4.1756  -1.0402 H              1 S1                 0.0000
     35 ****         5.0061  -2.6549   0.4838 H              1 S1                 0.0000
     36 ****         5.0197  -4.3568   0.0633 H              1 S1                 0.0000
     37 ****         5.1990  -1.0213  -1.2996 H              1 S1                 0.0000
     38 ****         5.3499  -1.5993  -2.9478 H              1 S1                 0.0000
     39 ****         3.0202  -2.4403  -2.9409 H              1 S1                 0.0000
     40 ****         3.0405  -0.7428  -2.5047 H              1 S1                 0.0000
     41 ****        -2.3647  -0.0441   1.5365 H              1 S1                 0.0000
     42 ****        -3.4866   0.2774   3.5862 H              1 S1                 0.0000
     43 ****        -4.8851   1.3439   3.4653 H              1 S1                 0.0000
     44 ****        -3.3982   1.9118   4.2400 H              1 S1                 0.0000
     45 ****         2.9381  -1.3779  -0.2102 H              1 S1                 0.0000
     46 ****        -1.8401   3.8641  -2.2257 LP             1 S1                 0.0000
     47 ****         0.7160   0.9470   0.4189 LP             1 S1                 0.0000
     48 ****         1.9112  -0.1515   0.5960 LP             1 S1                 0.0000
     49 ****         4.9368  -3.7644  -2.1896 LP             1 S1                 0.0000
     50 ****         6.2366  -3.1101  -1.4486 LP             1 S1                 0.0000
@<TRIPOS>BOND
    1    1    2 1     
    2    1   22 1     
    3    1   23 1     
    4    1   24 1     
    5    2   20 ar    
    6    2    3 ar    
    7    3    4 ar    
    8    3   25 1     
    9    4   18 ar    
   10    4    5 1     
   11    5    6 2     
   12    6    7 1     
   13    6   26 1     
   14    7    8 1     
   15    7   18 1     
   16    8    9 1     
   17    8   27 1     
   18    8   28 1     
   19    9   10 1     
   20    9   11 1     
   21    9   29 1     
   22   10   30 1     
   23   11   12 1     
   24   11   31 1     
   25   11   32 1     
   26   12   17 1     
   27   12   13 1     
   28   12   45 1     
   29   13   14 1     
   30   13   33 1     
   31   13   34 1     
   32   14   15 1     
   33   14   35 1     
   34   14   36 1     
   35   15   16 1     
   36   16   17 1     
   37   16   37 1     
   38   16   38 1     
   39   17   39 1     
   40   17   40 1     
   41   18   19 ar    
   42   19   20 ar    
   43   19   41 1     
   44   20   21 1     
   45   21   42 1     
   46   21   43 1     
   47   21   44 1     
   48    5   46 1     
   49   10   47 1     
   50   10   48 1     
   51   15   49 1     
   52   15   50 1     
@<TRIPOS>SUBSTRUCTURE
      1 S1             1
@<TRIPOS>SET
LONE_PAIRS      STATIC     ATOMS    <user>   **** ""
5 46 47 48 49 50
DONOR_HYDROGENS      STATIC     ATOMS    <user>   **** ""
2 30 45
ATOM$BLUE        STATIC     ATOMS    COLORGROUP SYSTEM
5 46 47 48 49 50
ATOM$RED        STATIC     ATOMS    COLORGROUP SYSTEM
2 30 45
