AV-unprocessed.smi:3272|AV-procd|sdf|12519|dock2
  -GOLD-   2272018433D 1   1.00000     0.00000
 Structure written by MMmdl.
 35 36  0  0  0  0  0  0  0  0  1 V2000
  144.2006  131.7936  150.5252 C   0  0  0  0  0  0  0  0  0  0  0  0
  145.0047  130.7688  151.3338 C   0  0  0  0  0  0  0  0  0  0  0  0
  146.0924  131.3931  152.0613 N   0  0  0  0  0  0  0  0  0  0  0  0
  146.4792  132.7184  152.0454 C   0  0  0  0  0  0  0  0  0  0  0  0
  147.5456  132.8019  152.8954 C   0  0  0  0  0  0  0  0  0  0  0  0
  148.3255  133.9312  153.2516 N   0  0  0  0  0  0  0  0  0  0  0  0
  149.0234  134.1146  154.3844 C   0  0  0  0  0  0  0  0  0  0  0  0
  149.0999  133.3026  155.3067 O   0  0  0  0  0  0  0  0  0  0  0  0
  149.6304  135.3101  154.3950 N   0  0  0  0  0  0  0  0  0  0  0  0
  150.4472  135.8338  155.4858 C   0  0  0  0  0  0  0  0  0  0  0  0
  150.4682  137.3740  155.4967 C   0  0  1  0  0  0  0  0  0  0  0  0
  151.5557  138.0016  156.3480 C   0  0  0  0  0  0  0  0  0  0  0  0
  151.6244  139.4169  155.7826 C   0  0  0  0  0  0  0  0  0  0  0  0
  151.2604  139.3075  154.4094 O   0  0  0  0  0  0  0  0  0  0  0  0
  150.7748  137.9967  154.1352 C   0  0  0  0  0  0  0  0  0  0  0  0
  147.7485  131.4882  153.3924 C   0  0  0  0  0  0  0  0  0  0  0  0
  146.8664  130.6418  152.8832 N   0  0  0  0  0  0  0  0  0  0  0  0
  143.3950  131.3071  149.9754 H   0  0  0  0  0  0  0  0  0  0  0  0
  144.8341  132.3086  149.8022 H   0  0  0  0  0  0  0  0  0  0  0  0
  143.7522  132.5462  151.1747 H   0  0  0  0  0  0  0  0  0  0  0  0
  144.3576  130.2513  152.0431 H   0  0  0  0  0  0  0  0  0  0  0  0
  145.4200  130.0090  150.6709 H   0  0  0  0  0  0  0  0  0  0  0  0
  145.9691  133.4577  151.4459 H   0  0  0  0  0  0  0  0  0  0  0  0
  148.3444  134.6826  152.5777 H   0  0  0  0  0  0  0  0  0  0  0  0
  149.5111  135.9092  153.5911 H   0  0  0  0  0  0  0  0  0  0  0  0
  150.1079  135.4457  156.4479 H   0  0  0  0  0  0  0  0  0  0  0  0
  151.4616  135.4585  155.3489 H   0  0  0  0  0  0  0  0  0  0  0  0
  149.5005  137.7468  155.8369 H   0  0  0  0  0  0  0  0  0  0  0  0
  151.3325  137.9840  157.4151 H   0  0  0  0  0  0  0  0  0  0  0  0
  152.5060  137.4896  156.1894 H   0  0  0  0  0  0  0  0  0  0  0  0
  150.8996  140.0612  156.2815 H   0  0  0  0  0  0  0  0  0  0  0  0
  152.6119  139.8637  155.9003 H   0  0  0  0  0  0  0  0  0  0  0  0
  151.5615  137.4400  153.6238 H   0  0  0  0  0  0  0  0  0  0  0  0
  149.9023  138.0246  153.4822 H   0  0  0  0  0  0  0  0  0  0  0  0
  148.4900  131.1274  154.0898 H   0  0  0  0  0  0  0  0  0  0  0  0
  1  2  1  0  0  0  0
  1 18  1  0  0  0  0
  1 19  1  0  0  0  0
  1 20  1  0  0  0  0
  2  3  1  0  0  0  0
  2 21  1  0  0  0  0
  2 22  1  0  0  0  0
  3 17  1  0  0  0  0
  3  4  1  0  0  0  0
  4  5  2  0  0  0  0
  4 23  1  0  0  0  0
  5  6  1  0  0  0  0
  5 16  1  0  0  0  0
  6  7  1  0  0  0  0
  6 24  1  0  0  0  0
  7  8  2  0  0  0  0
  7  9  1  0  0  0  0
  9 10  1  0  0  0  0
  9 25  1  0  0  0  0
 10 11  1  0  0  0  0
 10 26  1  0  0  0  0
 10 27  1  0  0  0  0
 11 15  1  0  0  0  0
 11 12  1  0  0  0  0
 11 28  1  0  0  0  0
 12 13  1  0  0  0  0
 12 29  1  0  0  0  0
 12 30  1  0  0  0  0
 13 14  1  0  0  0  0
 13 31  1  0  0  0  0
 13 32  1  0  0  0  0
 14 15  1  0  0  0  0
 15 33  1  0  0  0  0
 15 34  1  0  0  0  0
 16 17  2  0  0  0  0
 16 35  1  0  0  0  0
M  END
> <s_m_source_file>
AV-unprocessed.smi

> <i_m_source_file_index>
3272

> <i_lp_mmshare_version>
43012

> <i_f3d_flags>
0

> <s_epik_input>
W0NIM11bQ0gyXW4xW2NIXWMoW2NIXW4xKVtOSF1DKD1PKVtOSF1bQ0gyXVtDQEBIXTJbQ0gyXVtDSDJdT1tDSDJdMg==

> <s_epik_cmdline>
J2VwaWtfcHl0aG9uJywgJy1waCcsICc3LjAnLCAnLXRuJywgJzgnLCAnLW1hJywgJzIwMCcsICctbWV0YWxfYmluZGluZycsICctaW1hZScsICc8aW5maWxlLm1hZT4nLCAnLW9tYWUnLCAnPG91dGZpbGUubWFlPic=

> <r_lp_tautomer_probability>
1

> <r_epik_Ionization_Penalty>
0.000182896

> <r_epik_Ionization_Penalty_Charging>
0

> <r_epik_Ionization_Penalty_Neutral>
0.000182896

> <r_epik_State_Penalty>
-0

> <r_epik_Charging_Adjusted_Penalty>
0

> <i_epik_Tot_Q>
0

> <i_epik_Tot_abs_Q>
0

> <r_epik_Metal_State_Penalty>
-0

> <b_epik_Metal_Only>
0

> <s_lp_Force_Field>
OPLS_2005

> <r_lp_Energy>
22.1585

> <b_lp_Chiralities_Consistent>
1

> <s_lp_Variant>
AV-unprocessed.smi:3272-2

> <Gold.Version>
5.8.1

> <Gold.Id.Protein>
6NUR|6NUR_protein|mol2

> <Gold.PLP.Fitness>
37.7334

> <Gold.PLP.PLP>
-29.5450

> <Gold.PLP.part.hbond>
-3.0000

> <Gold.PLP.part.metal>
0.0000

> <Gold.PLP.part.buried>
-3.2142

> <Gold.PLP.part.nonpolar>
-23.1576

> <Gold.PLP.part.repulsive>
0.3392

> <Gold.PLP.ligand.clash>
0.0000

> <Gold.PLP.ligand.torsion>
0.4131

> <Gold.PLP.Chemscore.Hbond>
3.0000

> <Gold.PLP.Chemscore.CHOScore>
0.0000

> <Gold.PLP.Chemscore.Metal>
0.0000

> <Gold.Chemscore.Hbonds>
donor molecule, donor type, donor heavy atom, donor atom, acceptor molecule, acceptor atom, score
      L1  H     6    24       P1  7948  1.00
      L1  H     9    25       P1  7948  1.00
      P1  H  7989  7998       L1    14  1.00

> <Gold.PLP.Chemscore.Internal.Correction>
0.0146

> <Gold.Rescore>
     Score         DG    S(hbond)    S(metal)    S(lipo)     H(rot)  DE(clash)    DE(int)     intcor
     15.96     -17.56       2.62        0.00      59.23       1.41       0.00       1.60       ----

> <Gold.Chemscore.Fitness>
15.9586

> <Gold.Chemscore.DG>
-17.5581

> <Gold.Chemscore.ZeroCoef>
-5.4800

> <Gold.Chemscore.Hbond>
2.6194

> <Gold.Chemscore.Metal>
0.0000

> <Gold.Chemscore.Lipo>
59.2297

> <Gold.Chemscore.Internal_Hbond>
0.0000

> <Gold.Chemscore.DEClash>
0.0000

> <Gold.Chemscore.DEInternal>
1.5995

> <Gold.Chemscore.Rot>
1.4064

> <Gold.Chemscore.Internal.Correction>
   9.000000E+99

> <Gold.Chemscore.Hbonds>
donor molecule, donor type, donor heavy atom, donor atom, acceptor molecule, acceptor atom, score
      L1  H     6    24       P1  7948  0.29
      L1  H     9    25       P1  7948  0.38
      P1  H  7989  7998       L1    14  0.82

> <Gold.Chemscore.Hbond.Weighted>
-8.7487

> <Gold.Chemscore.Metal.Weighted>
-0.0000

> <Gold.Chemscore.Lipo.Weighted>
-6.9299

> <Gold.Chemscore.Internal_Hbond.Weighted>
0.0000

> <Gold.Chemscore.DEClash.Weighted>
0.0000

> <Gold.Chemscore.DEInternal.Weighted>
1.5995

> <Gold.Chemscore.Rot.Weighted>
3.6004

> <Gold.Chemscore.Internal.Correction.Weighted>
   9.000000E+99

> <Gold.Protein.RotatedTorsions>
[ 6907 6896 6895 6894 ] final   90.95 input  -60.11 | X-H torsion
[ 7974 7965 7964 7962 ] final  -10.53 input  175.53 | X-H torsion
[ 8008 7997 7996 7995 ] final -177.87 input   59.86 | X-H torsion
[ 10167 10162 10161 10158 ] final   28.00 input  -65.29 | X-H torsion
[ 10718 10713 10712 10709 ] final    0.51 input   66.30 | X-H torsion
[ 10763 10752 10751 10750 ] final   71.89 input  -60.55 | X-H torsion
[ 11005 11000 10999 10996 ] final   58.72 input  -57.11 | X-H torsion

> <Gold.Protein.ActiveResidues>
 VAL166  LYS551  ARG553  GLY616  TRP617  ASP618  TYR619  PRO620  LYS621  CYS622 
 ASP623  PHE694  ASN695  SER759  ASP760  ASP761  ALA762  ILE779  LEU786  VAL792 
 PHE793  MET794  SER795  GLU796  ALA797  LYS798  CYS799  TRP800  GLU811  SER814 

> <Gold.Protein.RotatedAtoms>
  152.5447  134.1732  159.8604 H   0  0  0  0  0  0  0  0  0  0  0  0  # atno 6907 bound_to 6896
  151.1740  133.4759  159.2601 H   0  0  0  0  0  0  0  0  0  0  0  0  # atno 6908 bound_to 6896
  151.1245  135.0109  159.8609 H   0  0  0  0  0  0  0  0  0  0  0  0  # atno 6909 bound_to 6896
  146.2217  140.2778  142.8360 H   0  0  0  0  0  0  0  0  0  0  0  0  # atno 7974 bound_to 7965
  156.0121  140.1243  157.0443 H   0  0  0  0  0  0  0  0  0  0  0  0  # atno 8008 bound_to 7997
  154.4280  140.1085  156.5914 H   0  0  0  0  0  0  0  0  0  0  0  0  # atno 8009 bound_to 7997
  155.6065  140.3471  155.4611 H   0  0  0  0  0  0  0  0  0  0  0  0  # atno 8010 bound_to 7997
  140.4890  144.0497  150.6290 H   0  0  0  0  0  0  0  0  0  0  0  0  # atno 10167 bound_to 10162
  156.8344  130.5499  149.5683 H   0  0  0  0  0  0  0  0  0  0  0  0  # atno 10718 bound_to 10713
  153.0426  135.5120  154.7662 H   0  0  0  0  0  0  0  0  0  0  0  0  # atno 10763 bound_to 10752
  154.6587  135.2935  154.9896 H   0  0  0  0  0  0  0  0  0  0  0  0  # atno 10764 bound_to 10752
  154.0755  135.6671  153.4883 H   0  0  0  0  0  0  0  0  0  0  0  0  # atno 10765 bound_to 10752
  140.0357  134.5947  155.9447 H   0  0  0  0  0  0  0  0  0  0  0  0  # atno 11005 bound_to 11000
  144.9220  140.7878  143.5742 LP  0  0  0  0  0  0  0  0  0  0  0  0  # atno 17320 bound_to 7965
  145.2715  139.1952  143.4839 LP  0  0  0  0  0  0  0  0  0  0  0  0  # atno 17321 bound_to 7965
  140.3760  143.2828  152.0224 LP  0  0  0  0  0  0  0  0  0  0  0  0  # atno 17342 bound_to 10162
  139.4847  144.6192  151.7287 LP  0  0  0  0  0  0  0  0  0  0  0  0  # atno 17343 bound_to 10162
  156.0916  130.5900  150.9742 LP  0  0  0  0  0  0  0  0  0  0  0  0  # atno 17370 bound_to 10713
  157.6389  131.0912  150.8291 LP  0  0  0  0  0  0  0  0  0  0  0  0  # atno 17371 bound_to 10713
  141.1856  133.6555  156.5204 LP  0  0  0  0  0  0  0  0  0  0  0  0  # atno 17394 bound_to 11000
  140.4152  134.7237  157.4858 LP  0  0  0  0  0  0  0  0  0  0  0  0  # atno 17395 bound_to 11000

$$$$
