AV-unprocessed.smi:2775|AV-procd|sdf|10692|dock4
  -GOLD-   2272015133D 1   1.00000     0.00000
 Structure written by MMmdl.
 42 45  0  0  0  0  0  0  0  0  1 V2000
  153.1423  143.9864  162.1983 C   0  0  0  0  0  0  0  0  0  0  0  0
  153.1989  142.7333  161.3449 C   0  0  0  0  0  0  0  0  0  0  0  0
  153.9752  141.7354  161.8216 N   0  0  0  0  0  0  0  0  0  0  0  0
  154.0666  140.6006  161.0979 C   0  0  0  0  0  0  0  0  0  0  0  0
  153.3915  140.4028  159.8784 C   0  0  0  0  0  0  0  0  0  0  0  0
  152.5644  141.4397  159.3863 C   0  0  0  0  0  0  0  0  0  0  0  0
  151.8510  141.3529  158.1610 N   0  0  0  0  0  0  0  0  0  0  0  0
  151.8166  140.3373  157.2774 C   0  0  0  0  0  0  0  0  0  0  0  0
  152.4937  139.3143  157.3546 O   0  0  0  0  0  0  0  0  0  0  0  0
  150.9157  140.5072  156.2942 N   0  0  0  0  0  0  0  0  0  0  0  0
  150.6293  139.5946  155.1816 C   0  0  2  0  0  0  0  0  0  0  0  0
  149.4282  140.0248  154.2975 C   0  0  2  0  0  0  0  0  0  0  0  0
  148.7657  141.3797  154.3849 C   0  0  0  0  0  0  0  0  0  0  0  0
  147.5308  141.1007  155.2455 C   0  0  0  0  0  0  0  0  0  0  0  0
  147.8504  139.9103  155.9617 O   0  0  0  0  0  0  0  0  0  0  0  0
  148.5534  139.0473  155.0731 C   0  0  2  0  0  0  0  0  0  0  0  0
  149.8094  138.3799  155.6491 C   0  0  0  0  0  0  0  0  0  0  0  0
  149.8391  137.8353  157.0869 C   0  0  0  0  0  0  0  0  0  0  0  0
  149.6292  136.4343  156.5060 C   0  0  0  0  0  0  0  0  0  0  0  0
  150.1768  136.9647  155.1774 C   0  0  0  0  0  0  0  0  0  0  0  0
  152.4775  142.6385  160.1316 C   0  0  0  0  0  0  0  0  0  0  0  0
  151.4994  143.9564  159.5757 Cl  0  0  0  0  0  0  0  0  0  0  0  0
  152.1129  144.2057  162.4832 H   0  0  0  0  0  0  0  0  0  0  0  0
  153.5375  144.8391  161.6455 H   0  0  0  0  0  0  0  0  0  0  0  0
  153.7274  143.8763  163.1125 H   0  0  0  0  0  0  0  0  0  0  0  0
  154.7034  139.8269  161.5005 H   0  0  0  0  0  0  0  0  0  0  0  0
  153.5275  139.4752  159.3440 H   0  0  0  0  0  0  0  0  0  0  0  0
  151.1817  142.0918  158.0015 H   0  0  0  0  0  0  0  0  0  0  0  0
  150.3190  141.3194  156.3605 H   0  0  0  0  0  0  0  0  0  0  0  0
  151.5076  139.3022  154.6037 H   0  0  0  0  0  0  0  0  0  0  0  0
  149.5718  139.6799  153.2724 H   0  0  0  0  0  0  0  0  0  0  0  0
  149.4042  142.1285  154.8500 H   0  0  0  0  0  0  0  0  0  0  0  0
  148.4828  141.7639  153.4045 H   0  0  0  0  0  0  0  0  0  0  0  0
  147.2922  141.9234  155.9197 H   0  0  0  0  0  0  0  0  0  0  0  0
  146.6604  140.9118  154.6154 H   0  0  0  0  0  0  0  0  0  0  0  0
  147.9107  138.4254  154.4483 H   0  0  0  0  0  0  0  0  0  0  0  0
  150.8144  137.9463  157.5636 H   0  0  0  0  0  0  0  0  0  0  0  0
  149.0337  138.1885  157.7312 H   0  0  0  0  0  0  0  0  0  0  0  0
  150.2307  135.6519  156.9696 H   0  0  0  0  0  0  0  0  0  0  0  0
  148.5756  136.1564  156.4476 H   0  0  0  0  0  0  0  0  0  0  0  0
  149.6411  136.6189  154.2928 H   0  0  0  0  0  0  0  0  0  0  0  0
  151.2534  136.8168  155.0787 H   0  0  0  0  0  0  0  0  0  0  0  0
  1  2  1  0  0  0  0
  1 23  1  0  0  0  0
  1 24  1  0  0  0  0
  1 25  1  0  0  0  0
  2 21  1  0  0  0  0
  2  3  2  0  0  0  0
  3  4  1  0  0  0  0
  4  5  2  0  0  0  0
  4 26  1  0  0  0  0
  5  6  1  0  0  0  0
  5 27  1  0  0  0  0
  6  7  1  0  0  0  0
  6 21  2  0  0  0  0
  7  8  1  0  0  0  0
  7 28  1  0  0  0  0
  8  9  2  0  0  0  0
  8 10  1  0  0  0  0
 10 11  1  0  0  0  0
 10 29  1  0  0  0  0
 11 17  1  0  0  0  0
 11 12  1  0  0  0  0
 11 30  1  0  0  0  0
 12 16  1  0  0  0  0
 12 13  1  0  0  0  0
 12 31  1  0  0  0  0
 13 14  1  0  0  0  0
 13 32  1  0  0  0  0
 13 33  1  0  0  0  0
 14 15  1  0  0  0  0
 14 34  1  0  0  0  0
 14 35  1  0  0  0  0
 15 16  1  0  0  0  0
 16 17  1  0  0  0  0
 16 36  1  0  0  0  0
 17 20  1  0  0  0  0
 17 18  1  0  0  0  0
 18 19  1  0  0  0  0
 18 37  1  0  0  0  0
 18 38  1  0  0  0  0
 19 20  1  0  0  0  0
 19 39  1  0  0  0  0
 19 40  1  0  0  0  0
 20 41  1  0  0  0  0
 20 42  1  0  0  0  0
 21 22  1  0  0  0  0
M  END
> <s_m_source_file>
AV-unprocessed.smi

> <i_m_source_file_index>
2775

> <i_lp_mmshare_version>
43012

> <i_f3d_flags>
0

> <s_epik_input>
W0NIM11jMW5bY0hdW2NIXWMoYzFDbClbTkhdQyg9TylbTkhdW0NAQEhdMltDQEhdKFtDSDJdW0NIMl1PMylbQ0BASF0zQzI0W0NIMl1bQ0gyXVtDSDJdNA==

> <s_epik_cmdline>
J2VwaWtfcHl0aG9uJywgJy1waCcsICc3LjAnLCAnLXRuJywgJzgnLCAnLW1hJywgJzIwMCcsICctbWV0YWxfYmluZGluZycsICctaW1hZScsICc8aW5maWxlLm1hZT4nLCAnLW9tYWUnLCAnPG91dGZpbGUubWFlPic=

> <r_epik_Ionization_Penalty>
0.01026

> <r_epik_Ionization_Penalty_Charging>
0

> <r_epik_Ionization_Penalty_Neutral>
0.01026

> <r_epik_State_Penalty>
0.00780685

> <r_epik_Charging_Adjusted_Penalty>
0.00780685

> <i_epik_Tot_Q>
0

> <i_epik_Tot_abs_Q>
0

> <r_epik_Metal_State_Penalty>
0.00767411

> <b_epik_Metal_Only>
0

> <s_lp_Force_Field>
OPLS_2005

> <r_lp_Energy>
58.5604

> <b_lp_Chiralities_Consistent>
1

> <s_lp_Variant>
AV-unprocessed.smi:2775-5

> <Gold.Version>
5.8.1

> <Gold.Id.Protein>
6NUR|6NUR_protein|mol2

> <Gold.PLP.Fitness>
41.3079

> <Gold.PLP.PLP>
-38.3288

> <Gold.PLP.part.hbond>
-1.6571

> <Gold.PLP.part.metal>
0.0000

> <Gold.PLP.part.buried>
-2.8893

> <Gold.PLP.part.nonpolar>
-34.1896

> <Gold.PLP.part.repulsive>
0.1883

> <Gold.PLP.ligand.clash>
0.0000

> <Gold.PLP.ligand.torsion>
0.1152

> <Gold.PLP.Chemscore.Hbond>
1.0000

> <Gold.PLP.Chemscore.CHOScore>
0.0000

> <Gold.PLP.Chemscore.Metal>
0.0000

> <Gold.Chemscore.Hbonds>
donor molecule, donor type, donor heavy atom, donor atom, acceptor molecule, acceptor atom, score
      P1  H  7997  8009       L1     9  0.40

> <Gold.PLP.Chemscore.Internal.Correction>
0.2095

> <Gold.Rescore>
     Score         DG    S(hbond)    S(metal)    S(lipo)     H(rot)  DE(clash)    DE(int)     intcor
     17.34     -20.05       1.00        0.00     117.96       1.00       0.38       2.33       ----

> <Gold.Chemscore.Fitness>
17.3426

> <Gold.Chemscore.DG>
-20.0534

> <Gold.Chemscore.ZeroCoef>
-5.4800

> <Gold.Chemscore.Hbond>
0.9977

> <Gold.Chemscore.Metal>
0.0000

> <Gold.Chemscore.Lipo>
117.9597

> <Gold.Chemscore.Internal_Hbond>
0.0000

> <Gold.Chemscore.DEClash>
0.3768

> <Gold.Chemscore.DEInternal>
2.3340

> <Gold.Chemscore.Rot>
1.0000

> <Gold.Chemscore.Internal.Correction>
   9.000000E+99

> <Gold.Chemscore.Hbonds>
donor molecule, donor type, donor heavy atom, donor atom, acceptor molecule, acceptor atom, score
      P1  H  7997  8009       L1     9  0.07

> <Gold.Chemscore.Hbond.Weighted>
-3.3322

> <Gold.Chemscore.Metal.Weighted>
-0.0000

> <Gold.Chemscore.Lipo.Weighted>
-13.8013

> <Gold.Chemscore.Internal_Hbond.Weighted>
0.0000

> <Gold.Chemscore.DEClash.Weighted>
0.3768

> <Gold.Chemscore.DEInternal.Weighted>
2.3340

> <Gold.Chemscore.Rot.Weighted>
2.5600

> <Gold.Chemscore.Internal.Correction.Weighted>
   9.000000E+99

> <Gold.Protein.RotatedTorsions>
[ 6907 6896 6895 6894 ] final -164.24 input  -60.11 | X-H torsion
[ 7974 7965 7964 7962 ] final  -59.01 input  175.53 | X-H torsion
[ 8008 7997 7996 7995 ] final -162.58 input   59.86 | X-H torsion
[ 10167 10162 10161 10158 ] final  173.06 input  -65.29 | X-H torsion
[ 10718 10713 10712 10709 ] final   22.18 input   66.30 | X-H torsion
[ 10763 10752 10751 10750 ] final    5.29 input  -60.55 | X-H torsion
[ 11005 11000 10999 10996 ] final  141.60 input  -57.11 | X-H torsion

> <Gold.Protein.ActiveResidues>
 VAL166  LYS551  ARG553  GLY616  TRP617  ASP618  TYR619  PRO620  LYS621  CYS622 
 ASP623  PHE694  ASN695  SER759  ASP760  ASP761  ALA762  ILE779  LEU786  VAL792 
 PHE793  MET794  SER795  GLU796  ALA797  LYS798  CYS799  TRP800  GLU811  SER814 

> <Gold.Protein.RotatedAtoms>
  151.4087  133.3734  159.2741 H   0  0  0  0  0  0  0  0  0  0  0  0  # atno 6907 bound_to 6896
  150.9379  134.8791  159.7604 H   0  0  0  0  0  0  0  0  0  0  0  0  # atno 6908 bound_to 6896
  152.5058  134.4036  159.9477 H   0  0  0  0  0  0  0  0  0  0  0  0  # atno 6909 bound_to 6896
  145.8325  140.8470  143.0076 H   0  0  0  0  0  0  0  0  0  0  0  0  # atno 7974 bound_to 7965
  155.8089  140.0902  157.1915 H   0  0  0  0  0  0  0  0  0  0  0  0  # atno 8008 bound_to 7997
  154.3980  140.1458  156.3422 H   0  0  0  0  0  0  0  0  0  0  0  0  # atno 8009 bound_to 7997
  155.8386  140.3439  155.5620 H   0  0  0  0  0  0  0  0  0  0  0  0  # atno 8010 bound_to 7997
  139.5096  144.3303  152.0117 H   0  0  0  0  0  0  0  0  0  0  0  0  # atno 10167 bound_to 10162
  157.1487  130.6665  149.6004 H   0  0  0  0  0  0  0  0  0  0  0  0  # atno 10718 bound_to 10713
  153.2611  135.6923  153.7577 H   0  0  0  0  0  0  0  0  0  0  0  0  # atno 10763 bound_to 10752
  153.6636  135.3356  155.3135 H   0  0  0  0  0  0  0  0  0  0  0  0  # atno 10764 bound_to 10752
  154.8431  135.4483  154.1602 H   0  0  0  0  0  0  0  0  0  0  0  0  # atno 10765 bound_to 10752
  140.0413  134.9303  157.0849 H   0  0  0  0  0  0  0  0  0  0  0  0  # atno 11005 bound_to 11000
  144.6739  140.0693  143.7473 LP  0  0  0  0  0  0  0  0  0  0  0  0  # atno 17320 bound_to 7965
  145.9555  139.2763  143.1187 LP  0  0  0  0  0  0  0  0  0  0  0  0  # atno 17321 bound_to 7965
  140.2743  144.3930  150.6140 LP  0  0  0  0  0  0  0  0  0  0  0  0  # atno 17342 bound_to 10162
  140.6065  143.2168  151.6970 LP  0  0  0  0  0  0  0  0  0  0  0  0  # atno 17343 bound_to 10162
  155.9774  130.4752  150.6594 LP  0  0  0  0  0  0  0  0  0  0  0  0  # atno 17370 bound_to 10713
  157.4240  131.0840  151.1103 LP  0  0  0  0  0  0  0  0  0  0  0  0  # atno 17371 bound_to 10713
  140.4064  134.2028  155.7163 LP  0  0  0  0  0  0  0  0  0  0  0  0  # atno 17394 bound_to 11000
  141.1884  133.8260  157.0994 LP  0  0  0  0  0  0  0  0  0  0  0  0  # atno 17395 bound_to 11000

$$$$
