AV-unprocessed.smi:384|AV-procd|sdf|2465|dock3
  -GOLD-   2262022403D 1   1.00000     0.00000
 Structure written by MMmdl.
 32 33  0  0  0  0  0  0  0  0  2 V2000
  152.9942  142.7878  162.2272 C   0  0  0  0  0  0  0  0  0  0  0  0
  152.1806  143.1238  160.9732 C   0  0  2  0  0  0  0  0  0  0  0  0
  152.2682  142.0090  159.9159 C   0  0  0  0  0  0  0  0  0  0  0  0
  151.5678  142.4164  158.7062 N   0  0  0  0  0  0  0  0  0  0  0  0
  151.4600  141.3959  157.7515 C   0  0  0  0  0  0  0  0  0  0  0  0
  150.6908  141.6239  156.5925 C   0  0  0  0  0  0  0  0  0  0  0  0
  150.5803  140.5933  155.6395 C   0  0  0  0  0  0  0  0  0  0  0  0
  151.2416  139.3667  155.8717 C   0  0  0  0  0  0  0  0  0  0  0  0
  151.1512  138.2354  154.8865 C   0  0  0  0  0  0  0  0  0  0  0  0
  150.4145  138.3657  153.8837 O   0  0  0  0  0  0  0  0  0  0  0  0
  151.8164  137.1973  155.0990 O   0  5  0  0  0  0  0  0  0  0  0  0
  151.9903  139.2420  157.0644 C   0  0  0  0  0  0  0  0  0  0  0  0
  152.1004  140.2258  157.9837 N   0  0  0  0  0  0  0  0  0  0  0  0
  152.0845  143.6658  158.1630 C   0  0  0  0  0  0  0  0  0  0  0  0
  152.0452  144.7800  159.2279 C   0  0  1  0  0  0  0  0  0  0  0  0
  150.6301  145.3199  159.5006 C   0  0  0  0  0  0  0  0  0  0  0  0
  152.6924  144.3396  160.4255 O   0  0  0  0  0  0  0  0  0  0  0  0
  152.6397  141.8662  162.6895 H   0  0  0  0  0  0  0  0  0  0  0  0
  152.9137  143.5837  162.9679 H   0  0  0  0  0  0  0  0  0  0  0  0
  154.0506  142.6590  161.9898 H   0  0  0  0  0  0  0  0  0  0  0  0
  151.1416  143.2640  161.2718 H   0  0  0  0  0  0  0  0  0  0  0  0
  153.3126  141.7974  159.6815 H   0  0  0  0  0  0  0  0  0  0  0  0
  151.8307  141.0875  160.3027 H   0  0  0  0  0  0  0  0  0  0  0  0
  150.1919  142.5688  156.4350 H   0  0  0  0  0  0  0  0  0  0  0  0
  149.9924  140.7532  154.7473 H   0  0  0  0  0  0  0  0  0  0  0  0
  152.5199  138.3303  157.2998 H   0  0  0  0  0  0  0  0  0  0  0  0
  153.1140  143.5142  157.8351 H   0  0  0  0  0  0  0  0  0  0  0  0
  151.5104  143.9590  157.2830 H   0  0  0  0  0  0  0  0  0  0  0  0
  152.6350  145.6171  158.8533 H   0  0  0  0  0  0  0  0  0  0  0  0
  150.2058  145.7623  158.5992 H   0  0  0  0  0  0  0  0  0  0  0  0
  150.6513  146.0931  160.2685 H   0  0  0  0  0  0  0  0  0  0  0  0
  149.9451  144.5392  159.8300 H   0  0  0  0  0  0  0  0  0  0  0  0
  1  2  1  0  0  0  0
  1 18  1  0  0  0  0
  1 19  1  0  0  0  0
  1 20  1  0  0  0  0
  2 17  1  0  0  0  0
  2  3  1  0  0  0  0
  2 21  1  0  0  0  0
  3  4  1  0  0  0  0
  3 22  1  0  0  0  0
  3 23  1  0  0  0  0
  4  5  1  0  0  0  0
  4 14  1  0  0  0  0
  5 13  1  0  0  0  0
  5  6  2  0  0  0  0
  6  7  1  0  0  0  0
  6 24  1  0  0  0  0
  7  8  2  0  0  0  0
  7 25  1  0  0  0  0
  8  9  1  0  0  0  0
  8 12  1  0  0  0  0
  9 10  2  0  0  0  0
  9 11  1  0  0  0  0
 12 13  2  0  0  0  0
 12 26  1  0  0  0  0
 14 15  1  0  0  0  0
 14 27  1  0  0  0  0
 14 28  1  0  0  0  0
 15 16  1  0  0  0  0
 15 17  1  0  0  0  0
 15 29  1  0  0  0  0
 16 30  1  0  0  0  0
 16 31  1  0  0  0  0
 16 32  1  0  0  0  0
M  CHG  1  11  -1
M  END
> <s_m_source_file>
AV-unprocessed.smi

> <i_m_source_file_index>
384

> <i_lp_mmshare_version>
43012

> <i_f3d_flags>
0

> <s_epik_input>
W0NIM11bQ0BASF0xW0NIMl1OKFtDSDJdW0NASF0oTzEpW0NIM10pYzJbY0hdW2NIXWMoW2NIXW4yKUMoPU8pW09IXQ==

> <s_epik_cmdline>
J2VwaWtfcHl0aG9uJywgJy1waCcsICc3LjAnLCAnLXRuJywgJzgnLCAnLW1hJywgJzIwMCcsICctbWV0YWxfYmluZGluZycsICctaW1hZScsICc8aW5maWxlLm1hZT4nLCAnLW9tYWUnLCAnPG91dGZpbGUubWFlPic=

> <r_epik_Ionization_Penalty>
0.0114922

> <r_epik_Ionization_Penalty_Charging>
0.000195896

> <r_epik_Ionization_Penalty_Neutral>
0.0112963

> <r_epik_State_Penalty>
0.00868573

> <r_epik_Charging_Adjusted_Penalty>
0.00888162

> <i_epik_Tot_Q>
-1

> <i_epik_Tot_abs_Q>
1

> <r_epik_Metal_State_Penalty>
8.74964e-06

> <b_epik_Metal_Only>
0

> <s_lp_Force_Field>
OPLS_2005

> <r_lp_Energy>
19.6784

> <b_lp_Chiralities_Consistent>
1

> <s_lp_Variant>
AV-unprocessed.smi:384-1

> <Gold.Version>
5.8.1

> <Gold.Id.Protein>
6NUR|6NUR_protein|mol2

> <Gold.PLP.Fitness>
42.8695

> <Gold.PLP.PLP>
-37.0342

> <Gold.PLP.part.hbond>
-1.0000

> <Gold.PLP.part.metal>
0.0000

> <Gold.PLP.part.buried>
-3.0164

> <Gold.PLP.part.nonpolar>
-33.5153

> <Gold.PLP.part.repulsive>
0.4451

> <Gold.PLP.ligand.clash>
0.0000

> <Gold.PLP.ligand.torsion>
0.0582

> <Gold.PLP.Chemscore.Hbond>
1.9520

> <Gold.PLP.Chemscore.CHOScore>
0.0000

> <Gold.PLP.Chemscore.Metal>
0.0000

> <Gold.Chemscore.Hbonds>
donor molecule, donor type, donor heavy atom, donor atom, acceptor molecule, acceptor atom, score
      P1  H 10752 10765       L1    11  1.98

> <Gold.PLP.Chemscore.Internal.Correction>
0.0956

> <Gold.Rescore>
     Score         DG    S(hbond)    S(metal)    S(lipo)     H(rot)  DE(clash)    DE(int)     intcor
     16.71     -16.89       0.94        0.00      92.56       1.00       0.13       0.05       ----

> <Gold.Chemscore.Fitness>
16.7117

> <Gold.Chemscore.DG>
-16.8919

> <Gold.Chemscore.ZeroCoef>
-5.4800

> <Gold.Chemscore.Hbond>
0.9407

> <Gold.Chemscore.Metal>
0.0000

> <Gold.Chemscore.Lipo>
92.5639

> <Gold.Chemscore.Internal_Hbond>
0.0000

> <Gold.Chemscore.DEClash>
0.1314

> <Gold.Chemscore.DEInternal>
0.0488

> <Gold.Chemscore.Rot>
1.0000

> <Gold.Chemscore.Internal.Correction>
   9.000000E+99

> <Gold.Chemscore.Hbonds>
donor molecule, donor type, donor heavy atom, donor atom, acceptor molecule, acceptor atom, score
      P1  H 10752 10765       L1    11  0.89

> <Gold.Chemscore.Hbond.Weighted>
-3.1419

> <Gold.Chemscore.Metal.Weighted>
-0.0000

> <Gold.Chemscore.Lipo.Weighted>
-10.8300

> <Gold.Chemscore.Internal_Hbond.Weighted>
0.0000

> <Gold.Chemscore.DEClash.Weighted>
0.1314

> <Gold.Chemscore.DEInternal.Weighted>
0.0488

> <Gold.Chemscore.Rot.Weighted>
2.5600

> <Gold.Chemscore.Internal.Correction.Weighted>
   9.000000E+99

> <Gold.Protein.RotatedTorsions>
[ 6907 6896 6895 6894 ] final  171.50 input  -60.11 | X-H torsion
[ 7974 7965 7964 7962 ] final  -30.89 input  175.53 | X-H torsion
[ 8008 7997 7996 7995 ] final   49.52 input   59.86 | X-H torsion
[ 10167 10162 10161 10158 ] final   45.91 input  -65.29 | X-H torsion
[ 10718 10713 10712 10709 ] final  -36.17 input   66.30 | X-H torsion
[ 10763 10752 10751 10750 ] final  173.07 input  -60.55 | X-H torsion
[ 11005 11000 10999 10996 ] final -164.04 input  -57.11 | X-H torsion

> <Gold.Protein.ActiveResidues>
 VAL166  LYS551  ARG553  GLY616  TRP617  ASP618  TYR619  PRO620  LYS621  CYS622 
 ASP623  PHE694  ASN695  SER759  ASP760  ASP761  ALA762  ILE779  LEU786  VAL792 
 PHE793  MET794  SER795  GLU796  ALA797  LYS798  CYS799  TRP800  GLU811  SER814 

> <Gold.Protein.RotatedAtoms>
  151.7992  133.3368  159.3521 H   0  0  0  0  0  0  0  0  0  0  0  0  # atno 6907 bound_to 6896
  150.7364  134.5769  159.5928 H   0  0  0  0  0  0  0  0  0  0  0  0  # atno 6908 bound_to 6896
  152.3155  134.7446  160.0377 H   0  0  0  0  0  0  0  0  0  0  0  0  # atno 6909 bound_to 6896
  146.1109  140.5598  142.8778 H   0  0  0  0  0  0  0  0  0  0  0  0  # atno 7974 bound_to 7965
  155.4036  140.3439  155.4258 H   0  0  0  0  0  0  0  0  0  0  0  0  # atno 8008 bound_to 7997
  156.1489  140.1565  156.8834 H   0  0  0  0  0  0  0  0  0  0  0  0  # atno 8009 bound_to 7997
  154.5035  140.0808  156.7828 H   0  0  0  0  0  0  0  0  0  0  0  0  # atno 8010 bound_to 7997
  140.3193  144.2725  150.6185 H   0  0  0  0  0  0  0  0  0  0  0  0  # atno 10167 bound_to 10162
  156.3300  130.4278  149.7881 H   0  0  0  0  0  0  0  0  0  0  0  0  # atno 10718 bound_to 10713
  154.4349  135.2760  155.1887 H   0  0  0  0  0  0  0  0  0  0  0  0  # atno 10763 bound_to 10752
  154.3778  135.6094  153.5778 H   0  0  0  0  0  0  0  0  0  0  0  0  # atno 10764 bound_to 10752
  152.9838  135.5873  154.4666 H   0  0  0  0  0  0  0  0  0  0  0  0  # atno 10765 bound_to 10752
  140.5913  134.5041  157.5193 H   0  0  0  0  0  0  0  0  0  0  0  0  # atno 11005 bound_to 11000
  144.7510  140.5191  143.6802 LP  0  0  0  0  0  0  0  0  0  0  0  0  # atno 17320 bound_to 7965
  145.5666  139.1481  143.3311 LP  0  0  0  0  0  0  0  0  0  0  0  0  # atno 17321 bound_to 7965
  140.5498  143.2208  151.7946 LP  0  0  0  0  0  0  0  0  0  0  0  0  # atno 17342 bound_to 10162
  139.4877  144.4491  151.9675 LP  0  0  0  0  0  0  0  0  0  0  0  0  # atno 17343 bound_to 10162
  156.5158  130.8192  151.3185 LP  0  0  0  0  0  0  0  0  0  0  0  0  # atno 17370 bound_to 10713
  157.7428  130.9899  150.2547 LP  0  0  0  0  0  0  0  0  0  0  0  0  # atno 17371 bound_to 10713
  139.9273  134.8032  156.1033 LP  0  0  0  0  0  0  0  0  0  0  0  0  # atno 17394 bound_to 11000
  141.0933  133.6706  156.2588 LP  0  0  0  0  0  0  0  0  0  0  0  0  # atno 17395 bound_to 11000

$$$$
