AV-unprocessed.smi:1285|AV-procd|sdf|5367|dock3
  -GOLD-   22720 4503D 1   1.00000     0.00000
 Structure written by MMmdl.
 46 47  0  0  0  0  0  0  0  0  1 V2000
  148.5064  134.3251  157.6145 C   0  0  0  0  0  0  0  0  0  0  0  0
  149.0429  135.5626  156.8717 C   0  0  0  0  0  0  0  0  0  0  0  0
  148.9197  135.5227  155.3148 C   0  0  1  0  0  0  0  0  0  0  0  0
  149.7082  134.2702  154.8458 C   0  0  0  0  0  0  0  0  0  0  0  0
  147.4121  135.3308  154.9464 C   0  0  0  0  0  0  0  0  0  0  0  0
  147.1612  135.2245  153.5089 N   0  0  0  0  0  0  0  0  0  0  0  0
  146.2397  134.4412  152.9250 C   0  0  0  0  0  0  0  0  0  0  0  0
  145.4831  133.7028  153.5565 O   0  0  0  0  0  0  0  0  0  0  0  0
  146.1627  134.5144  151.3926 C   0  0  2  0  0  0  0  0  0  0  0  0
  145.8103  135.9278  150.8849 C   0  0  0  0  0  0  0  0  0  0  0  0
  145.2511  133.4959  150.8858 N   0  0  0  0  0  0  0  0  0  0  0  0
  145.5111  132.2815  150.3961 C   0  0  0  0  0  0  0  0  0  0  0  0
  144.4294  131.5887  150.0686 N   0  0  0  0  0  0  0  0  0  0  0  0
  143.4661  132.4921  150.4183 C   0  0  0  0  0  0  0  0  0  0  0  0
  143.9032  133.6451  150.9240 N   0  0  0  0  0  0  0  0  0  0  0  0
  149.4927  136.7539  154.7003 N   0  0  0  0  0  0  0  0  0  0  0  0
  148.7927  138.0015  155.0292 C   0  0  0  0  0  0  0  0  0  0  0  0
  149.3515  139.2008  154.2443 C   0  0  0  0  0  0  0  0  0  0  0  0
  150.7470  139.3276  154.4897 O   0  0  0  0  0  0  0  0  0  0  0  0
  151.4705  138.1571  154.1299 C   0  0  0  0  0  0  0  0  0  0  0  0
  150.9304  136.9530  154.9198 C   0  0  0  0  0  0  0  0  0  0  0  0
  148.6455  134.4374  158.6897 H   0  0  0  0  0  0  0  0  0  0  0  0
  149.0235  133.4138  157.3146 H   0  0  0  0  0  0  0  0  0  0  0  0
  147.4408  134.1787  157.4406 H   0  0  0  0  0  0  0  0  0  0  0  0
  148.5118  136.4301  157.2650 H   0  0  0  0  0  0  0  0  0  0  0  0
  150.0800  135.7254  157.1649 H   0  0  0  0  0  0  0  0  0  0  0  0
  149.4848  133.3931  155.4537 H   0  0  0  0  0  0  0  0  0  0  0  0
  150.7858  134.4287  154.8971 H   0  0  0  0  0  0  0  0  0  0  0  0
  149.4685  133.9996  153.8171 H   0  0  0  0  0  0  0  0  0  0  0  0
  147.0288  134.4097  155.3846 H   0  0  0  0  0  0  0  0  0  0  0  0
  146.8004  136.1302  155.3648 H   0  0  0  0  0  0  0  0  0  0  0  0
  147.7359  135.7988  152.9098 H   0  0  0  0  0  0  0  0  0  0  0  0
  147.1541  134.2746  151.0039 H   0  0  0  0  0  0  0  0  0  0  0  0
  146.5313  136.6640  151.2422 H   0  0  0  0  0  0  0  0  0  0  0  0
  144.8215  136.2497  151.2143 H   0  0  0  0  0  0  0  0  0  0  0  0
  145.8220  135.9625  149.7952 H   0  0  0  0  0  0  0  0  0  0  0  0
  146.5130  131.8944  150.2809 H   0  0  0  0  0  0  0  0  0  0  0  0
  142.4112  132.2915  150.3029 H   0  0  0  0  0  0  0  0  0  0  0  0
  147.7305  137.9245  154.8036 H   0  0  0  0  0  0  0  0  0  0  0  0
  148.8760  138.2135  156.0949 H   0  0  0  0  0  0  0  0  0  0  0  0
  149.1723  139.0802  153.1747 H   0  0  0  0  0  0  0  0  0  0  0  0
  148.8515  140.1195  154.5511 H   0  0  0  0  0  0  0  0  0  0  0  0
  151.3866  137.9833  153.0560 H   0  0  0  0  0  0  0  0  0  0  0  0
  152.5275  138.3103  154.3479 H   0  0  0  0  0  0  0  0  0  0  0  0
  151.1331  137.1127  155.9790 H   0  0  0  0  0  0  0  0  0  0  0  0
  151.4983  136.0751  154.6178 H   0  0  0  0  0  0  0  0  0  0  0  0
  1  2  1  0  0  0  0
  1 22  1  0  0  0  0
  1 23  1  0  0  0  0
  1 24  1  0  0  0  0
  2  3  1  0  0  0  0
  2 25  1  0  0  0  0
  2 26  1  0  0  0  0
  3  4  1  0  0  0  0
  3  5  1  0  0  0  0
  3 16  1  0  0  0  0
  4 27  1  0  0  0  0
  4 28  1  0  0  0  0
  4 29  1  0  0  0  0
  5  6  1  0  0  0  0
  5 30  1  0  0  0  0
  5 31  1  0  0  0  0
  6  7  1  0  0  0  0
  6 32  1  0  0  0  0
  7  8  2  0  0  0  0
  7  9  1  0  0  0  0
  9 10  1  0  0  0  0
  9 11  1  0  0  0  0
  9 33  1  0  0  0  0
 10 34  1  0  0  0  0
 10 35  1  0  0  0  0
 10 36  1  0  0  0  0
 11 15  1  0  0  0  0
 11 12  1  0  0  0  0
 12 13  2  0  0  0  0
 12 37  1  0  0  0  0
 13 14  1  0  0  0  0
 14 15  2  0  0  0  0
 14 38  1  0  0  0  0
 16 21  1  0  0  0  0
 16 17  1  0  0  0  0
 17 18  1  0  0  0  0
 17 39  1  0  0  0  0
 17 40  1  0  0  0  0
 18 19  1  0  0  0  0
 18 41  1  0  0  0  0
 18 42  1  0  0  0  0
 19 20  1  0  0  0  0
 20 21  1  0  0  0  0
 20 43  1  0  0  0  0
 20 44  1  0  0  0  0
 21 45  1  0  0  0  0
 21 46  1  0  0  0  0
M  END
> <s_m_source_file>
AV-unprocessed.smi

> <i_m_source_file_index>
1285

> <i_lp_mmshare_version>
43012

> <i_f3d_flags>
0

> <s_epik_input>
W0NIMl0xW0NIMl1PW0NIMl1bQ0gyXU4xW0NAQF0oW0NIM10pKFtDSDJdW0NIM10pW0NIMl1bTkhdQyg9TylbQ0BIXShbQ0gzXSluMltjSF1uW2NIXW4y

> <s_epik_cmdline>
J2VwaWtfcHl0aG9uJywgJy1waCcsICc3LjAnLCAnLXRuJywgJzgnLCAnLW1hJywgJzIwMCcsICctbWV0YWxfYmluZGluZycsICctaW1hZScsICc8aW5maWxlLm1hZT4nLCAnLW9tYWUnLCAnPG91dGZpbGUubWFlPic=

> <r_lp_tautomer_probability>
1

> <r_epik_Ionization_Penalty>
0.285697

> <r_epik_Ionization_Penalty_Charging>
0

> <r_epik_Ionization_Penalty_Neutral>
0.285697

> <r_epik_State_Penalty>
0.278478

> <r_epik_Charging_Adjusted_Penalty>
0.278478

> <i_epik_Tot_Q>
0

> <i_epik_Tot_abs_Q>
0

> <r_epik_Metal_State_Penalty>
0.278477

> <b_epik_Metal_Only>
0

> <s_lp_Force_Field>
OPLS_2005

> <r_lp_Energy>
49.2775

> <b_lp_Chiralities_Consistent>
1

> <s_lp_Variant>
AV-unprocessed.smi:1285-1

> <Gold.Version>
5.8.1

> <Gold.Id.Protein>
6NUR|6NUR_protein|mol2

> <Gold.PLP.Fitness>
40.5254

> <Gold.PLP.PLP>
-29.1138

> <Gold.PLP.part.hbond>
-2.9839

> <Gold.PLP.part.metal>
0.0000

> <Gold.PLP.part.buried>
-5.3465

> <Gold.PLP.part.nonpolar>
-22.7121

> <Gold.PLP.part.repulsive>
2.1665

> <Gold.PLP.ligand.clash>
0.0000

> <Gold.PLP.ligand.torsion>
0.7140

> <Gold.PLP.Chemscore.Hbond>
2.1686

> <Gold.PLP.Chemscore.CHOScore>
1.9897

> <Gold.PLP.Chemscore.Metal>
0.0000

> <Gold.Chemscore.Hbonds>
donor molecule, donor type, donor heavy atom, donor atom, acceptor molecule, acceptor atom, score
      L1  H     6    32       P1  7948  1.00
      P1  H  7989  7998       L1    19  0.99
      P1  H 10785 10796       L1    13  0.16
      L1  C    12    37       P1 10747  0.66
      L1  C    14    38       P1 10186  0.48
      L1  C    14    38       P1 10952  0.81

> <Gold.PLP.Chemscore.Internal.Correction>
0.3649

> <Gold.Rescore>
     Score         DG    S(hbond)    S(metal)    S(lipo)     H(rot)  DE(clash)    DE(int)     intcor
      8.91     -10.25       1.68        0.00      51.66       2.68       0.49       0.85       ----

> <Gold.Chemscore.Fitness>
8.9081

> <Gold.Chemscore.DG>
-10.2541

> <Gold.Chemscore.ZeroCoef>
-5.4800

> <Gold.Chemscore.Hbond>
1.6756

> <Gold.Chemscore.Metal>
0.0000

> <Gold.Chemscore.Lipo>
51.6568

> <Gold.Chemscore.Internal_Hbond>
0.0000

> <Gold.Chemscore.DEClash>
0.4928

> <Gold.Chemscore.DEInternal>
0.8531

> <Gold.Chemscore.Rot>
2.6821

> <Gold.Chemscore.Internal.Correction>
   9.000000E+99

> <Gold.Chemscore.Hbonds>
donor molecule, donor type, donor heavy atom, donor atom, acceptor molecule, acceptor atom, score
      L1  H     6    32       P1  7948  0.99
      P1  H  7989  7998       L1    19  0.45
      P1  H 10785 10796       L1    13  0.06

> <Gold.Chemscore.Hbond.Weighted>
-5.5964

> <Gold.Chemscore.Metal.Weighted>
-0.0000

> <Gold.Chemscore.Lipo.Weighted>
-6.0438

> <Gold.Chemscore.Internal_Hbond.Weighted>
0.0000

> <Gold.Chemscore.DEClash.Weighted>
0.4928

> <Gold.Chemscore.DEInternal.Weighted>
0.8531

> <Gold.Chemscore.Rot.Weighted>
6.8661

> <Gold.Chemscore.Internal.Correction.Weighted>
   9.000000E+99

> <Gold.Protein.RotatedTorsions>
[ 6907 6896 6895 6894 ] final -155.68 input  -60.11 | X-H torsion
[ 7974 7965 7964 7962 ] final   68.85 input  175.53 | X-H torsion
[ 8008 7997 7996 7995 ] final -137.20 input   59.86 | X-H torsion
[ 10167 10162 10161 10158 ] final  118.17 input  -65.29 | X-H torsion
[ 10718 10713 10712 10709 ] final  165.10 input   66.30 | X-H torsion
[ 10763 10752 10751 10750 ] final  176.52 input  -60.55 | X-H torsion
[ 11005 11000 10999 10996 ] final  147.05 input  -57.11 | X-H torsion

> <Gold.Protein.ActiveResidues>
 VAL166  LYS551  ARG553  GLY616  TRP617  ASP618  TYR619  PRO620  LYS621  CYS622 
 ASP623  PHE694  ASN695  SER759  ASP760  ASP761  ALA762  ILE779  LEU786  VAL792 
 PHE793  MET794  SER795  GLU796  ALA797  LYS798  CYS799  TRP800  GLU811  SER814 

> <Gold.Protein.RotatedAtoms>
  151.2761  133.4232  159.2623 H   0  0  0  0  0  0  0  0  0  0  0  0  # atno 6907 bound_to 6896
  151.0402  134.9602  159.8168 H   0  0  0  0  0  0  0  0  0  0  0  0  # atno 6908 bound_to 6896
  152.5363  134.2719  159.9027 H   0  0  0  0  0  0  0  0  0  0  0  0  # atno 6909 bound_to 6896
  145.7976  139.2966  143.1173 H   0  0  0  0  0  0  0  0  0  0  0  0  # atno 7974 bound_to 7965
  155.4079  140.0510  157.3033 H   0  0  0  0  0  0  0  0  0  0  0  0  # atno 8008 bound_to 7997
  154.4960  140.2138  155.9406 H   0  0  0  0  0  0  0  0  0  0  0  0  # atno 8009 bound_to 7997
  156.1406  140.3155  155.8494 H   0  0  0  0  0  0  0  0  0  0  0  0  # atno 8010 bound_to 7997
  139.6129  144.7086  151.2803 H   0  0  0  0  0  0  0  0  0  0  0  0  # atno 10167 bound_to 10162
  157.0849  131.0402  151.2560 H   0  0  0  0  0  0  0  0  0  0  0  0  # atno 10718 bound_to 10713
  154.4822  135.2775  155.1562 H   0  0  0  0  0  0  0  0  0  0  0  0  # atno 10763 bound_to 10752
  154.3267  135.6198  153.5536 H   0  0  0  0  0  0  0  0  0  0  0  0  # atno 10764 bound_to 10752
  152.9877  135.5755  154.5225 H   0  0  0  0  0  0  0  0  0  0  0  0  # atno 10765 bound_to 10752
  140.0844  134.9078  157.1551 H   0  0  0  0  0  0  0  0  0  0  0  0  # atno 11005 bound_to 11000
  145.9911  140.8601  143.0066 LP  0  0  0  0  0  0  0  0  0  0  0  0  # atno 17320 bound_to 7965
  144.6773  140.2217  143.7365 LP  0  0  0  0  0  0  0  0  0  0  0  0  # atno 17321 bound_to 7965
  140.7331  143.6803  150.8007 LP  0  0  0  0  0  0  0  0  0  0  0  0  # atno 17342 bound_to 10162
  140.0400  143.5355  152.2722 LP  0  0  0  0  0  0  0  0  0  0  0  0  # atno 17343 bound_to 10162
  157.4769  130.7742  149.7377 LP  0  0  0  0  0  0  0  0  0  0  0  0  # atno 17370 bound_to 10713
  155.9913  130.3938  150.2989 LP  0  0  0  0  0  0  0  0  0  0  0  0  # atno 17371 bound_to 10713
  140.3442  134.2670  155.7207 LP  0  0  0  0  0  0  0  0  0  0  0  0  # atno 17394 bound_to 11000
  141.2057  133.7852  157.0216 LP  0  0  0  0  0  0  0  0  0  0  0  0  # atno 17395 bound_to 11000

$$$$
