#       Name:                AV-unprocessed.smi:557
#       Creating user name   scv26
#       Creation time:       Thu Mar 26 23:40:41 2020


#       File generated by GOLD software.
#

@<TRIPOS>MOLECULE
AV-unprocessed.smi:557
    50    52     1
SMALL
NO_CHARGES


@<TRIPOS>ATOM
      1 ****        -7.6521  -4.9146  -1.9918 C.3            1 S1                 0.0000
      2 ****        -6.7225  -4.3201  -1.0553 N.pl3          1 S1                 0.0000
      3 ****        -5.7281  -3.3974  -1.2985 C.2            1 S1                 0.0000
      4 ****        -5.1116  -3.1357  -0.1074 C.2            1 S1                 0.0000
      5 ****        -3.9631  -2.2078   0.1725 C.3            1 S1                 0.0000
      6 ****        -2.6155  -2.9288   0.0412 C.3            1 S1                 0.0000
      7 ****        -1.5122  -2.0107   0.3101 N.am           1 S1                 0.0000
      8 ****        -0.1997  -2.2980   0.3142 C.2            1 S1                 0.0000
      9 ****         0.2211  -3.4269   0.0699 O.2            1 S1                 0.0000
     10 ****         0.5998  -1.2546   0.5957 N.am           1 S1                 0.0000
     11 ****         2.0587  -1.3034   0.6700 C.3            1 S1                 0.0000
     12 ****         2.6465  -0.2519   1.6306 C.3            1 S1                 0.0000
     13 ****         3.8947   0.2730   0.9139 C.3            1 S1                 0.0000
     14 ****         3.5140   0.2019  -0.5014 N.4            1 S1                 1.0000
     15 ****         4.5597   0.3997  -1.5256 C.3            1 S1                 0.0000
     16 ****         3.8796   0.4657  -2.9101 C.3            1 S1                 0.0000
     17 ****         2.9535  -0.7452  -3.1660 C.3            1 S1                 0.0000
     18 ****         1.9713  -0.9759  -1.9969 C.3            1 S1                 0.0000
     19 ****         2.7685  -1.0557  -0.6826 C.3            1 S1                 0.0000
     20 ****        -5.8161  -3.9587   0.8172 C.2            1 S1                 0.0000
     21 ****        -6.7778  -4.6663   0.2471 N.2            1 S1                 0.0000
     22 ****        -7.4037  -4.6109  -3.0093 H              1 S1                 0.0000
     23 ****        -8.6665  -4.5884  -1.7613 H              1 S1                 0.0000
     24 ****        -7.6008  -6.0019  -1.9253 H              1 S1                 0.0000
     25 ****        -5.5414  -3.0077  -2.2885 H              1 S1                 0.0000
     26 ****        -3.9861  -1.3568  -0.5095 H              1 S1                 0.0000
     27 ****        -4.0505  -1.7867   1.1749 H              1 S1                 0.0000
     28 ****        -2.5739  -3.7652   0.7411 H              1 S1                 0.0000
     29 ****        -2.5092  -3.3384  -0.9649 H              1 S1                 0.0000
     30 ****        -1.7699  -1.0557   0.5147 H              1 S1                 0.0000
     31 ****         0.1618  -0.3642   0.7833 H              1 S1                 0.0000
     32 ****         2.3569  -2.2885   1.0349 H              1 S1                 0.0000
     33 ****         1.9414   0.5690   1.7710 H              1 S1                 0.0000
     34 ****         2.8732  -0.6618   2.6155 H              1 S1                 0.0000
     35 ****         4.1597   1.2866   1.2153 H              1 S1                 0.0000
     36 ****         4.7487  -0.3803   1.0999 H              1 S1                 0.0000
     37 ****         5.0998   1.3260  -1.3272 H              1 S1                 0.0000
     38 ****         5.2851  -0.4143  -1.4855 H              1 S1                 0.0000
     39 ****         3.2915   1.3822  -2.9753 H              1 S1                 0.0000
     40 ****         4.6344   0.5308  -3.6941 H              1 S1                 0.0000
     41 ****         2.4018  -0.6057  -4.0962 H              1 S1                 0.0000
     42 ****         3.5643  -1.6383  -3.3034 H              1 S1                 0.0000
     43 ****         1.2434  -0.1646  -1.9527 H              1 S1                 0.0000
     44 ****         1.4127  -1.8970  -2.1638 H              1 S1                 0.0000
     45 ****         3.5029  -1.8574  -0.7889 H              1 S1                 0.0000
     46 ****        -5.6555  -4.0633   1.8802 H              1 S1                 0.0000
     47 ****         2.8415   0.9439  -0.6338 H              1 S1                 0.0000
     48 ****        -0.4202  -4.1649  -0.1402 LP             1 S1                 0.0000
     49 ****         1.2046  -3.6072   0.0813 LP             1 S1                 0.0000
     50 ****        -7.4043  -5.3121   0.6834 LP             1 S1                 0.0000
@<TRIPOS>BOND
    1    1    2 1     
    2    1   22 1     
    3    1   23 1     
    4    1   24 1     
    5    2   21 1     
    6    2    3 1     
    7    3    4 2     
    8    3   25 1     
    9    4    5 1     
   10    4   20 1     
   11    5    6 1     
   12    5   26 1     
   13    5   27 1     
   14    6    7 1     
   15    6   28 1     
   16    6   29 1     
   17    7    8 am    
   18    7   30 1     
   19    8    9 2     
   20    8   10 am    
   21   10   11 1     
   22   10   31 1     
   23   11   19 1     
   24   11   12 1     
   25   11   32 1     
   26   12   13 1     
   27   12   33 1     
   28   12   34 1     
   29   13   14 1     
   30   13   35 1     
   31   13   36 1     
   32   14   19 1     
   33   14   15 1     
   34   14   47 1     
   35   15   16 1     
   36   15   37 1     
   37   15   38 1     
   38   16   17 1     
   39   16   39 1     
   40   16   40 1     
   41   17   18 1     
   42   17   41 1     
   43   17   42 1     
   44   18   19 1     
   45   18   43 1     
   46   18   44 1     
   47   19   45 1     
   48   20   21 2     
   49   20   46 1     
   50    9   48 1     
   51    9   49 1     
   52   21   50 1     
@<TRIPOS>SUBSTRUCTURE
      1 S1             1
@<TRIPOS>SET
LONE_PAIRS      STATIC     ATOMS    <user>   **** ""
3 48 49 50
DONOR_HYDROGENS      STATIC     ATOMS    <user>   **** ""
3 30 31 47
ATOM$BLUE        STATIC     ATOMS    COLORGROUP SYSTEM
3 48 49 50
ATOM$RED        STATIC     ATOMS    COLORGROUP SYSTEM
3 30 31 47
