AV-unprocessed.smi:2524|AV-procd|sdf|9924|dock3
  -GOLD-   2272013563D 1   1.00000     0.00000
 Structure written by MMmdl.
 35 36  0  0  0  0  0  0  0  0  2 V2000
  152.1459  144.5605  159.6507 C   0  0  0  0  0  0  0  0  0  0  0  0
  152.2630  143.5381  160.5109 C   0  0  0  0  0  0  0  0  0  0  0  0
  152.9402  142.2220  160.1909 C   0  0  0  0  0  0  0  0  0  0  0  0
  152.6062  141.7371  158.7748 C   0  0  0  0  0  0  0  0  0  0  0  0
  153.1174  139.9756  158.5379 S   0  0  0  0  0  0  0  0  0  0  0  0
  154.5356  139.9004  158.9278 O   0  0  0  0  0  0  0  0  0  0  0  0
  152.1734  139.1907  159.3478 O   0  0  0  0  0  0  0  0  0  0  0  0
  152.8544  139.7500  156.9501 N   0  5  0  0  0  0  0  0  0  0  0  0
  151.6644  140.2847  156.2974 C   0  0  0  0  0  0  0  0  0  0  0  0
  151.0795  139.3217  155.2423 C   0  0  0  0  0  0  0  0  0  0  0  0
  149.7539  139.8352  154.7281 C   0  0  0  0  0  0  0  0  0  0  0  0
  149.4115  141.2048  154.8189 C   0  0  0  0  0  0  0  0  0  0  0  0
  148.1575  141.6307  154.3385 C   0  0  0  0  0  0  0  0  0  0  0  0
  147.2483  140.7943  153.7957 N   0  0  0  0  0  0  0  0  0  0  0  0
  147.5685  139.4857  153.7157 C   0  0  0  0  0  0  0  0  0  0  0  0
  148.7953  138.9598  154.1665 C   0  0  0  0  0  0  0  0  0  0  0  0
  151.9680  138.5667  154.2643 C   0  0  0  0  0  0  0  0  0  0  0  0
  151.2488  137.8137  155.3582 C   0  0  0  0  0  0  0  0  0  0  0  0
  152.5412  144.4977  158.6475 H   0  0  0  0  0  0  0  0  0  0  0  0
  151.6511  145.4755  159.9409 H   0  0  0  0  0  0  0  0  0  0  0  0
  151.8555  143.6369  161.5065 H   0  0  0  0  0  0  0  0  0  0  0  0
  154.0201  142.3282  160.3026 H   0  0  0  0  0  0  0  0  0  0  0  0
  152.6189  141.4824  160.9246 H   0  0  0  0  0  0  0  0  0  0  0  0
  151.5348  141.8046  158.5862 H   0  0  0  0  0  0  0  0  0  0  0  0
  153.1163  142.3514  158.0328 H   0  0  0  0  0  0  0  0  0  0  0  0
  150.8755  140.4959  157.0200 H   0  0  0  0  0  0  0  0  0  0  0  0
  151.8806  141.2352  155.8086 H   0  0  0  0  0  0  0  0  0  0  0  0
  150.1019  141.9173  155.2460 H   0  0  0  0  0  0  0  0  0  0  0  0
  147.8768  142.6721  154.3937 H   0  0  0  0  0  0  0  0  0  0  0  0
  146.8232  138.8366  153.2801 H   0  0  0  0  0  0  0  0  0  0  0  0
  148.9998  137.9026  154.0795 H   0  0  0  0  0  0  0  0  0  0  0  0
  151.6029  138.4288  153.2484 H   0  0  0  0  0  0  0  0  0  0  0  0
  153.0518  138.6275  154.3527 H   0  0  0  0  0  0  0  0  0  0  0  0
  151.8737  137.3933  156.1451 H   0  0  0  0  0  0  0  0  0  0  0  0
  150.4141  137.1840  155.0564 H   0  0  0  0  0  0  0  0  0  0  0  0
  1  2  2  0  0  0  0
  1 19  1  0  0  0  0
  1 20  1  0  0  0  0
  2  3  1  0  0  0  0
  2 21  1  0  0  0  0
  3  4  1  0  0  0  0
  3 22  1  0  0  0  0
  3 23  1  0  0  0  0
  4  5  1  0  0  0  0
  4 24  1  0  0  0  0
  4 25  1  0  0  0  0
  5  6  2  0  0  0  0
  5  7  2  0  0  0  0
  5  8  1  0  0  0  0
  8  9  1  0  0  0  0
  9 10  1  0  0  0  0
  9 26  1  0  0  0  0
  9 27  1  0  0  0  0
 10 18  1  0  0  0  0
 10 11  1  0  0  0  0
 10 17  1  0  0  0  0
 11 16  1  0  0  0  0
 11 12  2  0  0  0  0
 12 13  1  0  0  0  0
 12 28  1  0  0  0  0
 13 14  2  0  0  0  0
 13 29  1  0  0  0  0
 14 15  1  0  0  0  0
 15 16  2  0  0  0  0
 15 30  1  0  0  0  0
 16 31  1  0  0  0  0
 17 18  1  0  0  0  0
 17 32  1  0  0  0  0
 17 33  1  0  0  0  0
 18 34  1  0  0  0  0
 18 35  1  0  0  0  0
M  CHG  1   8  -1
M  END
> <s_m_source_file>
AV-unprocessed.smi

> <i_m_source_file_index>
2524

> <i_lp_mmshare_version>
43012

> <i_f3d_flags>
0

> <s_epik_input>
W0NIMl09W0NIXVtDSDJdW0NIMl1TKD1PKSg9TylbTkhdW0NIMl1DMShbQ0gyXVtDSDJdMSljMltjSF1bY0hdbltjSF1bY0hdMg==

> <s_epik_cmdline>
J2VwaWtfcHl0aG9uJywgJy1waCcsICc3LjAnLCAnLXRuJywgJzgnLCAnLW1hJywgJzIwMCcsICctbWV0YWxfYmluZGluZycsICctaW1hZScsICc8aW5maWxlLm1hZT4nLCAnLW9tYWUnLCAnPG91dGZpbGUubWFlPic=

> <r_epik_Ionization_Penalty>
6.82782

> <r_epik_Ionization_Penalty_Charging>
6.77146

> <r_epik_Ionization_Penalty_Neutral>
0.0563627

> <r_epik_State_Penalty>
6.80009

> <r_epik_Charging_Adjusted_Penalty>
13.5715

> <i_epik_Tot_Q>
-1

> <i_epik_Tot_abs_Q>
1

> <r_epik_Metal_State_Penalty>
2.75227

> <b_epik_Metal_Only>
1

> <s_lp_Force_Field>
OPLS_2005

> <r_lp_Energy>
12.2049

> <b_lp_Chiralities_Consistent>
1

> <s_lp_Variant>
AV-unprocessed.smi:2524-3

> <Gold.Version>
5.8.1

> <Gold.Id.Protein>
6NUR|6NUR_protein|mol2

> <Gold.PLP.Fitness>
47.7205

> <Gold.PLP.PLP>
-39.4136

> <Gold.PLP.part.hbond>
-2.0000

> <Gold.PLP.part.metal>
0.0000

> <Gold.PLP.part.buried>
-1.1611

> <Gold.PLP.part.nonpolar>
-35.0775

> <Gold.PLP.part.repulsive>
0.1626

> <Gold.PLP.ligand.clash>
0.0000

> <Gold.PLP.ligand.torsion>
1.7351

> <Gold.PLP.Chemscore.Hbond>
2.1291

> <Gold.PLP.Chemscore.CHOScore>
0.9905

> <Gold.PLP.Chemscore.Metal>
0.0000

> <Gold.Chemscore.Hbonds>
donor molecule, donor type, donor heavy atom, donor atom, acceptor molecule, acceptor atom, score
      P1  H  7997  8008       L1     8  2.00
      P1  H  7997  8010       L1     6  0.27
      L1  C    13    29       P1  8028  0.89

> <Gold.PLP.Chemscore.Internal.Correction>
2.4183

> <Gold.Rescore>
     Score         DG    S(hbond)    S(metal)    S(lipo)     H(rot)  DE(clash)    DE(int)     intcor
     14.36     -16.02       0.62        0.00     107.16       1.59       0.06       1.59       ----

> <Gold.Chemscore.Fitness>
14.3645

> <Gold.Chemscore.DG>
-16.0161

> <Gold.Chemscore.ZeroCoef>
-5.4800

> <Gold.Chemscore.Hbond>
0.6201

> <Gold.Chemscore.Metal>
0.0000

> <Gold.Chemscore.Lipo>
107.1558

> <Gold.Chemscore.Internal_Hbond>
0.0000

> <Gold.Chemscore.DEClash>
0.0626

> <Gold.Chemscore.DEInternal>
1.5890

> <Gold.Chemscore.Rot>
1.5908

> <Gold.Chemscore.Internal.Correction>
   9.000000E+99

> <Gold.Chemscore.Hbonds>
donor molecule, donor type, donor heavy atom, donor atom, acceptor molecule, acceptor atom, score
      P1  H  7997  8008       L1     8  0.27
      P1  H  7997  8010       L1     6  0.20

> <Gold.Chemscore.Hbond.Weighted>
-2.0713

> <Gold.Chemscore.Metal.Weighted>
-0.0000

> <Gold.Chemscore.Lipo.Weighted>
-12.5372

> <Gold.Chemscore.Internal_Hbond.Weighted>
0.0000

> <Gold.Chemscore.DEClash.Weighted>
0.0626

> <Gold.Chemscore.DEInternal.Weighted>
1.5890

> <Gold.Chemscore.Rot.Weighted>
4.0724

> <Gold.Chemscore.Internal.Correction.Weighted>
   9.000000E+99

> <Gold.Protein.RotatedTorsions>
[ 6907 6896 6895 6894 ] final   27.97 input  -60.11 | X-H torsion
[ 7974 7965 7964 7962 ] final -174.53 input  175.53 | X-H torsion
[ 8008 7997 7996 7995 ] final  -40.13 input   59.86 | X-H torsion
[ 10167 10162 10161 10158 ] final   98.66 input  -65.29 | X-H torsion
[ 10718 10713 10712 10709 ] final  117.66 input   66.30 | X-H torsion
[ 10763 10752 10751 10750 ] final   -5.22 input  -60.55 | X-H torsion
[ 11005 11000 10999 10996 ] final   11.01 input  -57.11 | X-H torsion

> <Gold.Protein.ActiveResidues>
 VAL166  LYS551  ARG553  GLY616  TRP617  ASP618  TYR619  PRO620  LYS621  CYS622 
 ASP623  PHE694  ASN695  SER759  ASP760  ASP761  ALA762  ILE779  LEU786  VAL792 
 PHE793  MET794  SER795  GLU796  ALA797  LYS798  CYS799  TRP800  GLU811  SER814 

> <Gold.Protein.RotatedAtoms>
  152.0101  134.9881  160.0567 H   0  0  0  0  0  0  0  0  0  0  0  0  # atno 6907 bound_to 6896
  152.1437  133.4474  159.4787 H   0  0  0  0  0  0  0  0  0  0  0  0  # atno 6908 bound_to 6896
  150.6868  134.2192  159.4433 H   0  0  0  0  0  0  0  0  0  0  0  0  # atno 6909 bound_to 6896
  144.7131  140.1458  143.6388 H   0  0  0  0  0  0  0  0  0  0  0  0  # atno 7974 bound_to 7965
  154.4015  140.1533  156.2977 H   0  0  0  0  0  0  0  0  0  0  0  0  # atno 8008 bound_to 7997
  155.8729  140.3448  155.5812 H   0  0  0  0  0  0  0  0  0  0  0  0  # atno 8009 bound_to 7997
  155.7754  140.0836  157.2077 H   0  0  0  0  0  0  0  0  0  0  0  0  # atno 8010 bound_to 7997
  139.7688  144.6929  151.0186 H   0  0  0  0  0  0  0  0  0  0  0  0  # atno 10167 bound_to 10162
  157.6082  131.1039  150.7646 H   0  0  0  0  0  0  0  0  0  0  0  0  # atno 10718 bound_to 10713
  153.3955  135.7003  153.6464 H   0  0  0  0  0  0  0  0  0  0  0  0  # atno 10763 bound_to 10752
  153.5018  135.3650  155.2544 H   0  0  0  0  0  0  0  0  0  0  0  0  # atno 10764 bound_to 10752
  154.8706  135.4114  154.3280 H   0  0  0  0  0  0  0  0  0  0  0  0  # atno 10765 bound_to 10752
  140.5080  134.0680  155.7811 H   0  0  0  0  0  0  0  0  0  0  0  0  # atno 11005 bound_to 11000
  145.9161  139.2517  143.1409 LP  0  0  0  0  0  0  0  0  0  0  0  0  # atno 17320 bound_to 7965
  145.9667  140.8792  143.0183 LP  0  0  0  0  0  0  0  0  0  0  0  0  # atno 17321 bound_to 7965
  140.7812  143.4612  151.0275 LP  0  0  0  0  0  0  0  0  0  0  0  0  # atno 17342 bound_to 10162
  139.8296  143.7708  152.3179 LP  0  0  0  0  0  0  0  0  0  0  0  0  # atno 17343 bound_to 10162
  156.8029  130.4927  149.5367 LP  0  0  0  0  0  0  0  0  0  0  0  0  # atno 17370 bound_to 10713
  156.1175  130.6086  151.0143 LP  0  0  0  0  0  0  0  0  0  0  0  0  # atno 17371 bound_to 10713
  141.1400  133.9154  157.2346 LP  0  0  0  0  0  0  0  0  0  0  0  0  # atno 17394 bound_to 11000
  139.9675  135.0138  156.9425 LP  0  0  0  0  0  0  0  0  0  0  0  0  # atno 17395 bound_to 11000

$$$$
