#       Name:                AV-unprocessed.smi:715
#       Creating user name   scv26
#       Creation time:       Fri Mar 27 00:47:57 2020


#       File generated by GOLD software.
#

@<TRIPOS>MOLECULE
AV-unprocessed.smi:715
    44    45     1
SMALL
NO_CHARGES


@<TRIPOS>ATOM
      1 ****        -3.7007   5.9115  -0.8238 C.3            1 S1                 0.0000
      2 ****        -3.4276   4.6475  -0.1744 N.pl3          1 S1                 0.0000
      3 ****        -2.8964   3.4975  -0.7174 C.2            1 S1                 0.0000
      4 ****        -2.8242   2.5660   0.2811 C.2            1 S1                 0.0000
      5 ****        -2.3138   1.1502   0.2278 C.3            1 S1                 0.0000
      6 ****        -2.6869   0.5231  -0.9830 O.3            1 S1                 0.0000
      7 ****        -0.7789   1.1239   0.3323 C.3            1 S1                 0.0000
      8 ****        -0.2961  -0.2210   0.6185 N.am           1 S1                 0.0000
      9 ****         0.9880  -0.5344   0.8408 C.2            1 S1                 0.0000
     10 ****         1.8947   0.2984   0.8353 O.2            1 S1                 0.0000
     11 ****         1.2897  -2.0116   1.1172 C.3            1 S1                 0.0000
     12 ****         2.5918  -2.5111   0.4569 C.3            1 S1                 0.0000
     13 ****         2.5947  -2.4671  -1.0761 C.3            1 S1                 0.0000
     14 ****         3.6833  -3.4572  -1.5070 C.3            1 S1                 0.0000
     15 ****         3.9123  -4.3966  -0.3130 C.3            1 S1                 0.0000
     16 ****         2.9014  -3.9788   0.7593 C.3            1 S1                 0.0000
     17 ****        -3.3405   3.2591   1.4133 C.2            1 S1                 0.0000
     18 ****        -3.7027   4.5014   1.1376 N.2            1 S1                 0.0000
     19 ****        -3.3730   5.8769  -1.8633 H              1 S1                 0.0000
     20 ****        -3.1681   6.7131  -0.3110 H              1 S1                 0.0000
     21 ****        -4.7714   6.1165  -0.7958 H              1 S1                 0.0000
     22 ****        -2.6144   3.4358  -1.7583 H              1 S1                 0.0000
     23 ****        -2.7414   0.5705   1.0472 H              1 S1                 0.0000
     24 ****        -3.6299   0.4672  -1.0132 H              1 S1                 0.0000
     25 ****        -0.3152   1.5148  -0.5752 H              1 S1                 0.0000
     26 ****        -0.4626   1.7698   1.1533 H              1 S1                 0.0000
     27 ****        -0.9822  -0.9615   0.6349 H              1 S1                 0.0000
     28 ****         1.3557  -2.1424   2.1977 H              1 S1                 0.0000
     29 ****         0.4500  -2.6237   0.7841 H              1 S1                 0.0000
     30 ****         3.4319  -1.9150   0.8183 H              1 S1                 0.0000
     31 ****         1.6294  -2.8033  -1.4577 H              1 S1                 0.0000
     32 ****         2.7709  -1.4643  -1.4669 H              1 S1                 0.0000
     33 ****         3.3845  -4.0038  -2.4021 H              1 S1                 0.0000
     34 ****         4.6068  -2.9266  -1.7428 H              1 S1                 0.0000
     35 ****         3.7960  -5.4455  -0.5872 H              1 S1                 0.0000
     36 ****         4.9279  -4.2687   0.0639 H              1 S1                 0.0000
     37 ****         3.2824  -4.1264   1.7703 H              1 S1                 0.0000
     38 ****         1.9963  -4.5793   0.6569 H              1 S1                 0.0000
     39 ****        -3.4613   2.8963   2.4233 H              1 S1                 0.0000
     40 ****        -2.2930  -0.3952  -1.0228 LP             1 S1                 0.0000
     41 ****        -2.3558   1.0616  -1.7579 LP             1 S1                 0.0000
     42 ****         1.6885   1.2609   0.6590 LP             1 S1                 0.0000
     43 ****         2.8374   0.0123   1.0071 LP             1 S1                 0.0000
     44 ****        -4.0924   5.1789   1.7613 LP             1 S1                 0.0000
@<TRIPOS>BOND
    1    1    2 1     
    2    1   19 1     
    3    1   20 1     
    4    1   21 1     
    5    2   18 1     
    6    2    3 1     
    7    3    4 2     
    8    3   22 1     
    9    4    5 1     
   10    4   17 1     
   11    5    6 1     
   12    5    7 1     
   13    5   23 1     
   14    6   24 1     
   15    7    8 1     
   16    7   25 1     
   17    7   26 1     
   18    8    9 am    
   19    8   27 1     
   20    9   10 2     
   21    9   11 1     
   22   11   12 1     
   23   11   28 1     
   24   11   29 1     
   25   12   16 1     
   26   12   13 1     
   27   12   30 1     
   28   13   14 1     
   29   13   31 1     
   30   13   32 1     
   31   14   15 1     
   32   14   33 1     
   33   14   34 1     
   34   15   16 1     
   35   15   35 1     
   36   15   36 1     
   37   16   37 1     
   38   16   38 1     
   39   17   18 2     
   40   17   39 1     
   41    6   40 1     
   42    6   41 1     
   43   10   42 1     
   44   10   43 1     
   45   18   44 1     
@<TRIPOS>SUBSTRUCTURE
      1 S1             1
@<TRIPOS>SET
LONE_PAIRS      STATIC     ATOMS    <user>   **** ""
5 40 41 42 43 44
DONOR_HYDROGENS      STATIC     ATOMS    <user>   **** ""
2 24 27
ATOM$BLUE        STATIC     ATOMS    COLORGROUP SYSTEM
5 40 41 42 43 44
ATOM$RED        STATIC     ATOMS    COLORGROUP SYSTEM
2 24 27
