AV-unprocessed.smi:1700|AV-procd|sdf|6819|dock5
  -GOLD-   22720 7593D 1   1.00000     0.00000
 Structure written by MMmdl.
 34 35  0  0  0  0  0  0  0  0  1 V2000
  147.7677  133.0186  152.3238 C   0  0  0  0  0  0  0  0  0  0  0  0
  146.4532  133.0191  151.5603 C   0  0  0  0  0  0  0  0  0  0  0  0
  145.8729  131.7890  151.1843 C   0  0  0  0  0  0  0  0  0  0  0  0
  144.6581  131.7910  150.4778 C   0  0  0  0  0  0  0  0  0  0  0  0
  144.0709  133.0313  150.1756 C   0  0  0  0  0  0  0  0  0  0  0  0
  144.6184  134.2115  150.5308 N   0  0  0  0  0  0  0  0  0  0  0  0
  145.7912  134.2276  151.2131 C   0  0  0  0  0  0  0  0  0  0  0  0
  146.4287  135.4352  151.6161 N   0  0  0  0  0  0  0  0  0  0  0  0
  145.8655  136.5633  152.0841 C   0  0  0  0  0  0  0  0  0  0  0  0
  144.6612  136.7338  152.2767 O   0  0  0  0  0  0  0  0  0  0  0  0
  146.7908  137.5032  152.3249 N   0  0  0  0  0  0  0  0  0  0  0  0
  146.5102  138.8385  152.8402 C   0  0  0  0  0  0  0  0  0  0  0  0
  147.7987  139.6574  153.0212 C   0  0  2  0  0  0  0  0  0  0  0  0
  148.7545  139.0754  154.0604 C   0  0  0  0  0  0  0  0  0  0  0  0
  149.5480  140.2982  154.4596 C   0  0  0  0  0  0  0  0  0  0  0  0
  148.4742  141.3828  154.4522 C   0  0  0  0  0  0  0  0  0  0  0  0
  147.4995  140.9677  153.4979 O   0  0  0  0  0  0  0  0  0  0  0  0
  148.1284  132.0035  152.4928 H   0  0  0  0  0  0  0  0  0  0  0  0
  147.6446  133.4966  153.2961 H   0  0  0  0  0  0  0  0  0  0  0  0
  148.5339  133.5577  151.7660 H   0  0  0  0  0  0  0  0  0  0  0  0
  146.3510  130.8527  151.4325 H   0  0  0  0  0  0  0  0  0  0  0  0
  144.1889  130.8664  150.1754 H   0  0  0  0  0  0  0  0  0  0  0  0
  143.1378  133.0782  149.6338 H   0  0  0  0  0  0  0  0  0  0  0  0
  147.4334  135.4436  151.5239 H   0  0  0  0  0  0  0  0  0  0  0  0
  147.7590  137.2792  152.1472 H   0  0  0  0  0  0  0  0  0  0  0  0
  145.8394  139.3431  152.1446 H   0  0  0  0  0  0  0  0  0  0  0  0
  145.9736  138.7644  153.7877 H   0  0  0  0  0  0  0  0  0  0  0  0
  148.3288  139.7561  152.0723 H   0  0  0  0  0  0  0  0  0  0  0  0
  148.2040  138.6904  154.9201 H   0  0  0  0  0  0  0  0  0  0  0  0
  149.3758  138.2721  153.6632 H   0  0  0  0  0  0  0  0  0  0  0  0
  150.0441  140.1939  155.4249 H   0  0  0  0  0  0  0  0  0  0  0  0
  150.3062  140.5138  153.7056 H   0  0  0  0  0  0  0  0  0  0  0  0
  147.9939  141.4500  155.4290 H   0  0  0  0  0  0  0  0  0  0  0  0
  148.8794  142.3646  154.2063 H   0  0  0  0  0  0  0  0  0  0  0  0
  1  2  1  0  0  0  0
  1 18  1  0  0  0  0
  1 19  1  0  0  0  0
  1 20  1  0  0  0  0
  2  7  1  0  0  0  0
  2  3  2  0  0  0  0
  3  4  1  0  0  0  0
  3 21  1  0  0  0  0
  4  5  2  0  0  0  0
  4 22  1  0  0  0  0
  5  6  1  0  0  0  0
  5 23  1  0  0  0  0
  6  7  2  0  0  0  0
  7  8  1  0  0  0  0
  8  9  1  0  0  0  0
  8 24  1  0  0  0  0
  9 10  2  0  0  0  0
  9 11  1  0  0  0  0
 11 12  1  0  0  0  0
 11 25  1  0  0  0  0
 12 13  1  0  0  0  0
 12 26  1  0  0  0  0
 12 27  1  0  0  0  0
 13 17  1  0  0  0  0
 13 14  1  0  0  0  0
 13 28  1  0  0  0  0
 14 15  1  0  0  0  0
 14 29  1  0  0  0  0
 14 30  1  0  0  0  0
 15 16  1  0  0  0  0
 15 31  1  0  0  0  0
 15 32  1  0  0  0  0
 16 17  1  0  0  0  0
 16 33  1  0  0  0  0
 16 34  1  0  0  0  0
M  END
> <s_m_source_file>
AV-unprocessed.smi

> <i_m_source_file_index>
1700

> <i_lp_mmshare_version>
43012

> <i_f3d_flags>
0

> <s_epik_input>
W0NIM11jMVtjSF1bY0hdW2NIXW5jMVtOSF1DKD1PKVtOSF1bQ0gyXVtDQEBIXTJbQ0gyXVtDSDJdW0NIMl1PMg==

> <s_epik_cmdline>
J2VwaWtfcHl0aG9uJywgJy1waCcsICc3LjAnLCAnLXRuJywgJzgnLCAnLW1hJywgJzIwMCcsICctbWV0YWxfYmluZGluZycsICctaW1hZScsICc8aW5maWxlLm1hZT4nLCAnLW9tYWUnLCAnPG91dGZpbGUubWFlPic=

> <r_lp_tautomer_probability>
1

> <r_epik_Ionization_Penalty>
5.57253e-05

> <r_epik_Ionization_Penalty_Charging>
0

> <r_epik_Ionization_Penalty_Neutral>
5.57253e-05

> <r_epik_State_Penalty>
-0

> <r_epik_Charging_Adjusted_Penalty>
0

> <i_epik_Tot_Q>
0

> <i_epik_Tot_abs_Q>
0

> <r_epik_Metal_State_Penalty>
-0

> <b_epik_Metal_Only>
0

> <s_lp_Force_Field>
OPLS_2005

> <r_lp_Energy>
19.3296

> <b_lp_Chiralities_Consistent>
1

> <s_lp_Variant>
AV-unprocessed.smi:1700-1

> <Gold.Version>
5.8.1

> <Gold.Id.Protein>
6NUR|6NUR_protein|mol2

> <Gold.PLP.Fitness>
38.6997

> <Gold.PLP.PLP>
-30.2983

> <Gold.PLP.part.hbond>
-2.0000

> <Gold.PLP.part.metal>
0.0000

> <Gold.PLP.part.buried>
-0.8028

> <Gold.PLP.part.nonpolar>
-28.2532

> <Gold.PLP.part.repulsive>
0.6767

> <Gold.PLP.ligand.clash>
0.0000

> <Gold.PLP.ligand.torsion>
0.3001

> <Gold.PLP.Chemscore.Hbond>
2.0000

> <Gold.PLP.Chemscore.CHOScore>
1.0000

> <Gold.PLP.Chemscore.Metal>
0.0000

> <Gold.Chemscore.Hbonds>
donor molecule, donor type, donor heavy atom, donor atom, acceptor molecule, acceptor atom, score
      L1  H     8    24       P1  7948  1.00
      L1  H    11    25       P1  7948  1.00
      L1  C     5    23       P1 10186  1.00

> <Gold.PLP.Chemscore.Internal.Correction>
0.0016

> <Gold.Rescore>
     Score         DG    S(hbond)    S(metal)    S(lipo)     H(rot)  DE(clash)    DE(int)     intcor
     16.69     -17.09       1.94        0.00      70.83       1.23       0.04       0.35       ----

> <Gold.Chemscore.Fitness>
16.6905

> <Gold.Chemscore.DG>
-17.0854

> <Gold.Chemscore.ZeroCoef>
-5.4800

> <Gold.Chemscore.Hbond>
1.9391

> <Gold.Chemscore.Metal>
0.0000

> <Gold.Chemscore.Lipo>
70.8292

> <Gold.Chemscore.Internal_Hbond>
0.0000

> <Gold.Chemscore.DEClash>
0.0431

> <Gold.Chemscore.DEInternal>
0.3517

> <Gold.Chemscore.Rot>
1.2337

> <Gold.Chemscore.Internal.Correction>
   9.000000E+99

> <Gold.Chemscore.Hbonds>
donor molecule, donor type, donor heavy atom, donor atom, acceptor molecule, acceptor atom, score
      L1  H     8    24       P1  7948  0.87
      L1  H    11    25       P1  7948  0.95

> <Gold.Chemscore.Hbond.Weighted>
-6.4766

> <Gold.Chemscore.Metal.Weighted>
-0.0000

> <Gold.Chemscore.Lipo.Weighted>
-8.2870

> <Gold.Chemscore.Internal_Hbond.Weighted>
0.0000

> <Gold.Chemscore.DEClash.Weighted>
0.0431

> <Gold.Chemscore.DEInternal.Weighted>
0.3517

> <Gold.Chemscore.Rot.Weighted>
3.1582

> <Gold.Chemscore.Internal.Correction.Weighted>
   9.000000E+99

> <Gold.Protein.RotatedTorsions>
[ 6907 6896 6895 6894 ] final  -98.01 input  -60.11 | X-H torsion
[ 7974 7965 7964 7962 ] final   84.89 input  175.53 | X-H torsion
[ 8008 7997 7996 7995 ] final -116.27 input   59.86 | X-H torsion
[ 10167 10162 10161 10158 ] final -161.34 input  -65.29 | X-H torsion
[ 10718 10713 10712 10709 ] final -105.23 input   66.30 | X-H torsion
[ 10763 10752 10751 10750 ] final   92.83 input  -60.55 | X-H torsion
[ 11005 11000 10999 10996 ] final -115.22 input  -57.11 | X-H torsion

> <Gold.Protein.ActiveResidues>
 VAL166  LYS551  ARG553  GLY616  TRP617  ASP618  TYR619  PRO620  LYS621  CYS622 
 ASP623  PHE694  ASN695  SER759  ASP760  ASP761  ALA762  ILE779  LEU786  VAL792 
 PHE793  MET794  SER795  GLU796  ALA797  LYS798  CYS799  TRP800  GLU811  SER814 

> <Gold.Protein.RotatedAtoms>
  150.7033  134.1260  159.4051 H   0  0  0  0  0  0  0  0  0  0  0  0  # atno 6907 bound_to 6896
  151.9246  135.0281  160.0534 H   0  0  0  0  0  0  0  0  0  0  0  0  # atno 6908 bound_to 6896
  152.2227  133.4961  159.5208 H   0  0  0  0  0  0  0  0  0  0  0  0  # atno 6909 bound_to 6896
  145.5928  139.2340  143.2290 H   0  0  0  0  0  0  0  0  0  0  0  0  # atno 7974 bound_to 7965
  155.0652  140.0393  157.2590 H   0  0  0  0  0  0  0  0  0  0  0  0  # atno 8008 bound_to 7997
  154.7027  140.2676  155.6680 H   0  0  0  0  0  0  0  0  0  0  0  0  # atno 8009 bound_to 7997
  156.2765  140.2737  156.1643 H   0  0  0  0  0  0  0  0  0  0  0  0  # atno 8010 bound_to 7997
  139.6472  144.0150  152.2136 H   0  0  0  0  0  0  0  0  0  0  0  0  # atno 10167 bound_to 10162
  156.0337  130.5554  150.7510 H   0  0  0  0  0  0  0  0  0  0  0  0  # atno 10718 bound_to 10713
  153.2236  135.4347  155.0516 H   0  0  0  0  0  0  0  0  0  0  0  0  # atno 10763 bound_to 10752
  154.8262  135.3362  154.6891 H   0  0  0  0  0  0  0  0  0  0  0  0  # atno 10764 bound_to 10752
  153.7322  135.7010  153.5042 H   0  0  0  0  0  0  0  0  0  0  0  0  # atno 10765 bound_to 10752
  141.0502  133.9699  157.2849 H   0  0  0  0  0  0  0  0  0  0  0  0  # atno 11005 bound_to 11000
  146.1634  140.6754  142.9267 LP  0  0  0  0  0  0  0  0  0  0  0  0  # atno 17320 bound_to 7965
  144.7344  140.4765  143.6914 LP  0  0  0  0  0  0  0  0  0  0  0  0  # atno 17321 bound_to 7965
  139.9855  144.6399  150.7862 LP  0  0  0  0  0  0  0  0  0  0  0  0  # atno 17342 bound_to 10162
  140.7520  143.2983  151.3146 LP  0  0  0  0  0  0  0  0  0  0  0  0  # atno 17343 bound_to 10162
  157.5054  131.0921  151.0263 LP  0  0  0  0  0  0  0  0  0  0  0  0  # atno 17370 bound_to 10713
  157.0633  130.5834  149.5389 LP  0  0  0  0  0  0  0  0  0  0  0  0  # atno 17371 bound_to 10713
  139.9344  135.0197  156.8507 LP  0  0  0  0  0  0  0  0  0  0  0  0  # atno 17394 bound_to 11000
  140.6070  134.0118  155.7561 LP  0  0  0  0  0  0  0  0  0  0  0  0  # atno 17395 bound_to 11000

$$$$
