AV-unprocessed.smi:1586|AV-procd|sdf|6386|dock3
  -GOLD-   22720 7 23D 1   1.00000     0.00000
 Structure written by MMmdl.
 45 46  0  0  0  0  0  0  0  0  2 V2000
  151.3555  145.4823  159.2076 C   0  0  0  0  0  0  0  0  0  0  0  0
  151.5847  144.5465  158.0122 C   0  0  0  0  0  0  0  0  0  0  0  0
  151.4157  143.1239  158.3021 N   0  0  0  0  0  0  0  0  0  0  0  0
  152.5024  142.5850  159.1192 C   0  0  0  0  0  0  0  0  0  0  0  0
  152.3106  141.0835  159.4061 C   0  0  0  0  0  0  0  0  0  0  0  0
  152.2356  140.2795  158.1764 N   0  0  0  0  0  0  0  0  0  0  0  0
  152.0471  138.8343  158.4448 C   0  0  1  0  0  0  0  0  0  0  0  0
  153.2637  138.1982  159.1652 C   0  0  0  0  0  0  0  0  0  0  0  0
  150.7633  138.5230  159.2625 C   0  0  0  0  0  0  0  0  0  0  0  0
  150.3712  137.1201  159.1695 N   0  0  0  0  0  0  0  0  0  0  0  0
  149.1910  136.6164  159.5549 C   0  0  0  0  0  0  0  0  0  0  0  0
  148.3291  137.3628  160.0250 O   0  0  0  0  0  0  0  0  0  0  0  0
  149.0834  135.2795  159.3737 N   0  5  0  0  0  0  0  0  0  0  0  0
  148.0818  134.5981  159.9511 C   0  0  0  0  0  0  0  0  0  0  0  0
  147.3213  135.0255  161.0737 C   0  0  0  0  0  0  0  0  0  0  0  0
  146.4521  133.9913  161.2745 C   0  0  0  0  0  0  0  0  0  0  0  0
  145.3668  133.7613  162.2699 C   0  0  0  0  0  0  0  0  0  0  0  0
  146.6690  133.0082  160.3596 O   0  0  0  0  0  0  0  0  0  0  0  0
  147.7183  133.4016  159.5204 N   0  0  0  0  0  0  0  0  0  0  0  0
  151.1560  140.8450  157.3529 C   0  0  0  0  0  0  0  0  0  0  0  0
  151.3593  142.3442  157.0694 C   0  0  0  0  0  0  0  0  0  0  0  0
  151.3952  146.5245  158.8904 H   0  0  0  0  0  0  0  0  0  0  0  0
  152.1133  145.3504  159.9796 H   0  0  0  0  0  0  0  0  0  0  0  0
  150.3781  145.3117  159.6594 H   0  0  0  0  0  0  0  0  0  0  0  0
  150.8758  144.8320  157.2343 H   0  0  0  0  0  0  0  0  0  0  0  0
  152.5765  144.7256  157.5946 H   0  0  0  0  0  0  0  0  0  0  0  0
  153.4606  142.7422  158.6211 H   0  0  0  0  0  0  0  0  0  0  0  0
  152.5548  143.1133  160.0705 H   0  0  0  0  0  0  0  0  0  0  0  0
  153.1552  140.7737  160.0176 H   0  0  0  0  0  0  0  0  0  0  0  0
  151.4120  140.9343  160.0067 H   0  0  0  0  0  0  0  0  0  0  0  0
  151.9430  138.3253  157.4852 H   0  0  0  0  0  0  0  0  0  0  0  0
  153.1000  137.1516  159.4188 H   0  0  0  0  0  0  0  0  0  0  0  0
  153.4915  138.7253  160.0920 H   0  0  0  0  0  0  0  0  0  0  0  0
  154.1591  138.2016  158.5455 H   0  0  0  0  0  0  0  0  0  0  0  0
  150.9149  138.7983  160.3078 H   0  0  0  0  0  0  0  0  0  0  0  0
  149.9075  139.0908  158.9012 H   0  0  0  0  0  0  0  0  0  0  0  0
  151.0504  136.4781  158.7886 H   0  0  0  0  0  0  0  0  0  0  0  0
  147.3989  135.9437  161.6362 H   0  0  0  0  0  0  0  0  0  0  0  0
  144.6146  134.5477  162.2075 H   0  0  0  0  0  0  0  0  0  0  0  0
  145.7686  133.7572  163.2832 H   0  0  0  0  0  0  0  0  0  0  0  0
  144.8711  132.8055  162.0990 H   0  0  0  0  0  0  0  0  0  0  0  0
  151.1087  140.3454  156.3873 H   0  0  0  0  0  0  0  0  0  0  0  0
  150.1919  140.6881  157.8391 H   0  0  0  0  0  0  0  0  0  0  0  0
  150.5407  142.7024  156.4443 H   0  0  0  0  0  0  0  0  0  0  0  0
  152.2754  142.4862  156.4936 H   0  0  0  0  0  0  0  0  0  0  0  0
  1  2  1  0  0  0  0
  1 22  1  0  0  0  0
  1 23  1  0  0  0  0
  1 24  1  0  0  0  0
  2  3  1  0  0  0  0
  2 25  1  0  0  0  0
  2 26  1  0  0  0  0
  3 21  1  0  0  0  0
  3  4  1  0  0  0  0
  4  5  1  0  0  0  0
  4 27  1  0  0  0  0
  4 28  1  0  0  0  0
  5  6  1  0  0  0  0
  5 29  1  0  0  0  0
  5 30  1  0  0  0  0
  6  7  1  0  0  0  0
  6 20  1  0  0  0  0
  7  8  1  0  0  0  0
  7  9  1  0  0  0  0
  7 31  1  0  0  0  0
  8 32  1  0  0  0  0
  8 33  1  0  0  0  0
  8 34  1  0  0  0  0
  9 10  1  0  0  0  0
  9 35  1  0  0  0  0
  9 36  1  0  0  0  0
 10 11  1  0  0  0  0
 10 37  1  0  0  0  0
 11 12  2  0  0  0  0
 11 13  1  0  0  0  0
 13 14  1  0  0  0  0
 14 19  2  0  0  0  0
 14 15  1  0  0  0  0
 15 16  2  0  0  0  0
 15 38  1  0  0  0  0
 16 17  1  0  0  0  0
 16 18  1  0  0  0  0
 17 39  1  0  0  0  0
 17 40  1  0  0  0  0
 17 41  1  0  0  0  0
 18 19  1  0  0  0  0
 20 21  1  0  0  0  0
 20 42  1  0  0  0  0
 20 43  1  0  0  0  0
 21 44  1  0  0  0  0
 21 45  1  0  0  0  0
M  CHG  1  13  -1
M  END
> <s_m_source_file>
AV-unprocessed.smi

> <i_m_source_file_index>
1586

> <i_lp_mmshare_version>
43012

> <i_f3d_flags>
0

> <s_epik_input>
W0NIM11bQ0gyXU4xW0NIMl1bQ0gyXU4oW0NIMl1bQ0gyXTEpW0NASF0oW0NIM10pW0NIMl1bTkhdQyg9TylbTkhdYzJbY0hdYyhbQ0gzXSlvbjI=

> <s_epik_cmdline>
J2VwaWtfcHl0aG9uJywgJy1waCcsICc3LjAnLCAnLXRuJywgJzgnLCAnLW1hJywgJzIwMCcsICctbWV0YWxfYmluZGluZycsICctaW1hZScsICc8aW5maWxlLm1hZT4nLCAnLW9tYWUnLCAnPG91dGZpbGUubWFlPic=

> <r_epik_Ionization_Penalty>
9.09031

> <r_epik_Ionization_Penalty_Charging>
6.65437

> <r_epik_Ionization_Penalty_Neutral>
2.43594

> <r_epik_State_Penalty>
8.41762

> <r_epik_Charging_Adjusted_Penalty>
15.072

> <i_epik_Tot_Q>
-1

> <i_epik_Tot_abs_Q>
1

> <r_epik_Metal_State_Penalty>
4.3436

> <b_epik_Metal_Only>
1

> <s_lp_Force_Field>
OPLS_2005

> <r_lp_Energy>
36.2307

> <b_lp_Chiralities_Consistent>
1

> <s_lp_Variant>
AV-unprocessed.smi:1586-14

> <Gold.Version>
5.8.1

> <Gold.Id.Protein>
6NUR|6NUR_protein|mol2

> <Gold.PLP.Fitness>
43.7023

> <Gold.PLP.PLP>
-35.9068

> <Gold.PLP.part.hbond>
-3.0000

> <Gold.PLP.part.metal>
0.0000

> <Gold.PLP.part.buried>
-4.8195

> <Gold.PLP.part.nonpolar>
-29.0296

> <Gold.PLP.part.repulsive>
0.2129

> <Gold.PLP.ligand.clash>
0.0000

> <Gold.PLP.ligand.torsion>
0.4064

> <Gold.PLP.Chemscore.Hbond>
2.8339

> <Gold.PLP.Chemscore.CHOScore>
0.0000

> <Gold.PLP.Chemscore.Metal>
0.0000

> <Gold.Chemscore.Hbonds>
donor molecule, donor type, donor heavy atom, donor atom, acceptor molecule, acceptor atom, score
      P1  H  6896  6908       L1    13  1.89
      P1  H  6931  6943       L1    12  0.33
      P1  H  6934  6947       L1    12  0.32

> <Gold.PLP.Chemscore.Internal.Correction>
0.1065

> <Gold.Rescore>
     Score         DG    S(hbond)    S(metal)    S(lipo)     H(rot)  DE(clash)    DE(int)     intcor
     15.27     -17.25       1.51        0.00      94.10       1.68       0.07       1.91       ----

> <Gold.Chemscore.Fitness>
15.2748

> <Gold.Chemscore.DG>
-17.2502

> <Gold.Chemscore.ZeroCoef>
-5.4800

> <Gold.Chemscore.Hbond>
1.5146

> <Gold.Chemscore.Metal>
0.0000

> <Gold.Chemscore.Lipo>
94.0980

> <Gold.Chemscore.Internal_Hbond>
0.0000

> <Gold.Chemscore.DEClash>
0.0695

> <Gold.Chemscore.DEInternal>
1.9060

> <Gold.Chemscore.Rot>
1.6788

> <Gold.Chemscore.Internal.Correction>
   9.000000E+99

> <Gold.Chemscore.Hbonds>
donor molecule, donor type, donor heavy atom, donor atom, acceptor molecule, acceptor atom, score
      P1  H  6896  6908       L1    13  0.64
      P1  H  6931  6943       L1    12  0.24
      P1  H  6934  6947       L1    12  0.32

> <Gold.Chemscore.Hbond.Weighted>
-5.0586

> <Gold.Chemscore.Metal.Weighted>
-0.0000

> <Gold.Chemscore.Lipo.Weighted>
-11.0095

> <Gold.Chemscore.Internal_Hbond.Weighted>
0.0000

> <Gold.Chemscore.DEClash.Weighted>
0.0695

> <Gold.Chemscore.DEInternal.Weighted>
1.9060

> <Gold.Chemscore.Rot.Weighted>
4.2978

> <Gold.Chemscore.Internal.Correction.Weighted>
   9.000000E+99

> <Gold.Protein.RotatedTorsions>
[ 6907 6896 6895 6894 ] final  151.66 input  -60.11 | X-H torsion
[ 7974 7965 7964 7962 ] final  158.66 input  175.53 | X-H torsion
[ 8008 7997 7996 7995 ] final  135.10 input   59.86 | X-H torsion
[ 10167 10162 10161 10158 ] final -106.52 input  -65.29 | X-H torsion
[ 10718 10713 10712 10709 ] final   78.15 input   66.30 | X-H torsion
[ 10763 10752 10751 10750 ] final  133.35 input  -60.55 | X-H torsion
[ 11005 11000 10999 10996 ] final   16.65 input  -57.11 | X-H torsion

> <Gold.Protein.ActiveResidues>
 VAL166  LYS551  ARG553  GLY616  TRP617  ASP618  TYR619  PRO620  LYS621  CYS622 
 ASP623  PHE694  ASN695  SER759  ASP760  ASP761  ALA762  ILE779  LEU786  VAL792 
 PHE793  MET794  SER795  GLU796  ALA797  LYS798  CYS799  TRP800  GLU811  SER814 

> <Gold.Protein.RotatedAtoms>
  152.0975  133.4232  159.4571 H   0  0  0  0  0  0  0  0  0  0  0  0  # atno 6907 bound_to 6896
  150.6863  134.2799  159.4632 H   0  0  0  0  0  0  0  0  0  0  0  0  # atno 6908 bound_to 6896
  152.0656  134.9566  160.0625 H   0  0  0  0  0  0  0  0  0  0  0  0  # atno 6909 bound_to 6896
  144.7833  139.7509  143.6251 H   0  0  0  0  0  0  0  0  0  0  0  0  # atno 7974 bound_to 7965
  156.3002  140.2479  156.3526 H   0  0  0  0  0  0  0  0  0  0  0  0  # atno 8008 bound_to 7997
  154.8952  140.0408  157.1881 H   0  0  0  0  0  0  0  0  0  0  0  0  # atno 8009 bound_to 7997
  154.8557  140.2913  155.5574 H   0  0  0  0  0  0  0  0  0  0  0  0  # atno 8010 bound_to 7997
  140.1869  143.3922  152.1237 H   0  0  0  0  0  0  0  0  0  0  0  0  # atno 10167 bound_to 10162
  157.6735  130.9855  150.1744 H   0  0  0  0  0  0  0  0  0  0  0  0  # atno 10718 bound_to 10713
  153.8058  135.3136  155.3395 H   0  0  0  0  0  0  0  0  0  0  0  0  # atno 10763 bound_to 10752
  154.8071  135.4691  154.0423 H   0  0  0  0  0  0  0  0  0  0  0  0  # atno 10764 bound_to 10752
  153.1786  135.6890  153.8597 H   0  0  0  0  0  0  0  0  0  0  0  0  # atno 10765 bound_to 10752
  140.4447  134.1286  155.7694 H   0  0  0  0  0  0  0  0  0  0  0  0  # atno 11005 bound_to 11000
  146.2052  139.5372  142.9717 LP  0  0  0  0  0  0  0  0  0  0  0  0  # atno 17320 bound_to 7965
  145.5990  141.0358  143.2028 LP  0  0  0  0  0  0  0  0  0  0  0  0  # atno 17321 bound_to 7965
  139.5272  144.7117  151.5186 LP  0  0  0  0  0  0  0  0  0  0  0  0  # atno 17342 bound_to 10162
  140.6482  143.8751  150.6758 LP  0  0  0  0  0  0  0  0  0  0  0  0  # atno 17343 bound_to 10162
  156.2491  130.3698  149.8252 LP  0  0  0  0  0  0  0  0  0  0  0  0  # atno 17370 bound_to 10713
  156.6030  130.8555  151.3436 LP  0  0  0  0  0  0  0  0  0  0  0  0  # atno 17371 bound_to 10713
  141.1690  133.8646  157.1628 LP  0  0  0  0  0  0  0  0  0  0  0  0  # atno 17394 bound_to 11000
  140.0046  135.0013  157.0265 LP  0  0  0  0  0  0  0  0  0  0  0  0  # atno 17395 bound_to 11000

$$$$
