AV-unprocessed.smi:188|AV-procd|sdf|1474|dock10
  -GOLD-   2262019293D 1   1.00000     0.00000
 Structure written by MMmdl.
 48 52  0  0  0  0  0  0  0  0  2 V2000
  145.3028  132.5458  158.1819 O   0  0  0  0  0  0  0  0  0  0  0  0
  146.2590  133.3172  158.1533 C   0  0  0  0  0  0  0  0  0  0  0  0
  147.5183  132.8708  158.1514 N   0  0  0  0  0  0  0  0  0  0  0  0
  148.3961  133.8683  158.1194 C   0  0  0  0  0  0  0  0  0  0  0  0
  149.6227  133.7712  158.1073 O   0  0  0  0  0  0  0  0  0  0  0  0
  147.5985  135.1698  158.0993 C   0  0  0  0  0  0  0  0  0  0  0  0
  147.8590  136.0539  159.3432 C   0  0  0  0  0  0  0  0  0  0  0  0
  149.2272  136.7587  159.2911 C   0  0  0  0  0  0  0  0  0  0  0  0
  149.3889  137.5016  158.0398 N   0  0  0  0  0  0  0  0  0  0  0  0
  150.3938  138.4123  157.9778 C   0  0  0  0  0  0  0  0  0  0  0  0
  151.6847  138.0114  158.1322 N   0  0  0  0  0  0  0  0  0  0  0  0
  152.6815  138.8977  158.0604 C   0  0  0  0  0  0  0  0  0  0  0  0
  152.6143  140.2134  157.8502 N   0  0  0  0  0  0  0  0  0  0  0  0
  151.3231  140.6264  157.7069 C   0  0  0  0  0  0  0  0  0  0  0  0
  150.1641  139.7996  157.7528 C   0  0  0  0  0  0  0  0  0  0  0  0
  149.0250  140.5749  157.5701 N   0  0  0  0  0  0  0  0  0  0  0  0
  149.4838  141.7861  157.4151 C   0  0  0  0  0  0  0  0  0  0  0  0
  150.8529  141.9111  157.4936 N   0  0  0  0  0  0  0  0  0  0  0  0
  151.6188  143.1421  157.3623 C   0  0  0  0  0  0  0  0  0  0  0  0
  151.9138  143.8587  158.6959 C   0  0  0  0  0  0  0  0  0  0  0  0
  152.6639  142.8918  159.6361 C   0  0  0  0  0  0  0  0  0  0  0  0
  151.7900  142.0257  160.3324 O   0  0  0  0  0  0  0  0  0  0  0  0
  152.4916  145.2783  158.5925 C   0  0  0  0  0  0  0  0  0  0  0  0
  151.4544  145.8241  159.4369 O   0  0  0  0  0  0  0  0  0  0  0  0
  150.7097  144.5940  159.3032 C   0  0  0  0  0  0  0  0  0  0  0  0
  149.2070  136.7148  156.8203 C   0  0  0  0  0  0  0  0  0  0  0  0
  147.8402  136.0037  156.8172 C   0  0  0  0  0  0  0  0  0  0  0  0
  146.2319  134.6703  158.1206 N   0  5  0  0  0  0  0  0  0  0  0  0
  147.7711  131.8944  158.1713 H   0  0  0  0  0  0  0  0  0  0  0  0
  147.0791  136.8138  159.4176 H   0  0  0  0  0  0  0  0  0  0  0  0
  147.7895  135.4629  160.2579 H   0  0  0  0  0  0  0  0  0  0  0  0
  149.3100  137.4395  160.1393 H   0  0  0  0  0  0  0  0  0  0  0  0
  150.0334  136.0310  159.3884 H   0  0  0  0  0  0  0  0  0  0  0  0
  153.6745  138.4942  158.1916 H   0  0  0  0  0  0  0  0  0  0  0  0
  148.8301  142.6297  157.2476 H   0  0  0  0  0  0  0  0  0  0  0  0
  152.5463  142.9024  156.8409 H   0  0  0  0  0  0  0  0  0  0  0  0
  151.0722  143.8089  156.6941 H   0  0  0  0  0  0  0  0  0  0  0  0
  153.3729  142.2797  159.0778 H   0  0  0  0  0  0  0  0  0  0  0  0
  153.2366  143.4367  160.3869 H   0  0  0  0  0  0  0  0  0  0  0  0
  151.6674  141.2427  159.8177 H   0  0  0  0  0  0  0  0  0  0  0  0
  153.4878  145.3887  159.0226 H   0  0  0  0  0  0  0  0  0  0  0  0
  152.4521  145.7067  157.5906 H   0  0  0  0  0  0  0  0  0  0  0  0
  149.8683  144.7061  158.6173 H   0  0  0  0  0  0  0  0  0  0  0  0
  150.3736  144.1974  160.2619 H   0  0  0  0  0  0  0  0  0  0  0  0
  149.2807  137.3401  155.9314 H   0  0  0  0  0  0  0  0  0  0  0  0
  150.0151  135.9866  156.7484 H   0  0  0  0  0  0  0  0  0  0  0  0
  147.7609  135.3750  155.9289 H   0  0  0  0  0  0  0  0  0  0  0  0
  147.0569  136.7574  156.7214 H   0  0  0  0  0  0  0  0  0  0  0  0
  1  2  2  0  0  0  0
  2 28  1  0  0  0  0
  2  3  1  0  0  0  0
  3  4  1  0  0  0  0
  3 29  1  0  0  0  0
  4  5  2  0  0  0  0
  4  6  1  0  0  0  0
  6 27  1  0  0  0  0
  6  7  1  0  0  0  0
  6 28  1  0  0  0  0
  7  8  1  0  0  0  0
  7 30  1  0  0  0  0
  7 31  1  0  0  0  0
  8  9  1  0  0  0  0
  8 32  1  0  0  0  0
  8 33  1  0  0  0  0
  9 10  1  0  0  0  0
  9 26  1  0  0  0  0
 10 15  1  0  0  0  0
 10 11  2  0  0  0  0
 11 12  1  0  0  0  0
 12 13  2  0  0  0  0
 12 34  1  0  0  0  0
 13 14  1  0  0  0  0
 14 18  1  0  0  0  0
 14 15  2  0  0  0  0
 15 16  1  0  0  0  0
 16 17  2  0  0  0  0
 17 18  1  0  0  0  0
 17 35  1  0  0  0  0
 18 19  1  0  0  0  0
 19 20  1  0  0  0  0
 19 36  1  0  0  0  0
 19 37  1  0  0  0  0
 20 25  1  0  0  0  0
 20 21  1  0  0  0  0
 20 23  1  0  0  0  0
 21 22  1  0  0  0  0
 21 38  1  0  0  0  0
 21 39  1  0  0  0  0
 22 40  1  0  0  0  0
 23 24  1  0  0  0  0
 23 41  1  0  0  0  0
 23 42  1  0  0  0  0
 24 25  1  0  0  0  0
 25 43  1  0  0  0  0
 25 44  1  0  0  0  0
 26 27  1  0  0  0  0
 26 45  1  0  0  0  0
 26 46  1  0  0  0  0
 27 47  1  0  0  0  0
 27 48  1  0  0  0  0
M  CHG  1  28  -1
M  END
> <s_m_source_file>
AV-unprocessed.smi

> <i_m_source_file_index>
188

> <i_lp_mmshare_version>
43012

> <i_f3d_flags>
0

> <s_epik_input>
Tz1DKFtOSF0xKVtOSF1DKD1PKUMxMltDSDJdW0NIMl1OKFtDSDJdW0NIMl0yKWMobltjSF1uMyljKGMzNCluW2NIXW40W0NIMl1DNShbQ0gyXVtPSF0pW0NIMl1PW0NIMl01

> <s_epik_cmdline>
J2VwaWtfcHl0aG9uJywgJy1waCcsICc3LjAnLCAnLXRuJywgJzgnLCAnLW1hJywgJzIwMCcsICctbWV0YWxfYmluZGluZycsICctaW1hZScsICc8aW5maWxlLm1hZT4nLCAnLW9tYWUnLCAnPG91dGZpbGUubWFlPic=

> <r_lp_tautomer_probability>
1

> <r_epik_Ionization_Penalty>
5.87904

> <r_epik_Ionization_Penalty_Charging>
5.87677

> <r_epik_Ionization_Penalty_Neutral>
0.00227107

> <r_epik_State_Penalty>
5.88193

> <r_epik_Charging_Adjusted_Penalty>
11.7587

> <i_epik_Tot_Q>
-1

> <i_epik_Tot_abs_Q>
1

> <r_epik_Metal_State_Penalty>
2.21794

> <b_epik_Metal_Only>
1

> <s_lp_Force_Field>
OPLS_2005

> <r_lp_Energy>
46.2215

> <b_lp_Chiralities_Consistent>
1

> <s_lp_Variant>
AV-unprocessed.smi:188-3

> <Gold.Version>
5.8.1

> <Gold.Id.Protein>
6NUR|6NUR_protein|mol2

> <Gold.PLP.Fitness>
39.2482

> <Gold.PLP.PLP>
-34.1176

> <Gold.PLP.part.hbond>
-4.2086

> <Gold.PLP.part.metal>
0.0000

> <Gold.PLP.part.buried>
-6.5622

> <Gold.PLP.part.nonpolar>
-22.4622

> <Gold.PLP.part.repulsive>
0.2611

> <Gold.PLP.ligand.clash>
0.0000

> <Gold.PLP.ligand.torsion>
1.1272

> <Gold.PLP.Chemscore.Hbond>
1.3068

> <Gold.PLP.Chemscore.CHOScore>
0.9204

> <Gold.PLP.Chemscore.Metal>
0.0000

> <Gold.Chemscore.Hbonds>
donor molecule, donor type, donor heavy atom, donor atom, acceptor molecule, acceptor atom, score
      P1  H  6896  6908       L1     5  1.00
      P1  H  7997  8008       L1    13  0.37
      L1  C    17    35       P1  8028  0.78

> <Gold.PLP.Chemscore.Internal.Correction>
0.7034

> <Gold.Rescore>
     Score         DG    S(hbond)    S(metal)    S(lipo)     H(rot)  DE(clash)    DE(int)     intcor
      8.87     -10.23       1.02        0.00      73.91       2.84       0.03       1.33       ----

> <Gold.Chemscore.Fitness>
8.8719

> <Gold.Chemscore.DG>
-10.2349

> <Gold.Chemscore.ZeroCoef>
-5.4800

> <Gold.Chemscore.Hbond>
1.0152

> <Gold.Chemscore.Metal>
0.0000

> <Gold.Chemscore.Lipo>
73.9077

> <Gold.Chemscore.Internal_Hbond>
0.0000

> <Gold.Chemscore.DEClash>
0.0308

> <Gold.Chemscore.DEInternal>
1.3323

> <Gold.Chemscore.Rot>
2.8450

> <Gold.Chemscore.Internal.Correction>
   9.000000E+99

> <Gold.Chemscore.Hbonds>
donor molecule, donor type, donor heavy atom, donor atom, acceptor molecule, acceptor atom, score
      P1  H  6896  6908       L1     5  0.99
      P1  H  7997  8008       L1    13  0.02

> <Gold.Chemscore.Hbond.Weighted>
-3.3908

> <Gold.Chemscore.Metal.Weighted>
-0.0000

> <Gold.Chemscore.Lipo.Weighted>
-8.6472

> <Gold.Chemscore.Internal_Hbond.Weighted>
0.0000

> <Gold.Chemscore.DEClash.Weighted>
0.0308

> <Gold.Chemscore.DEInternal.Weighted>
1.3323

> <Gold.Chemscore.Rot.Weighted>
7.2831

> <Gold.Chemscore.Internal.Correction.Weighted>
   9.000000E+99

> <Gold.Protein.RotatedTorsions>
[ 6907 6896 6895 6894 ] final  115.32 input  -60.11 | X-H torsion
[ 7974 7965 7964 7962 ] final  -32.23 input  175.53 | X-H torsion
[ 8008 7997 7996 7995 ] final  -62.68 input   59.86 | X-H torsion
[ 10167 10162 10161 10158 ] final  115.70 input  -65.29 | X-H torsion
[ 10718 10713 10712 10709 ] final -164.03 input   66.30 | X-H torsion
[ 10763 10752 10751 10750 ] final -157.42 input  -60.55 | X-H torsion
[ 11005 11000 10999 10996 ] final   43.44 input  -57.11 | X-H torsion

> <Gold.Protein.ActiveResidues>
 VAL166  LYS551  ARG553  GLY616  TRP617  ASP618  TYR619  PRO620  LYS621  CYS622 
 ASP623  PHE694  ASN695  SER759  ASP760  ASP761  ALA762  ILE779  LEU786  VAL792 
 PHE793  MET794  SER795  GLU796  ALA797  LYS798  CYS799  TRP800  GLU811  SER814 

> <Gold.Protein.RotatedAtoms>
  152.4748  133.8114  159.7004 H   0  0  0  0  0  0  0  0  0  0  0  0  # atno 6907 bound_to 6896
  150.8759  133.7430  159.2953 H   0  0  0  0  0  0  0  0  0  0  0  0  # atno 6908 bound_to 6896
  151.4950  135.1062  159.9866 H   0  0  0  0  0  0  0  0  0  0  0  0  # atno 6909 bound_to 6896
  146.1006  140.5767  142.8823 H   0  0  0  0  0  0  0  0  0  0  0  0  # atno 7974 bound_to 7965
  154.4513  140.0991  156.6625 H   0  0  0  0  0  0  0  0  0  0  0  0  # atno 8008 bound_to 7997
  155.5277  140.3480  155.4401 H   0  0  0  0  0  0  0  0  0  0  0  0  # atno 8009 bound_to 7997
  156.0686  140.1344  156.9845 H   0  0  0  0  0  0  0  0  0  0  0  0  # atno 8010 bound_to 7997
  139.6299  144.7113  151.2454 H   0  0  0  0  0  0  0  0  0  0  0  0  # atno 10167 bound_to 10162
  156.6332  130.8938  151.2981 H   0  0  0  0  0  0  0  0  0  0  0  0  # atno 10718 bound_to 10713
  154.7637  135.3125  154.8329 H   0  0  0  0  0  0  0  0  0  0  0  0  # atno 10763 bound_to 10752
  153.9082  135.6808  153.4756 H   0  0  0  0  0  0  0  0  0  0  0  0  # atno 10764 bound_to 10752
  153.1240  135.4809  154.9174 H   0  0  0  0  0  0  0  0  0  0  0  0  # atno 10765 bound_to 10752
  140.1644  134.4300  155.8296 H   0  0  0  0  0  0  0  0  0  0  0  0  # atno 11005 bound_to 11000
  144.7430  140.4992  143.6856 LP  0  0  0  0  0  0  0  0  0  0  0  0  # atno 17320 bound_to 7965
  145.5862  139.1492  143.3208 LP  0  0  0  0  0  0  0  0  0  0  0  0  # atno 17321 bound_to 7965
  140.7433  143.6499  150.8258 LP  0  0  0  0  0  0  0  0  0  0  0  0  # atno 17342 bound_to 10162
  140.0123  143.5630  152.2834 LP  0  0  0  0  0  0  0  0  0  0  0  0  # atno 17343 bound_to 10162
  157.7193  130.9538  150.1377 LP  0  0  0  0  0  0  0  0  0  0  0  0  # atno 17370 bound_to 10713
  156.2218  130.3674  149.8547 LP  0  0  0  0  0  0  0  0  0  0  0  0  # atno 17371 bound_to 10713
  141.2212  133.6928  156.7652 LP  0  0  0  0  0  0  0  0  0  0  0  0  # atno 17394 bound_to 11000
  140.2451  134.8584  157.3612 LP  0  0  0  0  0  0  0  0  0  0  0  0  # atno 17395 bound_to 11000

$$$$
