AV-unprocessed.smi:2203|AV-procd|sdf|8935|dock9
  -GOLD-   2272012153D 1   1.00000     0.00000
 Structure written by MMmdl.
 48 49  0  0  0  0  0  0  0  0  1 V2000
  147.6083  141.2989  154.1937 C   0  0  0  0  0  0  0  0  0  0  0  0
  148.9458  141.1621  154.8633 C   0  0  0  0  0  0  0  0  0  0  0  0
  149.4088  142.1627  155.5926 N   0  0  0  0  0  0  0  0  0  0  0  0
  150.6026  141.7346  156.0529 N   0  0  0  0  0  0  0  0  0  0  0  0
  151.3909  142.6136  156.9040 C   0  0  0  0  0  0  0  0  0  0  0  0
  150.9906  142.5389  158.3933 C   0  0  0  0  0  0  0  0  0  0  0  0
  151.4822  143.7806  159.1511 C   0  0  0  0  0  0  0  0  0  0  0  0
  151.4776  141.2511  159.0798 C   0  0  0  0  0  0  0  0  0  0  0  0
  150.8877  140.4523  155.6192 C   0  0  0  0  0  0  0  0  0  0  0  0
  152.1436  139.7329  155.9965 C   0  0  0  0  0  0  0  0  0  0  0  0
  149.8367  140.0492  154.8393 C   0  0  0  0  0  0  0  0  0  0  0  0
  149.6481  138.7358  154.1236 C   0  0  0  0  0  0  0  0  0  0  0  0
  149.8139  137.5854  155.1160 C   0  0  0  0  0  0  0  0  0  0  0  0
  150.0489  137.8228  156.3007 O   0  0  0  0  0  0  0  0  0  0  0  0
  149.6804  136.3459  154.6232 N   0  0  0  0  0  0  0  0  0  0  0  0
  149.7847  135.1284  155.4145 C   0  0  0  0  0  0  0  0  0  0  0  0
  149.8314  133.8942  154.5035 C   0  0  2  0  0  0  0  0  0  0  0  0
  148.5103  133.6091  153.7894 C   0  0  0  0  0  0  0  0  0  0  0  0
  148.5901  132.1152  153.5753 C   0  0  0  0  0  0  0  0  0  0  0  0
  149.2418  131.6579  154.8755 C   0  0  0  0  0  0  0  0  0  0  0  0
  150.1087  132.7193  155.2650 O   0  0  0  0  0  0  0  0  0  0  0  0
  146.8338  140.7895  154.7672 H   0  0  0  0  0  0  0  0  0  0  0  0
  147.6222  140.8643  153.1943 H   0  0  0  0  0  0  0  0  0  0  0  0
  147.3143  142.3443  154.0923 H   0  0  0  0  0  0  0  0  0  0  0  0
  152.4465  142.3611  156.7886 H   0  0  0  0  0  0  0  0  0  0  0  0
  151.2834  143.6336  156.5344 H   0  0  0  0  0  0  0  0  0  0  0  0
  149.9017  142.5422  158.4483 H   0  0  0  0  0  0  0  0  0  0  0  0
  152.5707  143.8436  159.1450 H   0  0  0  0  0  0  0  0  0  0  0  0
  151.1554  143.7621  160.1914 H   0  0  0  0  0  0  0  0  0  0  0  0
  151.0928  144.6946  158.7017 H   0  0  0  0  0  0  0  0  0  0  0  0
  152.5633  141.1634  159.0286 H   0  0  0  0  0  0  0  0  0  0  0  0
  151.0487  140.3620  158.6176 H   0  0  0  0  0  0  0  0  0  0  0  0
  151.1920  141.2360  160.1318 H   0  0  0  0  0  0  0  0  0  0  0  0
  152.0798  138.6733  155.7493 H   0  0  0  0  0  0  0  0  0  0  0  0
  152.3339  139.8072  157.0670 H   0  0  0  0  0  0  0  0  0  0  0  0
  153.0013  140.1474  155.4671 H   0  0  0  0  0  0  0  0  0  0  0  0
  148.6665  138.6735  153.6523 H   0  0  0  0  0  0  0  0  0  0  0  0
  150.3723  138.6130  153.3178 H   0  0  0  0  0  0  0  0  0  0  0  0
  149.4927  136.2386  153.6371 H   0  0  0  0  0  0  0  0  0  0  0  0
  150.6758  135.1649  156.0433 H   0  0  0  0  0  0  0  0  0  0  0  0
  148.9219  135.0681  156.0792 H   0  0  0  0  0  0  0  0  0  0  0  0
  150.6208  134.0031  153.7578 H   0  0  0  0  0  0  0  0  0  0  0  0
  147.6628  133.8452  154.4349 H   0  0  0  0  0  0  0  0  0  0  0  0
  148.3990  134.1702  152.8613 H   0  0  0  0  0  0  0  0  0  0  0  0
  147.6189  131.6525  153.3980 H   0  0  0  0  0  0  0  0  0  0  0  0
  149.2389  131.8908  152.7275 H   0  0  0  0  0  0  0  0  0  0  0  0
  148.4875  131.5247  155.6521 H   0  0  0  0  0  0  0  0  0  0  0  0
  149.7833  130.7183  154.7646 H   0  0  0  0  0  0  0  0  0  0  0  0
  1  2  1  0  0  0  0
  1 22  1  0  0  0  0
  1 23  1  0  0  0  0
  1 24  1  0  0  0  0
  2 11  1  0  0  0  0
  2  3  2  0  0  0  0
  3  4  1  0  0  0  0
  4  5  1  0  0  0  0
  4  9  1  0  0  0  0
  5  6  1  0  0  0  0
  5 25  1  0  0  0  0
  5 26  1  0  0  0  0
  6  7  1  0  0  0  0
  6  8  1  0  0  0  0
  6 27  1  0  0  0  0
  7 28  1  0  0  0  0
  7 29  1  0  0  0  0
  7 30  1  0  0  0  0
  8 31  1  0  0  0  0
  8 32  1  0  0  0  0
  8 33  1  0  0  0  0
  9 10  1  0  0  0  0
  9 11  2  0  0  0  0
 10 34  1  0  0  0  0
 10 35  1  0  0  0  0
 10 36  1  0  0  0  0
 11 12  1  0  0  0  0
 12 13  1  0  0  0  0
 12 37  1  0  0  0  0
 12 38  1  0  0  0  0
 13 14  2  0  0  0  0
 13 15  1  0  0  0  0
 15 16  1  0  0  0  0
 15 39  1  0  0  0  0
 16 17  1  0  0  0  0
 16 40  1  0  0  0  0
 16 41  1  0  0  0  0
 17 21  1  0  0  0  0
 17 18  1  0  0  0  0
 17 42  1  0  0  0  0
 18 19  1  0  0  0  0
 18 43  1  0  0  0  0
 18 44  1  0  0  0  0
 19 20  1  0  0  0  0
 19 45  1  0  0  0  0
 19 46  1  0  0  0  0
 20 21  1  0  0  0  0
 20 47  1  0  0  0  0
 20 48  1  0  0  0  0
M  END
> <s_m_source_file>
AV-unprocessed.smi

> <i_m_source_file_index>
2203

> <i_lp_mmshare_version>
43012

> <i_f3d_flags>
0

> <s_epik_input>
W0NIM11jMW5uKFtDSDJdW0NIXShbQ0gzXSlbQ0gzXSljKFtDSDNdKWMxW0NIMl1DKD1PKVtOSF1bQ0gyXVtDQEBIXTJbQ0gyXVtDSDJdW0NIMl1PMg==

> <s_epik_cmdline>
J2VwaWtfcHl0aG9uJywgJy1waCcsICc3LjAnLCAnLXRuJywgJzgnLCAnLW1hJywgJzIwMCcsICctbWV0YWxfYmluZGluZycsICctaW1hZScsICc8aW5maWxlLm1hZT4nLCAnLW9tYWUnLCAnPG91dGZpbGUubWFlPic=

> <r_lp_tautomer_probability>
1

> <r_epik_Ionization_Penalty>
0.00306713

> <r_epik_Ionization_Penalty_Charging>
0

> <r_epik_Ionization_Penalty_Neutral>
0.00306713

> <r_epik_State_Penalty>
0.00215672

> <r_epik_Charging_Adjusted_Penalty>
0.00215672

> <i_epik_Tot_Q>
0

> <i_epik_Tot_abs_Q>
0

> <r_epik_Metal_State_Penalty>
-0

> <b_epik_Metal_Only>
0

> <s_lp_Force_Field>
OPLS_2005

> <r_lp_Energy>
15.5636

> <b_lp_Chiralities_Consistent>
1

> <s_lp_Variant>
AV-unprocessed.smi:2203-1

> <Gold.Version>
5.8.1

> <Gold.Id.Protein>
6NUR|6NUR_protein|mol2

> <Gold.PLP.Fitness>
40.1397

> <Gold.PLP.PLP>
-38.2911

> <Gold.PLP.part.hbond>
-1.0000

> <Gold.PLP.part.metal>
0.0000

> <Gold.PLP.part.buried>
-4.0376

> <Gold.PLP.part.nonpolar>
-35.4125

> <Gold.PLP.part.repulsive>
3.0049

> <Gold.PLP.ligand.clash>
0.0000

> <Gold.PLP.ligand.torsion>
0.6110

> <Gold.PLP.Chemscore.Hbond>
1.0000

> <Gold.PLP.Chemscore.CHOScore>
0.0000

> <Gold.PLP.Chemscore.Metal>
0.0000

> <Gold.Chemscore.Hbonds>
donor molecule, donor type, donor heavy atom, donor atom, acceptor molecule, acceptor atom, score
      L1  H    15    39       P1  7948  1.00

> <Gold.PLP.Chemscore.Internal.Correction>
0.0707

> <Gold.Rescore>
     Score         DG    S(hbond)    S(metal)    S(lipo)     H(rot)  DE(clash)    DE(int)     intcor
     12.68     -15.70       0.96        0.00      95.72       1.63       1.57       1.44       ----

> <Gold.Chemscore.Fitness>
12.6835

> <Gold.Chemscore.DG>
-15.6973

> <Gold.Chemscore.ZeroCoef>
-5.4800

> <Gold.Chemscore.Hbond>
0.9576

> <Gold.Chemscore.Metal>
0.0000

> <Gold.Chemscore.Lipo>
95.7195

> <Gold.Chemscore.Internal_Hbond>
0.0000

> <Gold.Chemscore.DEClash>
1.5727

> <Gold.Chemscore.DEInternal>
1.4411

> <Gold.Chemscore.Rot>
1.6329

> <Gold.Chemscore.Internal.Correction>
   9.000000E+99

> <Gold.Chemscore.Hbonds>
donor molecule, donor type, donor heavy atom, donor atom, acceptor molecule, acceptor atom, score
      L1  H    15    39       P1  7948  0.65

> <Gold.Chemscore.Hbond.Weighted>
-3.1984

> <Gold.Chemscore.Metal.Weighted>
-0.0000

> <Gold.Chemscore.Lipo.Weighted>
-11.1992

> <Gold.Chemscore.Internal_Hbond.Weighted>
0.0000

> <Gold.Chemscore.DEClash.Weighted>
1.5727

> <Gold.Chemscore.DEInternal.Weighted>
1.4411

> <Gold.Chemscore.Rot.Weighted>
4.1803

> <Gold.Chemscore.Internal.Correction.Weighted>
   9.000000E+99

> <Gold.Protein.RotatedTorsions>
[ 6907 6896 6895 6894 ] final   38.41 input  -60.11 | X-H torsion
[ 7974 7965 7964 7962 ] final    9.96 input  175.53 | X-H torsion
[ 8008 7997 7996 7995 ] final  -95.23 input   59.86 | X-H torsion
[ 10167 10162 10161 10158 ] final   83.26 input  -65.29 | X-H torsion
[ 10718 10713 10712 10709 ] final  -26.45 input   66.30 | X-H torsion
[ 10763 10752 10751 10750 ] final  141.93 input  -60.55 | X-H torsion
[ 11005 11000 10999 10996 ] final   81.68 input  -57.11 | X-H torsion

> <Gold.Protein.ActiveResidues>
 VAL166  LYS551  ARG553  GLY616  TRP617  ASP618  TYR619  PRO620  LYS621  CYS622 
 ASP623  PHE694  ASN695  SER759  ASP760  ASP761  ALA762  ILE779  LEU786  VAL792 
 PHE793  MET794  SER795  GLU796  ALA797  LYS798  CYS799  TRP800  GLU811  SER814 

> <Gold.Protein.RotatedAtoms>
  152.1561  134.8949  160.0544 H   0  0  0  0  0  0  0  0  0  0  0  0  # atno 6907 bound_to 6896
  151.9963  133.3804  159.4172 H   0  0  0  0  0  0  0  0  0  0  0  0  # atno 6908 bound_to 6896
  150.6881  134.3805  159.5076 H   0  0  0  0  0  0  0  0  0  0  0  0  # atno 6909 bound_to 6896
  146.2396  139.9705  142.8447 H   0  0  0  0  0  0  0  0  0  0  0  0  # atno 7974 bound_to 7965
  154.7587  140.0482  157.0955 H   0  0  0  0  0  0  0  0  0  0  0  0  # atno 8008 bound_to 7997
  154.9965  140.3119  155.4865 H   0  0  0  0  0  0  0  0  0  0  0  0  # atno 8009 bound_to 7997
  156.2900  140.2209  156.5073 H   0  0  0  0  0  0  0  0  0  0  0  0  # atno 8010 bound_to 7997
  139.9202  144.6217  150.8448 H   0  0  0  0  0  0  0  0  0  0  0  0  # atno 10167 bound_to 10162
  156.4511  130.4484  149.6989 H   0  0  0  0  0  0  0  0  0  0  0  0  # atno 10718 bound_to 10713
  153.9474  135.2973  155.3440 H   0  0  0  0  0  0  0  0  0  0  0  0  # atno 10763 bound_to 10752
  154.7445  135.5009  153.9182 H   0  0  0  0  0  0  0  0  0  0  0  0  # atno 10764 bound_to 10752
  153.1011  135.6734  153.9778 H   0  0  0  0  0  0  0  0  0  0  0  0  # atno 10765 bound_to 10752
  139.9089  134.8015  156.2074 H   0  0  0  0  0  0  0  0  0  0  0  0  # atno 11005 bound_to 11000
  145.1685  140.9709  143.4335 LP  0  0  0  0  0  0  0  0  0  0  0  0  # atno 17320 bound_to 7965
  145.0050  139.3563  143.6148 LP  0  0  0  0  0  0  0  0  0  0  0  0  # atno 17321 bound_to 7965
  140.7664  143.3302  151.2426 LP  0  0  0  0  0  0  0  0  0  0  0  0  # atno 17342 bound_to 10162
  139.6868  143.9760  152.2838 LP  0  0  0  0  0  0  0  0  0  0  0  0  # atno 17343 bound_to 10162
  156.3815  130.7581  151.2575 LP  0  0  0  0  0  0  0  0  0  0  0  0  # atno 17370 bound_to 10713
  157.7503  131.0294  150.4092 LP  0  0  0  0  0  0  0  0  0  0  0  0  # atno 17371 bound_to 10713
  141.0487  133.6900  156.1731 LP  0  0  0  0  0  0  0  0  0  0  0  0  # atno 17394 bound_to 11000
  140.6844  134.4733  157.5589 LP  0  0  0  0  0  0  0  0  0  0  0  0  # atno 17395 bound_to 11000

$$$$
