#       Name:                AV-unprocessed.smi:2830
#       Creating user name   scv26
#       Creation time:       Fri Mar 27 15:35:30 2020


#       File generated by GOLD software.
#

@<TRIPOS>MOLECULE
AV-unprocessed.smi:2830
    34    34     1
SMALL
NO_CHARGES


@<TRIPOS>ATOM
      1 ****        -4.3545   0.3418  -0.4745 C.3            1 S1                 0.0000
      2 ****        -2.9422   0.3668  -0.5831 O.3            1 S1                 0.0000
      3 ****        -2.3518  -0.8956  -0.3165 C.3            1 S1                 0.0000
      4 ****        -0.8226  -0.7741  -0.4461 C.3            1 S1                 0.0000
      5 ****        -0.2956   0.0153   0.6656 N.pl3          1 S1                 0.0000
      6 ****         0.9889   0.5801   0.6453 C.ar           1 S1                 0.0000
      7 ****         1.4679   1.1978   1.8200 C.ar           1 S1                 0.0000
      8 ****         2.7557   1.7685   1.8130 C.ar           1 S1                 0.0000
      9 ****         3.5197   1.7029   0.6313 C.ar           1 S1                 0.0000
     10 ****         4.8537   2.2753   0.5737 C.1            1 S1                 0.0000
     11 ****         5.9162   2.7312   0.5279 N.1            1 S1                 0.0000
     12 ****         2.9565   1.0675  -0.4938 C.ar           1 S1                 0.0000
     13 ****         1.7221   0.5200  -0.4925 N.ar           1 S1                 0.0000
     14 ****        -0.2000  -2.1761  -0.5447 C.2            1 S1                 0.0000
     15 ****         0.0207  -2.6577  -1.7707 N.am           1 S1                 0.0000
     16 ****         0.0644  -2.8220   0.4681 O.2            1 S1                 0.0000
     17 ****        -4.7553   1.3322  -0.6904 H              1 S1                 0.0000
     18 ****        -4.6679   0.0638   0.5326 H              1 S1                 0.0000
     19 ****        -4.7928  -0.3607  -1.1848 H              1 S1                 0.0000
     20 ****        -2.6284  -1.2460   0.6800 H              1 S1                 0.0000
     21 ****        -2.7403  -1.6209  -1.0345 H              1 S1                 0.0000
     22 ****        -0.6152  -0.2460  -1.3788 H              1 S1                 0.0000
     23 ****        -0.8277   0.0374   1.5232 H              1 S1                 0.0000
     24 ****         0.8625   1.2342   2.7139 H              1 S1                 0.0000
     25 ****         3.1441   2.2454   2.7014 H              1 S1                 0.0000
     26 ****         3.5054   0.9936  -1.4216 H              1 S1                 0.0000
     27 ****         0.4201  -3.5778  -1.8866 H              1 S1                 0.0000
     28 ****        -0.2213  -2.1018  -2.5781 H              1 S1                 0.0000
     29 ****        -2.5825   1.0330   0.0702 LP             1 S1                 0.0000
     30 ****        -2.6973   0.6452  -1.5119 LP             1 S1                 0.0000
     31 ****         6.8345   3.1252   0.4883 LP             1 S1                 0.0000
     32 ****         1.3573   0.0800  -1.3131 LP             1 S1                 0.0000
     33 ****        -0.1255  -2.4362   1.3709 LP             1 S1                 0.0000
     34 ****         0.4693  -3.7329   0.3887 LP             1 S1                 0.0000
@<TRIPOS>BOND
    1    1    2 1     
    2    1   17 1     
    3    1   18 1     
    4    1   19 1     
    5    2    3 1     
    6    3    4 1     
    7    3   20 1     
    8    3   21 1     
    9    4    5 1     
   10    4   14 1     
   11    4   22 1     
   12    5    6 1     
   13    5   23 1     
   14    6   13 ar    
   15    6    7 ar    
   16    7    8 ar    
   17    7   24 1     
   18    8    9 ar    
   19    8   25 1     
   20    9   10 1     
   21    9   12 ar    
   22   10   11 3     
   23   12   13 ar    
   24   12   26 1     
   25   14   15 am    
   26   14   16 2     
   27   15   27 1     
   28   15   28 1     
   29    2   29 1     
   30    2   30 1     
   31   11   31 1     
   32   13   32 1     
   33   16   33 1     
   34   16   34 1     
@<TRIPOS>SUBSTRUCTURE
      1 S1             1
@<TRIPOS>SET
LONE_PAIRS      STATIC     ATOMS    <user>   **** ""
6 29 30 31 32 33 34
DONOR_HYDROGENS      STATIC     ATOMS    <user>   **** ""
3 23 27 28
ATOM$BLUE        STATIC     ATOMS    COLORGROUP SYSTEM
6 29 30 31 32 33 34
ATOM$RED        STATIC     ATOMS    COLORGROUP SYSTEM
3 23 27 28
