AV-unprocessed.smi:1199|AV-procd|sdf|5015|dock6
  -GOLD-   22720 4 33D 1   1.00000     0.00000
 Structure written by MMmdl.
 40 41  0  0  0  0  0  0  0  0  2 V2000
  145.7081  143.1034  154.3924 C   0  0  0  0  0  0  0  0  0  0  0  0
  146.5488  141.9537  154.9752 C   0  0  1  0  0  0  0  0  0  0  0  0
  148.0619  142.2829  155.0178 C   0  0  0  0  0  0  0  0  0  0  0  0
  148.9618  141.1484  155.2395 N   0  0  0  0  0  0  0  0  0  0  0  0
  149.0889  140.2701  154.0798 C   0  0  0  0  0  0  0  0  0  0  0  0
  150.0779  139.1173  154.3295 C   0  0  0  0  0  0  0  0  0  0  0  0
  151.3425  139.6403  154.7208 O   0  0  0  0  0  0  0  0  0  0  0  0
  151.2589  140.4487  155.8891 C   0  0  0  0  0  0  0  0  0  0  0  0
  150.2876  141.6137  155.6351 C   0  0  0  0  0  0  0  0  0  0  0  0
  146.0563  141.7008  156.3267 N   0  0  0  0  0  0  0  0  0  0  0  0
  144.8178  141.2877  156.6385 C   0  0  0  0  0  0  0  0  0  0  0  0
  143.9467  141.0768  155.7930 O   0  0  0  0  0  0  0  0  0  0  0  0
  144.5371  141.0982  158.1376 C   0  0  0  0  0  0  0  0  0  0  0  0
  144.7729  142.3016  158.9487 N   0  0  0  0  0  0  0  0  0  0  0  0
  145.8044  142.1333  159.9683 N   0  5  0  0  0  0  0  0  0  0  0  0
  146.1332  143.1895  160.7584 C   0  0  0  0  0  0  0  0  0  0  0  0
  147.0060  143.1297  161.6214 O   0  0  0  0  0  0  0  0  0  0  0  0
  145.4104  144.4364  160.5695 C   0  0  0  0  0  0  0  0  0  0  0  0
  144.4416  144.5543  159.6403 C   0  0  0  0  0  0  0  0  0  0  0  0
  144.0624  143.4513  158.7656 C   0  0  0  0  0  0  0  0  0  0  0  0
  143.1722  143.5490  157.9207 O   0  0  0  0  0  0  0  0  0  0  0  0
  145.9904  143.3485  153.3704 H   0  0  0  0  0  0  0  0  0  0  0  0
  145.8152  144.0122  154.9860 H   0  0  0  0  0  0  0  0  0  0  0  0
  144.6493  142.8423  154.3785 H   0  0  0  0  0  0  0  0  0  0  0  0
  146.3831  141.0580  154.3734 H   0  0  0  0  0  0  0  0  0  0  0  0
  148.3500  142.8166  154.1106 H   0  0  0  0  0  0  0  0  0  0  0  0
  148.2313  142.9935  155.8283 H   0  0  0  0  0  0  0  0  0  0  0  0
  148.1219  139.8336  153.8355 H   0  0  0  0  0  0  0  0  0  0  0  0
  149.4113  140.8458  153.2108 H   0  0  0  0  0  0  0  0  0  0  0  0
  149.6998  138.4469  155.1029 H   0  0  0  0  0  0  0  0  0  0  0  0
  150.2025  138.5224  153.4247 H   0  0  0  0  0  0  0  0  0  0  0  0
  150.9282  139.8461  156.7367 H   0  0  0  0  0  0  0  0  0  0  0  0
  152.2513  140.8279  156.1328 H   0  0  0  0  0  0  0  0  0  0  0  0
  150.6990  142.2607  154.8585 H   0  0  0  0  0  0  0  0  0  0  0  0
  150.2130  142.2204  156.5383 H   0  0  0  0  0  0  0  0  0  0  0  0
  146.7055  141.8533  157.0847 H   0  0  0  0  0  0  0  0  0  0  0  0
  143.5045  140.7701  158.2695 H   0  0  0  0  0  0  0  0  0  0  0  0
  145.1541  140.2715  158.4939 H   0  0  0  0  0  0  0  0  0  0  0  0
  145.6540  145.2860  161.1902 H   0  0  0  0  0  0  0  0  0  0  0  0
  143.9294  145.4990  159.5359 H   0  0  0  0  0  0  0  0  0  0  0  0
  1  2  1  0  0  0  0
  1 22  1  0  0  0  0
  1 23  1  0  0  0  0
  1 24  1  0  0  0  0
  2  3  1  0  0  0  0
  2 10  1  0  0  0  0
  2 25  1  0  0  0  0
  3  4  1  0  0  0  0
  3 26  1  0  0  0  0
  3 27  1  0  0  0  0
  4  9  1  0  0  0  0
  4  5  1  0  0  0  0
  5  6  1  0  0  0  0
  5 28  1  0  0  0  0
  5 29  1  0  0  0  0
  6  7  1  0  0  0  0
  6 30  1  0  0  0  0
  6 31  1  0  0  0  0
  7  8  1  0  0  0  0
  8  9  1  0  0  0  0
  8 32  1  0  0  0  0
  8 33  1  0  0  0  0
  9 34  1  0  0  0  0
  9 35  1  0  0  0  0
 10 11  1  0  0  0  0
 10 36  1  0  0  0  0
 11 12  2  0  0  0  0
 11 13  1  0  0  0  0
 13 37  1  0  0  0  0
 13 38  1  0  0  0  0
 13 14  1  0  0  0  0
 14 15  1  0  0  0  0
 14 20  1  0  0  0  0
 15 16  1  0  0  0  0
 16 17  2  0  0  0  0
 16 18  1  0  0  0  0
 18 39  1  0  0  0  0
 18 19  2  0  0  0  0
 19 40  1  0  0  0  0
 19 20  1  0  0  0  0
 20 21  2  0  0  0  0
M  CHG  1  15  -1
M  END
> <s_m_source_file>
AV-unprocessed.smi

> <i_m_source_file_index>
1199

> <i_lp_mmshare_version>
43012

> <i_f3d_flags>
0

> <s_epik_input>
W0NIMl0xW0NIMl1PW0NIMl1bQ0gyXU4xW0NIMl1bQ0BASF0oW0NIM10pW05IXUMoPU8pW0NIMl1uMltuSF1jKD1PKVtjSF1bY0hdYzI9Tw==

> <s_epik_cmdline>
J2VwaWtfcHl0aG9uJywgJy1waCcsICc3LjAnLCAnLXRuJywgJzgnLCAnLW1hJywgJzIwMCcsICctbWV0YWxfYmluZGluZycsICctaW1hZScsICc8aW5maWxlLm1hZT4nLCAnLW9tYWUnLCAnPG91dGZpbGUubWFlPic=

> <r_lp_tautomer_probability>
1

> <r_epik_Ionization_Penalty>
0.334996

> <r_epik_Ionization_Penalty_Charging>
0.0976136

> <r_epik_Ionization_Penalty_Neutral>
0.237382

> <r_epik_State_Penalty>
0.26804

> <r_epik_Charging_Adjusted_Penalty>
0.365653

> <i_epik_Tot_Q>
-1

> <i_epik_Tot_abs_Q>
1

> <r_epik_Metal_State_Penalty>
0.26804

> <b_epik_Metal_Only>
0

> <s_lp_Force_Field>
OPLS_2005

> <r_lp_Energy>
39.9629

> <b_lp_Chiralities_Consistent>
1

> <s_lp_Variant>
AV-unprocessed.smi:1199-2

> <Gold.Version>
5.8.1

> <Gold.Id.Protein>
6NUR|6NUR_protein|mol2

> <Gold.PLP.Fitness>
37.0996

> <Gold.PLP.PLP>
-25.5578

> <Gold.PLP.part.hbond>
-3.3741

> <Gold.PLP.part.metal>
0.0000

> <Gold.PLP.part.buried>
-0.4799

> <Gold.PLP.part.nonpolar>
-21.8188

> <Gold.PLP.part.repulsive>
0.3523

> <Gold.PLP.ligand.clash>
0.0000

> <Gold.PLP.ligand.torsion>
0.2423

> <Gold.PLP.Chemscore.Hbond>
3.9920

> <Gold.PLP.Chemscore.CHOScore>
0.0000

> <Gold.PLP.Chemscore.Metal>
0.0000

> <Gold.Chemscore.Hbonds>
donor molecule, donor type, donor heavy atom, donor atom, acceptor molecule, acceptor atom, score
      P1  H  6933  6944       L1    17  0.91
      P1  H  6934  6946       L1    15  1.90
      P1  H  7989  7998       L1     7  1.00

> <Gold.PLP.Chemscore.Internal.Correction>
0.0504

> <Gold.Rescore>
     Score         DG    S(hbond)    S(metal)    S(lipo)     H(rot)  DE(clash)    DE(int)     intcor
     11.34     -11.68       1.89        0.00      49.36       2.30       0.06       0.28       ----

> <Gold.Chemscore.Fitness>
11.3418

> <Gold.Chemscore.DG>
-11.6818

> <Gold.Chemscore.ZeroCoef>
-5.4800

> <Gold.Chemscore.Hbond>
1.8874

> <Gold.Chemscore.Metal>
0.0000

> <Gold.Chemscore.Lipo>
49.3550

> <Gold.Chemscore.Internal_Hbond>
0.0000

> <Gold.Chemscore.DEClash>
0.0614

> <Gold.Chemscore.DEInternal>
0.2786

> <Gold.Chemscore.Rot>
2.2955

> <Gold.Chemscore.Internal.Correction>
   9.000000E+99

> <Gold.Chemscore.Hbonds>
donor molecule, donor type, donor heavy atom, donor atom, acceptor molecule, acceptor atom, score
      P1  H  6933  6944       L1    17  0.89
      P1  H  6934  6946       L1    15  0.22
      P1  H  7989  7998       L1     7  0.12

> <Gold.Chemscore.Hbond.Weighted>
-6.3039

> <Gold.Chemscore.Metal.Weighted>
-0.0000

> <Gold.Chemscore.Lipo.Weighted>
-5.7745

> <Gold.Chemscore.Internal_Hbond.Weighted>
0.0000

> <Gold.Chemscore.DEClash.Weighted>
0.0614

> <Gold.Chemscore.DEInternal.Weighted>
0.2786

> <Gold.Chemscore.Rot.Weighted>
5.8766

> <Gold.Chemscore.Internal.Correction.Weighted>
   9.000000E+99

> <Gold.Protein.RotatedTorsions>
[ 6907 6896 6895 6894 ] final  -74.37 input  -60.11 | X-H torsion
[ 7974 7965 7964 7962 ] final  -12.76 input  175.53 | X-H torsion
[ 8008 7997 7996 7995 ] final -160.17 input   59.86 | X-H torsion
[ 10167 10162 10161 10158 ] final  142.15 input  -65.29 | X-H torsion
[ 10718 10713 10712 10709 ] final  129.79 input   66.30 | X-H torsion
[ 10763 10752 10751 10750 ] final  134.21 input  -60.55 | X-H torsion
[ 11005 11000 10999 10996 ] final   -6.52 input  -57.11 | X-H torsion

> <Gold.Protein.ActiveResidues>
 VAL166  LYS551  ARG553  GLY616  TRP617  ASP618  TYR619  PRO620  LYS621  CYS622 
 ASP623  PHE694  ASN695  SER759  ASP760  ASP761  ALA762  ILE779  LEU786  VAL792 
 PHE793  MET794  SER795  GLU796  ALA797  LYS798  CYS799  TRP800  GLU811  SER814 

> <Gold.Protein.RotatedAtoms>
  150.7096  134.4879  159.5501 H   0  0  0  0  0  0  0  0  0  0  0  0  # atno 6907 bound_to 6896
  152.2503  134.8136  160.0456 H   0  0  0  0  0  0  0  0  0  0  0  0  # atno 6908 bound_to 6896
  151.8886  133.3476  159.3827 H   0  0  0  0  0  0  0  0  0  0  0  0  # atno 6909 bound_to 6896
  146.2140  140.3104  142.8382 H   0  0  0  0  0  0  0  0  0  0  0  0  # atno 7974 bound_to 7965
  155.7735  140.0855  157.2096 H   0  0  0  0  0  0  0  0  0  0  0  0  # atno 8008 bound_to 7997
  154.3994  140.1521  156.3027 H   0  0  0  0  0  0  0  0  0  0  0  0  # atno 8009 bound_to 7997
  155.8724  140.3425  155.5833 H   0  0  0  0  0  0  0  0  0  0  0  0  # atno 8010 bound_to 7997
  139.5001  144.6125  151.6238 H   0  0  0  0  0  0  0  0  0  0  0  0  # atno 10167 bound_to 10162
  157.5121  131.1097  150.9277 H   0  0  0  0  0  0  0  0  0  0  0  0  # atno 10718 bound_to 10713
  153.8198  135.3118  155.3409 H   0  0  0  0  0  0  0  0  0  0  0  0  # atno 10763 bound_to 10752
  154.8017  135.4722  154.0295 H   0  0  0  0  0  0  0  0  0  0  0  0  # atno 10764 bound_to 10752
  153.1700  135.6876  153.8710 H   0  0  0  0  0  0  0  0  0  0  0  0  # atno 10765 bound_to 10752
  140.7029  133.8974  155.8696 H   0  0  0  0  0  0  0  0  0  0  0  0  # atno 11005 bound_to 11000
  144.8992  140.7622  143.5877 LP  0  0  0  0  0  0  0  0  0  0  0  0  # atno 17320 bound_to 7965
  145.3029  139.1844  143.4680 LP  0  0  0  0  0  0  0  0  0  0  0  0  # atno 17321 bound_to 7965
  140.5804  143.9956  150.6265 LP  0  0  0  0  0  0  0  0  0  0  0  0  # atno 17342 bound_to 10162
  140.3103  143.3202  152.0886 LP  0  0  0  0  0  0  0  0  0  0  0  0  # atno 17343 bound_to 10162
  156.9914  130.5564  149.5303 LP  0  0  0  0  0  0  0  0  0  0  0  0  # atno 17370 bound_to 10713
  156.0296  130.5388  150.8499 LP  0  0  0  0  0  0  0  0  0  0  0  0  # atno 17371 bound_to 10713
  141.0149  134.0969  157.4183 LP  0  0  0  0  0  0  0  0  0  0  0  0  # atno 17394 bound_to 11000
  139.8892  135.0103  156.6665 LP  0  0  0  0  0  0  0  0  0  0  0  0  # atno 17395 bound_to 11000

$$$$
