AV-unprocessed.smi:160|AV-procd|sdf|1374|dock3
  -GOLD-   2262019 93D 1   1.00000     0.00000
 Structure written by MMmdl.
 28 29  0  0  0  0  0  0  0  0  2 V2000
  151.8651  137.4288  153.9624 N   0  5  0  0  0  0  0  0  0  0  0  0
  152.3435  138.4456  154.7111 C   0  0  0  0  0  0  0  0  0  0  0  0
  153.5025  138.5800  155.1032 O   0  0  0  0  0  0  0  0  0  0  0  0
  151.3143  139.4882  155.0751 C   0  0  0  0  0  0  0  0  0  0  0  0
  151.2568  140.0857  156.3070 N   0  0  0  0  0  0  0  0  0  0  0  0
  150.2212  140.8886  156.1041 C   0  0  0  0  0  0  0  0  0  0  0  0
  149.6854  140.7939  154.8838 N   0  0  0  0  0  0  0  0  0  0  0  0
  148.5455  141.5482  154.2758 C   0  0  1  0  0  0  0  0  0  0  0  0
  148.1381  140.8490  153.1378 O   0  0  0  0  0  0  0  0  0  0  0  0
  146.8379  140.2865  153.3082 C   0  0  1  0  0  0  0  0  0  0  0  0
  146.8383  138.8470  152.7702 C   0  0  0  0  0  0  0  0  0  0  0  0
  147.6332  138.7516  151.6071 O   0  0  0  0  0  0  0  0  0  0  0  0
  146.5232  140.4069  154.8039 C   0  0  2  0  0  0  0  0  0  0  0  0
  145.1409  140.5638  155.0638 O   0  0  0  0  0  0  0  0  0  0  0  0
  147.3532  141.6099  155.2388 C   0  0  2  0  0  0  0  0  0  0  0  0
  146.6668  142.8411  155.1056 O   0  0  0  0  0  0  0  0  0  0  0  0
  150.4017  139.8791  154.1846 N   0  0  0  0  0  0  0  0  0  0  0  0
  148.9701  142.5216  154.0258 H   0  0  0  0  0  0  0  0  0  0  0  0
  146.1529  140.9093  152.7305 H   0  0  0  0  0  0  0  0  0  0  0  0
  146.8732  139.5189  155.3311 H   0  0  0  0  0  0  0  0  0  0  0  0
  147.6880  141.5247  156.2739 H   0  0  0  0  0  0  0  0  0  0  0  0
  150.9304  137.0619  154.1783 H   0  0  0  0  0  0  0  0  0  0  0  0
  149.8469  141.5619  156.8608 H   0  0  0  0  0  0  0  0  0  0  0  0
  147.2480  138.1688  153.5189 H   0  0  0  0  0  0  0  0  0  0  0  0
  145.8243  138.5098  152.5527 H   0  0  0  0  0  0  0  0  0  0  0  0
  148.2853  139.4352  151.6343 H   0  0  0  0  0  0  0  0  0  0  0  0
  144.6646  140.3365  154.2795 H   0  0  0  0  0  0  0  0  0  0  0  0
  147.3078  143.5310  155.0282 H   0  0  0  0  0  0  0  0  0  0  0  0
  1  2  1  0  0  0  0
  1 22  1  0  0  0  0
  2  3  2  0  0  0  0
  2  4  1  0  0  0  0
  4 17  2  0  0  0  0
  4  5  1  0  0  0  0
  5  6  2  0  0  0  0
  6  7  1  0  0  0  0
  6 23  1  0  0  0  0
  7  8  1  0  0  0  0
  7 17  1  0  0  0  0
  8 18  1  0  0  0  0
  8 15  1  0  0  0  0
  8  9  1  0  0  0  0
  9 10  1  0  0  0  0
 10 19  1  0  0  0  0
 10 11  1  0  0  0  0
 10 13  1  0  0  0  0
 11 12  1  0  0  0  0
 11 24  1  0  0  0  0
 11 25  1  0  0  0  0
 12 26  1  0  0  0  0
 13 20  1  0  0  0  0
 13 14  1  0  0  0  0
 13 15  1  0  0  0  0
 14 27  1  0  0  0  0
 15 21  1  0  0  0  0
 15 16  1  0  0  0  0
 16 28  1  0  0  0  0
M  CHG  1   1  -1
M  END
> <s_m_source_file>
AV-unprocessed.smi

> <i_m_source_file_index>
160

> <i_lp_mmshare_version>
43012

> <i_f3d_flags>
0

> <s_epik_input>
W05IMl1DKD1PKWMxbltjSF1uKG4xKVtDQEBIXTJPW0NASF0oW0NIMl1bT0hdKVtDQEBIXShbT0hdKVtDQEhdMltPSF0=

> <s_epik_cmdline>
J2VwaWtfcHl0aG9uJywgJy1waCcsICc3LjAnLCAnLXRuJywgJzgnLCAnLW1hJywgJzIwMCcsICctbWV0YWxfYmluZGluZycsICctaW1hZScsICc8aW5maWxlLm1hZT4nLCAnLW9tYWUnLCAnPG91dGZpbGUubWFlPic=

> <r_lp_tautomer_probability>
1

> <r_epik_Ionization_Penalty>
6.6993

> <r_epik_Ionization_Penalty_Charging>
6.6993

> <r_epik_Ionization_Penalty_Neutral>
6.01698e-06

> <r_epik_State_Penalty>
6.69929

> <r_epik_Charging_Adjusted_Penalty>
13.3986

> <i_epik_Tot_Q>
-1

> <i_epik_Tot_abs_Q>
1

> <r_epik_Metal_State_Penalty>
2.62798

> <b_epik_Metal_Only>
1

> <s_epik_Chemistry_Notes>
This compound contains an acetal/aminal-like group ( X-CH(R)-Y where X, Y are N, S, or O) that may be acid/base labile, releasing an aldehyde.

> <s_lp_Force_Field>
OPLS_2005

> <r_lp_Energy>
40.9711

> <b_lp_Chiralities_Consistent>
1

> <s_lp_Variant>
AV-unprocessed.smi:160-32

> <Gold.Version>
5.8.1

> <Gold.Id.Protein>
6NUR|6NUR_protein|mol2

> <Gold.PLP.Fitness>
47.4623

> <Gold.PLP.PLP>
-29.7909

> <Gold.PLP.part.hbond>
-8.6631

> <Gold.PLP.part.metal>
0.0000

> <Gold.PLP.part.buried>
-2.0977

> <Gold.PLP.part.nonpolar>
-22.1967

> <Gold.PLP.part.repulsive>
4.1378

> <Gold.PLP.ligand.clash>
0.0000

> <Gold.PLP.ligand.torsion>
1.2742

> <Gold.PLP.Chemscore.Hbond>
6.7315

> <Gold.PLP.Chemscore.CHOScore>
0.0000

> <Gold.PLP.Chemscore.Metal>
0.0000

> <Gold.Chemscore.Hbonds>
donor molecule, donor type, donor heavy atom, donor atom, acceptor molecule, acceptor atom, score
      L1  H    12    26       P1  7957  0.90
      L1  H    14    27       P1 10175  0.96
      L1  H    16    28       P1  8028  0.60
      P1  H  7954  7966       L1    12  0.81
      P1  H  7989  7998       L1    17  0.40
      P1  H  7997  8009       L1     3  0.91
      P1  H 10752 10764       L1     1  1.79

> <Gold.PLP.Chemscore.Internal.Correction>
0.0255

> <Gold.Rescore>
     Score         DG    S(hbond)    S(metal)    S(lipo)     H(rot)  DE(clash)    DE(int)     intcor
      6.96      -9.87       3.63        0.00      22.27       4.04       1.66       1.24       ----

> <Gold.Chemscore.Fitness>
6.9617

> <Gold.Chemscore.DG>
-9.8695

> <Gold.Chemscore.ZeroCoef>
-5.4800

> <Gold.Chemscore.Hbond>
3.6310

> <Gold.Chemscore.Metal>
0.0000

> <Gold.Chemscore.Lipo>
22.2661

> <Gold.Chemscore.Internal_Hbond>
0.0000

> <Gold.Chemscore.DEClash>
1.6632

> <Gold.Chemscore.DEInternal>
1.2446

> <Gold.Chemscore.Rot>
4.0403

> <Gold.Chemscore.Internal.Correction>
   9.000000E+99

> <Gold.Chemscore.Hbonds>
donor molecule, donor type, donor heavy atom, donor atom, acceptor molecule, acceptor atom, score
      L1  H    12    26       P1  7957  0.82
      L1  H    14    27       P1 10175  0.91
      L1  H    16    28       P1  8028  0.04
      P1  H  7954  7966       L1    12  0.15
      P1  H  7997  8009       L1     3  0.83
      P1  H 10752 10764       L1     1  0.18

> <Gold.Chemscore.Hbond.Weighted>
-12.1274

> <Gold.Chemscore.Metal.Weighted>
-0.0000

> <Gold.Chemscore.Lipo.Weighted>
-2.6051

> <Gold.Chemscore.Internal_Hbond.Weighted>
0.0000

> <Gold.Chemscore.DEClash.Weighted>
1.6632

> <Gold.Chemscore.DEInternal.Weighted>
1.2446

> <Gold.Chemscore.Rot.Weighted>
10.3431

> <Gold.Chemscore.Internal.Correction.Weighted>
   9.000000E+99

> <Gold.Protein.RotatedTorsions>
[ 6907 6896 6895 6894 ] final  -18.38 input  -60.11 | X-H torsion
[ 7974 7965 7964 7962 ] final  160.90 input  175.53 | X-H torsion
[ 8008 7997 7996 7995 ] final -137.26 input   59.86 | X-H torsion
[ 10167 10162 10161 10158 ] final  118.61 input  -65.29 | X-H torsion
[ 10718 10713 10712 10709 ] final  -85.42 input   66.30 | X-H torsion
[ 10763 10752 10751 10750 ] final  -84.36 input  -60.55 | X-H torsion
[ 11005 11000 10999 10996 ] final   64.47 input  -57.11 | X-H torsion

> <Gold.Protein.ActiveResidues>
 VAL166  LYS551  ARG553  GLY616  TRP617  ASP618  TYR619  PRO620  LYS621  CYS622 
 ASP623  PHE694  ASN695  SER759  ASP760  ASP761  ALA762  ILE779  LEU786  VAL792 
 PHE793  MET794  SER795  GLU796  ALA797  LYS798  CYS799  TRP800  GLU811  SER814 

> <Gold.Protein.RotatedAtoms>
  151.2791  135.0708  159.9162 H   0  0  0  0  0  0  0  0  0  0  0  0  # atno 6907 bound_to 6896
  152.5337  134.0050  159.7922 H   0  0  0  0  0  0  0  0  0  0  0  0  # atno 6908 bound_to 6896
  151.0301  133.5748  159.2692 H   0  0  0  0  0  0  0  0  0  0  0  0  # atno 6909 bound_to 6896
  144.7713  139.7822  143.6296 H   0  0  0  0  0  0  0  0  0  0  0  0  # atno 7974 bound_to 7965
  155.4088  140.0511  157.3033 H   0  0  0  0  0  0  0  0  0  0  0  0  # atno 8008 bound_to 7997
  154.4956  140.2137  155.9414 H   0  0  0  0  0  0  0  0  0  0  0  0  # atno 8009 bound_to 7997
  156.1401  140.3156  155.8487 H   0  0  0  0  0  0  0  0  0  0  0  0  # atno 8010 bound_to 7997
  139.6100  144.7079  151.2865 H   0  0  0  0  0  0  0  0  0  0  0  0  # atno 10167 bound_to 10162
  155.9997  130.4730  150.4560 H   0  0  0  0  0  0  0  0  0  0  0  0  # atno 10718 bound_to 10713
  154.5986  135.5523  153.7351 H   0  0  0  0  0  0  0  0  0  0  0  0  # atno 10763 bound_to 10752
  153.0145  135.6361  154.1747 H   0  0  0  0  0  0  0  0  0  0  0  0  # atno 10764 bound_to 10752
  154.1687  135.2893  155.3067 H   0  0  0  0  0  0  0  0  0  0  0  0  # atno 10765 bound_to 10752
  139.9957  134.6521  156.0015 H   0  0  0  0  0  0  0  0  0  0  0  0  # atno 11005 bound_to 11000
  146.1861  139.5077  142.9835 LP  0  0  0  0  0  0  0  0  0  0  0  0  # atno 17320 bound_to 7965
  145.6316  141.0303  143.1860 LP  0  0  0  0  0  0  0  0  0  0  0  0  # atno 17321 bound_to 7965
  140.7312  143.6857  150.7963 LP  0  0  0  0  0  0  0  0  0  0  0  0  # atno 17342 bound_to 10162
  140.0450  143.5307  152.2700 LP  0  0  0  0  0  0  0  0  0  0  0  0  # atno 17343 bound_to 10162
  157.2588  131.0562  151.2333 LP  0  0  0  0  0  0  0  0  0  0  0  0  # atno 17370 bound_to 10713
  157.3455  130.7055  149.6408 LP  0  0  0  0  0  0  0  0  0  0  0  0  # atno 17371 bound_to 10713
  141.1602  133.6539  156.4294 LP  0  0  0  0  0  0  0  0  0  0  0  0  # atno 17394 bound_to 11000
  140.4823  134.6653  157.5176 LP  0  0  0  0  0  0  0  0  0  0  0  0  # atno 17395 bound_to 11000

$$$$
