AV-unprocessed.smi:40|AV-procd|sdf|377|dock1
  -GOLD-   2262016223D 1   1.00000     0.00000
 Structure written by MMmdl.
 47 48  0  0  0  0  0  0  0  0  1 V2000
  151.4865  145.2587  160.0226 C   0  0  0  0  0  0  0  0  0  0  0  0
  152.3648  144.6436  158.9276 C   0  0  0  0  0  0  0  0  0  0  0  0
  151.7051  143.4311  158.2551 C   0  0  0  0  0  0  0  0  0  0  0  0
  151.5810  142.2278  159.1992 C   0  0  0  0  0  0  0  0  0  0  0  0
  151.3148  140.9181  158.4408 C   0  0  0  0  0  0  0  0  0  0  0  0
  150.0218  140.9276  157.8512 O   0  0  0  0  0  0  0  0  0  0  0  0
  149.5299  139.8279  157.2396 C   0  0  0  0  0  0  0  0  0  0  0  0
  150.1070  138.7411  157.2050 O   0  0  0  0  0  0  0  0  0  0  0  0
  148.2605  140.1010  156.5882 N   0  0  0  0  0  0  0  0  0  0  0  0
  147.4711  139.2574  155.8811 C   0  0  0  0  0  0  0  0  0  0  0  0
  146.1921  139.0730  156.1704 N   0  0  0  0  0  0  0  0  0  0  0  0
  145.3693  138.2171  155.4880 C   0  0  0  0  0  0  0  0  0  0  0  0
  144.1824  138.1104  155.7927 O   0  0  0  0  0  0  0  0  0  0  0  0
  145.9402  137.4814  154.4229 N   0  0  0  0  0  0  0  0  0  0  0  0
  145.0824  136.5207  153.6290 C   0  0  2  0  0  0  0  0  0  0  0  0
  145.7572  135.2993  153.5613 O   0  0  0  0  0  0  0  0  0  0  0  0
  145.6538  134.7610  152.2499 C   0  0  1  0  0  0  0  0  0  0  0  0
  144.4100  133.8531  152.1937 C   0  0  0  0  0  0  0  0  0  0  0  0
  145.6045  136.0075  151.3554 C   0  0  1  0  0  0  0  0  0  0  0  0
  144.9905  135.7501  150.1076 O   0  0  0  0  0  0  0  0  0  0  0  0
  144.8079  137.0053  152.1857 C   0  0  2  0  0  0  0  0  0  0  0  0
  145.2236  138.3340  151.9204 O   0  0  0  0  0  0  0  0  0  0  0  0
  147.2813  137.6480  154.1137 C   0  0  0  0  0  0  0  0  0  0  0  0
  148.0692  138.5010  154.8021 C   0  0  0  0  0  0  0  0  0  0  0  0
  149.3678  138.6440  154.4854 F   0  0  0  0  0  0  0  0  0  0  0  0
  144.1642  136.3652  154.1965 H   0  0  0  0  0  0  0  0  0  0  0  0
  146.5390  134.1634  152.0301 H   0  0  0  0  0  0  0  0  0  0  0  0
  146.6208  136.3720  151.1963 H   0  0  0  0  0  0  0  0  0  0  0  0
  143.7381  136.9066  151.9961 H   0  0  0  0  0  0  0  0  0  0  0  0
  151.9824  146.1133  160.4834 H   0  0  0  0  0  0  0  0  0  0  0  0
  151.2731  144.5340  160.8090 H   0  0  0  0  0  0  0  0  0  0  0  0
  150.5353  145.6044  159.6170 H   0  0  0  0  0  0  0  0  0  0  0  0
  152.5883  145.4028  158.1773 H   0  0  0  0  0  0  0  0  0  0  0  0
  153.3208  144.3470  159.3606 H   0  0  0  0  0  0  0  0  0  0  0  0
  150.7143  143.7112  157.8952 H   0  0  0  0  0  0  0  0  0  0  0  0
  152.2833  143.1432  157.3762 H   0  0  0  0  0  0  0  0  0  0  0  0
  152.4961  142.1274  159.7840 H   0  0  0  0  0  0  0  0  0  0  0  0
  150.7763  142.4102  159.9125 H   0  0  0  0  0  0  0  0  0  0  0  0
  152.0838  140.7412  157.6872 H   0  0  0  0  0  0  0  0  0  0  0  0
  151.3615  140.0787  159.1346 H   0  0  0  0  0  0  0  0  0  0  0  0
  147.9191  141.0412  156.7259 H   0  0  0  0  0  0  0  0  0  0  0  0
  144.3025  133.3876  151.2138 H   0  0  0  0  0  0  0  0  0  0  0  0
  143.4936  134.4054  152.4029 H   0  0  0  0  0  0  0  0  0  0  0  0
  144.4865  133.0502  152.9272 H   0  0  0  0  0  0  0  0  0  0  0  0
  145.6569  135.4773  149.4954 H   0  0  0  0  0  0  0  0  0  0  0  0
  144.4677  138.8986  151.9655 H   0  0  0  0  0  0  0  0  0  0  0  0
  147.7188  137.0879  153.3001 H   0  0  0  0  0  0  0  0  0  0  0  0
  1  2  1  0  0  0  0
  1 30  1  0  0  0  0
  1 31  1  0  0  0  0
  1 32  1  0  0  0  0
  2  3  1  0  0  0  0
  2 33  1  0  0  0  0
  2 34  1  0  0  0  0
  3  4  1  0  0  0  0
  3 35  1  0  0  0  0
  3 36  1  0  0  0  0
  4  5  1  0  0  0  0
  4 37  1  0  0  0  0
  4 38  1  0  0  0  0
  5  6  1  0  0  0  0
  5 39  1  0  0  0  0
  5 40  1  0  0  0  0
  6  7  1  0  0  0  0
  7  8  2  0  0  0  0
  7  9  1  0  0  0  0
  9 10  1  0  0  0  0
  9 41  1  0  0  0  0
 10 24  1  0  0  0  0
 10 11  2  0  0  0  0
 11 12  1  0  0  0  0
 12 13  2  0  0  0  0
 12 14  1  0  0  0  0
 14 15  1  0  0  0  0
 14 23  1  0  0  0  0
 15 26  1  0  0  0  0
 15 21  1  0  0  0  0
 15 16  1  0  0  0  0
 16 17  1  0  0  0  0
 17 27  1  0  0  0  0
 17 18  1  0  0  0  0
 17 19  1  0  0  0  0
 18 42  1  0  0  0  0
 18 43  1  0  0  0  0
 18 44  1  0  0  0  0
 19 28  1  0  0  0  0
 19 20  1  0  0  0  0
 19 21  1  0  0  0  0
 20 45  1  0  0  0  0
 21 29  1  0  0  0  0
 21 22  1  0  0  0  0
 22 46  1  0  0  0  0
 23 24  2  0  0  0  0
 23 47  1  0  0  0  0
 24 25  1  0  0  0  0
M  END
> <s_m_source_file>
AV-unprocessed.smi

> <i_m_source_file_index>
40

> <i_lp_mmshare_version>
43012

> <i_f3d_flags>
0

> <s_epik_input>
W0NIM11bQ0gyXVtDSDJdW0NIMl1bQ0gyXU9DKD1PKVtOSF1jMW5jKD1PKW4oW2NIXWMxRilbQ0BASF0yT1tDQEhdKFtDSDNdKVtDQEBIXShbT0hdKVtDQEhdMltPSF0=

> <s_epik_cmdline>
J2VwaWtfcHl0aG9uJywgJy1waCcsICc3LjAnLCAnLXRuJywgJzgnLCAnLW1hJywgJzIwMCcsICctbWV0YWxfYmluZGluZycsICctaW1hZScsICc8aW5maWxlLm1hZT4nLCAnLW9tYWUnLCAnPG91dGZpbGUubWFlPic=

> <r_lp_tautomer_probability>
1

> <r_epik_Ionization_Penalty>
2.29506e-06

> <r_epik_Ionization_Penalty_Charging>
8.26867e-09

> <r_epik_Ionization_Penalty_Neutral>
2.2868e-06

> <r_epik_State_Penalty>
-0

> <r_epik_Charging_Adjusted_Penalty>
8.26867e-09

> <i_epik_Tot_Q>
0

> <i_epik_Tot_abs_Q>
0

> <r_epik_Metal_State_Penalty>
-0

> <b_epik_Metal_Only>
0

> <s_epik_Chemistry_Notes>
This compound has an ester and may undergo hydrolysis at high or low pH. This compound contains an acetal/aminal-like group ( X-CH(R)-Y where X, Y are N, S, or O) that may be acid/base labile, releasing an aldehyde.

> <s_lp_Force_Field>
OPLS_2005

> <r_lp_Energy>
38.4453

> <b_lp_Chiralities_Consistent>
1

> <s_lp_Variant>
AV-unprocessed.smi:40-11

> <Gold.Version>
5.8.1

> <Gold.Id.Protein>
6NUR|6NUR_protein|mol2

> <Gold.PLP.Fitness>
40.0274

> <Gold.PLP.PLP>
-32.3884

> <Gold.PLP.part.hbond>
-3.9261

> <Gold.PLP.part.metal>
0.0000

> <Gold.PLP.part.buried>
-4.2589

> <Gold.PLP.part.nonpolar>
-25.3622

> <Gold.PLP.part.repulsive>
0.1703

> <Gold.PLP.ligand.clash>
0.0000

> <Gold.PLP.ligand.torsion>
0.8092

> <Gold.PLP.Chemscore.Hbond>
1.9425

> <Gold.PLP.Chemscore.CHOScore>
0.9886

> <Gold.PLP.Chemscore.Metal>
0.0000

> <Gold.Chemscore.Hbonds>
donor molecule, donor type, donor heavy atom, donor atom, acceptor molecule, acceptor atom, score
      L1  H    20    45       P1  7921  0.98
      L1  H    22    46       P1 10175  1.00
      L1  C    23    47       P1  7948  1.00

> <Gold.PLP.Chemscore.Internal.Correction>
0.4640

> <Gold.Rescore>
     Score         DG    S(hbond)    S(metal)    S(lipo)     H(rot)  DE(clash)    DE(int)     intcor
      9.94     -10.98       1.76        0.00      77.67       3.70       0.13       0.90       ----

> <Gold.Chemscore.Fitness>
9.9380

> <Gold.Chemscore.DG>
-10.9772

> <Gold.Chemscore.ZeroCoef>
-5.4800

> <Gold.Chemscore.Hbond>
1.7577

> <Gold.Chemscore.Metal>
0.0000

> <Gold.Chemscore.Lipo>
77.6712

> <Gold.Chemscore.Internal_Hbond>
0.0000

> <Gold.Chemscore.DEClash>
0.1345

> <Gold.Chemscore.DEInternal>
0.9047

> <Gold.Chemscore.Rot>
3.6957

> <Gold.Chemscore.Internal.Correction>
   9.000000E+99

> <Gold.Chemscore.Hbonds>
donor molecule, donor type, donor heavy atom, donor atom, acceptor molecule, acceptor atom, score
      L1  H    20    45       P1  7921  0.88
      L1  H    22    46       P1 10175  0.96

> <Gold.Chemscore.Hbond.Weighted>
-5.8706

> <Gold.Chemscore.Metal.Weighted>
-0.0000

> <Gold.Chemscore.Lipo.Weighted>
-9.0875

> <Gold.Chemscore.Internal_Hbond.Weighted>
0.0000

> <Gold.Chemscore.DEClash.Weighted>
0.1345

> <Gold.Chemscore.DEInternal.Weighted>
0.9047

> <Gold.Chemscore.Rot.Weighted>
9.4610

> <Gold.Chemscore.Internal.Correction.Weighted>
   9.000000E+99

> <Gold.Protein.RotatedTorsions>
[ 6907 6896 6895 6894 ] final   23.53 input  -60.11 | X-H torsion
[ 7974 7965 7964 7962 ] final  -81.68 input  175.53 | X-H torsion
[ 8008 7997 7996 7995 ] final -131.66 input   59.86 | X-H torsion
[ 10167 10162 10161 10158 ] final   40.21 input  -65.29 | X-H torsion
[ 10718 10713 10712 10709 ] final   51.97 input   66.30 | X-H torsion
[ 10763 10752 10751 10750 ] final  138.37 input  -60.55 | X-H torsion
[ 11005 11000 10999 10996 ] final -178.32 input  -57.11 | X-H torsion

> <Gold.Protein.ActiveResidues>
 VAL166  LYS551  ARG553  GLY616  TRP617  ASP618  TYR619  PRO620  LYS621  CYS622 
 ASP623  PHE694  ASN695  SER759  ASP760  ASP761  ALA762  ILE779  LEU786  VAL792 
 PHE793  MET794  SER795  GLU796  ALA797  LYS798  CYS799  TRP800  GLU811  SER814 

> <Gold.Protein.RotatedAtoms>
  151.9437  135.0201  160.0537 H   0  0  0  0  0  0  0  0  0  0  0  0  # atno 6907 bound_to 6896
  152.2014  133.4839  159.5069 H   0  0  0  0  0  0  0  0  0  0  0  0  # atno 6908 bound_to 6896
  150.6955  134.1502  159.4180 H   0  0  0  0  0  0  0  0  0  0  0  0  # atno 6909 bound_to 6896
  145.5434  140.9506  143.1538 H   0  0  0  0  0  0  0  0  0  0  0  0  # atno 7974 bound_to 7965
  155.3160  140.0459  157.3037 H   0  0  0  0  0  0  0  0  0  0  0  0  # atno 8008 bound_to 7997
  154.5406  140.2286  155.8613 H   0  0  0  0  0  0  0  0  0  0  0  0  # atno 8009 bound_to 7997
  156.1877  140.3058  155.9278 H   0  0  0  0  0  0  0  0  0  0  0  0  # atno 8010 bound_to 7997
  140.3764  144.2037  150.6131 H   0  0  0  0  0  0  0  0  0  0  0  0  # atno 10167 bound_to 10162
  157.5031  130.8451  149.8340 H   0  0  0  0  0  0  0  0  0  0  0  0  # atno 10718 bound_to 10713
  153.8885  135.3036  155.3447 H   0  0  0  0  0  0  0  0  0  0  0  0  # atno 10763 bound_to 10752
  154.7727  135.4877  153.9685 H   0  0  0  0  0  0  0  0  0  0  0  0  # atno 10764 bound_to 10752
  153.1311  135.6804  153.9275 H   0  0  0  0  0  0  0  0  0  0  0  0  # atno 10765 bound_to 10752
  140.4311  134.6518  157.4712 H   0  0  0  0  0  0  0  0  0  0  0  0  # atno 11005 bound_to 11000
  144.7565  139.7061  143.7252 LP  0  0  0  0  0  0  0  0  0  0  0  0  # atno 17320 bound_to 7965
  146.1965  139.5235  142.9771 LP  0  0  0  0  0  0  0  0  0  0  0  0  # atno 17321 bound_to 7965
  140.4981  143.2326  151.8719 LP  0  0  0  0  0  0  0  0  0  0  0  0  # atno 17342 bound_to 10162
  139.4799  144.5090  151.8958 LP  0  0  0  0  0  0  0  0  0  0  0  0  # atno 17343 bound_to 10162
  156.0241  130.3785  150.1874 LP  0  0  0  0  0  0  0  0  0  0  0  0  # atno 17370 bound_to 10713
  157.0064  130.9938  151.3377 LP  0  0  0  0  0  0  0  0  0  0  0  0  # atno 17371 bound_to 10713
  140.0134  134.6656  155.9346 LP  0  0  0  0  0  0  0  0  0  0  0  0  # atno 17394 bound_to 11000
  141.1745  133.6539  156.4777 LP  0  0  0  0  0  0  0  0  0  0  0  0  # atno 17395 bound_to 11000

$$$$
