AV-unprocessed.smi:705|AV-procd|sdf|3448|dock8
  -GOLD-   22720 0433D 1   1.00000     0.00000
 Structure written by MMmdl.
 29 30  0  0  0  0  0  0  0  0  2 V2000
  149.6428  138.5298  153.3226 N   0  0  0  0  0  0  0  0  0  0  0  0
  150.1992  138.6118  154.5342 C   0  0  0  0  0  0  0  0  0  0  0  0
  150.6413  137.6320  155.1316 O   0  0  0  0  0  0  0  0  0  0  0  0
  150.2575  139.9887  155.1279 C   0  0  0  0  0  0  0  0  0  0  0  0
  150.8050  140.1971  156.4296 C   0  0  0  0  0  0  0  0  0  0  0  0
  150.6951  141.5447  156.6330 C   0  0  0  0  0  0  0  0  0  0  0  0
  151.0782  142.4026  157.7976 C   0  0  2  0  0  0  0  0  0  0  0  0
  151.7874  143.6966  157.3523 C   0  0  0  0  0  0  0  0  0  0  0  0
  152.1903  144.5445  158.5684 C   0  0  0  0  0  0  0  0  0  0  0  0
  153.0428  143.7244  159.5494 C   0  0  0  0  0  0  0  0  0  0  0  0
  152.3308  142.4930  159.9539 N   0  3  0  0  0  0  0  0  0  0  0  0
  151.9604  141.6365  158.8054 C   0  0  0  0  0  0  0  0  0  0  0  0
  150.1080  142.0565  155.4976 N   0  0  0  0  0  0  0  0  0  0  0  0
  149.8375  141.1180  154.5714 N   0  0  0  0  0  0  0  0  0  0  0  0
  149.8934  143.0312  155.3400 H   0  0  0  0  0  0  0  0  0  0  0  0
  149.5706  137.6347  152.8613 H   0  0  0  0  0  0  0  0  0  0  0  0
  149.2980  139.3664  152.8745 H   0  0  0  0  0  0  0  0  0  0  0  0
  151.2166  139.4673  157.1114 H   0  0  0  0  0  0  0  0  0  0  0  0
  150.1639  142.6938  158.3175 H   0  0  0  0  0  0  0  0  0  0  0  0
  152.6776  143.4534  156.7703 H   0  0  0  0  0  0  0  0  0  0  0  0
  151.1364  144.2758  156.6964 H   0  0  0  0  0  0  0  0  0  0  0  0
  152.7419  145.4264  158.2410 H   0  0  0  0  0  0  0  0  0  0  0  0
  151.2957  144.9093  159.0749 H   0  0  0  0  0  0  0  0  0  0  0  0
  153.9953  143.4546  159.0909 H   0  0  0  0  0  0  0  0  0  0  0  0
  153.2709  144.3136  160.4379 H   0  0  0  0  0  0  0  0  0  0  0  0
  152.9209  141.9634  160.5798 H   0  0  0  0  0  0  0  0  0  0  0  0
  151.4323  140.7590  159.1802 H   0  0  0  0  0  0  0  0  0  0  0  0
  152.8702  141.2768  158.3226 H   0  0  0  0  0  0  0  0  0  0  0  0
  151.4883  142.7554  160.4452 H   0  0  0  0  0  0  0  0  0  0  0  0
  1  2  1  0  0  0  0
  1 16  1  0  0  0  0
  1 17  1  0  0  0  0
  2  3  2  0  0  0  0
  2  4  1  0  0  0  0
  4 14  2  0  0  0  0
  4  5  1  0  0  0  0
  5  6  2  0  0  0  0
  5 18  1  0  0  0  0
  6  7  1  0  0  0  0
  6 13  1  0  0  0  0
  7 12  1  0  0  0  0
  7  8  1  0  0  0  0
  7 19  1  0  0  0  0
  8  9  1  0  0  0  0
  8 20  1  0  0  0  0
  8 21  1  0  0  0  0
  9 10  1  0  0  0  0
  9 22  1  0  0  0  0
  9 23  1  0  0  0  0
 10 11  1  0  0  0  0
 10 24  1  0  0  0  0
 10 25  1  0  0  0  0
 11 12  1  0  0  0  0
 11 26  1  0  0  0  0
 11 29  1  0  0  0  0
 12 27  1  0  0  0  0
 12 28  1  0  0  0  0
 13 15  1  0  0  0  0
 13 14  1  0  0  0  0
M  CHG  1  11   1
M  END
> <s_m_source_file>
AV-unprocessed.smi

> <i_m_source_file_index>
705

> <i_lp_mmshare_version>
43012

> <i_f3d_flags>
0

> <s_epik_input>
W05IMl1DKD1PKWMxW2NIXWMoW25IXW4xKVtDQEBIXTJbQ0gyXVtDSDJdW0NIMl1bTkhdW0NIMl0y

> <s_epik_cmdline>
J2VwaWtfcHl0aG9uJywgJy1waCcsICc3LjAnLCAnLXRuJywgJzgnLCAnLW1hJywgJzIwMCcsICctbWV0YWxfYmluZGluZycsICctaW1hZScsICc8aW5maWxlLm1hZT4nLCAnLW9tYWUnLCAnPG91dGZpbGUubWFlPic=

> <r_lp_tautomer_probability>
0.5

> <r_epik_Ionization_Penalty>
0.000245231

> <r_epik_Ionization_Penalty_Charging>
0.000226378

> <r_epik_Ionization_Penalty_Neutral>
1.88531e-05

> <r_epik_State_Penalty>
0.41068

> <r_epik_Charging_Adjusted_Penalty>
0.410906

> <i_epik_Tot_Q>
1

> <i_epik_Tot_abs_Q>
1

> <r_epik_Metal_State_Penalty>
0.446108

> <b_epik_Metal_Only>
0

> <s_lp_Force_Field>
OPLS_2005

> <r_lp_Energy>
15.347

> <b_lp_Chiralities_Consistent>
1

> <s_lp_Variant>
AV-unprocessed.smi:705-3

> <Gold.Version>
5.8.1

> <Gold.Id.Protein>
6NUR|6NUR_protein|mol2

> <Gold.PLP.Fitness>
38.5959

> <Gold.PLP.PLP>
-31.8370

> <Gold.PLP.part.hbond>
-3.9563

> <Gold.PLP.part.metal>
0.0000

> <Gold.PLP.part.buried>
-2.8591

> <Gold.PLP.part.nonpolar>
-23.7583

> <Gold.PLP.part.repulsive>
0.6087

> <Gold.PLP.ligand.clash>
0.0000

> <Gold.PLP.ligand.torsion>
0.3248

> <Gold.PLP.Chemscore.Hbond>
2.4640

> <Gold.PLP.Chemscore.CHOScore>
0.0000

> <Gold.PLP.Chemscore.Metal>
0.0000

> <Gold.Chemscore.Hbonds>
donor molecule, donor type, donor heavy atom, donor atom, acceptor molecule, acceptor atom, score
      L1  H     1    16       P1  7948  1.00
      L1  H     1    17       P1  7957  0.59
      L1  H    13    15       P1  8028  1.00
      P1  H  7989  7998       L1    14  0.05

> <Gold.PLP.Chemscore.Internal.Correction>
0.0164

> <Gold.Rescore>
     Score         DG    S(hbond)    S(metal)    S(lipo)     H(rot)  DE(clash)    DE(int)     intcor
     18.60     -19.30       2.29        0.00      74.68       1.00       0.01       0.70       ----

> <Gold.Chemscore.Fitness>
18.5954

> <Gold.Chemscore.DG>
-19.3038

> <Gold.Chemscore.ZeroCoef>
-5.4800

> <Gold.Chemscore.Hbond>
2.2893

> <Gold.Chemscore.Metal>
0.0000

> <Gold.Chemscore.Lipo>
74.6814

> <Gold.Chemscore.Internal_Hbond>
0.0000

> <Gold.Chemscore.DEClash>
0.0059

> <Gold.Chemscore.DEInternal>
0.7025

> <Gold.Chemscore.Rot>
1.0000

> <Gold.Chemscore.Internal.Correction>
   9.000000E+99

> <Gold.Chemscore.Hbonds>
donor molecule, donor type, donor heavy atom, donor atom, acceptor molecule, acceptor atom, score
      L1  H     1    16       P1  7948  0.70
      L1  H     1    17       P1  7957  0.60
      L1  H    13    15       P1  8028  0.95

> <Gold.Chemscore.Hbond.Weighted>
-7.6461

> <Gold.Chemscore.Metal.Weighted>
-0.0000

> <Gold.Chemscore.Lipo.Weighted>
-8.7377

> <Gold.Chemscore.Internal_Hbond.Weighted>
0.0000

> <Gold.Chemscore.DEClash.Weighted>
0.0059

> <Gold.Chemscore.DEInternal.Weighted>
0.7025

> <Gold.Chemscore.Rot.Weighted>
2.5600

> <Gold.Chemscore.Internal.Correction.Weighted>
   9.000000E+99

> <Gold.Protein.RotatedTorsions>
[ 6907 6896 6895 6894 ] final  112.91 input  -60.11 | X-H torsion
[ 7974 7965 7964 7962 ] final  -20.91 input  175.53 | X-H torsion
[ 8008 7997 7996 7995 ] final    1.04 input   59.86 | X-H torsion
[ 10167 10162 10161 10158 ] final   69.84 input  -65.29 | X-H torsion
[ 10718 10713 10712 10709 ] final -114.52 input   66.30 | X-H torsion
[ 10763 10752 10751 10750 ] final  165.02 input  -60.55 | X-H torsion
[ 11005 11000 10999 10996 ] final   35.63 input  -57.11 | X-H torsion

> <Gold.Protein.ActiveResidues>
 VAL166  LYS551  ARG553  GLY616  TRP617  ASP618  TYR619  PRO620  LYS621  CYS622 
 ASP623  PHE694  ASN695  SER759  ASP760  ASP761  ALA762  ILE779  LEU786  VAL792 
 PHE793  MET794  SER795  GLU796  ALA797  LYS798  CYS799  TRP800  GLU811  SER814 

> <Gold.Protein.RotatedAtoms>
  152.4890  133.8449  159.7171 H   0  0  0  0  0  0  0  0  0  0  0  0  # atno 6907 bound_to 6896
  150.9002  133.7119  159.2887 H   0  0  0  0  0  0  0  0  0  0  0  0  # atno 6908 bound_to 6896
  151.4562  135.1038  159.9764 H   0  0  0  0  0  0  0  0  0  0  0  0  # atno 6909 bound_to 6896
  146.1762  140.4267  142.8512 H   0  0  0  0  0  0  0  0  0  0  0  0  # atno 7974 bound_to 7965
  154.6751  140.2620  155.6966 H   0  0  0  0  0  0  0  0  0  0  0  0  # atno 8008 bound_to 7997
  156.2675  140.2821  156.1197 H   0  0  0  0  0  0  0  0  0  0  0  0  # atno 8009 bound_to 7997
  155.1112  140.0375  157.2714 H   0  0  0  0  0  0  0  0  0  0  0  0  # atno 8010 bound_to 7997
  140.0634  144.5214  150.7278 H   0  0  0  0  0  0  0  0  0  0  0  0  # atno 10167 bound_to 10162
  156.0835  130.6031  150.8785 H   0  0  0  0  0  0  0  0  0  0  0  0  # atno 10718 bound_to 10713
  154.3177  135.2756  155.2535 H   0  0  0  0  0  0  0  0  0  0  0  0  # atno 10763 bound_to 10752
  154.4902  135.5835  153.6457 H   0  0  0  0  0  0  0  0  0  0  0  0  # atno 10764 bound_to 10752
  152.9880  135.6133  154.3359 H   0  0  0  0  0  0  0  0  0  0  0  0  # atno 10765 bound_to 10752
  140.2407  134.3418  155.7927 H   0  0  0  0  0  0  0  0  0  0  0  0  # atno 11005 bound_to 11000
  144.8240  140.6598  143.6334 LP  0  0  0  0  0  0  0  0  0  0  0  0  # atno 17320 bound_to 7965
  145.4204  139.1565  143.4077 LP  0  0  0  0  0  0  0  0  0  0  0  0  # atno 17321 bound_to 7965
  140.7161  143.2546  151.4430 LP  0  0  0  0  0  0  0  0  0  0  0  0  # atno 17342 bound_to 10162
  139.5880  144.1562  152.2053 LP  0  0  0  0  0  0  0  0  0  0  0  0  # atno 17343 bound_to 10162
  157.5961  131.0943  150.9038 LP  0  0  0  0  0  0  0  0  0  0  0  0  # atno 17370 bound_to 10713
  156.9205  130.5313  149.5279 LP  0  0  0  0  0  0  0  0  0  0  0  0  # atno 17371 bound_to 10713
  141.2211  133.7297  156.8881 LP  0  0  0  0  0  0  0  0  0  0  0  0  # atno 17394 bound_to 11000
  140.1656  134.9135  157.2769 LP  0  0  0  0  0  0  0  0  0  0  0  0  # atno 17395 bound_to 11000

$$$$
