#       Name:                AV-unprocessed.smi:2037
#       Creating user name   scv26
#       Creation time:       Fri Mar 27 10:54:32 2020


#       File generated by GOLD software.
#

@<TRIPOS>MOLECULE
AV-unprocessed.smi:2037
    42    43     1
SMALL
NO_CHARGES


@<TRIPOS>ATOM
      1 ****        -3.4684   3.8060   0.2654 C.3            1 S1                 0.0000
      2 ****        -2.7204   3.4266  -1.0247 C.3            1 S1                 0.0000
      3 ****        -2.9703   1.9691  -1.4521 C.3            1 S1                 0.0000
      4 ****        -2.2220   0.9632  -0.5587 C.3            1 S1                 0.0000
      5 ****        -0.7648   1.2518  -0.5208 N.4            1 S1                 1.0000
      6 ****        -0.0094   0.2173   0.2303 C.3            1 S1                 0.0000
      7 ****         1.4788   0.1683  -0.1687 C.3            1 S1                 0.0000
      8 ****         2.1927  -0.8862   0.5427 N.am           1 S1                 0.0000
      9 ****         2.1309  -2.1911   0.2401 C.2            1 S1                 0.0000
     10 ****         1.4441  -2.6388  -0.6787 O.2            1 S1                 0.0000
     11 ****         2.9058  -2.9217   1.0608 N.am           1 S1                 0.0000
     12 ****         3.0830  -4.3302   1.0745 C.2            1 S1                 0.0000
     13 ****         2.4407  -5.1791   0.2635 N.2            1 S1                 0.0000
     14 ****         2.8049  -6.5070   0.5000 C.2            1 S1                 0.0000
     15 ****         3.7319  -6.6519   1.5021 C.2            1 S1                 0.0000
     16 ****         4.1851  -5.1175   2.1948 S.3            1 S1                 0.0000
     17 ****        -0.4939   2.6357  -0.0481 C.3            1 S1                 0.0000
     18 ****        -1.2048   3.6772  -0.9311 C.3            1 S1                 0.0000
     19 ****        -3.1500   3.2076   1.1184 H              1 S1                 0.0000
     20 ****        -4.5433   3.6658   0.1480 H              1 S1                 0.0000
     21 ****        -3.3030   4.8536   0.5184 H              1 S1                 0.0000
     22 ****        -3.1138   4.0733  -1.8103 H              1 S1                 0.0000
     23 ****        -4.0390   1.7514  -1.4473 H              1 S1                 0.0000
     24 ****        -2.6410   1.8380  -2.4838 H              1 S1                 0.0000
     25 ****        -2.6249   0.9754   0.4550 H              1 S1                 0.0000
     26 ****        -2.3867  -0.0423  -0.9480 H              1 S1                 0.0000
     27 ****        -0.1191   0.3831   1.3032 H              1 S1                 0.0000
     28 ****        -0.4521  -0.7584   0.0251 H              1 S1                 0.0000
     29 ****         1.5816   0.0232  -1.2456 H              1 S1                 0.0000
     30 ****         1.9763   1.1083   0.0668 H              1 S1                 0.0000
     31 ****         2.7827  -0.6017   1.3112 H              1 S1                 0.0000
     32 ****         3.4281  -2.4136   1.7594 H              1 S1                 0.0000
     33 ****         2.3534  -7.2884  -0.0932 H              1 S1                 0.0000
     34 ****         4.1729  -7.5647   1.8737 H              1 S1                 0.0000
     35 ****        -0.8102   2.7375   0.9907 H              1 S1                 0.0000
     36 ****         0.5759   2.8388  -0.0677 H              1 S1                 0.0000
     37 ****        -0.7748   3.6424  -1.9330 H              1 S1                 0.0000
     38 ****        -1.0109   4.6824  -0.5549 H              1 S1                 0.0000
     39 ****        -0.4458   1.1982  -1.4777 H              1 S1                 0.0000
     40 ****         0.8966  -2.0194  -1.2414 LP             1 S1                 0.0000
     41 ****         1.4339  -3.6218  -0.8622 LP             1 S1                 0.0000
     42 ****         1.7781  -4.8963  -0.4301 LP             1 S1                 0.0000
@<TRIPOS>BOND
    1    1    2 1     
    2    1   19 1     
    3    1   20 1     
    4    1   21 1     
    5    2   18 1     
    6    2    3 1     
    7    2   22 1     
    8    3    4 1     
    9    3   23 1     
   10    3   24 1     
   11    4    5 1     
   12    4   25 1     
   13    4   26 1     
   14    5    6 1     
   15    5   17 1     
   16    5   39 1     
   17    6    7 1     
   18    6   27 1     
   19    6   28 1     
   20    7    8 1     
   21    7   29 1     
   22    7   30 1     
   23    8    9 am    
   24    8   31 1     
   25    9   10 2     
   26    9   11 am    
   27   11   12 1     
   28   11   32 1     
   29   12   16 1     
   30   12   13 2     
   31   13   14 1     
   32   14   15 2     
   33   14   33 1     
   34   15   16 1     
   35   15   34 1     
   36   17   18 1     
   37   17   35 1     
   38   17   36 1     
   39   18   37 1     
   40   18   38 1     
   41   10   40 1     
   42   10   41 1     
   43   13   42 1     
@<TRIPOS>SUBSTRUCTURE
      1 S1             1
@<TRIPOS>SET
LONE_PAIRS      STATIC     ATOMS    <user>   **** ""
3 40 41 42
DONOR_HYDROGENS      STATIC     ATOMS    <user>   **** ""
3 39 31 32
ATOM$BLUE        STATIC     ATOMS    COLORGROUP SYSTEM
3 40 41 42
ATOM$RED        STATIC     ATOMS    COLORGROUP SYSTEM
3 39 31 32
