AV-unprocessed.smi:3330|AV-procd|sdf|12809|dock1
  -GOLD-   2272019173D 1   1.00000     0.00000
 Structure written by MMmdl.
 38 39  0  0  0  0  0  0  0  0  3 V2000
  152.1702  144.9137  157.5547 C   0  0  0  0  0  0  0  0  0  0  0  0
  151.4469  143.8767  158.4300 C   0  0  2  0  0  0  0  0  0  0  0  0
  150.1619  143.5363  157.7786 N   0  3  0  0  0  0  0  0  0  0  0  0
  150.0792  142.1699  157.2208 C   0  0  0  0  0  0  0  0  0  0  0  0
  150.9083  142.0264  155.9314 C   0  0  0  0  0  0  0  0  0  0  0  0
  150.9061  140.6523  155.4128 N   0  0  0  0  0  0  0  0  0  0  0  0
  150.1123  140.2130  154.4306 C   0  0  0  0  0  0  0  0  0  0  0  0
  149.2699  140.8509  153.7993 O   0  0  0  0  0  0  0  0  0  0  0  0
  150.4524  138.7621  154.1842 C   0  0  0  0  0  0  0  0  0  0  0  0
  151.5124  138.5288  155.1383 N   0  5  0  0  0  0  0  0  0  0  0  0
  151.7293  139.6714  155.8293 C   0  0  0  0  0  0  0  0  0  0  0  0
  152.5612  139.8487  156.7182 O   0  0  0  0  0  0  0  0  0  0  0  0
  151.2052  144.3771  159.8803 C   0  0  2  0  0  0  0  0  0  0  0  0
  151.2757  145.9106  160.0152 C   0  0  0  0  0  0  0  0  0  0  0  0
  152.1290  143.7556  160.8227 N   0  0  0  0  0  0  0  0  0  0  0  0
  152.2531  143.9910  162.1768 C   0  0  0  0  0  0  0  0  0  0  0  0
  153.2423  143.1746  162.6450 C   0  0  0  0  0  0  0  0  0  0  0  0
  153.6732  142.4675  161.4883 C   0  0  0  0  0  0  0  0  0  0  0  0
  153.0053  142.8159  160.4007 N   0  0  0  0  0  0  0  0  0  0  0  0
  153.1778  145.1172  157.9164 H   0  0  0  0  0  0  0  0  0  0  0  0
  151.6264  145.8585  157.5242 H   0  0  0  0  0  0  0  0  0  0  0  0
  152.2687  144.5557  156.5292 H   0  0  0  0  0  0  0  0  0  0  0  0
  152.0769  142.9859  158.4648 H   0  0  0  0  0  0  0  0  0  0  0  0
  149.4151  143.6602  158.4469 H   0  0  0  0  0  0  0  0  0  0  0  0
  150.4360  141.4619  157.9699 H   0  0  0  0  0  0  0  0  0  0  0  0
  149.0387  141.9182  157.0167 H   0  0  0  0  0  0  0  0  0  0  0  0
  150.5233  142.7045  155.1683 H   0  0  0  0  0  0  0  0  0  0  0  0
  151.9316  142.3547  156.1212 H   0  0  0  0  0  0  0  0  0  0  0  0
  149.5730  138.1398  154.3547 H   0  0  0  0  0  0  0  0  0  0  0  0
  150.7673  138.6256  153.1491 H   0  0  0  0  0  0  0  0  0  0  0  0
  150.2004  144.0734  160.1786 H   0  0  0  0  0  0  0  0  0  0  0  0
  150.4715  146.4008  159.4674 H   0  0  0  0  0  0  0  0  0  0  0  0
  152.2220  146.3031  159.6414 H   0  0  0  0  0  0  0  0  0  0  0  0
  151.1798  146.2155  161.0580 H   0  0  0  0  0  0  0  0  0  0  0  0
  151.6338  144.7118  162.6906 H   0  0  0  0  0  0  0  0  0  0  0  0
  153.6055  143.0959  163.6591 H   0  0  0  0  0  0  0  0  0  0  0  0
  154.4451  141.7166  161.4073 H   0  0  0  0  0  0  0  0  0  0  0  0
  150.0172  144.1842  157.0173 H   0  0  0  0  0  0  0  0  0  0  0  0
  1  2  1  0  0  0  0
  1 20  1  0  0  0  0
  1 21  1  0  0  0  0
  1 22  1  0  0  0  0
  2  3  1  0  0  0  0
  2 13  1  0  0  0  0
  2 23  1  0  0  0  0
  3  4  1  0  0  0  0
  3 24  1  0  0  0  0
  3 38  1  0  0  0  0
  4  5  1  0  0  0  0
  4 25  1  0  0  0  0
  4 26  1  0  0  0  0
  5  6  1  0  0  0  0
  5 27  1  0  0  0  0
  5 28  1  0  0  0  0
  6 11  1  0  0  0  0
  6  7  1  0  0  0  0
  7  8  2  0  0  0  0
  7  9  1  0  0  0  0
  9 10  1  0  0  0  0
  9 29  1  0  0  0  0
  9 30  1  0  0  0  0
 10 11  1  0  0  0  0
 11 12  2  0  0  0  0
 13 14  1  0  0  0  0
 13 15  1  0  0  0  0
 13 31  1  0  0  0  0
 14 32  1  0  0  0  0
 14 33  1  0  0  0  0
 14 34  1  0  0  0  0
 15 19  1  0  0  0  0
 15 16  1  0  0  0  0
 16 17  2  0  0  0  0
 16 35  1  0  0  0  0
 17 18  1  0  0  0  0
 17 36  1  0  0  0  0
 18 19  2  0  0  0  0
 18 37  1  0  0  0  0
M  CHG  1   3   1
M  CHG  1  10  -1
M  END
> <s_m_source_file>
AV-unprocessed.smi

> <i_m_source_file_index>
3330

> <i_lp_mmshare_version>
43012

> <i_f3d_flags>
0

> <s_epik_input>
bjFbY0hdW2NIXVtjSF1uMVtDQEBIXShbQ0gzXSlbQ0BIXShbQ0gzXSlbTkhdW0NIMl1bQ0gyXU4yQyg9TylbQ0gyXVtOSF1DMj1P

> <s_epik_cmdline>
J2VwaWtfcHl0aG9uJywgJy1waCcsICc3LjAnLCAnLXRuJywgJzgnLCAnLW1hJywgJzIwMCcsICctbWV0YWxfYmluZGluZycsICctaW1hZScsICc8aW5maWxlLm1hZT4nLCAnLW9tYWUnLCAnPG91dGZpbGUubWFlPic=

> <r_lp_tautomer_probability>
1

> <r_epik_Ionization_Penalty>
5.18149

> <r_epik_Ionization_Penalty_Charging>
5.18148

> <r_epik_Ionization_Penalty_Neutral>
9.83265e-06

> <r_epik_State_Penalty>
5.18201

> <r_epik_Charging_Adjusted_Penalty>
10.3635

> <i_epik_Tot_Q>
0

> <i_epik_Tot_abs_Q>
2

> <r_epik_Metal_State_Penalty>
1.25422

> <b_epik_Metal_Only>
1

> <s_lp_Force_Field>
OPLS_2005

> <r_lp_Energy>
23.9108

> <b_lp_Chiralities_Consistent>
1

> <s_lp_Variant>
AV-unprocessed.smi:3330-9

> <Gold.Version>
5.8.1

> <Gold.Id.Protein>
6NUR|6NUR_protein|mol2

> <Gold.PLP.Fitness>
52.5314

> <Gold.PLP.PLP>
-46.4433

> <Gold.PLP.part.hbond>
-4.0000

> <Gold.PLP.part.metal>
0.0000

> <Gold.PLP.part.buried>
-0.9909

> <Gold.PLP.part.nonpolar>
-42.1066

> <Gold.PLP.part.repulsive>
2.0470

> <Gold.PLP.ligand.clash>
0.0000

> <Gold.PLP.ligand.torsion>
2.4076

> <Gold.PLP.Chemscore.Hbond>
3.4289

> <Gold.PLP.Chemscore.CHOScore>
0.0000

> <Gold.PLP.Chemscore.Metal>
0.0000

> <Gold.Chemscore.Hbonds>
donor molecule, donor type, donor heavy atom, donor atom, acceptor molecule, acceptor atom, score
      L1  H     3    38       P1  8028  1.89
      P1  H  7997  8010       L1    12  1.00
      P1  H  8011  8017       L1     8  0.55

> <Gold.PLP.Chemscore.Internal.Correction>
0.6165

> <Gold.Rescore>
     Score         DG    S(hbond)    S(metal)    S(lipo)     H(rot)  DE(clash)    DE(int)     intcor
     13.78     -17.96       1.85        0.00     110.51       2.59       1.85       2.34       ----

> <Gold.Chemscore.Fitness>
13.7758

> <Gold.Chemscore.DG>
-17.9623

> <Gold.Chemscore.ZeroCoef>
-5.4800

> <Gold.Chemscore.Hbond>
1.8515

> <Gold.Chemscore.Metal>
0.0000

> <Gold.Chemscore.Lipo>
110.5085

> <Gold.Chemscore.Internal_Hbond>
0.0000

> <Gold.Chemscore.DEClash>
1.8513

> <Gold.Chemscore.DEInternal>
2.3352

> <Gold.Chemscore.Rot>
2.5903

> <Gold.Chemscore.Internal.Correction>
   9.000000E+99

> <Gold.Chemscore.Hbonds>
donor molecule, donor type, donor heavy atom, donor atom, acceptor molecule, acceptor atom, score
      L1  H     3    38       P1  8028  0.78
      P1  H  7997  8010       L1    12  1.00
      P1  H  8011  8017       L1     8  0.53

> <Gold.Chemscore.Hbond.Weighted>
-6.1839

> <Gold.Chemscore.Metal.Weighted>
-0.0000

> <Gold.Chemscore.Lipo.Weighted>
-12.9295

> <Gold.Chemscore.Internal_Hbond.Weighted>
0.0000

> <Gold.Chemscore.DEClash.Weighted>
1.8513

> <Gold.Chemscore.DEInternal.Weighted>
2.3352

> <Gold.Chemscore.Rot.Weighted>
6.6311

> <Gold.Chemscore.Internal.Correction.Weighted>
   9.000000E+99

> <Gold.Protein.RotatedTorsions>
[ 6907 6896 6895 6894 ] final  -47.64 input  -60.11 | X-H torsion
[ 7974 7965 7964 7962 ] final -176.70 input  175.53 | X-H torsion
[ 8008 7997 7996 7995 ] final   71.25 input   59.86 | X-H torsion
[ 10167 10162 10161 10158 ] final   51.41 input  -65.29 | X-H torsion
[ 10718 10713 10712 10709 ] final  177.59 input   66.30 | X-H torsion
[ 10763 10752 10751 10750 ] final  -22.33 input  -60.55 | X-H torsion
[ 11005 11000 10999 10996 ] final  143.90 input  -57.11 | X-H torsion

> <Gold.Protein.ActiveResidues>
 VAL166  LYS551  ARG553  GLY616  TRP617  ASP618  TYR619  PRO620  LYS621  CYS622 
 ASP623  PHE694  ASN695  SER759  ASP760  ASP761  ALA762  ILE779  LEU786  VAL792 
 PHE793  MET794  SER795  GLU796  ALA797  LYS798  CYS799  TRP800  GLU811  SER814 

> <Gold.Protein.RotatedAtoms>
  150.8987  134.8398  159.7344 H   0  0  0  0  0  0  0  0  0  0  0  0  # atno 6907 bound_to 6896
  152.4880  134.4535  159.9592 H   0  0  0  0  0  0  0  0  0  0  0  0  # atno 6908 bound_to 6896
  151.4589  133.3559  159.2841 H   0  0  0  0  0  0  0  0  0  0  0  0  # atno 6909 bound_to 6896
  144.7127  140.1130  143.6410 H   0  0  0  0  0  0  0  0  0  0  0  0  # atno 7974 bound_to 7965
  155.7510  140.3488  155.5150 H   0  0  0  0  0  0  0  0  0  0  0  0  # atno 8008 bound_to 7997
  155.9005  140.1033  157.1375 H   0  0  0  0  0  0  0  0  0  0  0  0  # atno 8009 bound_to 7997
  154.4043  140.1287  156.4416 H   0  0  0  0  0  0  0  0  0  0  0  0  # atno 8010 bound_to 7997
  140.2622  144.3360  150.6314 H   0  0  0  0  0  0  0  0  0  0  0  0  # atno 10167 bound_to 10162
  156.9032  130.9885  151.3032 H   0  0  0  0  0  0  0  0  0  0  0  0  # atno 10718 bound_to 10713
  153.6503  135.6981  153.5211 H   0  0  0  0  0  0  0  0  0  0  0  0  # atno 10763 bound_to 10752
  153.2712  135.4214  155.0988 H   0  0  0  0  0  0  0  0  0  0  0  0  # atno 10764 bound_to 10752
  154.8478  135.3579  154.6047 H   0  0  0  0  0  0  0  0  0  0  0  0  # atno 10765 bound_to 10752
  140.0590  134.9215  157.1151 H   0  0  0  0  0  0  0  0  0  0  0  0  # atno 11005 bound_to 11000
  145.9438  139.2687  143.1253 LP  0  0  0  0  0  0  0  0  0  0  0  0  # atno 17320 bound_to 7965
  145.9396  140.8989  143.0314 LP  0  0  0  0  0  0  0  0  0  0  0  0  # atno 17321 bound_to 7965
  140.5956  143.2167  151.7170 LP  0  0  0  0  0  0  0  0  0  0  0  0  # atno 17342 bound_to 10162
  139.5013  144.3872  152.0317 LP  0  0  0  0  0  0  0  0  0  0  0  0  # atno 17343 bound_to 10162
  157.6013  130.8515  149.8807 LP  0  0  0  0  0  0  0  0  0  0  0  0  # atno 17370 bound_to 10713
  156.0572  130.3706  150.1064 LP  0  0  0  0  0  0  0  0  0  0  0  0  # atno 17371 bound_to 10713
  140.3799  134.2298  155.7171 LP  0  0  0  0  0  0  0  0  0  0  0  0  # atno 17394 bound_to 11000
  141.1965  133.8081  157.0670 LP  0  0  0  0  0  0  0  0  0  0  0  0  # atno 17395 bound_to 11000

$$$$
