AV-unprocessed.smi:179|AV-procd|sdf|1449|dock3
  -GOLD-   2262019243D 1   1.00000     0.00000
 Structure written by MMmdl.
 44 47  0  0  0  0  0  0  0  0  1 V2000
  144.5837  135.6261  149.8563 O   0  0  0  0  0  0  0  0  0  0  0  0
  144.1081  134.6412  150.7521 C   0  0  0  0  0  0  0  0  0  0  0  0
  144.6884  133.2433  150.4587 C   0  0  0  0  0  0  0  0  0  0  0  0
  144.0881  132.7724  149.1206 C   0  0  0  0  0  0  0  0  0  0  0  0
  142.8555  132.1064  149.3091 O   0  0  0  0  0  0  0  0  0  0  0  0
  146.2203  133.0702  150.5935 C   0  0  0  0  0  0  0  0  0  0  0  0
  145.9961  131.7112  151.2614 C   0  0  0  0  0  0  0  0  0  0  0  0
  146.8852  131.2242  152.2795 N   0  0  0  0  0  0  0  0  0  0  0  0
  146.8914  129.9578  152.8215 C   0  0  0  0  0  0  0  0  0  0  0  0
  147.8005  129.7438  153.7330 N   0  0  0  0  0  0  0  0  0  0  0  0
  148.4760  130.9532  153.8275 C   0  0  0  0  0  0  0  0  0  0  0  0
  149.5697  131.4005  154.6171 C   0  0  0  0  0  0  0  0  0  0  0  0
  150.2145  130.5498  155.5577 N   0  0  0  0  0  0  0  0  0  0  0  0
  150.9214  129.4040  154.9935 C   0  0  0  0  0  0  0  0  0  0  0  0
  152.2220  129.9544  155.5855 C   0  0  0  0  0  0  0  0  0  0  0  0
  152.8285  129.1391  156.5680 O   0  0  0  0  0  0  0  0  0  0  0  0
  153.3772  130.2775  154.6296 C   0  0  0  0  0  0  0  0  0  0  0  0
  154.4010  130.8104  155.2979 F   0  0  0  0  0  0  0  0  0  0  0  0
  153.8087  129.1894  153.9939 F   0  0  0  0  0  0  0  0  0  0  0  0
  151.4137  131.1236  156.1578 C   0  0  0  0  0  0  0  0  0  0  0  0
  149.9671  132.6884  154.4333 N   0  0  0  0  0  0  0  0  0  0  0  0
  149.3501  133.4764  153.5482 C   0  0  0  0  0  0  0  0  0  0  0  0
  148.3240  133.1855  152.7484 N   0  0  0  0  0  0  0  0  0  0  0  0
  147.9128  131.8974  152.9222 C   0  0  0  0  0  0  0  0  0  0  0  0
  144.5844  132.2008  151.5973 C   0  0  0  0  0  0  0  0  0  0  0  0
  145.0324  135.1948  149.1453 H   0  0  0  0  0  0  0  0  0  0  0  0
  144.3600  134.9609  151.7638 H   0  0  0  0  0  0  0  0  0  0  0  0
  143.0198  134.6368  150.6849 H   0  0  0  0  0  0  0  0  0  0  0  0
  143.9124  133.6125  148.4484 H   0  0  0  0  0  0  0  0  0  0  0  0
  144.7717  132.1024  148.5982 H   0  0  0  0  0  0  0  0  0  0  0  0
  142.1742  132.7547  149.4028 H   0  0  0  0  0  0  0  0  0  0  0  0
  146.7631  133.0176  149.6493 H   0  0  0  0  0  0  0  0  0  0  0  0
  146.6834  133.7983  151.2602 H   0  0  0  0  0  0  0  0  0  0  0  0
  145.9439  130.9317  150.4992 H   0  0  0  0  0  0  0  0  0  0  0  0
  146.1967  129.1885  152.5173 H   0  0  0  0  0  0  0  0  0  0  0  0
  150.6011  128.4638  155.4432 H   0  0  0  0  0  0  0  0  0  0  0  0
  150.9184  129.3481  153.9043 H   0  0  0  0  0  0  0  0  0  0  0  0
  152.1320  128.6788  157.0110 H   0  0  0  0  0  0  0  0  0  0  0  0
  153.0844  130.9906  153.8578 H   0  0  0  0  0  0  0  0  0  0  0  0
  151.6956  132.0992  155.7594 H   0  0  0  0  0  0  0  0  0  0  0  0
  151.3629  131.1328  157.2472 H   0  0  0  0  0  0  0  0  0  0  0  0
  149.7329  134.4834  153.4704 H   0  0  0  0  0  0  0  0  0  0  0  0
  144.5153  132.6410  152.5923 H   0  0  0  0  0  0  0  0  0  0  0  0
  143.8063  131.4496  151.4584 H   0  0  0  0  0  0  0  0  0  0  0  0
  1  2  1  0  0  0  0
  1 26  1  0  0  0  0
  2  3  1  0  0  0  0
  2 27  1  0  0  0  0
  2 28  1  0  0  0  0
  3 25  1  0  0  0  0
  3  4  1  0  0  0  0
  3  6  1  0  0  0  0
  4  5  1  0  0  0  0
  4 29  1  0  0  0  0
  4 30  1  0  0  0  0
  5 31  1  0  0  0  0
  6  7  1  0  0  0  0
  6 32  1  0  0  0  0
  6 33  1  0  0  0  0
  7  8  1  0  0  0  0
  7 25  1  0  0  0  0
  7 34  1  0  0  0  0
  8 24  1  0  0  0  0
  8  9  1  0  0  0  0
  9 10  2  0  0  0  0
  9 35  1  0  0  0  0
 10 11  1  0  0  0  0
 11 24  2  0  0  0  0
 11 12  1  0  0  0  0
 12 13  1  0  0  0  0
 12 21  2  0  0  0  0
 13 20  1  0  0  0  0
 13 14  1  0  0  0  0
 14 15  1  0  0  0  0
 14 36  1  0  0  0  0
 14 37  1  0  0  0  0
 15 16  1  0  0  0  0
 15 17  1  0  0  0  0
 15 20  1  0  0  0  0
 16 38  1  0  0  0  0
 17 18  1  0  0  0  0
 17 19  1  0  0  0  0
 17 39  1  0  0  0  0
 20 40  1  0  0  0  0
 20 41  1  0  0  0  0
 21 22  1  0  0  0  0
 22 23  2  0  0  0  0
 22 42  1  0  0  0  0
 23 24  1  0  0  0  0
 25 43  1  0  0  0  0
 25 44  1  0  0  0  0
M  END
> <s_m_source_file>
AV-unprocessed.smi

> <i_m_source_file_index>
179

> <i_lp_mmshare_version>
43012

> <i_f3d_flags>
0

> <s_epik_input>
W09IXVtDSDJdQzEoW0NIMl1bT0hdKVtDSDJdW0NIXShbQ0gyXTEpbihbY0hdbjIpYyhjMjMpbltjSF1uYzNOKFtDSDJdNClbQ0gyXUM0KFtPSF0pW0NIXShGKUY=

> <s_epik_cmdline>
J2VwaWtfcHl0aG9uJywgJy1waCcsICc3LjAnLCAnLXRuJywgJzgnLCAnLW1hJywgJzIwMCcsICctbWV0YWxfYmluZGluZycsICctaW1hZScsICc8aW5maWxlLm1hZT4nLCAnLW9tYWUnLCAnPG91dGZpbGUubWFlPic=

> <r_lp_tautomer_probability>
1

> <r_epik_Ionization_Penalty>
0.00851647

> <r_epik_Ionization_Penalty_Charging>
0

> <r_epik_Ionization_Penalty_Neutral>
0.00851647

> <r_epik_State_Penalty>
0.00617896

> <r_epik_Charging_Adjusted_Penalty>
0.00617896

> <i_epik_Tot_Q>
0

> <i_epik_Tot_abs_Q>
0

> <r_epik_Metal_State_Penalty>
0.00609441

> <b_epik_Metal_Only>
0

> <s_lp_Force_Field>
OPLS_2005

> <r_lp_Energy>
53.402

> <b_lp_Chiralities_Consistent>
1

> <s_lp_Variant>
AV-unprocessed.smi:179-1

> <Gold.Version>
5.8.1

> <Gold.Id.Protein>
6NUR|6NUR_protein|mol2

> <Gold.PLP.Fitness>
52.5368

> <Gold.PLP.PLP>
-44.6230

> <Gold.PLP.part.hbond>
-4.9103

> <Gold.PLP.part.metal>
0.0000

> <Gold.PLP.part.buried>
-5.7245

> <Gold.PLP.part.nonpolar>
-34.2426

> <Gold.PLP.part.repulsive>
0.3289

> <Gold.PLP.ligand.clash>
0.0000

> <Gold.PLP.ligand.torsion>
1.1821

> <Gold.PLP.Chemscore.Hbond>
2.8850

> <Gold.PLP.Chemscore.CHOScore>
0.3130

> <Gold.PLP.Chemscore.Metal>
0.0000

> <Gold.Chemscore.Hbonds>
donor molecule, donor type, donor heavy atom, donor atom, acceptor molecule, acceptor atom, score
      L1  H     1    26       P1  7921  1.00
      L1  H     5    31       P1 10186  1.00
      P1  H 10785 10796       L1     5  0.89
      L1  C    22    42       P1  7948  0.10

> <Gold.PLP.Chemscore.Internal.Correction>
0.6840

> <Gold.Rescore>
     Score         DG    S(hbond)    S(metal)    S(lipo)     H(rot)  DE(clash)    DE(int)     intcor
      9.28     -11.68       2.56        0.00      72.32       4.22       0.33       2.08       ----

> <Gold.Chemscore.Fitness>
9.2799

> <Gold.Chemscore.DG>
-11.6837

> <Gold.Chemscore.ZeroCoef>
-5.4800

> <Gold.Chemscore.Hbond>
2.5607

> <Gold.Chemscore.Metal>
0.0000

> <Gold.Chemscore.Lipo>
72.3248

> <Gold.Chemscore.Internal_Hbond>
0.0000

> <Gold.Chemscore.DEClash>
0.3266

> <Gold.Chemscore.DEInternal>
2.0772

> <Gold.Chemscore.Rot>
4.2230

> <Gold.Chemscore.Internal.Correction>
   9.000000E+99

> <Gold.Chemscore.Hbonds>
donor molecule, donor type, donor heavy atom, donor atom, acceptor molecule, acceptor atom, score
      L1  H     1    26       P1  7921  1.00
      L1  H     5    31       P1 10186  0.93
      P1  H 10785 10796       L1     5  0.48

> <Gold.Chemscore.Hbond.Weighted>
-8.5527

> <Gold.Chemscore.Metal.Weighted>
-0.0000

> <Gold.Chemscore.Lipo.Weighted>
-8.4620

> <Gold.Chemscore.Internal_Hbond.Weighted>
0.0000

> <Gold.Chemscore.DEClash.Weighted>
0.3266

> <Gold.Chemscore.DEInternal.Weighted>
2.0772

> <Gold.Chemscore.Rot.Weighted>
10.8110

> <Gold.Chemscore.Internal.Correction.Weighted>
   9.000000E+99

> <Gold.Protein.RotatedTorsions>
[ 6907 6896 6895 6894 ] final -137.46 input  -60.11 | X-H torsion
[ 7974 7965 7964 7962 ] final  -21.20 input  175.53 | X-H torsion
[ 8008 7997 7996 7995 ] final   28.04 input   59.86 | X-H torsion
[ 10167 10162 10161 10158 ] final  105.25 input  -65.29 | X-H torsion
[ 10718 10713 10712 10709 ] final    4.12 input   66.30 | X-H torsion
[ 10763 10752 10751 10750 ] final  -14.03 input  -60.55 | X-H torsion
[ 11005 11000 10999 10996 ] final   66.74 input  -57.11 | X-H torsion

> <Gold.Protein.ActiveResidues>
 VAL166  LYS551  ARG553  GLY616  TRP617  ASP618  TYR619  PRO620  LYS621  CYS622 
 ASP623  PHE694  ASN695  SER759  ASP760  ASP761  ALA762  ILE779  LEU786  VAL792 
 PHE793  MET794  SER795  GLU796  ALA797  LYS798  CYS799  TRP800  GLU811  SER814 

> <Gold.Protein.RotatedAtoms>
  151.0228  133.5861  159.2669 H   0  0  0  0  0  0  0  0  0  0  0  0  # atno 6907 bound_to 6896
  151.2972  135.0757  159.9235 H   0  0  0  0  0  0  0  0  0  0  0  0  # atno 6908 bound_to 6896
  152.5327  133.9916  159.7907 H   0  0  0  0  0  0  0  0  0  0  0  0  # atno 6909 bound_to 6896
  146.1746  140.4308  142.8519 H   0  0  0  0  0  0  0  0  0  0  0  0  # atno 7974 bound_to 7965
  155.0524  140.3181  155.4687 H   0  0  0  0  0  0  0  0  0  0  0  0  # atno 8008 bound_to 7997
  156.2831  140.2143  156.5594 H   0  0  0  0  0  0  0  0  0  0  0  0  # atno 8009 bound_to 7997
  154.7199  140.0490  157.0617 H   0  0  0  0  0  0  0  0  0  0  0  0  # atno 8010 bound_to 7997
  139.7109  144.7078  151.1029 H   0  0  0  0  0  0  0  0  0  0  0  0  # atno 10167 bound_to 10162
  156.8879  130.5677  149.5651 H   0  0  0  0  0  0  0  0  0  0  0  0  # atno 10718 bound_to 10713
  153.5221  135.7015  153.5726 H   0  0  0  0  0  0  0  0  0  0  0  0  # atno 10763 bound_to 10752
  153.3770  135.3930  155.1829 H   0  0  0  0  0  0  0  0  0  0  0  0  # atno 10764 bound_to 10752
  154.8693  135.3826  154.4711 H   0  0  0  0  0  0  0  0  0  0  0  0  # atno 10765 bound_to 10752
  139.9813  134.6739  156.0257 H   0  0  0  0  0  0  0  0  0  0  0  0  # atno 11005 bound_to 11000
  144.8216  140.6559  143.6349 LP  0  0  0  0  0  0  0  0  0  0  0  0  # atno 17320 bound_to 7965
  145.4247  139.1558  143.4055 LP  0  0  0  0  0  0  0  0  0  0  0  0  # atno 17321 bound_to 7965
  140.7733  143.5295  150.9440 LP  0  0  0  0  0  0  0  0  0  0  0  0  # atno 17342 bound_to 10162
  139.8979  143.6872  152.3136 LP  0  0  0  0  0  0  0  0  0  0  0  0  # atno 17343 bound_to 10162
  156.0644  130.5690  150.9258 LP  0  0  0  0  0  0  0  0  0  0  0  0  # atno 17370 bound_to 10713
  157.6101  131.0937  150.8809 LP  0  0  0  0  0  0  0  0  0  0  0  0  # atno 17371 bound_to 10713
  141.1485  133.6552  156.3940 LP  0  0  0  0  0  0  0  0  0  0  0  0  # atno 17394 bound_to 11000
  140.5090  134.6413  157.5277 LP  0  0  0  0  0  0  0  0  0  0  0  0  # atno 17395 bound_to 11000

$$$$
