AV-unprocessed.smi:1047|AV-procd|sdf|4597|dock9
  -GOLD-   22720 3 83D 1   1.00000     0.00000
 Structure written by MMmdl.
 57 59  0  0  0  0  0  0  0  0  3 V2000
  146.2498  141.8605  154.1004 C   0  0  0  0  0  0  0  0  0  0  0  0
  147.2547  140.8624  154.6928 C   0  0  0  0  0  0  0  0  0  0  0  0
  147.7105  139.8568  153.6967 N   0  3  2  0  0  0  0  0  0  0  0  0
  146.6002  139.1010  153.0659 C   0  0  0  0  0  0  0  0  0  0  0  0
  146.0597  138.0106  154.0089 C   0  0  0  0  0  0  0  0  0  0  0  0
  147.1166  137.1349  154.3824 O   0  0  0  0  0  0  0  0  0  0  0  0
  148.1642  137.8083  155.0735 C   0  0  1  0  0  0  0  0  0  0  0  0
  149.1980  136.7725  155.5499 C   0  0  0  0  0  0  0  0  0  0  0  0
  150.2704  137.3794  156.3349 N   0  0  0  0  0  0  0  0  0  0  0  0
  151.4934  137.6077  155.5689 C   0  0  0  0  0  0  0  0  0  0  0  0
  151.9796  139.0647  155.6710 C   0  0  2  0  0  0  0  0  0  0  0  0
  153.1691  139.2204  154.9216 O   0  0  0  0  0  0  0  0  0  0  0  0
  152.1608  139.5671  157.1188 C   0  0  0  0  0  0  0  0  0  0  0  0
  151.5789  140.8979  157.3367 N   0  0  0  0  0  0  0  0  0  0  0  0
  150.7592  141.6355  156.5394 C   0  0  0  0  0  0  0  0  0  0  0  0
  150.5026  142.8060  157.1867 N   0  3  0  0  0  0  0  0  0  0  0  0
  151.1702  142.8166  158.4134 C   0  0  0  0  0  0  0  0  0  0  0  0
  151.2191  143.7778  159.4160 C   0  0  0  0  0  0  0  0  0  0  0  0
  151.9989  143.4810  160.5568 C   0  0  0  0  0  0  0  0  0  0  0  0
  152.0720  144.5098  161.6723 C   0  0  0  0  0  0  0  0  0  0  0  0
  152.6984  142.2507  160.6633 C   0  0  0  0  0  0  0  0  0  0  0  0
  153.5327  141.9414  161.8948 C   0  0  0  0  0  0  0  0  0  0  0  0
  152.6374  141.2867  159.6314 C   0  0  0  0  0  0  0  0  0  0  0  0
  151.8635  141.5952  158.5153 C   0  0  0  0  0  0  0  0  0  0  0  0
  148.7604  138.9255  154.1839 C   0  0  0  0  0  0  0  0  0  0  0  0
  145.8637  142.5203  154.8776 H   0  0  0  0  0  0  0  0  0  0  0  0
  145.3990  141.3452  153.6535 H   0  0  0  0  0  0  0  0  0  0  0  0
  146.7005  142.4932  153.3363 H   0  0  0  0  0  0  0  0  0  0  0  0
  148.1007  141.3903  155.1325 H   0  0  0  0  0  0  0  0  0  0  0  0
  146.7579  140.3453  155.5146 H   0  0  0  0  0  0  0  0  0  0  0  0
  145.8018  139.7758  152.7549 H   0  0  0  0  0  0  0  0  0  0  0  0
  146.9760  138.6338  152.1545 H   0  0  0  0  0  0  0  0  0  0  0  0
  145.5976  138.4464  154.8960 H   0  0  0  0  0  0  0  0  0  0  0  0
  145.2869  137.4304  153.5045 H   0  0  0  0  0  0  0  0  0  0  0  0
  147.7368  138.2564  155.9713 H   0  0  0  0  0  0  0  0  0  0  0  0
  148.6891  136.0162  156.1489 H   0  0  0  0  0  0  0  0  0  0  0  0
  149.6158  136.2523  154.6872 H   0  0  0  0  0  0  0  0  0  0  0  0
  150.4831  136.7939  157.1365 H   0  0  0  0  0  0  0  0  0  0  0  0
  152.2824  136.9373  155.9125 H   0  0  0  0  0  0  0  0  0  0  0  0
  151.3178  137.3630  154.5207 H   0  0  0  0  0  0  0  0  0  0  0  0
  151.2307  139.6884  155.1821 H   0  0  0  0  0  0  0  0  0  0  0  0
  153.2104  138.5288  154.2792 H   0  0  0  0  0  0  0  0  0  0  0  0
  151.7137  138.8731  157.8317 H   0  0  0  0  0  0  0  0  0  0  0  0
  153.2192  139.6339  157.3742 H   0  0  0  0  0  0  0  0  0  0  0  0
  150.3809  141.3450  155.5698 H   0  0  0  0  0  0  0  0  0  0  0  0
  150.6842  144.7122  159.3279 H   0  0  0  0  0  0  0  0  0  0  0  0
  153.1054  144.8057  161.8549 H   0  0  0  0  0  0  0  0  0  0  0  0
  151.6587  144.1033  162.5960 H   0  0  0  0  0  0  0  0  0  0  0  0
  151.5081  145.4094  161.4229 H   0  0  0  0  0  0  0  0  0  0  0  0
  153.9752  140.9464  161.8380 H   0  0  0  0  0  0  0  0  0  0  0  0
  152.9181  141.9801  162.7945 H   0  0  0  0  0  0  0  0  0  0  0  0
  154.3444  142.6624  161.9975 H   0  0  0  0  0  0  0  0  0  0  0  0
  153.1694  140.3501  159.7111 H   0  0  0  0  0  0  0  0  0  0  0  0
  149.2330  138.4856  153.3050 H   0  0  0  0  0  0  0  0  0  0  0  0
  149.5484  139.4600  154.7129 H   0  0  0  0  0  0  0  0  0  0  0  0
  148.1298  140.3981  152.9539 H   0  0  0  0  0  0  0  0  0  0  0  0
  149.9166  143.5426  156.8150 H   0  0  0  0  0  0  0  0  0  0  0  0
  1  2  1  0  0  0  0
  1 26  1  0  0  0  0
  1 27  1  0  0  0  0
  1 28  1  0  0  0  0
  2  3  1  0  0  0  0
  2 29  1  0  0  0  0
  2 30  1  0  0  0  0
  3 25  1  0  0  0  0
  3  4  1  0  0  0  0
  3 56  1  0  0  0  0
  4  5  1  0  0  0  0
  4 31  1  0  0  0  0
  4 32  1  0  0  0  0
  5  6  1  0  0  0  0
  5 33  1  0  0  0  0
  5 34  1  0  0  0  0
  6  7  1  0  0  0  0
  7  8  1  0  0  0  0
  7 25  1  0  0  0  0
  7 35  1  0  0  0  0
  8  9  1  0  0  0  0
  8 36  1  0  0  0  0
  8 37  1  0  0  0  0
  9 10  1  0  0  0  0
  9 38  1  0  0  0  0
 10 11  1  0  0  0  0
 10 39  1  0  0  0  0
 10 40  1  0  0  0  0
 11 12  1  0  0  0  0
 11 13  1  0  0  0  0
 11 41  1  0  0  0  0
 12 42  1  0  0  0  0
 13 14  1  0  0  0  0
 13 43  1  0  0  0  0
 13 44  1  0  0  0  0
 14 24  1  0  0  0  0
 14 15  1  0  0  0  0
 15 16  2  0  0  0  0
 15 45  1  0  0  0  0
 16 17  1  0  0  0  0
 16 57  1  0  0  0  0
 17 24  2  0  0  0  0
 17 18  1  0  0  0  0
 18 19  2  0  0  0  0
 18 46  1  0  0  0  0
 19 20  1  0  0  0  0
 19 21  1  0  0  0  0
 20 47  1  0  0  0  0
 20 48  1  0  0  0  0
 20 49  1  0  0  0  0
 21 22  1  0  0  0  0
 21 23  2  0  0  0  0
 22 50  1  0  0  0  0
 22 51  1  0  0  0  0
 22 52  1  0  0  0  0
 23 24  1  0  0  0  0
 23 53  1  0  0  0  0
 25 54  1  0  0  0  0
 25 55  1  0  0  0  0
M  CHG  1   3   1
M  CHG  1  16   1
M  END
> <s_m_source_file>
AV-unprocessed.smi

> <i_m_source_file_index>
1047

> <i_lp_mmshare_version>
43012

> <i_f3d_flags>
0

> <s_epik_input>
W0NIM11bQ0gyXU4xW0NIMl1bQ0gyXU9bQ0BIXShbQ0gyXTEpW0NIMl1bTkhdW0NIMl1bQ0BIXShbT0hdKVtDSDJdbihbY0hdbjIpYyhjMjMpW2NIXWMoW0NIM10pYyhbY0hdMylbQ0gzXQ==

> <s_epik_cmdline>
J2VwaWtfcHl0aG9uJywgJy1waCcsICc3LjAnLCAnLXRuJywgJzgnLCAnLW1hJywgJzIwMCcsICctbWV0YWxfYmluZGluZycsICctaW1hZScsICc8aW5maWxlLm1hZT4nLCAnLW9tYWUnLCAnPG91dGZpbGUubWFlPic=

> <r_epik_Ionization_Penalty>
2.03028

> <r_epik_Ionization_Penalty_Charging>
1.21256

> <r_epik_Ionization_Penalty_Neutral>
0.817715

> <r_epik_State_Penalty>
2.54959

> <r_epik_Charging_Adjusted_Penalty>
3.76215

> <i_epik_Tot_Q>
2

> <i_epik_Tot_abs_Q>
2

> <r_epik_Metal_State_Penalty>
6.52811

> <b_epik_Metal_Only>
0

> <s_lp_Force_Field>
OPLS_2005

> <r_lp_Energy>
43.5189

> <b_lp_Chiralities_Consistent>
1

> <s_lp_Variant>
AV-unprocessed.smi:1047-38

> <Gold.Version>
5.8.1

> <Gold.Id.Protein>
6NUR|6NUR_protein|mol2

> <Gold.PLP.Fitness>
57.5447

> <Gold.PLP.PLP>
-49.3080

> <Gold.PLP.part.hbond>
-3.2831

> <Gold.PLP.part.metal>
0.0000

> <Gold.PLP.part.buried>
-4.8346

> <Gold.PLP.part.nonpolar>
-41.3685

> <Gold.PLP.part.repulsive>
0.4509

> <Gold.PLP.ligand.clash>
0.0000

> <Gold.PLP.ligand.torsion>
1.3961

> <Gold.PLP.Chemscore.Hbond>
3.6400

> <Gold.PLP.Chemscore.CHOScore>
0.0000

> <Gold.PLP.Chemscore.Metal>
0.0000

> <Gold.Chemscore.Hbonds>
donor molecule, donor type, donor heavy atom, donor atom, acceptor molecule, acceptor atom, score
      L1  H     3    56       P1  7957  0.16
      L1  H    16    57       P1  8028  2.00
      P1  H  7997  8010       L1    12  1.00

> <Gold.PLP.Chemscore.Internal.Correction>
0.1089

> <Gold.Rescore>
     Score         DG    S(hbond)    S(metal)    S(lipo)     H(rot)  DE(clash)    DE(int)     intcor
     20.78     -23.73       2.73        0.00     137.35       2.71       1.39       1.56       ----

> <Gold.Chemscore.Fitness>
20.7798

> <Gold.Chemscore.DG>
-23.7266

> <Gold.Chemscore.ZeroCoef>
-5.4800

> <Gold.Chemscore.Hbond>
2.7280

> <Gold.Chemscore.Metal>
0.0000

> <Gold.Chemscore.Lipo>
137.3476

> <Gold.Chemscore.Internal_Hbond>
0.0000

> <Gold.Chemscore.DEClash>
1.3872

> <Gold.Chemscore.DEInternal>
1.5597

> <Gold.Chemscore.Rot>
2.7088

> <Gold.Chemscore.Internal.Correction>
   9.000000E+99

> <Gold.Chemscore.Hbonds>
donor molecule, donor type, donor heavy atom, donor atom, acceptor molecule, acceptor atom, score
      L1  H     3    56       P1  7957  0.17
      L1  H    16    57       P1  8028  0.99
      P1  H  7997  8010       L1    12  0.85

> <Gold.Chemscore.Hbond.Weighted>
-9.1116

> <Gold.Chemscore.Metal.Weighted>
-0.0000

> <Gold.Chemscore.Lipo.Weighted>
-16.0697

> <Gold.Chemscore.Internal_Hbond.Weighted>
0.0000

> <Gold.Chemscore.DEClash.Weighted>
1.3872

> <Gold.Chemscore.DEInternal.Weighted>
1.5597

> <Gold.Chemscore.Rot.Weighted>
6.9346

> <Gold.Chemscore.Internal.Correction.Weighted>
   9.000000E+99

> <Gold.Protein.RotatedTorsions>
[ 6907 6896 6895 6894 ] final  160.40 input  -60.11 | X-H torsion
[ 7974 7965 7964 7962 ] final -162.75 input  175.53 | X-H torsion
[ 8008 7997 7996 7995 ] final  108.35 input   59.86 | X-H torsion
[ 10167 10162 10161 10158 ] final -175.64 input  -65.29 | X-H torsion
[ 10718 10713 10712 10709 ] final  126.76 input   66.30 | X-H torsion
[ 10763 10752 10751 10750 ] final -146.97 input  -60.55 | X-H torsion
[ 11005 11000 10999 10996 ] final   35.28 input  -57.11 | X-H torsion

> <Gold.Protein.ActiveResidues>
 VAL166  LYS551  ARG553  GLY616  TRP617  ASP618  TYR619  PRO620  LYS621  CYS622 
 ASP623  PHE694  ASN695  SER759  ASP760  ASP761  ALA762  ILE779  LEU786  VAL792 
 PHE793  MET794  SER795  GLU796  ALA797  LYS798  CYS799  TRP800  GLU811  SER814 

> <Gold.Protein.RotatedAtoms>
  151.9712  133.3726  159.4071 H   0  0  0  0  0  0  0  0  0  0  0  0  # atno 6907 bound_to 6896
  150.6948  134.4138  159.5183 H   0  0  0  0  0  0  0  0  0  0  0  0  # atno 6908 bound_to 6896
  152.1842  134.8727  160.0574 H   0  0  0  0  0  0  0  0  0  0  0  0  # atno 6909 bound_to 6896
  144.7347  140.3207  143.6171 H   0  0  0  0  0  0  0  0  0  0  0  0  # atno 7974 bound_to 7965
  156.1896  140.3078  155.9306 H   0  0  0  0  0  0  0  0  0  0  0  0  # atno 8008 bound_to 7997
  155.3203  140.0455  157.3056 H   0  0  0  0  0  0  0  0  0  0  0  0  # atno 8009 bound_to 7997
  154.5436  140.2269  155.8609 H   0  0  0  0  0  0  0  0  0  0  0  0  # atno 8010 bound_to 7997
  139.5570  144.1963  152.1176 H   0  0  0  0  0  0  0  0  0  0  0  0  # atno 10167 bound_to 10162
  157.5391  131.1097  150.8888 H   0  0  0  0  0  0  0  0  0  0  0  0  # atno 10718 bound_to 10713
  154.8310  135.3372  154.6744 H   0  0  0  0  0  0  0  0  0  0  0  0  # atno 10763 bound_to 10752
  153.7364  135.6948  153.4981 H   0  0  0  0  0  0  0  0  0  0  0  0  # atno 10764 bound_to 10752
  153.2275  135.4428  155.0510 H   0  0  0  0  0  0  0  0  0  0  0  0  # atno 10765 bound_to 10752
  140.2442  134.3379  155.7914 H   0  0  0  0  0  0  0  0  0  0  0  0  # atno 11005 bound_to 11000
  145.7571  139.1812  143.2288 LP  0  0  0  0  0  0  0  0  0  0  0  0  # atno 17320 bound_to 7965
  146.1015  140.7538  142.9547 LP  0  0  0  0  0  0  0  0  0  0  0  0  # atno 17321 bound_to 7965
  140.1470  144.5150  150.6710 LP  0  0  0  0  0  0  0  0  0  0  0  0  # atno 17342 bound_to 10162
  140.6845  143.2343  151.5297 LP  0  0  0  0  0  0  0  0  0  0  0  0  # atno 17343 bound_to 10162
  156.9446  130.5397  149.5281 LP  0  0  0  0  0  0  0  0  0  0  0  0  # atno 17370 bound_to 10713
  156.0482  130.5555  150.8930 LP  0  0  0  0  0  0  0  0  0  0  0  0  # atno 17371 bound_to 10713
  141.2208  133.7316  156.8934 LP  0  0  0  0  0  0  0  0  0  0  0  0  # atno 17394 bound_to 11000
  140.1622  134.9157  157.2729 LP  0  0  0  0  0  0  0  0  0  0  0  0  # atno 17395 bound_to 11000

$$$$
