AV-unprocessed.smi:1748|AV-procd|sdf|7038|dock5
  -GOLD-   22720 8253D 1   1.00000     0.00000
 Structure written by MMmdl.
 40 41  0  0  0  0  0  0  0  0  2 V2000
  146.3782  133.2729  151.4302 C   0  0  0  0  0  0  0  0  0  0  0  0
  146.3319  134.6850  151.8657 N   0  3  1  0  0  0  0  0  0  0  0  0
  145.4814  135.5224  150.9832 C   0  0  0  0  0  0  0  0  0  0  0  0
  145.5569  137.0055  151.3847 C   0  0  0  0  0  0  0  0  0  0  0  0
  145.2070  137.2018  152.8699 C   0  0  0  0  0  0  0  0  0  0  0  0
  146.0676  136.2920  153.7657 C   0  0  2  0  0  0  0  0  0  0  0  0
  147.4560  136.7538  153.7575 N   0  0  0  0  0  0  0  0  0  0  0  0
  148.0068  137.5718  154.6656 C   0  0  0  0  0  0  0  0  0  0  0  0
  147.3888  138.0196  155.6310 O   0  0  0  0  0  0  0  0  0  0  0  0
  149.3035  137.7967  154.3862 N   0  0  0  0  0  0  0  0  0  0  0  0
  150.2338  138.5895  155.0785 C   0  0  0  0  0  0  0  0  0  0  0  0
  149.9133  139.6325  155.8883 C   0  0  0  0  0  0  0  0  0  0  0  0
  150.9284  140.4209  156.5679 C   0  0  0  0  0  0  0  0  0  0  0  0
  150.5627  141.5329  157.5388 C   0  0  0  0  0  0  0  0  0  0  0  0
  149.2395  141.6621  157.6440 F   0  0  0  0  0  0  0  0  0  0  0  0
  151.0493  141.2560  158.7478 F   0  0  0  0  0  0  0  0  0  0  0  0
  151.0677  142.7021  157.1450 F   0  0  0  0  0  0  0  0  0  0  0  0
  152.2078  140.0608  156.3579 C   0  0  0  0  0  0  0  0  0  0  0  0
  152.5463  139.0055  155.5078 N   0  0  0  0  0  0  0  0  0  0  0  0
  151.6459  138.2420  154.8493 C   0  0  0  0  0  0  0  0  0  0  0  0
  152.0226  137.3262  154.1186 O   0  0  0  0  0  0  0  0  0  0  0  0
  145.9491  134.8253  153.2932 C   0  0  0  0  0  0  0  0  0  0  0  0
  153.5298  138.8096  155.3885 H   0  0  0  0  0  0  0  0  0  0  0  0
  145.3916  132.8115  151.4912 H   0  0  0  0  0  0  0  0  0  0  0  0
  147.0638  132.6999  152.0556 H   0  0  0  0  0  0  0  0  0  0  0  0
  146.7284  133.1991  150.4002 H   0  0  0  0  0  0  0  0  0  0  0  0
  145.8047  135.4093  149.9477 H   0  0  0  0  0  0  0  0  0  0  0  0
  144.4489  135.1723  151.0333 H   0  0  0  0  0  0  0  0  0  0  0  0
  146.5597  137.3865  151.1873 H   0  0  0  0  0  0  0  0  0  0  0  0
  144.8801  137.5929  150.7633 H   0  0  0  0  0  0  0  0  0  0  0  0
  145.3310  138.2477  153.1539 H   0  0  0  0  0  0  0  0  0  0  0  0
  144.1530  136.9661  153.0241 H   0  0  0  0  0  0  0  0  0  0  0  0
  145.6925  136.3669  154.7879 H   0  0  0  0  0  0  0  0  0  0  0  0
  148.0359  136.4371  152.9939 H   0  0  0  0  0  0  0  0  0  0  0  0
  149.6870  137.2979  153.5963 H   0  0  0  0  0  0  0  0  0  0  0  0
  148.8859  139.9236  156.0347 H   0  0  0  0  0  0  0  0  0  0  0  0
  153.0574  140.5410  156.8208 H   0  0  0  0  0  0  0  0  0  0  0  0
  144.9252  134.4733  153.4283 H   0  0  0  0  0  0  0  0  0  0  0  0
  146.5787  134.1795  153.9067 H   0  0  0  0  0  0  0  0  0  0  0  0
  147.2739  135.0404  151.7843 H   0  0  0  0  0  0  0  0  0  0  0  0
  1  2  1  0  0  0  0
  1 24  1  0  0  0  0
  1 25  1  0  0  0  0
  1 26  1  0  0  0  0
  2 22  1  0  0  0  0
  2  3  1  0  0  0  0
  2 40  1  0  0  0  0
  3  4  1  0  0  0  0
  3 27  1  0  0  0  0
  3 28  1  0  0  0  0
  4  5  1  0  0  0  0
  4 29  1  0  0  0  0
  4 30  1  0  0  0  0
  5  6  1  0  0  0  0
  5 31  1  0  0  0  0
  5 32  1  0  0  0  0
  6  7  1  0  0  0  0
  6 22  1  0  0  0  0
  6 33  1  0  0  0  0
  7  8  1  0  0  0  0
  7 34  1  0  0  0  0
  8  9  2  0  0  0  0
  8 10  1  0  0  0  0
 10 11  1  0  0  0  0
 10 35  1  0  0  0  0
 11 20  1  0  0  0  0
 11 12  2  0  0  0  0
 12 13  1  0  0  0  0
 12 36  1  0  0  0  0
 13 14  1  0  0  0  0
 13 18  2  0  0  0  0
 14 15  1  0  0  0  0
 14 16  1  0  0  0  0
 14 17  1  0  0  0  0
 18 19  1  0  0  0  0
 18 37  1  0  0  0  0
 19 23  1  0  0  0  0
 19 20  1  0  0  0  0
 20 21  2  0  0  0  0
 22 38  1  0  0  0  0
 22 39  1  0  0  0  0
M  CHG  1   2   1
M  END
> <s_m_source_file>
AV-unprocessed.smi

> <i_m_source_file_index>
1748

> <i_lp_mmshare_version>
43012

> <i_f3d_flags>
0

> <s_epik_input>
W0NIM11OMVtDSDJdW0NIMl1bQ0gyXVtDQEhdKFtDSDJdMSlbTkhdQyg9TylbTkhdYzJbY0hdYyhDKEYpKEYpRilbY0hdW25IXWMyPU8=

> <s_epik_cmdline>
J2VwaWtfcHl0aG9uJywgJy1waCcsICc3LjAnLCAnLXRuJywgJzgnLCAnLW1hJywgJzIwMCcsICctbWV0YWxfYmluZGluZycsICctaW1hZScsICc8aW5maWxlLm1hZT4nLCAnLW9tYWUnLCAnPG91dGZpbGUubWFlPic=

> <r_lp_tautomer_probability>
1

> <r_epik_Ionization_Penalty>
0.00746315

> <r_epik_Ionization_Penalty_Charging>
0.00744398

> <r_epik_Ionization_Penalty_Neutral>
1.91704e-05

> <r_epik_State_Penalty>
-0

> <r_epik_Charging_Adjusted_Penalty>
0.00744398

> <i_epik_Tot_Q>
1

> <i_epik_Tot_abs_Q>
1

> <r_epik_Metal_State_Penalty>
0.379332

> <b_epik_Metal_Only>
0

> <s_lp_Force_Field>
OPLS_2005

> <r_lp_Energy>
33.9877

> <b_lp_Chiralities_Consistent>
1

> <s_lp_Variant>
AV-unprocessed.smi:1748-3

> <Gold.Version>
5.8.1

> <Gold.Id.Protein>
6NUR|6NUR_protein|mol2

> <Gold.PLP.Fitness>
41.8265

> <Gold.PLP.PLP>
-29.4661

> <Gold.PLP.part.hbond>
-3.8174

> <Gold.PLP.part.metal>
0.0000

> <Gold.PLP.part.buried>
-2.7860

> <Gold.PLP.part.nonpolar>
-24.6709

> <Gold.PLP.part.repulsive>
0.8041

> <Gold.PLP.ligand.clash>
0.0000

> <Gold.PLP.ligand.torsion>
0.4719

> <Gold.PLP.Chemscore.Hbond>
4.4235

> <Gold.PLP.Chemscore.CHOScore>
0.0000

> <Gold.PLP.Chemscore.Metal>
0.0000

> <Gold.Chemscore.Hbonds>
donor molecule, donor type, donor heavy atom, donor atom, acceptor molecule, acceptor atom, score
      L1  H     2    40       P1  7948  2.00
      L1  H     7    34       P1  7948  0.84
      L1  H    10    35       P1  7948  0.59
      P1  H 10752 10765       L1    21  0.98

> <Gold.PLP.Chemscore.Internal.Correction>
0.0335

> <Gold.Rescore>
     Score         DG    S(hbond)    S(metal)    S(lipo)     H(rot)  DE(clash)    DE(int)     intcor
     17.53     -20.79       3.35        0.00      57.16       1.00       1.80       1.46       ----

> <Gold.Chemscore.Fitness>
17.5307

> <Gold.Chemscore.DG>
-20.7920

> <Gold.Chemscore.ZeroCoef>
-5.4800

> <Gold.Chemscore.Hbond>
3.3486

> <Gold.Chemscore.Metal>
0.0000

> <Gold.Chemscore.Lipo>
57.1598

> <Gold.Chemscore.Internal_Hbond>
0.0000

> <Gold.Chemscore.DEClash>
1.7970

> <Gold.Chemscore.DEInternal>
1.4643

> <Gold.Chemscore.Rot>
1.0000

> <Gold.Chemscore.Internal.Correction>
   9.000000E+99

> <Gold.Chemscore.Hbonds>
donor molecule, donor type, donor heavy atom, donor atom, acceptor molecule, acceptor atom, score
      L1  H     2    40       P1  7948  0.86
      L1  H     7    34       P1  7948  0.84
      L1  H    10    35       P1  7948  0.46
      P1  H 10752 10765       L1    21  0.92

> <Gold.Chemscore.Hbond.Weighted>
-11.1843

> <Gold.Chemscore.Metal.Weighted>
-0.0000

> <Gold.Chemscore.Lipo.Weighted>
-6.6877

> <Gold.Chemscore.Internal_Hbond.Weighted>
0.0000

> <Gold.Chemscore.DEClash.Weighted>
1.7970

> <Gold.Chemscore.DEInternal.Weighted>
1.4643

> <Gold.Chemscore.Rot.Weighted>
2.5600

> <Gold.Chemscore.Internal.Correction.Weighted>
   9.000000E+99

> <Gold.Protein.RotatedTorsions>
[ 6907 6896 6895 6894 ] final  133.10 input  -60.11 | X-H torsion
[ 7974 7965 7964 7962 ] final -117.30 input  175.53 | X-H torsion
[ 8008 7997 7996 7995 ] final  -23.70 input   59.86 | X-H torsion
[ 10167 10162 10161 10158 ] final   11.58 input  -65.29 | X-H torsion
[ 10718 10713 10712 10709 ] final -103.68 input   66.30 | X-H torsion
[ 10763 10752 10751 10750 ] final  151.09 input  -60.55 | X-H torsion
[ 11005 11000 10999 10996 ] final  148.89 input  -57.11 | X-H torsion

> <Gold.Protein.ActiveResidues>
 VAL166  LYS551  ARG553  GLY616  TRP617  ASP618  TYR619  PRO620  LYS621  CYS622 
 ASP623  PHE694  ASN695  SER759  ASP760  ASP761  ALA762  ILE779  LEU786  VAL792 
 PHE793  MET794  SER795  GLU796  ALA797  LYS798  CYS799  TRP800  GLU811  SER814 

> <Gold.Protein.RotatedAtoms>
  152.3255  133.5900  159.5773 H   0  0  0  0  0  0  0  0  0  0  0  0  # atno 6907 bound_to 6896
  150.7394  133.9947  159.3627 H   0  0  0  0  0  0  0  0  0  0  0  0  # atno 6908 bound_to 6896
  151.7827  135.0757  160.0427 H   0  0  0  0  0  0  0  0  0  0  0  0  # atno 6909 bound_to 6896
  145.0868  140.8463  143.4006 H   0  0  0  0  0  0  0  0  0  0  0  0  # atno 7974 bound_to 7965
  154.4570  140.1973  156.0351 H   0  0  0  0  0  0  0  0  0  0  0  0  # atno 8008 bound_to 7997
  156.0766  140.3277  155.7613 H   0  0  0  0  0  0  0  0  0  0  0  0  # atno 8009 bound_to 7997
  155.5179  140.0567  157.2903 H   0  0  0  0  0  0  0  0  0  0  0  0  # atno 8010 bound_to 7997
  140.6123  143.8382  150.7079 H   0  0  0  0  0  0  0  0  0  0  0  0  # atno 10167 bound_to 10162
  156.0274  130.5479  150.7287 H   0  0  0  0  0  0  0  0  0  0  0  0  # atno 10718 bound_to 10713
  154.0982  135.2847  155.3257 H   0  0  0  0  0  0  0  0  0  0  0  0  # atno 10763 bound_to 10752
  154.6574  135.5347  153.7978 H   0  0  0  0  0  0  0  0  0  0  0  0  # atno 10764 bound_to 10752
  153.0388  135.6525  154.1147 H   0  0  0  0  0  0  0  0  0  0  0  0  # atno 10765 bound_to 10752
  140.0998  134.8990  157.1778 H   0  0  0  0  0  0  0  0  0  0  0  0  # atno 11005 bound_to 11000
  145.1112  139.2756  143.5636 LP  0  0  0  0  0  0  0  0  0  0  0  0  # atno 17320 bound_to 7965
  146.3531  140.0709  142.8623 LP  0  0  0  0  0  0  0  0  0  0  0  0  # atno 17321 bound_to 7965
  140.1953  143.4003  152.1833 LP  0  0  0  0  0  0  0  0  0  0  0  0  # atno 17342 bound_to 10162
  139.5371  144.7220  151.4857 LP  0  0  0  0  0  0  0  0  0  0  0  0  # atno 17343 bound_to 10162
  157.4885  131.0909  151.0454 LP  0  0  0  0  0  0  0  0  0  0  0  0  # atno 17370 bound_to 10713
  157.0868  130.5925  149.5431 LP  0  0  0  0  0  0  0  0  0  0  0  0  # atno 17371 bound_to 10713
  140.3236  134.2889  155.7241 LP  0  0  0  0  0  0  0  0  0  0  0  0  # atno 17394 bound_to 11000
  141.2102  133.7725  156.9945 LP  0  0  0  0  0  0  0  0  0  0  0  0  # atno 17395 bound_to 11000

$$$$
