AV-unprocessed.smi:35|AV-procd|sdf|249|dock3
  -GOLD-   2262016 13D 1   1.00000     0.00000
 Structure written by MMmdl.
 29 30  0  0  0  0  0  0  0  0  1 V2000
  153.5420  142.0392  159.6314 O   0  0  0  0  0  0  0  0  0  0  0  0
  152.6331  141.8823  158.8190 C   0  0  0  0  0  0  0  0  0  0  0  0
  152.3489  140.6100  158.3140 N   0  0  0  0  0  0  0  0  0  0  0  0
  151.3454  140.3077  157.3906 C   0  0  0  0  0  0  0  0  0  0  0  0
  151.1777  139.1441  157.0288 O   0  0  0  0  0  0  0  0  0  0  0  0
  150.5569  141.3832  156.9220 N   0  0  0  0  0  0  0  0  0  0  0  0
  149.4535  141.1305  155.9207 C   0  0  2  0  0  0  0  0  0  0  0  0
  148.5264  140.2636  156.5028 O   0  0  0  0  0  0  0  0  0  0  0  0
  148.2011  139.2195  155.5931 C   0  0  2  0  0  0  0  0  0  0  0  0
  147.7492  137.9850  156.3887 C   0  0  0  0  0  0  0  0  0  0  0  0
  148.6545  137.7094  157.4361 O   0  0  0  0  0  0  0  0  0  0  0  0
  149.4904  139.0343  154.7886 C   0  0  1  0  0  0  0  0  0  0  0  0
  149.2806  138.3952  153.5431 O   0  0  0  0  0  0  0  0  0  0  0  0
  150.0140  140.4622  154.6532 C   0  0  1  0  0  0  0  0  0  0  0  0
  149.5388  141.1090  153.4860 O   0  0  0  0  0  0  0  0  0  0  0  0
  150.7972  142.6633  157.4019 C   0  0  0  0  0  0  0  0  0  0  0  0
  151.7714  142.9386  158.2999 C   0  0  0  0  0  0  0  0  0  0  0  0
  151.9504  144.8305  158.8591 Br  0  0  0  0  0  0  0  0  0  0  0  0
  152.9153  139.8437  158.6478 H   0  0  0  0  0  0  0  0  0  0  0  0
  148.9544  142.0822  155.7313 H   0  0  0  0  0  0  0  0  0  0  0  0
  147.3978  139.5804  154.9478 H   0  0  0  0  0  0  0  0  0  0  0  0
  146.7473  138.1252  156.7954 H   0  0  0  0  0  0  0  0  0  0  0  0
  147.7114  137.1139  155.7341 H   0  0  0  0  0  0  0  0  0  0  0  0
  149.4606  138.1734  157.2667 H   0  0  0  0  0  0  0  0  0  0  0  0
  150.2029  138.4459  155.3679 H   0  0  0  0  0  0  0  0  0  0  0  0
  149.6047  138.9610  152.8586 H   0  0  0  0  0  0  0  0  0  0  0  0
  151.1045  140.4933  154.6424 H   0  0  0  0  0  0  0  0  0  0  0  0
  149.4179  140.4584  152.8114 H   0  0  0  0  0  0  0  0  0  0  0  0
  150.1857  143.4812  157.0509 H   0  0  0  0  0  0  0  0  0  0  0  0
  1  2  2  0  0  0  0
  2 17  1  0  0  0  0
  2  3  1  0  0  0  0
  3 19  1  0  0  0  0
  3  4  1  0  0  0  0
  4  5  2  0  0  0  0
  4  6  1  0  0  0  0
  6  7  1  0  0  0  0
  6 16  1  0  0  0  0
  7 14  1  0  0  0  0
  7  8  1  0  0  0  0
  7 20  1  0  0  0  0
  8  9  1  0  0  0  0
  9 10  1  0  0  0  0
  9 12  1  0  0  0  0
  9 21  1  0  0  0  0
 10 11  1  0  0  0  0
 10 22  1  0  0  0  0
 10 23  1  0  0  0  0
 11 24  1  0  0  0  0
 12 13  1  0  0  0  0
 12 14  1  0  0  0  0
 12 25  1  0  0  0  0
 13 26  1  0  0  0  0
 14 15  1  0  0  0  0
 14 27  1  0  0  0  0
 15 28  1  0  0  0  0
 16 17  2  0  0  0  0
 16 29  1  0  0  0  0
 17 18  1  0  0  0  0
M  END
> <s_m_source_file>
AV-unprocessed.smi

> <i_m_source_file_index>
35

> <i_lp_mmshare_version>
43012

> <i_f3d_flags>
0

> <s_epik_input>
Tz1jMVtuSF1jKD1PKW4oW2NIXWMxQnIpW0NAQEhdMk9bQ0BASF0oW0NIMl1bT0hdKVtDQEBIXShbT0hdKVtDQEhdMltPSF0=

> <s_epik_cmdline>
J2VwaWtfcHl0aG9uJywgJy1waCcsICc3LjAnLCAnLXRuJywgJzgnLCAnLW1hJywgJzIwMCcsICctbWV0YWxfYmluZGluZycsICctaW1hZScsICc8aW5maWxlLm1hZT4nLCAnLW9tYWUnLCAnPG91dGZpbGUubWFlPic=

> <r_lp_tautomer_probability>
0.999537

> <r_epik_Ionization_Penalty>
0.10812

> <r_epik_Ionization_Penalty_Charging>
0.108119

> <r_epik_Ionization_Penalty_Neutral>
4.93006e-07

> <r_epik_State_Penalty>
0.0979238

> <r_epik_Charging_Adjusted_Penalty>
0.206043

> <i_epik_Tot_Q>
0

> <i_epik_Tot_abs_Q>
0

> <r_epik_Metal_State_Penalty>
3.07911

> <b_epik_Metal_Only>
0

> <s_epik_Chemistry_Notes>
This compound contains an acetal/aminal-like group ( X-CH(R)-Y where X, Y are N, S, or O) that may be acid/base labile, releasing an aldehyde.

> <s_lp_Force_Field>
OPLS_2005

> <r_lp_Energy>
30.5202

> <b_lp_Chiralities_Consistent>
1

> <s_lp_Variant>
AV-unprocessed.smi:35-3

> <Gold.Version>
5.8.1

> <Gold.Id.Protein>
6NUR|6NUR_protein|mol2

> <Gold.PLP.Fitness>
38.7409

> <Gold.PLP.PLP>
-28.0765

> <Gold.PLP.part.hbond>
-5.0000

> <Gold.PLP.part.metal>
0.0000

> <Gold.PLP.part.buried>
-2.5301

> <Gold.PLP.part.nonpolar>
-20.2136

> <Gold.PLP.part.repulsive>
0.1118

> <Gold.PLP.ligand.clash>
0.0000

> <Gold.PLP.ligand.torsion>
0.0628

> <Gold.PLP.Chemscore.Hbond>
2.5940

> <Gold.PLP.Chemscore.CHOScore>
1.0000

> <Gold.PLP.Chemscore.Metal>
0.0000

> <Gold.Chemscore.Hbonds>
donor molecule, donor type, donor heavy atom, donor atom, acceptor molecule, acceptor atom, score
      L1  H    13    26       P1  7957  1.00
      L1  H    15    28       P1  7957  0.93
      P1  H  8011  8017       L1    15  0.65
      L1  C    16    29       P1  8028  1.00

> <Gold.PLP.Chemscore.Internal.Correction>
0.0080

> <Gold.Rescore>
     Score         DG    S(hbond)    S(metal)    S(lipo)     H(rot)  DE(clash)    DE(int)     intcor
      4.28      -8.16       1.99        0.00      46.25       3.67       0.06       3.82       ----

> <Gold.Chemscore.Fitness>
4.2795

> <Gold.Chemscore.DG>
-8.1573

> <Gold.Chemscore.ZeroCoef>
-5.4800

> <Gold.Chemscore.Hbond>
1.9946

> <Gold.Chemscore.Metal>
0.0000

> <Gold.Chemscore.Lipo>
46.2451

> <Gold.Chemscore.Internal_Hbond>
0.0000

> <Gold.Chemscore.DEClash>
0.0580

> <Gold.Chemscore.DEInternal>
3.8198

> <Gold.Chemscore.Rot>
3.6701

> <Gold.Chemscore.Internal.Correction>
   9.000000E+99

> <Gold.Chemscore.Hbonds>
donor molecule, donor type, donor heavy atom, donor atom, acceptor molecule, acceptor atom, score
      L1  H    13    26       P1  7957  0.90
      L1  H    15    28       P1  7957  0.91
      P1  H  8011  8017       L1    15  0.05

> <Gold.Chemscore.Hbond.Weighted>
-6.6621

> <Gold.Chemscore.Metal.Weighted>
-0.0000

> <Gold.Chemscore.Lipo.Weighted>
-5.4107

> <Gold.Chemscore.Internal_Hbond.Weighted>
0.0000

> <Gold.Chemscore.DEClash.Weighted>
0.0580

> <Gold.Chemscore.DEInternal.Weighted>
3.8198

> <Gold.Chemscore.Rot.Weighted>
9.3955

> <Gold.Chemscore.Internal.Correction.Weighted>
   9.000000E+99

> <Gold.Protein.RotatedTorsions>
[ 6907 6896 6895 6894 ] final  -18.58 input  -60.11 | X-H torsion
[ 7974 7965 7964 7962 ] final  -79.98 input  175.53 | X-H torsion
[ 8008 7997 7996 7995 ] final -114.00 input   59.86 | X-H torsion
[ 10167 10162 10161 10158 ] final  167.86 input  -65.29 | X-H torsion
[ 10718 10713 10712 10709 ] final  133.55 input   66.30 | X-H torsion
[ 10763 10752 10751 10750 ] final  -28.20 input  -60.55 | X-H torsion
[ 11005 11000 10999 10996 ] final -134.81 input  -57.11 | X-H torsion

> <Gold.Protein.ActiveResidues>
 VAL166  LYS551  ARG553  GLY616  TRP617  ASP618  TYR619  PRO620  LYS621  CYS622 
 ASP623  PHE694  ASN695  SER759  ASP760  ASP761  ALA762  ILE779  LEU786  VAL792 
 PHE793  MET794  SER795  GLU796  ALA797  LYS798  CYS799  TRP800  GLU811  SER814 

> <Gold.Protein.RotatedAtoms>
  151.2760  135.0699  159.9151 H   0  0  0  0  0  0  0  0  0  0  0  0  # atno 6907 bound_to 6896
  152.5342  134.0080  159.7936 H   0  0  0  0  0  0  0  0  0  0  0  0  # atno 6908 bound_to 6896
  151.0326  133.5726  159.2690 H   0  0  0  0  0  0  0  0  0  0  0  0  # atno 6909 bound_to 6896
  145.5661  140.9474  143.1421 H   0  0  0  0  0  0  0  0  0  0  0  0  # atno 7974 bound_to 7965
  155.0295  140.0393  157.2468 H   0  0  0  0  0  0  0  0  0  0  0  0  # atno 8008 bound_to 7997
  154.7309  140.2730  155.6434 H   0  0  0  0  0  0  0  0  0  0  0  0  # atno 8009 bound_to 7997
  156.2841  140.2684  156.2008 H   0  0  0  0  0  0  0  0  0  0  0  0  # atno 8010 bound_to 7997
  139.4955  144.3876  151.9553 H   0  0  0  0  0  0  0  0  0  0  0  0  # atno 10167 bound_to 10162
  157.4762  131.1083  150.9740 H   0  0  0  0  0  0  0  0  0  0  0  0  # atno 10718 bound_to 10713
  153.7445  135.6930  153.4959 H   0  0  0  0  0  0  0  0  0  0  0  0  # atno 10763 bound_to 10752
  153.2046  135.4424  155.0306 H   0  0  0  0  0  0  0  0  0  0  0  0  # atno 10764 bound_to 10752
  154.8209  135.3421  154.6968 H   0  0  0  0  0  0  0  0  0  0  0  0  # atno 10765 bound_to 10752
  140.8956  134.1756  157.4497 H   0  0  0  0  0  0  0  0  0  0  0  0  # atno 11005 bound_to 11000
  144.7460  139.7320  143.7292 LP  0  0  0  0  0  0  0  0  0  0  0  0  # atno 17320 bound_to 7965
  146.1817  139.5013  142.9862 LP  0  0  0  0  0  0  0  0  0  0  0  0  # atno 17321 bound_to 7965
  140.3313  144.3312  150.5986 LP  0  0  0  0  0  0  0  0  0  0  0  0  # atno 17342 bound_to 10162
  140.5642  143.2188  151.7712 LP  0  0  0  0  0  0  0  0  0  0  0  0  # atno 17343 bound_to 10162
  157.0489  130.5779  149.5367 LP  0  0  0  0  0  0  0  0  0  0  0  0  # atno 17370 bound_to 10713
  156.0098  130.5188  150.7950 LP  0  0  0  0  0  0  0  0  0  0  0  0  # atno 17371 bound_to 10713
  139.8735  134.9877  156.5379 LP  0  0  0  0  0  0  0  0  0  0  0  0  # atno 17394 bound_to 11000
  140.8293  133.8292  155.8969 LP  0  0  0  0  0  0  0  0  0  0  0  0  # atno 17395 bound_to 11000

$$$$
