AV-unprocessed.smi:455|AV-procd|sdf|2614|dock3
  -GOLD-   2262023 13D 1   1.00000     0.00000
 Structure written by MMmdl.
 46 47  0  0  0  0  0  0  0  0  1 V2000
  144.5086  132.1666  151.5794 C   0  0  0  0  0  0  0  0  0  0  0  0
  145.2981  133.3528  150.9855 C   0  0  0  0  0  0  0  0  0  0  0  0
  146.4412  132.7834  150.1225 C   0  0  0  0  0  0  0  0  0  0  0  0
  144.3669  134.1799  150.0747 C   0  0  0  0  0  0  0  0  0  0  0  0
  145.9333  134.2419  152.0936 C   0  0  0  0  0  0  0  0  0  0  0  0
  146.7021  133.5076  153.2029 C   0  0  0  0  0  0  0  0  0  0  0  0
  146.1764  132.5808  153.8186 O   0  0  0  0  0  0  0  0  0  0  0  0
  147.9624  133.9152  153.4229 N   0  0  0  0  0  0  0  0  0  0  0  0
  148.8952  133.3267  154.3802 C   0  0  0  0  0  0  0  0  0  0  0  0
  149.6082  134.3447  155.2571 C   0  0  0  0  0  0  0  0  0  0  0  0
  149.2542  134.4838  156.6133 C   0  0  0  0  0  0  0  0  0  0  0  0
  149.9216  135.4396  157.4022 C   0  0  0  0  0  0  0  0  0  0  0  0
  150.9263  136.2423  156.8118 C   0  0  0  0  0  0  0  0  0  0  0  0
  151.6078  137.2079  157.5842 N   0  0  0  0  0  0  0  0  0  0  0  0
  151.3339  138.6014  157.2418 C   0  0  0  0  0  0  0  0  0  0  0  0
  151.8755  139.5383  158.3350 C   0  0  0  0  0  0  0  0  0  0  0  0
  153.2602  139.2836  158.5452 O   0  0  0  0  0  0  0  0  0  0  0  0
  153.4920  137.9500  158.9867 C   0  0  0  0  0  0  0  0  0  0  0  0
  153.0092  136.9574  157.9155 C   0  0  0  0  0  0  0  0  0  0  0  0
  151.2632  136.1078  155.5050 N   0  0  0  0  0  0  0  0  0  0  0  0
  150.6182  135.1912  154.7528 C   0  0  0  0  0  0  0  0  0  0  0  0
  144.1800  131.4811  150.7975 H   0  0  0  0  0  0  0  0  0  0  0  0
  143.6127  132.4921  152.1078 H   0  0  0  0  0  0  0  0  0  0  0  0
  145.1181  131.5947  152.2799 H   0  0  0  0  0  0  0  0  0  0  0  0
  147.1281  132.1820  150.7193 H   0  0  0  0  0  0  0  0  0  0  0  0
  147.0226  133.5791  149.6556 H   0  0  0  0  0  0  0  0  0  0  0  0
  146.0604  132.1468  149.3229 H   0  0  0  0  0  0  0  0  0  0  0  0
  143.9951  133.5816  149.2420 H   0  0  0  0  0  0  0  0  0  0  0  0
  144.8855  135.0418  149.6539 H   0  0  0  0  0  0  0  0  0  0  0  0
  143.4957  134.5506  150.6141 H   0  0  0  0  0  0  0  0  0  0  0  0
  146.6229  134.9535  151.6377 H   0  0  0  0  0  0  0  0  0  0  0  0
  145.1542  134.8503  152.5567 H   0  0  0  0  0  0  0  0  0  0  0  0
  148.3117  134.6817  152.8660 H   0  0  0  0  0  0  0  0  0  0  0  0
  148.3965  132.6003  155.0238 H   0  0  0  0  0  0  0  0  0  0  0  0
  149.6358  132.7656  153.8094 H   0  0  0  0  0  0  0  0  0  0  0  0
  148.4847  133.8640  157.0497 H   0  0  0  0  0  0  0  0  0  0  0  0
  149.6663  135.5349  158.4470 H   0  0  0  0  0  0  0  0  0  0  0  0
  151.8107  138.8282  156.2875 H   0  0  0  0  0  0  0  0  0  0  0  0
  150.2681  138.7857  157.1143 H   0  0  0  0  0  0  0  0  0  0  0  0
  151.7477  140.5781  158.0342 H   0  0  0  0  0  0  0  0  0  0  0  0
  151.3244  139.4069  159.2678 H   0  0  0  0  0  0  0  0  0  0  0  0
  154.5582  137.8161  159.1692 H   0  0  0  0  0  0  0  0  0  0  0  0
  152.9823  137.7760  159.9357 H   0  0  0  0  0  0  0  0  0  0  0  0
  153.1336  135.9387  158.2847 H   0  0  0  0  0  0  0  0  0  0  0  0
  153.6167  137.0560  157.0149 H   0  0  0  0  0  0  0  0  0  0  0  0
  150.9170  135.1428  153.7170 H   0  0  0  0  0  0  0  0  0  0  0  0
  1  2  1  0  0  0  0
  1 22  1  0  0  0  0
  1 23  1  0  0  0  0
  1 24  1  0  0  0  0
  2  3  1  0  0  0  0
  2  4  1  0  0  0  0
  2  5  1  0  0  0  0
  3 25  1  0  0  0  0
  3 26  1  0  0  0  0
  3 27  1  0  0  0  0
  4 28  1  0  0  0  0
  4 29  1  0  0  0  0
  4 30  1  0  0  0  0
  5  6  1  0  0  0  0
  5 31  1  0  0  0  0
  5 32  1  0  0  0  0
  6  7  2  0  0  0  0
  6  8  1  0  0  0  0
  8  9  1  0  0  0  0
  8 33  1  0  0  0  0
  9 10  1  0  0  0  0
  9 34  1  0  0  0  0
  9 35  1  0  0  0  0
 10 21  1  0  0  0  0
 10 11  2  0  0  0  0
 11 12  1  0  0  0  0
 11 36  1  0  0  0  0
 12 13  2  0  0  0  0
 12 37  1  0  0  0  0
 13 14  1  0  0  0  0
 13 20  1  0  0  0  0
 14 19  1  0  0  0  0
 14 15  1  0  0  0  0
 15 16  1  0  0  0  0
 15 38  1  0  0  0  0
 15 39  1  0  0  0  0
 16 17  1  0  0  0  0
 16 40  1  0  0  0  0
 16 41  1  0  0  0  0
 17 18  1  0  0  0  0
 18 19  1  0  0  0  0
 18 42  1  0  0  0  0
 18 43  1  0  0  0  0
 19 44  1  0  0  0  0
 19 45  1  0  0  0  0
 20 21  2  0  0  0  0
 21 46  1  0  0  0  0
M  END
> <s_m_source_file>
AV-unprocessed.smi

> <i_m_source_file_index>
455

> <i_lp_mmshare_version>
43012

> <i_f3d_flags>
0

> <s_epik_input>
W0NIM11DKFtDSDNdKShbQ0gzXSlbQ0gyXUMoPU8pW05IXVtDSDJdYzFbY0hdW2NIXWMobltjSF0xKU4yW0NIMl1bQ0gyXU9bQ0gyXVtDSDJdMg==

> <s_epik_cmdline>
J2VwaWtfcHl0aG9uJywgJy1waCcsICc3LjAnLCAnLXRuJywgJzgnLCAnLW1hJywgJzIwMCcsICctbWV0YWxfYmluZGluZycsICctaW1hZScsICc8aW5maWxlLm1hZT4nLCAnLW9tYWUnLCAnPG91dGZpbGUubWFlPic=

> <r_lp_tautomer_probability>
1

> <r_epik_Ionization_Penalty>
0.00557649

> <r_epik_Ionization_Penalty_Charging>
0

> <r_epik_Ionization_Penalty_Neutral>
0.00557649

> <r_epik_State_Penalty>
0.00408419

> <r_epik_Charging_Adjusted_Penalty>
0.00408419

> <i_epik_Tot_Q>
0

> <i_epik_Tot_abs_Q>
0

> <r_epik_Metal_State_Penalty>
-0

> <b_epik_Metal_Only>
0

> <s_lp_Force_Field>
OPLS_2005

> <r_lp_Energy>
18.1118

> <b_lp_Chiralities_Consistent>
1

> <s_lp_Variant>
AV-unprocessed.smi:455-1

> <Gold.Version>
5.8.1

> <Gold.Id.Protein>
6NUR|6NUR_protein|mol2

> <Gold.PLP.Fitness>
35.4142

> <Gold.PLP.PLP>
-25.2927

> <Gold.PLP.part.hbond>
-3.0000

> <Gold.PLP.part.metal>
0.0000

> <Gold.PLP.part.buried>
-2.2421

> <Gold.PLP.part.nonpolar>
-19.7490

> <Gold.PLP.part.repulsive>
0.2025

> <Gold.PLP.ligand.clash>
0.0000

> <Gold.PLP.ligand.torsion>
0.5212

> <Gold.PLP.Chemscore.Hbond>
2.9500

> <Gold.PLP.Chemscore.CHOScore>
0.6557

> <Gold.PLP.Chemscore.Metal>
0.0000

> <Gold.Chemscore.Hbonds>
donor molecule, donor type, donor heavy atom, donor atom, acceptor molecule, acceptor atom, score
      L1  H     8    33       P1  7948  1.00
      P1  H  7997  8008       L1    17  0.70
      P1  H 10752 10765       L1    20  0.75
      L1  C    21    46       P1  7949  0.64

> <Gold.PLP.Chemscore.Internal.Correction>
0.3468

> <Gold.Rescore>
     Score         DG    S(hbond)    S(metal)    S(lipo)     H(rot)  DE(clash)    DE(int)     intcor
     14.90     -17.18       2.17        0.00      73.41       1.62       0.30       1.98       ----

> <Gold.Chemscore.Fitness>
14.9020

> <Gold.Chemscore.DG>
-17.1766

> <Gold.Chemscore.ZeroCoef>
-5.4800

> <Gold.Chemscore.Hbond>
2.1693

> <Gold.Chemscore.Metal>
0.0000

> <Gold.Chemscore.Lipo>
73.4121

> <Gold.Chemscore.Internal_Hbond>
0.0000

> <Gold.Chemscore.DEClash>
0.2961

> <Gold.Chemscore.DEInternal>
1.9786

> <Gold.Chemscore.Rot>
1.6164

> <Gold.Chemscore.Internal.Correction>
   9.000000E+99

> <Gold.Chemscore.Hbonds>
donor molecule, donor type, donor heavy atom, donor atom, acceptor molecule, acceptor atom, score
      L1  H     8    33       P1  7948  0.50
      P1  H  7997  8008       L1    17  0.62
      P1  H 10752 10765       L1    20  0.08

> <Gold.Chemscore.Hbond.Weighted>
-7.2455

> <Gold.Chemscore.Metal.Weighted>
-0.0000

> <Gold.Chemscore.Lipo.Weighted>
-8.5892

> <Gold.Chemscore.Internal_Hbond.Weighted>
0.0000

> <Gold.Chemscore.DEClash.Weighted>
0.2961

> <Gold.Chemscore.DEInternal.Weighted>
1.9786

> <Gold.Chemscore.Rot.Weighted>
4.1381

> <Gold.Chemscore.Internal.Correction.Weighted>
   9.000000E+99

> <Gold.Protein.RotatedTorsions>
[ 6907 6896 6895 6894 ] final   -6.53 input  -60.11 | X-H torsion
[ 7974 7965 7964 7962 ] final  -20.82 input  175.53 | X-H torsion
[ 8008 7997 7996 7995 ] final  -87.75 input   59.86 | X-H torsion
[ 10167 10162 10161 10158 ] final   -1.35 input  -65.29 | X-H torsion
[ 10718 10713 10712 10709 ] final   33.29 input   66.30 | X-H torsion
[ 10763 10752 10751 10750 ] final -150.79 input  -60.55 | X-H torsion
[ 11005 11000 10999 10996 ] final    4.61 input  -57.11 | X-H torsion

> <Gold.Protein.ActiveResidues>
 VAL166  LYS551  ARG553  GLY616  TRP617  ASP618  TYR619  PRO620  LYS621  CYS622 
 ASP623  PHE694  ASN695  SER759  ASP760  ASP761  ALA762  ILE779  LEU786  VAL792 
 PHE793  MET794  SER795  GLU796  ALA797  LYS798  CYS799  TRP800  GLU811  SER814 

> <Gold.Protein.RotatedAtoms>
  151.4641  135.1041  159.9732 H   0  0  0  0  0  0  0  0  0  0  0  0  # atno 6907 bound_to 6896
  152.4842  133.8325  159.7121 H   0  0  0  0  0  0  0  0  0  0  0  0  # atno 6908 bound_to 6896
  150.8937  133.7149  159.2924 H   0  0  0  0  0  0  0  0  0  0  0  0  # atno 6909 bound_to 6896
  146.1767  140.4255  142.8510 H   0  0  0  0  0  0  0  0  0  0  0  0  # atno 7974 bound_to 7965
  154.6668  140.0562  157.0123 H   0  0  0  0  0  0  0  0  0  0  0  0  # atno 8008 bound_to 7997
  155.1147  140.3241  155.4494 H   0  0  0  0  0  0  0  0  0  0  0  0  # atno 8009 bound_to 7997
  156.2641  140.2008  156.6270 H   0  0  0  0  0  0  0  0  0  0  0  0  # atno 8010 bound_to 7997
  140.6806  143.6786  150.8125 H   0  0  0  0  0  0  0  0  0  0  0  0  # atno 10167 bound_to 10162
  157.2960  130.7327  149.6639 H   0  0  0  0  0  0  0  0  0  0  0  0  # atno 10718 bound_to 10713
  154.8097  135.3275  154.7337 H   0  0  0  0  0  0  0  0  0  0  0  0  # atno 10763 bound_to 10752
  153.7989  135.6905  153.4863 H   0  0  0  0  0  0  0  0  0  0  0  0  # atno 10764 bound_to 10752
  153.1867  135.4566  155.0043 H   0  0  0  0  0  0  0  0  0  0  0  0  # atno 10765 bound_to 10752
  140.5799  134.0022  155.8043 H   0  0  0  0  0  0  0  0  0  0  0  0  # atno 11005 bound_to 11000
  144.8248  140.6610  143.6329 LP  0  0  0  0  0  0  0  0  0  0  0  0  # atno 17320 bound_to 7965
  145.4191  139.1567  143.4084 LP  0  0  0  0  0  0  0  0  0  0  0  0  # atno 17321 bound_to 7965
  140.0485  143.5273  152.2684 LP  0  0  0  0  0  0  0  0  0  0  0  0  # atno 17342 bound_to 10162
  139.6127  144.7612  151.2916 LP  0  0  0  0  0  0  0  0  0  0  0  0  # atno 17343 bound_to 10162
  155.9669  130.4294  150.4832 LP  0  0  0  0  0  0  0  0  0  0  0  0  # atno 17370 bound_to 10713
  157.2804  131.0605  151.2202 LP  0  0  0  0  0  0  0  0  0  0  0  0  # atno 17371 bound_to 10713
  141.1003  133.9779  157.3091 LP  0  0  0  0  0  0  0  0  0  0  0  0  # atno 17394 bound_to 11000
  139.9322  135.0199  156.8438 LP  0  0  0  0  0  0  0  0  0  0  0  0  # atno 17395 bound_to 11000

$$$$
