AV-unprocessed.smi:297|AV-procd|sdf|2260|dock6
  -GOLD-   2262022143D 1   1.00000     0.00000
 Structure written by MMmdl.
 29 30  0  0  0  0  0  0  0  0  1 V2000
  156.4237  138.1637  159.8939 N   0  0  0  0  0  0  0  0  0  0  0  0
  155.5252  138.8918  159.8476 C   0  0  0  0  0  0  0  0  0  0  0  0
  154.3956  139.8072  159.7893 C   0  0  0  0  0  0  0  0  0  0  0  0
  153.7240  139.8674  158.6181 N   0  0  0  0  0  0  0  0  0  0  0  0
  152.6590  140.6977  158.4972 C   0  0  0  0  0  0  0  0  0  0  0  0
  151.9766  140.7360  157.2619 N   0  0  0  0  0  0  0  0  0  0  0  0
  150.6802  141.4076  157.2741 C   0  0  0  0  0  0  0  0  0  0  0  0
  150.2014  141.6652  155.8366 C   0  0  0  0  0  0  0  0  0  0  0  0
  150.1786  140.4404  155.1123 O   0  0  0  0  0  0  0  0  0  0  0  0
  151.4737  139.8482  155.0071 C   0  0  2  0  0  0  0  0  0  0  0  0
  151.3755  138.5904  154.1313 C   0  0  0  0  0  0  0  0  0  0  0  0
  150.2116  138.3616  153.5162 N   0  0  0  0  0  0  0  0  0  0  0  0
  152.3395  137.8397  153.9918 O   0  0  0  0  0  0  0  0  0  0  0  0
  152.0043  139.5373  156.4248 C   0  0  0  0  0  0  0  0  0  0  0  0
  152.2356  141.5155  159.5705 C   0  0  0  0  0  0  0  0  0  0  0  0
  152.9319  141.4566  160.7919 C   0  0  0  0  0  0  0  0  0  0  0  0
  154.0323  140.5876  160.9128 C   0  0  0  0  0  0  0  0  0  0  0  0
  154.8928  140.5108  162.4125 Cl  0  0  0  0  0  0  0  0  0  0  0  0
  149.9619  140.7762  157.7988 H   0  0  0  0  0  0  0  0  0  0  0  0
  150.7189  142.3552  157.8093 H   0  0  0  0  0  0  0  0  0  0  0  0
  149.1975  142.0894  155.8464 H   0  0  0  0  0  0  0  0  0  0  0  0
  150.8474  142.3870  155.3340 H   0  0  0  0  0  0  0  0  0  0  0  0
  152.1469  140.5456  154.5054 H   0  0  0  0  0  0  0  0  0  0  0  0
  150.1083  137.5490  152.9256 H   0  0  0  0  0  0  0  0  0  0  0  0
  149.4431  139.0048  153.6385 H   0  0  0  0  0  0  0  0  0  0  0  0
  153.0263  139.1614  156.3560 H   0  0  0  0  0  0  0  0  0  0  0  0
  151.4005  138.7585  156.8941 H   0  0  0  0  0  0  0  0  0  0  0  0
  151.4011  142.1930  159.4684 H   0  0  0  0  0  0  0  0  0  0  0  0
  152.6258  142.0736  161.6237 H   0  0  0  0  0  0  0  0  0  0  0  0
  1  2  3  0  0  0  0
  2  3  1  0  0  0  0
  3 17  1  0  0  0  0
  3  4  2  0  0  0  0
  4  5  1  0  0  0  0
  5  6  1  0  0  0  0
  5 15  2  0  0  0  0
  6 14  1  0  0  0  0
  6  7  1  0  0  0  0
  7  8  1  0  0  0  0
  7 19  1  0  0  0  0
  7 20  1  0  0  0  0
  8  9  1  0  0  0  0
  8 21  1  0  0  0  0
  8 22  1  0  0  0  0
  9 10  1  0  0  0  0
 10 11  1  0  0  0  0
 10 14  1  0  0  0  0
 10 23  1  0  0  0  0
 11 12  1  0  0  0  0
 11 13  2  0  0  0  0
 12 24  1  0  0  0  0
 12 25  1  0  0  0  0
 14 26  1  0  0  0  0
 14 27  1  0  0  0  0
 15 16  1  0  0  0  0
 15 28  1  0  0  0  0
 16 17  2  0  0  0  0
 16 29  1  0  0  0  0
 17 18  1  0  0  0  0
M  END
> <s_m_source_file>
AV-unprocessed.smi

> <i_m_source_file_index>
297

> <i_lp_mmshare_version>
43012

> <i_f3d_flags>
0

> <s_epik_input>
TiNDYzFuYyhbY0hdW2NIXWMxQ2wpTjJbQ0gyXVtDSDJdT1tDQEhdKFtDSDJdMilDKD1PKVtOSDJd

> <s_epik_cmdline>
J2VwaWtfcHl0aG9uJywgJy1waCcsICc3LjAnLCAnLXRuJywgJzgnLCAnLW1hJywgJzIwMCcsICctbWV0YWxfYmluZGluZycsICctaW1hZScsICc8aW5maWxlLm1hZT4nLCAnLW9tYWUnLCAnPG91dGZpbGUubWFlPic=

> <r_lp_tautomer_probability>
1

> <r_epik_Ionization_Penalty>
8.82403e-08

> <r_epik_Ionization_Penalty_Charging>
0

> <r_epik_Ionization_Penalty_Neutral>
8.82403e-08

> <r_epik_State_Penalty>
-0

> <r_epik_Charging_Adjusted_Penalty>
0

> <i_epik_Tot_Q>
0

> <i_epik_Tot_abs_Q>
0

> <r_epik_Metal_State_Penalty>
-0

> <b_epik_Metal_Only>
0

> <s_lp_Force_Field>
OPLS_2005

> <r_lp_Energy>
18.7144

> <b_lp_Chiralities_Consistent>
1

> <s_lp_Variant>
AV-unprocessed.smi:297-2

> <Gold.Version>
5.8.1

> <Gold.Id.Protein>
6NUR|6NUR_protein|mol2

> <Gold.PLP.Fitness>
39.8086

> <Gold.PLP.PLP>
-31.7455

> <Gold.PLP.part.hbond>
-3.9649

> <Gold.PLP.part.metal>
0.0000

> <Gold.PLP.part.buried>
-1.9524

> <Gold.PLP.part.nonpolar>
-25.4941

> <Gold.PLP.part.repulsive>
0.2848

> <Gold.PLP.ligand.clash>
0.0000

> <Gold.PLP.ligand.torsion>
0.6326

> <Gold.PLP.Chemscore.Hbond>
2.9920

> <Gold.PLP.Chemscore.CHOScore>
0.0000

> <Gold.PLP.Chemscore.Metal>
0.0000

> <Gold.Chemscore.Hbonds>
donor molecule, donor type, donor heavy atom, donor atom, acceptor molecule, acceptor atom, score
      L1  H    12    24       P1  7948  0.80
      P1  H  7997  8010       L1     4  0.96
      P1  H 10752 10765       L1    13  0.31

> <Gold.PLP.Chemscore.Internal.Correction>
0.3522

> <Gold.Rescore>
     Score         DG    S(hbond)    S(metal)    S(lipo)     H(rot)  DE(clash)    DE(int)     intcor
     16.96     -17.34       2.33        0.00      67.71       1.50       0.01       0.37       ----

> <Gold.Chemscore.Fitness>
16.9622

> <Gold.Chemscore.DG>
-17.3365

> <Gold.Chemscore.ZeroCoef>
-5.4800

> <Gold.Chemscore.Hbond>
2.3283

> <Gold.Chemscore.Metal>
0.0000

> <Gold.Chemscore.Lipo>
67.7050

> <Gold.Chemscore.Internal_Hbond>
0.0000

> <Gold.Chemscore.DEClash>
0.0067

> <Gold.Chemscore.DEInternal>
0.3675

> <Gold.Chemscore.Rot>
1.5006

> <Gold.Chemscore.Internal.Correction>
   9.000000E+99

> <Gold.Chemscore.Hbonds>
donor molecule, donor type, donor heavy atom, donor atom, acceptor molecule, acceptor atom, score
      L1  H    12    24       P1  7948  0.11
      P1  H  7997  8010       L1     4  0.50
      P1  H 10752 10765       L1    13  0.32

> <Gold.Chemscore.Hbond.Weighted>
-7.7766

> <Gold.Chemscore.Metal.Weighted>
-0.0000

> <Gold.Chemscore.Lipo.Weighted>
-7.9215

> <Gold.Chemscore.Internal_Hbond.Weighted>
0.0000

> <Gold.Chemscore.DEClash.Weighted>
0.0067

> <Gold.Chemscore.DEInternal.Weighted>
0.3675

> <Gold.Chemscore.Rot.Weighted>
3.8416

> <Gold.Chemscore.Internal.Correction.Weighted>
   9.000000E+99

> <Gold.Protein.RotatedTorsions>
[ 6907 6896 6895 6894 ] final  -35.84 input  -60.11 | X-H torsion
[ 7974 7965 7964 7962 ] final  175.73 input  175.53 | X-H torsion
[ 8008 7997 7996 7995 ] final    6.78 input   59.86 | X-H torsion
[ 10167 10162 10161 10158 ] final  141.32 input  -65.29 | X-H torsion
[ 10718 10713 10712 10709 ] final  120.53 input   66.30 | X-H torsion
[ 10763 10752 10751 10750 ] final  158.82 input  -60.55 | X-H torsion
[ 11005 11000 10999 10996 ] final    2.72 input  -57.11 | X-H torsion

> <Gold.Protein.ActiveResidues>
 VAL166  LYS551  ARG553  GLY616  TRP617  ASP618  TYR619  PRO620  LYS621  CYS622 
 ASP623  PHE694  ASN695  SER759  ASP760  ASP761  ALA762  ILE779  LEU786  VAL792 
 PHE793  MET794  SER795  GLU796  ALA797  LYS798  CYS799  TRP800  GLU811  SER814 

> <Gold.Protein.RotatedAtoms>
  151.0348  134.9565  159.8129 H   0  0  0  0  0  0  0  0  0  0  0  0  # atno 6907 bound_to 6896
  152.5352  134.2734  159.8990 H   0  0  0  0  0  0  0  0  0  0  0  0  # atno 6908 bound_to 6896
  151.2745  133.4197  159.2657 H   0  0  0  0  0  0  0  0  0  0  0  0  # atno 6909 bound_to 6896
  144.7196  139.9990  143.6440 H   0  0  0  0  0  0  0  0  0  0  0  0  # atno 7974 bound_to 7965
  154.7454  140.2757  155.6338 H   0  0  0  0  0  0  0  0  0  0  0  0  # atno 8008 bound_to 7997
  156.2883  140.2689  156.2119 H   0  0  0  0  0  0  0  0  0  0  0  0  # atno 8009 bound_to 7997
  155.0205  140.0371  157.2425 H   0  0  0  0  0  0  0  0  0  0  0  0  # atno 8010 bound_to 7997
  139.5024  144.6179  151.6121 H   0  0  0  0  0  0  0  0  0  0  0  0  # atno 10167 bound_to 10162
  157.5884  131.1067  150.8048 H   0  0  0  0  0  0  0  0  0  0  0  0  # atno 10718 bound_to 10713
  154.2221  135.2781  155.2921 H   0  0  0  0  0  0  0  0  0  0  0  0  # atno 10763 bound_to 10752
  154.5693  135.5623  153.7083 H   0  0  0  0  0  0  0  0  0  0  0  0  # atno 10764 bound_to 10752
  153.0039  135.6317  154.2361 H   0  0  0  0  0  0  0  0  0  0  0  0  # atno 10765 bound_to 10752
  140.6011  133.9835  155.8132 H   0  0  0  0  0  0  0  0  0  0  0  0  # atno 11005 bound_to 11000
  146.0350  139.3369  143.0732 LP  0  0  0  0  0  0  0  0  0  0  0  0  # atno 17320 bound_to 7965
  145.8405  140.9583  143.0802 LP  0  0  0  0  0  0  0  0  0  0  0  0  # atno 17321 bound_to 7965
  140.5872  143.9843  150.6303 LP  0  0  0  0  0  0  0  0  0  0  0  0  # atno 17342 bound_to 10162
  140.3012  143.3259  152.0970 LP  0  0  0  0  0  0  0  0  0  0  0  0  # atno 17343 bound_to 10162
  156.8476  130.5069  149.5315 LP  0  0  0  0  0  0  0  0  0  0  0  0  # atno 17370 bound_to 10713
  156.0936  130.5915  150.9775 LP  0  0  0  0  0  0  0  0  0  0  0  0  # atno 17371 bound_to 10713
  141.0871  133.9973  157.3295 LP  0  0  0  0  0  0  0  0  0  0  0  0  # atno 17394 bound_to 11000
  139.9232  135.0201  156.8140 LP  0  0  0  0  0  0  0  0  0  0  0  0  # atno 17395 bound_to 11000

$$$$
