AV-unprocessed.smi:21|AV-procd|sdf|162|dock4
  -GOLD-   2262015403D 1   1.00000     0.00000
 Structure written by MMmdl.
 61 64  0  0  0  0  0  0  0  0  1 V2000
  151.2859  144.3954  160.7796 C   0  0  0  0  0  0  0  0  0  0  0  0
  152.0464  144.7630  159.6398 O   0  0  0  0  0  0  0  0  0  0  0  0
  152.1725  143.7193  158.6846 C   0  0  2  0  0  0  0  0  0  0  0  0
  150.8214  143.0852  158.3044 C   0  0  0  0  0  0  0  0  0  0  0  0
  150.9464  141.6156  158.7362 C   0  0  1  0  0  0  0  0  0  0  0  0
  150.1139  140.6434  157.8707 C   0  0  0  0  0  0  0  0  0  0  0  0
  150.5885  140.5492  156.4900 N   0  0  0  0  0  0  0  0  0  0  0  0
  150.4139  141.7158  155.6256 C   0  0  0  0  0  0  0  0  0  0  0  0
  150.8604  139.3378  155.9190 C   0  0  0  0  0  0  0  0  0  0  0  0
  151.3795  139.3233  154.6604 N   0  0  0  0  0  0  0  0  0  0  0  0
  151.6565  138.1742  154.0405 C   0  0  0  0  0  0  0  0  0  0  0  0
  151.4996  136.9294  154.4877 N   0  0  0  0  0  0  0  0  0  0  0  0
  150.9916  136.9228  155.7520 C   0  0  0  0  0  0  0  0  0  0  0  0
  150.6452  138.0642  156.5349 C   0  0  0  0  0  0  0  0  0  0  0  0
  150.1613  137.6387  157.7687 N   0  0  0  0  0  0  0  0  0  0  0  0
  150.2069  136.3372  157.7138 C   0  0  0  0  0  0  0  0  0  0  0  0
  150.7126  135.8226  156.5439 N   0  0  0  0  0  0  0  0  0  0  0  0
  150.8765  134.4183  156.2123 C   0  0  0  0  0  0  0  0  0  0  0  0
  150.0271  133.9348  155.0074 C   0  0  2  0  0  0  0  0  0  0  0  0
  148.7754  134.8329  154.8734 C   0  0  0  0  0  0  0  0  0  0  0  0
  148.1473  134.6700  153.6177 O   0  0  0  0  0  0  0  0  0  0  0  0
  149.6752  132.4180  155.0365 C   0  0  1  0  0  0  0  0  0  0  0  0
  149.2353  131.8410  153.6995 C   0  0  0  0  0  0  0  0  0  0  0  0
  149.4226  130.3473  153.9169 C   0  0  0  0  0  0  0  0  0  0  0  0
  150.6217  130.2544  154.6690 O   0  0  0  0  0  0  0  0  0  0  0  0
  150.8337  131.4676  155.3853 C   0  0  0  0  0  0  0  0  0  0  0  0
  152.3753  141.3481  158.7370 N   0  0  0  0  0  0  0  0  0  0  0  0
  152.7509  140.1582  159.4893 C   0  0  0  0  0  0  0  0  0  0  0  0
  152.9525  142.5535  159.2980 C   0  0  0  0  0  0  0  0  0  0  0  0
  152.6924  144.0685  157.7905 H   0  0  0  0  0  0  0  0  0  0  0  0
  150.5951  141.5566  159.7677 H   0  0  0  0  0  0  0  0  0  0  0  0
  151.2275  145.2404  161.4657 H   0  0  0  0  0  0  0  0  0  0  0  0
  151.7384  143.5608  161.3158 H   0  0  0  0  0  0  0  0  0  0  0  0
  150.2680  144.1201  160.5010 H   0  0  0  0  0  0  0  0  0  0  0  0
  149.9733  143.5641  158.7947 H   0  0  0  0  0  0  0  0  0  0  0  0
  150.6711  143.1669  157.2272 H   0  0  0  0  0  0  0  0  0  0  0  0
  150.1454  139.6528  158.3257 H   0  0  0  0  0  0  0  0  0  0  0  0
  149.0587  140.9084  157.8726 H   0  0  0  0  0  0  0  0  0  0  0  0
  151.2938  141.8671  154.9992 H   0  0  0  0  0  0  0  0  0  0  0  0
  150.2684  142.6247  156.2094 H   0  0  0  0  0  0  0  0  0  0  0  0
  149.5440  141.5914  154.9797 H   0  0  0  0  0  0  0  0  0  0  0  0
  152.0619  138.2665  153.0436 H   0  0  0  0  0  0  0  0  0  0  0  0
  149.8852  135.7151  158.5365 H   0  0  0  0  0  0  0  0  0  0  0  0
  151.9345  134.2303  156.0262 H   0  0  0  0  0  0  0  0  0  0  0  0
  150.6169  133.8458  157.1035 H   0  0  0  0  0  0  0  0  0  0  0  0
  150.6112  134.1114  154.1035 H   0  0  0  0  0  0  0  0  0  0  0  0
  148.0532  134.5973  155.6559 H   0  0  0  0  0  0  0  0  0  0  0  0
  149.0292  135.8846  155.0059 H   0  0  0  0  0  0  0  0  0  0  0  0
  148.6717  135.1014  152.9606 H   0  0  0  0  0  0  0  0  0  0  0  0
  148.8677  132.2519  155.7516 H   0  0  0  0  0  0  0  0  0  0  0  0
  148.2078  132.0955  153.4378 H   0  0  0  0  0  0  0  0  0  0  0  0
  149.8905  132.1849  152.8977 H   0  0  0  0  0  0  0  0  0  0  0  0
  148.6001  129.9392  154.5061 H   0  0  0  0  0  0  0  0  0  0  0  0
  149.4877  129.7879  152.9836 H   0  0  0  0  0  0  0  0  0  0  0  0
  151.7950  131.8773  155.0737 H   0  0  0  0  0  0  0  0  0  0  0  0
  150.8846  131.2614  156.4538 H   0  0  0  0  0  0  0  0  0  0  0  0
  153.8347  140.0384  159.4992 H   0  0  0  0  0  0  0  0  0  0  0  0
  152.3256  139.2606  159.0413 H   0  0  0  0  0  0  0  0  0  0  0  0
  152.4075  140.2179  160.5229 H   0  0  0  0  0  0  0  0  0  0  0  0
  154.0225  142.6191  159.0983 H   0  0  0  0  0  0  0  0  0  0  0  0
  152.8177  142.5570  160.3813 H   0  0  0  0  0  0  0  0  0  0  0  0
  1  2  1  0  0  0  0
  1 32  1  0  0  0  0
  1 33  1  0  0  0  0
  1 34  1  0  0  0  0
  2  3  1  0  0  0  0
  3 30  1  0  0  0  0
  3 29  1  0  0  0  0
  3  4  1  0  0  0  0
  4  5  1  0  0  0  0
  4 35  1  0  0  0  0
  4 36  1  0  0  0  0
  5 31  1  0  0  0  0
  5  6  1  0  0  0  0
  5 27  1  0  0  0  0
  6  7  1  0  0  0  0
  6 37  1  0  0  0  0
  6 38  1  0  0  0  0
  7  8  1  0  0  0  0
  7  9  1  0  0  0  0
  8 39  1  0  0  0  0
  8 40  1  0  0  0  0
  8 41  1  0  0  0  0
  9 14  1  0  0  0  0
  9 10  2  0  0  0  0
 10 11  1  0  0  0  0
 11 12  2  0  0  0  0
 11 42  1  0  0  0  0
 12 13  1  0  0  0  0
 13 17  1  0  0  0  0
 13 14  2  0  0  0  0
 14 15  1  0  0  0  0
 15 16  2  0  0  0  0
 16 17  1  0  0  0  0
 16 43  1  0  0  0  0
 17 18  1  0  0  0  0
 18 19  1  0  0  0  0
 18 44  1  0  0  0  0
 18 45  1  0  0  0  0
 19 20  1  0  0  0  0
 19 22  1  0  0  0  0
 19 46  1  0  0  0  0
 20 21  1  0  0  0  0
 20 47  1  0  0  0  0
 20 48  1  0  0  0  0
 21 49  1  0  0  0  0
 22 26  1  0  0  0  0
 22 23  1  0  0  0  0
 22 50  1  0  0  0  0
 23 24  1  0  0  0  0
 23 51  1  0  0  0  0
 23 52  1  0  0  0  0
 24 25  1  0  0  0  0
 24 53  1  0  0  0  0
 24 54  1  0  0  0  0
 25 26  1  0  0  0  0
 26 55  1  0  0  0  0
 26 56  1  0  0  0  0
 27 28  1  0  0  0  0
 27 29  1  0  0  0  0
 28 57  1  0  0  0  0
 28 58  1  0  0  0  0
 28 59  1  0  0  0  0
 29 60  1  0  0  0  0
 29 61  1  0  0  0  0
M  END
> <s_m_source_file>
AV-unprocessed.smi

> <i_m_source_file_index>
21

> <i_lp_mmshare_version>
43012

> <i_f3d_flags>
0

> <s_epik_input>
W0NIM11PW0NASF0xW0NIMl1bQ0BIXShOKFtDSDNdKVtDSDJdMSlbQ0gyXU4oW0NIM10pYyhuW2NIXW4yKWMoYzIzKW5bY0hdbjNbQ0gyXVtDQEhdKFtDSDJdW09IXSlbQ0BASF00W0NIMl1bQ0gyXU9bQ0gyXTQ=

> <s_epik_cmdline>
J2VwaWtfcHl0aG9uJywgJy1waCcsICc3LjAnLCAnLXRuJywgJzgnLCAnLW1hJywgJzIwMCcsICctbWV0YWxfYmluZGluZycsICctaW1hZScsICc8aW5maWxlLm1hZT4nLCAnLW9tYWUnLCAnPG91dGZpbGUubWFlPic=

> <r_lp_tautomer_probability>
1

> <r_epik_Ionization_Penalty>
2.17574

> <r_epik_Ionization_Penalty_Charging>
0

> <r_epik_Ionization_Penalty_Neutral>
2.17574

> <r_epik_State_Penalty>
2.31336

> <r_epik_Charging_Adjusted_Penalty>
2.31336

> <i_epik_Tot_Q>
0

> <i_epik_Tot_abs_Q>
0

> <r_epik_Metal_State_Penalty>
2.31025

> <b_epik_Metal_Only>
0

> <s_lp_Force_Field>
OPLS_2005

> <r_lp_Energy>
68.3176

> <b_lp_Chiralities_Consistent>
1

> <s_lp_Variant>
AV-unprocessed.smi:21-42

> <Gold.Version>
5.8.1

> <Gold.Id.Protein>
6NUR|6NUR_protein|mol2

> <Gold.PLP.Fitness>
56.1600

> <Gold.PLP.PLP>
-47.6630

> <Gold.PLP.part.hbond>
-3.0000

> <Gold.PLP.part.metal>
0.0000

> <Gold.PLP.part.buried>
-8.9767

> <Gold.PLP.part.nonpolar>
-36.8491

> <Gold.PLP.part.repulsive>
0.3430

> <Gold.PLP.ligand.clash>
0.0000

> <Gold.PLP.ligand.torsion>
0.8560

> <Gold.PLP.Chemscore.Hbond>
3.0000

> <Gold.PLP.Chemscore.CHOScore>
0.1686

> <Gold.PLP.Chemscore.Metal>
0.0000

> <Gold.Chemscore.Hbonds>
donor molecule, donor type, donor heavy atom, donor atom, acceptor molecule, acceptor atom, score
      L1  H    21    49       P1  7948  1.00
      P1  H  7989  7998       L1    10  1.00
      P1  H 10752 10765       L1    12  1.00
      L1  C    11    42       P1  7949  0.06

> <Gold.PLP.Chemscore.Internal.Correction>
0.7030

> <Gold.Rescore>
     Score         DG    S(hbond)    S(metal)    S(lipo)     H(rot)  DE(clash)    DE(int)     intcor
     15.56     -18.58       2.47        0.00     107.28       3.00       0.21       2.81       ----

> <Gold.Chemscore.Fitness>
15.5601

> <Gold.Chemscore.DG>
-18.5801

> <Gold.Chemscore.ZeroCoef>
-5.4800

> <Gold.Chemscore.Hbond>
2.4661

> <Gold.Chemscore.Metal>
0.0000

> <Gold.Chemscore.Lipo>
107.2764

> <Gold.Chemscore.Internal_Hbond>
0.0000

> <Gold.Chemscore.DEClash>
0.2070

> <Gold.Chemscore.DEInternal>
2.8130

> <Gold.Chemscore.Rot>
3.0031

> <Gold.Chemscore.Internal.Correction>
   9.000000E+99

> <Gold.Chemscore.Hbonds>
donor molecule, donor type, donor heavy atom, donor atom, acceptor molecule, acceptor atom, score
      L1  H    21    49       P1  7948  0.53
      P1  H  7989  7998       L1    10  0.81
      P1  H 10752 10765       L1    12  0.79

> <Gold.Chemscore.Hbond.Weighted>
-8.2368

> <Gold.Chemscore.Metal.Weighted>
-0.0000

> <Gold.Chemscore.Lipo.Weighted>
-12.5513

> <Gold.Chemscore.Internal_Hbond.Weighted>
0.0000

> <Gold.Chemscore.DEClash.Weighted>
0.2070

> <Gold.Chemscore.DEInternal.Weighted>
2.8130

> <Gold.Chemscore.Rot.Weighted>
7.6880

> <Gold.Chemscore.Internal.Correction.Weighted>
   9.000000E+99

> <Gold.Protein.RotatedTorsions>
[ 6907 6896 6895 6894 ] final  107.25 input  -60.11 | X-H torsion
[ 7974 7965 7964 7962 ] final   35.16 input  175.53 | X-H torsion
[ 8008 7997 7996 7995 ] final  -10.95 input   59.86 | X-H torsion
[ 10167 10162 10161 10158 ] final   25.52 input  -65.29 | X-H torsion
[ 10718 10713 10712 10709 ] final  148.35 input   66.30 | X-H torsion
[ 10763 10752 10751 10750 ] final  160.71 input  -60.55 | X-H torsion
[ 11005 11000 10999 10996 ] final   92.61 input  -57.11 | X-H torsion

> <Gold.Protein.ActiveResidues>
 VAL166  LYS551  ARG553  GLY616  TRP617  ASP618  TYR619  PRO620  LYS621  CYS622 
 ASP623  PHE694  ASN695  SER759  ASP760  ASP761  ALA762  ILE779  LEU786  VAL792 
 PHE793  MET794  SER795  GLU796  ALA797  LYS798  CYS799  TRP800  GLU811  SER814 

> <Gold.Protein.RotatedAtoms>
  152.5162  133.9262  159.7558 H   0  0  0  0  0  0  0  0  0  0  0  0  # atno 6907 bound_to 6896
  150.9623  133.6424  159.2759 H   0  0  0  0  0  0  0  0  0  0  0  0  # atno 6908 bound_to 6896
  151.3664  135.0919  159.9504 H   0  0  0  0  0  0  0  0  0  0  0  0  # atno 6909 bound_to 6896
  146.1302  139.6177  142.9231 H   0  0  0  0  0  0  0  0  0  0  0  0  # atno 7974 bound_to 7965
  154.5508  140.2315  155.8488 H   0  0  0  0  0  0  0  0  0  0  0  0  # atno 8008 bound_to 7997
  156.1945  140.3068  155.9360 H   0  0  0  0  0  0  0  0  0  0  0  0  # atno 8009 bound_to 7997
  155.3074  140.0434  157.3023 H   0  0  0  0  0  0  0  0  0  0  0  0  # atno 8010 bound_to 7997
  140.5099  144.0177  150.6368 H   0  0  0  0  0  0  0  0  0  0  0  0  # atno 10167 bound_to 10162
  157.3096  131.0885  151.1326 H   0  0  0  0  0  0  0  0  0  0  0  0  # atno 10718 bound_to 10713
  154.2517  135.2771  155.2814 H   0  0  0  0  0  0  0  0  0  0  0  0  # atno 10763 bound_to 10752
  154.5459  135.5689  153.6883 H   0  0  0  0  0  0  0  0  0  0  0  0  # atno 10764 bound_to 10752
  152.9979  135.6262  154.2664 H   0  0  0  0  0  0  0  0  0  0  0  0  # atno 10765 bound_to 10752
  139.8821  134.8742  156.3597 H   0  0  0  0  0  0  0  0  0  0  0  0  # atno 11005 bound_to 11000
  145.5277  141.0429  143.2400 LP  0  0  0  0  0  0  0  0  0  0  0  0  # atno 17320 bound_to 7965
  144.7683  139.6794  143.7205 LP  0  0  0  0  0  0  0  0  0  0  0  0  # atno 17321 bound_to 7965
  140.3497  143.2970  152.0500 LP  0  0  0  0  0  0  0  0  0  0  0  0  # atno 17342 bound_to 10162
  139.4893  144.6383  151.6930 LP  0  0  0  0  0  0  0  0  0  0  0  0  # atno 17343 bound_to 10162
  157.2653  130.6678  149.5994 LP  0  0  0  0  0  0  0  0  0  0  0  0  # atno 17370 bound_to 10713
  155.9677  130.4496  150.5663 LP  0  0  0  0  0  0  0  0  0  0  0  0  # atno 17371 bound_to 10713
  140.9538  133.7434  156.0307 LP  0  0  0  0  0  0  0  0  0  0  0  0  # atno 17394 bound_to 11000
  140.8074  134.3439  157.5422 LP  0  0  0  0  0  0  0  0  0  0  0  0  # atno 17395 bound_to 11000

$$$$
