AV-unprocessed.smi:2962|AV-procd|sdf|11316|dock4
  -GOLD-   2272016223D 1   1.00000     0.00000
 Structure written by MMmdl.
 36 37  0  0  0  0  0  0  0  0  1 V2000
  147.5529  141.6296  153.8584 C   0  0  0  0  0  0  0  0  0  0  0  0
  148.9449  141.8825  153.9238 O   0  0  0  0  0  0  0  0  0  0  0  0
  149.5841  141.1478  154.9548 C   0  0  0  0  0  0  0  0  0  0  0  0
  149.3798  141.8567  156.3004 C   0  0  0  0  0  0  0  0  0  0  0  0
  150.4536  141.5643  157.2393 N   0  0  0  0  0  0  0  0  0  0  0  0
  150.9199  140.3546  157.6390 C   0  0  0  0  0  0  0  0  0  0  0  0
  150.2571  138.8380  157.0349 S   0  0  0  0  0  0  0  0  0  0  0  0
  151.5963  138.3956  155.8861 C   0  0  1  0  0  0  0  0  0  0  0  0
  152.8714  137.9806  156.6427 C   0  0  0  0  0  0  0  0  0  0  0  0
  151.1314  137.3231  154.8936 C   0  0  0  0  0  0  0  0  0  0  0  0
  150.2173  137.6931  153.9924 N   0  0  0  0  0  0  0  0  0  0  0  0
  151.5820  136.1792  154.9316 O   0  0  0  0  0  0  0  0  0  0  0  0
  151.9099  140.3822  158.5309 N   0  0  0  0  0  0  0  0  0  0  0  0
  152.1094  141.7348  158.7239 C   0  0  0  0  0  0  0  0  0  0  0  0
  153.0267  142.4192  159.5530 C   0  0  0  0  0  0  0  0  0  0  0  0
  153.0430  143.8290  159.5874 C   0  0  0  0  0  0  0  0  0  0  0  0
  152.1441  144.5729  158.7959 C   0  0  0  0  0  0  0  0  0  0  0  0
  151.2223  143.9105  157.9625 C   0  0  0  0  0  0  0  0  0  0  0  0
  151.2120  142.5032  157.9303 C   0  0  0  0  0  0  0  0  0  0  0  0
  147.1129  142.2124  153.0492 H   0  0  0  0  0  0  0  0  0  0  0  0
  147.0568  141.9142  154.7872 H   0  0  0  0  0  0  0  0  0  0  0  0
  147.3520  140.5757  153.6621 H   0  0  0  0  0  0  0  0  0  0  0  0
  149.1724  140.1388  155.0042 H   0  0  0  0  0  0  0  0  0  0  0  0
  150.6501  141.0548  154.7408 H   0  0  0  0  0  0  0  0  0  0  0  0
  149.3015  142.9326  156.1505 H   0  0  0  0  0  0  0  0  0  0  0  0
  148.4359  141.5431  156.7473 H   0  0  0  0  0  0  0  0  0  0  0  0
  151.8366  139.2826  155.2988 H   0  0  0  0  0  0  0  0  0  0  0  0
  153.6522  137.6502  155.9564 H   0  0  0  0  0  0  0  0  0  0  0  0
  152.6740  137.1663  157.3411 H   0  0  0  0  0  0  0  0  0  0  0  0
  153.2794  138.8139  157.2144 H   0  0  0  0  0  0  0  0  0  0  0  0
  149.8839  137.0285  153.3095 H   0  0  0  0  0  0  0  0  0  0  0  0
  149.8704  138.6412  153.9927 H   0  0  0  0  0  0  0  0  0  0  0  0
  153.7181  141.8580  160.1640 H   0  0  0  0  0  0  0  0  0  0  0  0
  153.7477  144.3423  160.2253 H   0  0  0  0  0  0  0  0  0  0  0  0
  152.1622  145.6524  158.8294 H   0  0  0  0  0  0  0  0  0  0  0  0
  150.5318  144.4769  157.3556 H   0  0  0  0  0  0  0  0  0  0  0  0
  1  2  1  0  0  0  0
  1 20  1  0  0  0  0
  1 21  1  0  0  0  0
  1 22  1  0  0  0  0
  2  3  1  0  0  0  0
  3  4  1  0  0  0  0
  3 23  1  0  0  0  0
  3 24  1  0  0  0  0
  4  5  1  0  0  0  0
  4 25  1  0  0  0  0
  4 26  1  0  0  0  0
  5 19  1  0  0  0  0
  5  6  1  0  0  0  0
  6  7  1  0  0  0  0
  6 13  2  0  0  0  0
  7  8  1  0  0  0  0
  8  9  1  0  0  0  0
  8 10  1  0  0  0  0
  8 27  1  0  0  0  0
  9 28  1  0  0  0  0
  9 29  1  0  0  0  0
  9 30  1  0  0  0  0
 10 11  1  0  0  0  0
 10 12  2  0  0  0  0
 11 31  1  0  0  0  0
 11 32  1  0  0  0  0
 13 14  1  0  0  0  0
 14 19  2  0  0  0  0
 14 15  1  0  0  0  0
 15 16  2  0  0  0  0
 15 33  1  0  0  0  0
 16 17  1  0  0  0  0
 16 34  1  0  0  0  0
 17 18  2  0  0  0  0
 17 35  1  0  0  0  0
 18 19  1  0  0  0  0
 18 36  1  0  0  0  0
M  END
> <s_m_source_file>
AV-unprocessed.smi

> <i_m_source_file_index>
2962

> <i_lp_mmshare_version>
43012

> <i_f3d_flags>
0

> <s_epik_input>
W2NIXTFbY0hdW2NIXVtjSF1jKGMxMiluKFtDSDJdW0NIMl1PW0NIM10pYyhuMilTW0NASF0oW0NIM10pQyg9TylbTkgyXQ==

> <s_epik_cmdline>
J2VwaWtfcHl0aG9uJywgJy1waCcsICc3LjAnLCAnLXRuJywgJzgnLCAnLW1hJywgJzIwMCcsICctbWV0YWxfYmluZGluZycsICctaW1hZScsICc8aW5maWxlLm1hZT4nLCAnLW9tYWUnLCAnPG91dGZpbGUubWFlPic=

> <r_epik_Ionization_Penalty>
0.0199986

> <r_epik_Ionization_Penalty_Charging>
0

> <r_epik_Ionization_Penalty_Neutral>
0.0199986

> <r_epik_State_Penalty>
0.0160044

> <r_epik_Charging_Adjusted_Penalty>
0.0160044

> <i_epik_Tot_Q>
0

> <i_epik_Tot_abs_Q>
0

> <r_epik_Metal_State_Penalty>
0.015472

> <b_epik_Metal_Only>
0

> <s_lp_Force_Field>
OPLS_2005

> <r_lp_Energy>
4.7896

> <b_lp_Chiralities_Consistent>
1

> <s_lp_Variant>
AV-unprocessed.smi:2962-2

> <Gold.Version>
5.8.1

> <Gold.Id.Protein>
6NUR|6NUR_protein|mol2

> <Gold.PLP.Fitness>
45.1929

> <Gold.PLP.PLP>
-39.5198

> <Gold.PLP.part.hbond>
-3.6581

> <Gold.PLP.part.metal>
0.0000

> <Gold.PLP.part.buried>
-4.1184

> <Gold.PLP.part.nonpolar>
-32.9592

> <Gold.PLP.part.repulsive>
0.4314

> <Gold.PLP.ligand.clash>
0.0000

> <Gold.PLP.ligand.torsion>
0.8481

> <Gold.PLP.Chemscore.Hbond>
2.4320

> <Gold.PLP.Chemscore.CHOScore>
0.0000

> <Gold.PLP.Chemscore.Metal>
0.0000

> <Gold.Chemscore.Hbonds>
donor molecule, donor type, donor heavy atom, donor atom, acceptor molecule, acceptor atom, score
      L1  H    11    31       P1  7948  1.00
      P1  H  8011  8017       L1     2  0.50
      P1  H 10752 10763       L1    12  0.96

> <Gold.PLP.Chemscore.Internal.Correction>
0.0732

> <Gold.Rescore>
     Score         DG    S(hbond)    S(metal)    S(lipo)     H(rot)  DE(clash)    DE(int)     intcor
     17.99     -19.53       2.46        0.00     104.58       2.50       0.36       1.19       ----

> <Gold.Chemscore.Fitness>
17.9895

> <Gold.Chemscore.DG>
-19.5313

> <Gold.Chemscore.ZeroCoef>
-5.4800

> <Gold.Chemscore.Hbond>
2.4617

> <Gold.Chemscore.Metal>
0.0000

> <Gold.Chemscore.Lipo>
104.5835

> <Gold.Chemscore.Internal_Hbond>
0.0000

> <Gold.Chemscore.DEClash>
0.3559

> <Gold.Chemscore.DEInternal>
1.1859

> <Gold.Chemscore.Rot>
2.5027

> <Gold.Chemscore.Internal.Correction>
   9.000000E+99

> <Gold.Chemscore.Hbonds>
donor molecule, donor type, donor heavy atom, donor atom, acceptor molecule, acceptor atom, score
      L1  H    11    31       P1  7948  0.35
      P1  H  8011  8017       L1     2  0.47
      P1  H 10752 10763       L1    12  0.91

> <Gold.Chemscore.Hbond.Weighted>
-8.2220

> <Gold.Chemscore.Metal.Weighted>
-0.0000

> <Gold.Chemscore.Lipo.Weighted>
-12.2363

> <Gold.Chemscore.Internal_Hbond.Weighted>
0.0000

> <Gold.Chemscore.DEClash.Weighted>
0.3559

> <Gold.Chemscore.DEInternal.Weighted>
1.1859

> <Gold.Chemscore.Rot.Weighted>
6.4070

> <Gold.Chemscore.Internal.Correction.Weighted>
   9.000000E+99

> <Gold.Protein.RotatedTorsions>
[ 6907 6896 6895 6894 ] final -112.29 input  -60.11 | X-H torsion
[ 7974 7965 7964 7962 ] final -123.49 input  175.53 | X-H torsion
[ 8008 7997 7996 7995 ] final -147.50 input   59.86 | X-H torsion
[ 10167 10162 10161 10158 ] final  -94.19 input  -65.29 | X-H torsion
[ 10718 10713 10712 10709 ] final -156.25 input   66.30 | X-H torsion
[ 10763 10752 10751 10750 ] final   63.80 input  -60.55 | X-H torsion
[ 11005 11000 10999 10996 ] final   47.72 input  -57.11 | X-H torsion

> <Gold.Protein.ActiveResidues>
 VAL166  LYS551  ARG553  GLY616  TRP617  ASP618  TYR619  PRO620  LYS621  CYS622 
 ASP623  PHE694  ASN695  SER759  ASP760  ASP761  ALA762  ILE779  LEU786  VAL792 
 PHE793  MET794  SER795  GLU796  ALA797  LYS798  CYS799  TRP800  GLU811  SER814 

> <Gold.Protein.RotatedAtoms>
  150.7748  133.9112  159.3369 H   0  0  0  0  0  0  0  0  0  0  0  0  # atno 6907 bound_to 6896
  151.6989  135.0931  160.0257 H   0  0  0  0  0  0  0  0  0  0  0  0  # atno 6908 bound_to 6896
  152.3779  133.6468  159.6174 H   0  0  0  0  0  0  0  0  0  0  0  0  # atno 6909 bound_to 6896
  145.0182  140.7965  143.4397 H   0  0  0  0  0  0  0  0  0  0  0  0  # atno 7974 bound_to 7965
  155.5765  140.0639  157.2794 H   0  0  0  0  0  0  0  0  0  0  0  0  # atno 8008 bound_to 7997
  154.4345  140.1859  156.0979 H   0  0  0  0  0  0  0  0  0  0  0  0  # atno 8009 bound_to 7997
  156.0337  140.3303  155.7171 H   0  0  0  0  0  0  0  0  0  0  0  0  # atno 8010 bound_to 7997
  140.3170  143.3071  152.0087 H   0  0  0  0  0  0  0  0  0  0  0  0  # atno 10167 bound_to 10162
  156.5240  130.8490  151.2692 H   0  0  0  0  0  0  0  0  0  0  0  0  # atno 10718 bound_to 10713
  153.0031  135.5416  154.6410 H   0  0  0  0  0  0  0  0  0  0  0  0  # atno 10763 bound_to 10752
  154.5665  135.2838  155.0871 H   0  0  0  0  0  0  0  0  0  0  0  0  # atno 10764 bound_to 10752
  154.2053  135.6477  153.5151 H   0  0  0  0  0  0  0  0  0  0  0  0  # atno 10765 bound_to 10752
  140.1254  134.4775  155.8564 H   0  0  0  0  0  0  0  0  0  0  0  0  # atno 11005 bound_to 11000
  145.1931  139.2290  143.5232 LP  0  0  0  0  0  0  0  0  0  0  0  0  # atno 17320 bound_to 7965
  146.3481  140.1732  142.8589 LP  0  0  0  0  0  0  0  0  0  0  0  0  # atno 17321 bound_to 7965
  139.4882  144.6340  151.7012 LP  0  0  0  0  0  0  0  0  0  0  0  0  # atno 17342 bound_to 10162
  140.5517  144.0414  150.6130 LP  0  0  0  0  0  0  0  0  0  0  0  0  # atno 17343 bound_to 10162
  157.7432  130.9908  150.2577 LP  0  0  0  0  0  0  0  0  0  0  0  0  # atno 17370 bound_to 10713
  156.3123  130.3773  149.7650 LP  0  0  0  0  0  0  0  0  0  0  0  0  # atno 17371 bound_to 10713
  141.2160  133.6776  156.6967 LP  0  0  0  0  0  0  0  0  0  0  0  0  # atno 17394 bound_to 11000
  140.2911  134.8240  157.4017 LP  0  0  0  0  0  0  0  0  0  0  0  0  # atno 17395 bound_to 11000

$$$$
