#       Name:                AV-unprocessed.smi:3344
#       Creating user name   scv26
#       Creation time:       Fri Mar 27 19:30:50 2020


#       File generated by GOLD software.
#

@<TRIPOS>MOLECULE
AV-unprocessed.smi:3344
    47    48     1
SMALL
NO_CHARGES


@<TRIPOS>ATOM
      1 ****        -4.1189  -2.7917  -0.0926 C.3            1 S1                 0.0000
      2 ****        -3.6031  -1.5510  -0.8494 C.3            1 S1                 0.0000
      3 ****        -2.0696  -1.4493  -0.8385 C.2            1 S1                 0.0000
      4 ****        -1.3724  -2.4625  -0.7762 O.2            1 S1                 0.0000
      5 ****        -1.5527  -0.2117  -0.8999 N.am           1 S1                 0.0000
      6 ****        -0.1277   0.0967  -0.9225 C.3            1 S1                 0.0000
      7 ****         0.4926   0.0177   0.4869 C.3            1 S1                 0.0000
      8 ****         1.9603   0.2621   0.4901 N.4            1 S1                 1.0000
      9 ****         2.6090  -0.2005   1.7492 C.3            1 S1                 0.0000
     10 ****         2.5972   0.8308   2.8938 C.3            1 S1                 0.0000
     11 ****         3.8463   1.7257   2.8954 C.3            1 S1                 0.0000
     12 ****         3.9051   2.7238   1.7315 C.3            1 S1                 0.0000
     13 ****         3.7615   2.0839   0.3402 C.3            1 S1                 0.0000
     14 ****         2.3195   1.6351   0.0316 C.3            1 S1                 0.0000
     15 ****        -4.1026  -1.4947  -2.2179 N.pl3          1 S1                 0.0000
     16 ****        -4.6026  -0.4668  -2.9075 C.2            1 S1                 0.0000
     17 ****        -4.9236  -0.7625  -4.1593 N.2            1 S1                 0.0000
     18 ****        -4.5626  -2.0799  -4.1821 C.2            1 S1                 0.0000
     19 ****        -4.0549  -2.5656  -3.0494 N.2            1 S1                 0.0000
     20 ****        -3.7751  -2.7916   0.9424 H              1 S1                 0.0000
     21 ****        -3.7832  -3.7229  -0.5512 H              1 S1                 0.0000
     22 ****        -5.2090  -2.8091  -0.0739 H              1 S1                 0.0000
     23 ****        -3.9931  -0.6736  -0.3303 H              1 S1                 0.0000
     24 ****        -2.1918   0.5687  -0.9496 H              1 S1                 0.0000
     25 ****         0.3883  -0.5775  -1.6084 H              1 S1                 0.0000
     26 ****        -0.0256   1.1003  -1.3346 H              1 S1                 0.0000
     27 ****         0.0010   0.7226   1.1588 H              1 S1                 0.0000
     28 ****         0.2977  -0.9770   0.8894 H              1 S1                 0.0000
     29 ****         2.1284  -1.1191   2.0880 H              1 S1                 0.0000
     30 ****         3.6341  -0.4991   1.5268 H              1 S1                 0.0000
     31 ****         1.6834   1.4261   2.8892 H              1 S1                 0.0000
     32 ****         2.5877   0.2843   3.8376 H              1 S1                 0.0000
     33 ****         3.8810   2.2838   3.8318 H              1 S1                 0.0000
     34 ****         4.7423   1.1037   2.8890 H              1 S1                 0.0000
     35 ****         3.1393   3.4890   1.8651 H              1 S1                 0.0000
     36 ****         4.8589   3.2505   1.7800 H              1 S1                 0.0000
     37 ****         4.0321   2.8458  -0.3919 H              1 S1                 0.0000
     38 ****         4.4774   1.2745   0.1933 H              1 S1                 0.0000
     39 ****         2.1855   1.6588  -1.0499 H              1 S1                 0.0000
     40 ****         1.6150   2.3627   0.4374 H              1 S1                 0.0000
     41 ****        -4.7321   0.5198  -2.4867 H              1 S1                 0.0000
     42 ****        -4.6705  -2.6977  -5.0615 H              1 S1                 0.0000
     43 ****         2.3287  -0.3613  -0.2143 H              1 S1                 0.0000
     44 ****        -1.8032  -3.3639  -0.7320 LP             1 S1                 0.0000
     45 ****        -0.3755  -2.3839  -0.7698 LP             1 S1                 0.0000
     46 ****        -5.3159  -0.1883  -4.8779 LP             1 S1                 0.0000
     47 ****        -3.7219  -3.4893  -2.8598 LP             1 S1                 0.0000
@<TRIPOS>BOND
    1    1    2 1     
    2    1   20 1     
    3    1   21 1     
    4    1   22 1     
    5    2    3 1     
    6    2   15 1     
    7    2   23 1     
    8    3    4 2     
    9    3    5 am    
   10    5    6 1     
   11    5   24 1     
   12    6    7 1     
   13    6   25 1     
   14    6   26 1     
   15    7    8 1     
   16    7   27 1     
   17    7   28 1     
   18    8   14 1     
   19    8    9 1     
   20    8   43 1     
   21    9   10 1     
   22    9   29 1     
   23    9   30 1     
   24   10   11 1     
   25   10   31 1     
   26   10   32 1     
   27   11   12 1     
   28   11   33 1     
   29   11   34 1     
   30   12   13 1     
   31   12   35 1     
   32   12   36 1     
   33   13   14 1     
   34   13   37 1     
   35   13   38 1     
   36   14   39 1     
   37   14   40 1     
   38   15   19 1     
   39   15   16 1     
   40   16   17 2     
   41   16   41 1     
   42   17   18 1     
   43   18   19 2     
   44   18   42 1     
   45    4   44 1     
   46    4   45 1     
   47   17   46 1     
   48   19   47 1     
@<TRIPOS>SUBSTRUCTURE
      1 S1             1
@<TRIPOS>SET
LONE_PAIRS      STATIC     ATOMS    <user>   **** ""
4 44 45 46 47
DONOR_HYDROGENS      STATIC     ATOMS    <user>   **** ""
2 24 43
ATOM$BLUE        STATIC     ATOMS    COLORGROUP SYSTEM
4 44 45 46 47
ATOM$RED        STATIC     ATOMS    COLORGROUP SYSTEM
2 24 43
