AV-unprocessed.smi:997|AV-procd|sdf|4348|dock10
  -GOLD-   22720 2243D 1   1.00000     0.00000
 Structure written by MMmdl.
 33 35  0  0  0  0  0  0  0  0  2 V2000
  153.0359  138.2778  156.7647 C   0  0  0  0  0  0  0  0  0  0  0  0
  152.3024  139.5741  156.9349 C   0  0  0  0  0  0  0  0  0  0  0  0
  151.3116  139.8592  156.1207 N   0  0  0  0  0  0  0  0  0  0  0  0
  150.8090  141.0526  156.5182 N   0  0  0  0  0  0  0  0  0  0  0  0
  149.6909  141.6201  155.7871 C   0  0  0  0  0  0  0  0  0  0  0  0
  149.1487  140.6363  154.7419 C   0  0  0  0  0  0  0  0  0  0  0  0
  149.9435  140.6883  153.5770 O   0  0  0  0  0  0  0  0  0  0  0  0
  151.4776  141.5757  157.6095 C   0  0  0  0  0  0  0  0  0  0  0  0
  151.2118  142.7495  158.2502 N   0  0  0  0  0  0  0  0  0  0  0  0
  152.0142  143.0122  159.3017 C   0  0  0  0  0  0  0  0  0  0  0  0
  151.7232  144.3005  160.0069 C   0  0  0  0  0  0  0  0  0  0  0  0
  150.5449  145.1638  159.6129 C   0  0  0  0  0  0  0  0  0  0  0  0
  151.9498  145.6285  159.3207 C   0  0  0  0  0  0  0  0  0  0  0  0
  153.0685  142.1711  159.7123 C   0  0  0  0  0  0  0  0  0  0  0  0
  153.3331  140.9671  159.0156 C   0  0  0  0  0  0  0  0  0  0  0  0
  154.4862  140.1093  159.4656 C   0  0  0  0  0  0  0  0  0  0  0  0
  154.9931  139.2871  158.6743 O   0  0  0  0  0  0  0  0  0  0  0  0
  154.9295  140.2668  160.6254 O   0  5  0  0  0  0  0  0  0  0  0  0
  152.4955  140.6264  157.9110 C   0  0  0  0  0  0  0  0  0  0  0  0
  153.1115  137.7390  157.7092 H   0  0  0  0  0  0  0  0  0  0  0  0
  154.0434  138.4415  156.3825 H   0  0  0  0  0  0  0  0  0  0  0  0
  152.5294  137.6162  156.0611 H   0  0  0  0  0  0  0  0  0  0  0  0
  148.9073  141.8983  156.4936 H   0  0  0  0  0  0  0  0  0  0  0  0
  150.0229  142.5418  155.3075 H   0  0  0  0  0  0  0  0  0  0  0  0
  149.1565  139.6179  155.1318 H   0  0  0  0  0  0  0  0  0  0  0  0
  148.1182  140.8797  154.4814 H   0  0  0  0  0  0  0  0  0  0  0  0
  149.6441  140.0204  152.9794 H   0  0  0  0  0  0  0  0  0  0  0  0
  151.9650  144.2294  161.0657 H   0  0  0  0  0  0  0  0  0  0  0  0
  149.9388  144.8529  158.7640 H   0  0  0  0  0  0  0  0  0  0  0  0
  150.0103  145.6847  160.4042 H   0  0  0  0  0  0  0  0  0  0  0  0
  152.3304  146.4519  159.9212 H   0  0  0  0  0  0  0  0  0  0  0  0
  152.2741  145.6161  158.2819 H   0  0  0  0  0  0  0  0  0  0  0  0
  153.6804  142.4630  160.5538 H   0  0  0  0  0  0  0  0  0  0  0  0
  1  2  1  0  0  0  0
  1 20  1  0  0  0  0
  1 21  1  0  0  0  0
  1 22  1  0  0  0  0
  2 19  1  0  0  0  0
  2  3  2  0  0  0  0
  3  4  1  0  0  0  0
  4  5  1  0  0  0  0
  4  8  1  0  0  0  0
  5  6  1  0  0  0  0
  5 23  1  0  0  0  0
  5 24  1  0  0  0  0
  6  7  1  0  0  0  0
  6 25  1  0  0  0  0
  6 26  1  0  0  0  0
  7 27  1  0  0  0  0
  8 19  1  0  0  0  0
  8  9  2  0  0  0  0
  9 10  1  0  0  0  0
 10 11  1  0  0  0  0
 10 14  2  0  0  0  0
 11 13  1  0  0  0  0
 11 12  1  0  0  0  0
 11 28  1  0  0  0  0
 12 13  1  0  0  0  0
 12 29  1  0  0  0  0
 12 30  1  0  0  0  0
 13 31  1  0  0  0  0
 13 32  1  0  0  0  0
 14 15  1  0  0  0  0
 14 33  1  0  0  0  0
 15 16  1  0  0  0  0
 15 19  2  0  0  0  0
 16 17  2  0  0  0  0
 16 18  1  0  0  0  0
M  CHG  1  18  -1
M  END
> <s_m_source_file>
AV-unprocessed.smi

> <i_m_source_file_index>
997

> <i_lp_mmshare_version>
43012

> <i_f3d_flags>
0

> <s_epik_input>
W09IXVtDSDJdW0NIMl1uMW5jKFtDSDNdKWMoYzEyKWMoQyg9TylbT0hdKVtjSF1jKG4yKVtDSF0zW0NIMl1bQ0gyXTM=

> <s_epik_cmdline>
J2VwaWtfcHl0aG9uJywgJy1waCcsICc3LjAnLCAnLXRuJywgJzgnLCAnLW1hJywgJzIwMCcsICctbWV0YWxfYmluZGluZycsICctaW1hZScsICc8aW5maWxlLm1hZT4nLCAnLW9tYWUnLCAnPG91dGZpbGUubWFlPic=

> <r_epik_Ionization_Penalty>
0.00209497

> <r_epik_Ionization_Penalty_Charging>
0.0019185

> <r_epik_Ionization_Penalty_Neutral>
0.000176473

> <r_epik_State_Penalty>
0.00130684

> <r_epik_Charging_Adjusted_Penalty>
0.00322534

> <i_epik_Tot_Q>
-1

> <i_epik_Tot_abs_Q>
1

> <r_epik_Metal_State_Penalty>
-0

> <b_epik_Metal_Only>
0

> <s_lp_Force_Field>
OPLS_2005

> <r_lp_Energy>
10.3232

> <b_lp_Chiralities_Consistent>
1

> <s_lp_Variant>
AV-unprocessed.smi:997-1

> <Gold.Version>
5.8.1

> <Gold.Id.Protein>
6NUR|6NUR_protein|mol2

> <Gold.PLP.Fitness>
49.5719

> <Gold.PLP.PLP>
-38.3129

> <Gold.PLP.part.hbond>
-3.5416

> <Gold.PLP.part.metal>
0.0000

> <Gold.PLP.part.buried>
-2.7946

> <Gold.PLP.part.nonpolar>
-31.0207

> <Gold.PLP.part.repulsive>
0.0754

> <Gold.PLP.ligand.clash>
0.0000

> <Gold.PLP.ligand.torsion>
0.4024

> <Gold.PLP.Chemscore.Hbond>
3.9760

> <Gold.PLP.Chemscore.CHOScore>
0.0000

> <Gold.PLP.Chemscore.Metal>
0.0000

> <Gold.Chemscore.Hbonds>
donor molecule, donor type, donor heavy atom, donor atom, acceptor molecule, acceptor atom, score
      L1  H     7    27       P1  7957  0.58
      P1  H  7989  7998       L1     7  0.45
      P1  H  7997  8010       L1    17  1.95
      P1  H  8011  8017       L1     7  0.76

> <Gold.PLP.Chemscore.Internal.Correction>
0.1358

> <Gold.Rescore>
     Score         DG    S(hbond)    S(metal)    S(lipo)     H(rot)  DE(clash)    DE(int)     intcor
     17.74     -18.59       2.30        0.00      90.95       2.04       0.01       0.83       ----

> <Gold.Chemscore.Fitness>
17.7447

> <Gold.Chemscore.DG>
-18.5869

> <Gold.Chemscore.ZeroCoef>
-5.4800

> <Gold.Chemscore.Hbond>
2.2998

> <Gold.Chemscore.Metal>
0.0000

> <Gold.Chemscore.Lipo>
90.9457

> <Gold.Chemscore.Internal_Hbond>
0.0000

> <Gold.Chemscore.DEClash>
0.0149

> <Gold.Chemscore.DEInternal>
0.8273

> <Gold.Chemscore.Rot>
2.0372

> <Gold.Chemscore.Internal.Correction>
   9.000000E+99

> <Gold.Chemscore.Hbonds>
donor molecule, donor type, donor heavy atom, donor atom, acceptor molecule, acceptor atom, score
      L1  H     7    27       P1  7957  0.58
      P1  H  7989  7998       L1     7  0.34
      P1  H  7997  8010       L1    17  0.55
      P1  H  8011  8017       L1     7  0.18

> <Gold.Chemscore.Hbond.Weighted>
-7.6815

> <Gold.Chemscore.Metal.Weighted>
-0.0000

> <Gold.Chemscore.Lipo.Weighted>
-10.6407

> <Gold.Chemscore.Internal_Hbond.Weighted>
0.0000

> <Gold.Chemscore.DEClash.Weighted>
0.0149

> <Gold.Chemscore.DEInternal.Weighted>
0.8273

> <Gold.Chemscore.Rot.Weighted>
5.2152

> <Gold.Chemscore.Internal.Correction.Weighted>
   9.000000E+99

> <Gold.Protein.RotatedTorsions>
[ 6907 6896 6895 6894 ] final  122.87 input  -60.11 | X-H torsion
[ 7974 7965 7964 7962 ] final  128.12 input  175.53 | X-H torsion
[ 8008 7997 7996 7995 ] final   -6.96 input   59.86 | X-H torsion
[ 10167 10162 10161 10158 ] final  -89.05 input  -65.29 | X-H torsion
[ 10718 10713 10712 10709 ] final   96.60 input   66.30 | X-H torsion
[ 10763 10752 10751 10750 ] final   69.41 input  -60.55 | X-H torsion
[ 11005 11000 10999 10996 ] final   89.56 input  -57.11 | X-H torsion

> <Gold.Protein.ActiveResidues>
 VAL166  LYS551  ARG553  GLY616  TRP617  ASP618  TYR619  PRO620  LYS621  CYS622 
 ASP623  PHE694  ASN695  SER759  ASP760  ASP761  ALA762  ILE779  LEU786  VAL792 
 PHE793  MET794  SER795  GLU796  ALA797  LYS798  CYS799  TRP800  GLU811  SER814 

> <Gold.Protein.RotatedAtoms>
  152.4208  133.7113  159.6480 H   0  0  0  0  0  0  0  0  0  0  0  0  # atno 6907 bound_to 6896
  150.8084  133.8456  159.3200 H   0  0  0  0  0  0  0  0  0  0  0  0  # atno 6908 bound_to 6896
  151.6173  135.1037  160.0145 H   0  0  0  0  0  0  0  0  0  0  0  0  # atno 6909 bound_to 6896
  145.0431  139.3946  143.5092 H   0  0  0  0  0  0  0  0  0  0  0  0  # atno 7974 bound_to 7965
  154.5886  140.2419  155.7952 H   0  0  0  0  0  0  0  0  0  0  0  0  # atno 8008 bound_to 7997
  156.2231  140.2991  155.9955 H   0  0  0  0  0  0  0  0  0  0  0  0  # atno 8009 bound_to 7997
  155.2414  140.0407  157.2966 H   0  0  0  0  0  0  0  0  0  0  0  0  # atno 8010 bound_to 7997
  140.3687  143.2805  151.9527 H   0  0  0  0  0  0  0  0  0  0  0  0  # atno 10167 bound_to 10162
  157.6924  131.0583  150.4516 H   0  0  0  0  0  0  0  0  0  0  0  0  # atno 10718 bound_to 10713
  153.0285  135.5212  154.7283 H   0  0  0  0  0  0  0  0  0  0  0  0  # atno 10763 bound_to 10752
  154.6318  135.2901  155.0209 H   0  0  0  0  0  0  0  0  0  0  0  0  # atno 10764 bound_to 10752
  154.1159  135.6615  153.4946 H   0  0  0  0  0  0  0  0  0  0  0  0  # atno 10765 bound_to 10752
  139.8873  134.8559  156.3160 H   0  0  0  0  0  0  0  0  0  0  0  0  # atno 11005 bound_to 11000
  146.3511  140.0041  142.8673 LP  0  0  0  0  0  0  0  0  0  0  0  0  # atno 17320 bound_to 7965
  145.1623  140.9679  143.4370 LP  0  0  0  0  0  0  0  0  0  0  0  0  # atno 17321 bound_to 7965
  139.4806  144.5927  151.7744 LP  0  0  0  0  0  0  0  0  0  0  0  0  # atno 17342 bound_to 10162
  140.5055  144.1104  150.5981 LP  0  0  0  0  0  0  0  0  0  0  0  0  # atno 17343 bound_to 10162
  156.4866  130.4086  149.6430 LP  0  0  0  0  0  0  0  0  0  0  0  0  # atno 17370 bound_to 10713
  156.3456  130.7405  151.2357 LP  0  0  0  0  0  0  0  0  0  0  0  0  # atno 17371 bound_to 10713
  140.9819  133.7262  156.0684 LP  0  0  0  0  0  0  0  0  0  0  0  0  # atno 17394 bound_to 11000
  140.7739  134.3802  157.5502 LP  0  0  0  0  0  0  0  0  0  0  0  0  # atno 17395 bound_to 11000

$$$$
