#       Name:                AV-unprocessed.smi:3030
#       Creating user name   scv26
#       Creation time:       Fri Mar 27 16:48:44 2020


#       File generated by GOLD software.
#

@<TRIPOS>MOLECULE
AV-unprocessed.smi:3030
    56    57     1
SMALL
NO_CHARGES


@<TRIPOS>ATOM
      1 ****        -3.5161   5.4339   0.2059 C.3            1 S1                 0.0000
      2 ****        -3.7117   4.7213  -1.1369 C.3            1 S1                 0.0000
      3 ****        -3.9248   3.2918  -0.9630 N.pl3          1 S1                 0.0000
      4 ****        -5.2058   2.7558  -0.8853 C.2            1 S1                 0.0000
      5 ****        -5.4678   1.4391  -0.7756 C.2            1 S1                 0.0000
      6 ****        -4.3461   0.4790  -0.7374 C.2            1 S1                 0.0000
      7 ****        -4.5489  -0.7312  -0.6390 O.2            1 S1                 0.0000
      8 ****        -2.9763   1.0512  -0.8239 C.2            1 S1                 0.0000
      9 ****        -1.9166   0.1297  -0.7930 N.am           1 S1                 0.0000
     10 ****        -0.5921   0.3527  -0.7164 C.2            1 S1                 0.0000
     11 ****        -0.0470   1.4537  -0.6434 O.2            1 S1                 0.0000
     12 ****         0.0842  -0.8052  -0.7094 N.am           1 S1                 0.0000
     13 ****         1.5327  -0.9429  -0.5920 C.3            1 S1                 0.0000
     14 ****         2.0095  -2.2789  -1.1918 C.3            1 S1                 0.0000
     15 ****         3.5490  -2.3350  -1.2619 C.3            1 S1                 0.0000
     16 ****         4.0385  -3.6802  -1.8171 C.3            1 S1                 0.0000
     17 ****         4.1782  -2.0245   0.1118 C.3            1 S1                 0.0000
     18 ****         3.6337  -0.7114   0.7071 C.3            1 S1                 0.0000
     19 ****         2.0903  -0.7284   0.8486 C.3            1 S1                 0.0000
     20 ****         1.5824  -1.7175   1.9571 C.3            1 S1                 0.0000
     21 ****         0.0626  -1.6533   2.2099 C.3            1 S1                 0.0000
     22 ****         2.2949  -1.5022   3.3080 C.3            1 S1                 0.0000
     23 ****        -2.8553   2.3989  -0.9357 C.2            1 S1                 0.0000
     24 ****        -3.3606   6.5025   0.0579 H              1 S1                 0.0000
     25 ****        -2.6485   5.0415   0.7371 H              1 S1                 0.0000
     26 ****        -4.3879   5.3096   0.8487 H              1 S1                 0.0000
     27 ****        -4.5619   5.1549  -1.6648 H              1 S1                 0.0000
     28 ****        -2.8416   4.8843  -1.7739 H              1 S1                 0.0000
     29 ****        -5.9983   3.4897  -0.9148 H              1 S1                 0.0000
     30 ****        -6.4806   1.0684  -0.7150 H              1 S1                 0.0000
     31 ****        -2.2061  -0.8375  -0.8097 H              1 S1                 0.0000
     32 ****        -0.4455  -1.6622  -0.7707 H              1 S1                 0.0000
     33 ****         1.9525  -0.1590  -1.2263 H              1 S1                 0.0000
     34 ****         1.6247  -3.1162  -0.6090 H              1 S1                 0.0000
     35 ****         1.6006  -2.3960  -2.1964 H              1 S1                 0.0000
     36 ****         3.8759  -1.5586  -1.9555 H              1 S1                 0.0000
     37 ****         3.7452  -4.5069  -1.1693 H              1 S1                 0.0000
     38 ****         5.1249  -3.6965  -1.9070 H              1 S1                 0.0000
     39 ****         3.6237  -3.8701  -2.8075 H              1 S1                 0.0000
     40 ****         3.9948  -2.8483   0.8018 H              1 S1                 0.0000
     41 ****         5.2617  -1.9527   0.0104 H              1 S1                 0.0000
     42 ****         4.1253  -0.4894   1.6525 H              1 S1                 0.0000
     43 ****         3.9205   0.1119   0.0514 H              1 S1                 0.0000
     44 ****         1.7988   0.2732   1.1680 H              1 S1                 0.0000
     45 ****         1.8064  -2.7387   1.6505 H              1 S1                 0.0000
     46 ****        -0.2755  -0.6263   2.3520 H              1 S1                 0.0000
     47 ****        -0.2172  -2.2165   3.1006 H              1 S1                 0.0000
     48 ****        -0.5064  -2.0938   1.3934 H              1 S1                 0.0000
     49 ****         2.2112  -0.4668   3.6399 H              1 S1                 0.0000
     50 ****         3.3519  -1.7609   3.2596 H              1 S1                 0.0000
     51 ****         1.8673  -2.1334   4.0876 H              1 S1                 0.0000
     52 ****        -1.9038   2.8997  -1.0161 H              1 S1                 0.0000
     53 ****        -5.4850  -1.0785  -0.5835 LP             1 S1                 0.0000
     54 ****        -3.7775  -1.3671  -0.6146 LP             1 S1                 0.0000
     55 ****        -0.6007   2.2863  -0.6374 LP             1 S1                 0.0000
     56 ****         0.9497   1.5156  -0.5901 LP             1 S1                 0.0000
@<TRIPOS>BOND
    1    1    2 1     
    2    1   24 1     
    3    1   25 1     
    4    1   26 1     
    5    2    3 1     
    6    2   27 1     
    7    2   28 1     
    8    3   23 1     
    9    3    4 1     
   10    4    5 2     
   11    4   29 1     
   12    5    6 1     
   13    5   30 1     
   14    6    7 2     
   15    6    8 1     
   16    8    9 1     
   17    8   23 2     
   18    9   10 am    
   19    9   31 1     
   20   10   11 2     
   21   10   12 am    
   22   12   13 1     
   23   12   32 1     
   24   13   19 1     
   25   13   14 1     
   26   13   33 1     
   27   14   15 1     
   28   14   34 1     
   29   14   35 1     
   30   15   16 1     
   31   15   17 1     
   32   15   36 1     
   33   16   37 1     
   34   16   38 1     
   35   16   39 1     
   36   17   18 1     
   37   17   40 1     
   38   17   41 1     
   39   18   19 1     
   40   18   42 1     
   41   18   43 1     
   42   19   20 1     
   43   19   44 1     
   44   20   21 1     
   45   20   22 1     
   46   20   45 1     
   47   21   46 1     
   48   21   47 1     
   49   21   48 1     
   50   22   49 1     
   51   22   50 1     
   52   22   51 1     
   53   23   52 1     
   54    7   53 1     
   55    7   54 1     
   56   11   55 1     
   57   11   56 1     
@<TRIPOS>SUBSTRUCTURE
      1 S1             1
@<TRIPOS>SET
LONE_PAIRS      STATIC     ATOMS    <user>   **** ""
4 53 54 55 56
DONOR_HYDROGENS      STATIC     ATOMS    <user>   **** ""
2 31 32
ATOM$BLUE        STATIC     ATOMS    COLORGROUP SYSTEM
4 53 54 55 56
ATOM$RED        STATIC     ATOMS    COLORGROUP SYSTEM
2 31 32
