AV-unprocessed.smi:1990|AV-procd|sdf|8061|dock4
  -GOLD-   2272010263D 1   1.00000     0.00000
 Structure written by MMmdl.
 46 47  0  0  0  0  0  0  0  0  1 V2000
  149.7843  142.9710  158.6335 C   0  0  0  0  0  0  0  0  0  0  0  0
  151.1038  142.8892  157.8457 C   0  0  2  0  0  0  0  0  0  0  0  0
  151.2126  141.6318  156.9601 C   0  0  0  0  0  0  0  0  0  0  0  0
  151.5043  140.4471  157.7619 N   0  0  0  0  0  0  0  0  0  0  0  0
  151.3489  139.2141  157.0939 C   0  0  0  0  0  0  0  0  0  0  0  0
  151.4294  139.1582  155.6828 C   0  0  0  0  0  0  0  0  0  0  0  0
  151.2704  137.9201  155.0310 C   0  0  0  0  0  0  0  0  0  0  0  0
  151.0429  136.7609  155.8093 C   0  0  0  0  0  0  0  0  0  0  0  0
  150.8431  135.4569  155.2807 N   0  0  0  0  0  0  0  0  0  0  0  0
  150.8553  134.2702  155.9164 C   0  0  0  0  0  0  0  0  0  0  0  0
  150.9866  134.1306  157.1319 O   0  0  0  0  0  0  0  0  0  0  0  0
  150.6562  133.0387  155.0217 C   0  0  2  0  0  0  0  0  0  0  0  0
  149.3195  133.0882  154.2628 C   0  0  0  0  0  0  0  0  0  0  0  0
  150.7461  131.4925  156.0415 S   0  0  0  0  0  0  0  0  0  0  0  0
  150.6417  130.1509  154.7825 C   0  0  0  0  0  0  0  0  0  0  0  0
  152.0696  131.4163  156.6792 O   0  0  0  0  0  0  0  0  0  0  0  0
  149.5385  131.4301  156.8789 O   0  0  0  0  0  0  0  0  0  0  0  0
  150.9660  136.9198  157.2073 C   0  0  0  0  0  0  0  0  0  0  0  0
  151.1140  138.1044  157.8354 N   0  0  0  0  0  0  0  0  0  0  0  0
  152.6641  140.6143  158.6327 C   0  0  0  0  0  0  0  0  0  0  0  0
  152.4927  141.8604  159.5187 C   0  0  1  0  0  0  0  0  0  0  0  0
  153.7431  142.1393  160.3595 C   0  0  0  0  0  0  0  0  0  0  0  0
  152.2479  143.0001  158.6958 O   0  0  0  0  0  0  0  0  0  0  0  0
  148.9328  143.0220  157.9547 H   0  0  0  0  0  0  0  0  0  0  0  0
  149.7605  143.8626  159.2602 H   0  0  0  0  0  0  0  0  0  0  0  0
  149.6313  142.1046  159.2769 H   0  0  0  0  0  0  0  0  0  0  0  0
  151.1304  143.7585  157.1882 H   0  0  0  0  0  0  0  0  0  0  0  0
  150.2978  141.5163  156.3801 H   0  0  0  0  0  0  0  0  0  0  0  0
  152.0225  141.7614  156.2408 H   0  0  0  0  0  0  0  0  0  0  0  0
  151.5910  140.0504  155.0958 H   0  0  0  0  0  0  0  0  0  0  0  0
  151.3094  137.8933  153.9536 H   0  0  0  0  0  0  0  0  0  0  0  0
  150.6382  135.4239  154.2926 H   0  0  0  0  0  0  0  0  0  0  0  0
  151.4654  132.9890  154.2923 H   0  0  0  0  0  0  0  0  0  0  0  0
  149.2260  134.0067  153.6824 H   0  0  0  0  0  0  0  0  0  0  0  0
  148.4694  133.0331  154.9441 H   0  0  0  0  0  0  0  0  0  0  0  0
  149.2367  132.2521  153.5680 H   0  0  0  0  0  0  0  0  0  0  0  0
  150.5835  129.1877  155.2891 H   0  0  0  0  0  0  0  0  0  0  0  0
  151.5285  130.1639  154.1495 H   0  0  0  0  0  0  0  0  0  0  0  0
  149.7510  130.2899  154.1704 H   0  0  0  0  0  0  0  0  0  0  0  0
  150.7784  136.0689  157.8459 H   0  0  0  0  0  0  0  0  0  0  0  0
  152.7893  139.7350  159.2659 H   0  0  0  0  0  0  0  0  0  0  0  0
  153.5622  140.7068  158.0205 H   0  0  0  0  0  0  0  0  0  0  0  0
  151.6548  141.7123  160.2001 H   0  0  0  0  0  0  0  0  0  0  0  0
  153.9676  141.3001  161.0180 H   0  0  0  0  0  0  0  0  0  0  0  0
  153.6043  143.0229  160.9827 H   0  0  0  0  0  0  0  0  0  0  0  0
  154.6145  142.3109  159.7271 H   0  0  0  0  0  0  0  0  0  0  0  0
  1  2  1  0  0  0  0
  1 24  1  0  0  0  0
  1 25  1  0  0  0  0
  1 26  1  0  0  0  0
  2 23  1  0  0  0  0
  2  3  1  0  0  0  0
  2 27  1  0  0  0  0
  3  4  1  0  0  0  0
  3 28  1  0  0  0  0
  3 29  1  0  0  0  0
  4  5  1  0  0  0  0
  4 20  1  0  0  0  0
  5 19  1  0  0  0  0
  5  6  2  0  0  0  0
  6  7  1  0  0  0  0
  6 30  1  0  0  0  0
  7  8  2  0  0  0  0
  7 31  1  0  0  0  0
  8  9  1  0  0  0  0
  8 18  1  0  0  0  0
  9 10  1  0  0  0  0
  9 32  1  0  0  0  0
 10 11  2  0  0  0  0
 10 12  1  0  0  0  0
 12 13  1  0  0  0  0
 12 14  1  0  0  0  0
 12 33  1  0  0  0  0
 13 34  1  0  0  0  0
 13 35  1  0  0  0  0
 13 36  1  0  0  0  0
 14 15  1  0  0  0  0
 14 16  2  0  0  0  0
 14 17  2  0  0  0  0
 15 37  1  0  0  0  0
 15 38  1  0  0  0  0
 15 39  1  0  0  0  0
 18 19  2  0  0  0  0
 18 40  1  0  0  0  0
 20 21  1  0  0  0  0
 20 41  1  0  0  0  0
 20 42  1  0  0  0  0
 21 22  1  0  0  0  0
 21 23  1  0  0  0  0
 21 43  1  0  0  0  0
 22 44  1  0  0  0  0
 22 45  1  0  0  0  0
 22 46  1  0  0  0  0
M  END
> <s_m_source_file>
AV-unprocessed.smi

> <i_m_source_file_index>
1990

> <i_lp_mmshare_version>
43012

> <i_f3d_flags>
0

> <s_epik_input>
W0NIM11bQ0BASF0xW0NIMl1OKFtDSDJdW0NASF0oTzEpW0NIM10pYzJbY0hdW2NIXWMoW2NIXW4yKVtOSF1DKD1PKVtDQEhdKFtDSDNdKVMoPU8pKD1PKVtDSDNd

> <s_epik_cmdline>
J2VwaWtfcHl0aG9uJywgJy1waCcsICc3LjAnLCAnLXRuJywgJzgnLCAnLW1hJywgJzIwMCcsICctbWV0YWxfYmluZGluZycsICctaW1hZScsICc8aW5maWxlLm1hZT4nLCAnLW9tYWUnLCAnPG91dGZpbGUubWFlPic=

> <r_lp_tautomer_probability>
1

> <r_epik_Ionization_Penalty>
0.000334888

> <r_epik_Ionization_Penalty_Charging>
0

> <r_epik_Ionization_Penalty_Neutral>
0.000334888

> <r_epik_State_Penalty>
0.000200905

> <r_epik_Charging_Adjusted_Penalty>
0.000200905

> <i_epik_Tot_Q>
0

> <i_epik_Tot_abs_Q>
0

> <r_epik_Metal_State_Penalty>
-0

> <b_epik_Metal_Only>
0

> <s_lp_Force_Field>
OPLS_2005

> <r_lp_Energy>
21.5885

> <b_lp_Chiralities_Consistent>
1

> <s_lp_Variant>
AV-unprocessed.smi:1990-1

> <Gold.Version>
5.8.1

> <Gold.Id.Protein>
6NUR|6NUR_protein|mol2

> <Gold.PLP.Fitness>
35.3036

> <Gold.PLP.PLP>
-34.6221

> <Gold.PLP.part.hbond>
-1.0000

> <Gold.PLP.part.metal>
0.0000

> <Gold.PLP.part.buried>
-7.0389

> <Gold.PLP.part.nonpolar>
-27.0477

> <Gold.PLP.part.repulsive>
0.0975

> <Gold.PLP.ligand.clash>
0.0000

> <Gold.PLP.ligand.torsion>
0.5141

> <Gold.PLP.Chemscore.Hbond>
0.4150

> <Gold.PLP.Chemscore.CHOScore>
0.0000

> <Gold.PLP.Chemscore.Metal>
0.0000

> <Gold.Chemscore.Hbonds>
donor molecule, donor type, donor heavy atom, donor atom, acceptor molecule, acceptor atom, score
      P1  H  6896  6907       L1    11  0.37

> <Gold.PLP.Chemscore.Internal.Correction>
0.4649

> <Gold.Rescore>
     Score         DG    S(hbond)    S(metal)    S(lipo)     H(rot)  DE(clash)    DE(int)     intcor
     10.70     -14.07       0.75        0.00      85.25       1.52       0.04       3.33       ----

> <Gold.Chemscore.Fitness>
10.7003

> <Gold.Chemscore.DG>
-14.0726

> <Gold.Chemscore.ZeroCoef>
-5.4800

> <Gold.Chemscore.Hbond>
0.7497

> <Gold.Chemscore.Metal>
0.0000

> <Gold.Chemscore.Lipo>
85.2459

> <Gold.Chemscore.Internal_Hbond>
0.0000

> <Gold.Chemscore.DEClash>
0.0402

> <Gold.Chemscore.DEInternal>
3.3321

> <Gold.Chemscore.Rot>
1.5177

> <Gold.Chemscore.Internal.Correction>
   9.000000E+99

> <Gold.Chemscore.Hbonds>
donor molecule, donor type, donor heavy atom, donor atom, acceptor molecule, acceptor atom, score
      P1  H  6896  6907       L1    11  0.36

> <Gold.Chemscore.Hbond.Weighted>
-2.5041

> <Gold.Chemscore.Metal.Weighted>
-0.0000

> <Gold.Chemscore.Lipo.Weighted>
-9.9738

> <Gold.Chemscore.Internal_Hbond.Weighted>
0.0000

> <Gold.Chemscore.DEClash.Weighted>
0.0402

> <Gold.Chemscore.DEInternal.Weighted>
3.3321

> <Gold.Chemscore.Rot.Weighted>
3.8853

> <Gold.Chemscore.Internal.Correction.Weighted>
   9.000000E+99

> <Gold.Protein.RotatedTorsions>
[ 6907 6896 6895 6894 ] final -127.92 input  -60.11 | X-H torsion
[ 7974 7965 7964 7962 ] final  -13.74 input  175.53 | X-H torsion
[ 8008 7997 7996 7995 ] final   98.39 input   59.86 | X-H torsion
[ 10167 10162 10161 10158 ] final -123.03 input  -65.29 | X-H torsion
[ 10718 10713 10712 10709 ] final   82.65 input   66.30 | X-H torsion
[ 10763 10752 10751 10750 ] final  119.39 input  -60.55 | X-H torsion
[ 11005 11000 10999 10996 ] final -160.28 input  -57.11 | X-H torsion

> <Gold.Protein.ActiveResidues>
 VAL166  LYS551  ARG553  GLY616  TRP617  ASP618  TYR619  PRO620  LYS621  CYS622 
 ASP623  PHE694  ASN695  SER759  ASP760  ASP761  ALA762  ILE779  LEU786  VAL792 
 PHE793  MET794  SER795  GLU796  ALA797  LYS798  CYS799  TRP800  GLU811  SER814 

> <Gold.Protein.RotatedAtoms>
  150.9124  133.6981  159.2851 H   0  0  0  0  0  0  0  0  0  0  0  0  # atno 6907 bound_to 6896
  151.4463  135.1024  159.9694 H   0  0  0  0  0  0  0  0  0  0  0  0  # atno 6908 bound_to 6896
  152.4937  133.8520  159.7262 H   0  0  0  0  0  0  0  0  0  0  0  0  # atno 6909 bound_to 6896
  146.2102  140.3248  142.8393 H   0  0  0  0  0  0  0  0  0  0  0  0  # atno 7974 bound_to 7965
  156.1000  140.3244  155.7929 H   0  0  0  0  0  0  0  0  0  0  0  0  # atno 8008 bound_to 7997
  155.4853  140.0557  157.2978 H   0  0  0  0  0  0  0  0  0  0  0  0  # atno 8009 bound_to 7997
  154.4690  140.2003  156.0057 H   0  0  0  0  0  0  0  0  0  0  0  0  # atno 8010 bound_to 7997
  140.0079  143.5472  152.2276 H   0  0  0  0  0  0  0  0  0  0  0  0  # atno 10167 bound_to 10162
  157.6862  131.0057  150.2406 H   0  0  0  0  0  0  0  0  0  0  0  0  # atno 10718 bound_to 10713
  153.5823  135.3481  155.2879 H   0  0  0  0  0  0  0  0  0  0  0  0  # atno 10763 bound_to 10752
  154.8666  135.4185  154.2607 H   0  0  0  0  0  0  0  0  0  0  0  0  # atno 10764 bound_to 10752
  153.3396  135.7049  153.6949 H   0  0  0  0  0  0  0  0  0  0  0  0  # atno 10765 bound_to 10752
  140.6333  134.4628  157.5230 H   0  0  0  0  0  0  0  0  0  0  0  0  # atno 11005 bound_to 11000
  144.8894  140.7504  143.5936 LP  0  0  0  0  0  0  0  0  0  0  0  0  # atno 17320 bound_to 7965
  145.3170  139.1800  143.4608 LP  0  0  0  0  0  0  0  0  0  0  0  0  # atno 17321 bound_to 7965
  139.6225  144.7631  151.2708 LP  0  0  0  0  0  0  0  0  0  0  0  0  # atno 17342 bound_to 10162
  140.7393  143.6622  150.8154 LP  0  0  0  0  0  0  0  0  0  0  0  0  # atno 17343 bound_to 10162
  156.3021  130.3760  149.7740 LP  0  0  0  0  0  0  0  0  0  0  0  0  # atno 17370 bound_to 10713
  156.5367  130.8281  151.3255 LP  0  0  0  0  0  0  0  0  0  0  0  0  # atno 17371 bound_to 10713
  139.9108  134.8350  156.1537 LP  0  0  0  0  0  0  0  0  0  0  0  0  # atno 17394 bound_to 11000
  141.0660  133.6819  156.2045 LP  0  0  0  0  0  0  0  0  0  0  0  0  # atno 17395 bound_to 11000

$$$$
