AV-unprocessed.smi:1911|AV-procd|sdf|7743|dock10
  -GOLD-   22720 9483D 1   1.00000     0.00000
 Structure written by MMmdl.
 53 55  0  0  0  0  0  0  0  0  3 V2000
  144.0643  133.5104  148.4910 N   0  0  0  0  0  0  0  0  0  0  0  0
  144.3987  132.7047  149.5015 C   0  0  0  0  0  0  0  0  0  0  0  0
  143.6931  131.7584  149.8464 O   0  0  0  0  0  0  0  0  0  0  0  0
  145.7250  132.9990  150.2101 C   0  0  0  0  0  0  0  0  0  0  0  0
  145.5456  133.5181  151.5907 N   0  3  2  0  0  0  0  0  0  0  0  0
  145.3688  134.9942  151.6405 C   0  0  0  0  0  0  0  0  0  0  0  0
  145.0468  135.4666  153.0689 C   0  0  0  0  0  0  0  0  0  0  0  0
  146.1178  135.0149  154.0818 C   0  0  2  0  0  0  0  0  0  0  0  0
  147.3798  135.7319  153.8989 N   0  0  0  0  0  0  0  0  0  0  0  0
  148.0787  136.3315  154.8738 C   0  0  0  0  0  0  0  0  0  0  0  0
  147.7157  136.3598  156.0492 O   0  0  0  0  0  0  0  0  0  0  0  0
  149.1956  136.9031  154.3919 N   0  0  0  0  0  0  0  0  0  0  0  0
  150.1938  137.6254  155.0999 C   0  0  0  0  0  0  0  0  0  0  0  0
  151.3644  138.1548  154.5015 C   0  0  0  0  0  0  0  0  0  0  0  0
  152.2841  138.8740  155.2924 C   0  0  0  0  0  0  0  0  0  0  0  0
  152.0256  139.0558  156.6713 C   0  0  0  0  0  0  0  0  0  0  0  0
  152.8639  139.7720  157.5392 N   0  0  0  0  0  0  0  0  0  0  0  0
  152.3122  140.9840  158.1424 C   0  0  0  0  0  0  0  0  0  0  0  0
  152.7883  140.9973  159.5961 C   0  0  0  0  0  0  0  0  0  0  0  0
  152.9641  139.5181  159.9140 C   0  0  0  0  0  0  0  0  0  0  0  0
  153.4552  138.9452  158.5851 C   0  0  0  0  0  0  0  0  0  0  0  0
  150.8854  138.5550  157.1951 N   0  3  0  0  0  0  0  0  0  0  0  0
  149.9781  137.8627  156.4735 C   0  0  0  0  0  0  0  0  0  0  0  0
  146.3375  133.4970  153.9599 C   0  0  0  0  0  0  0  0  0  0  0  0
  146.6219  133.0659  152.5091 C   0  0  0  0  0  0  0  0  0  0  0  0
  143.2006  133.3539  147.9906 H   0  0  0  0  0  0  0  0  0  0  0  0
  144.6722  134.2713  148.2239 H   0  0  0  0  0  0  0  0  0  0  0  0
  146.2757  132.0579  150.2407 H   0  0  0  0  0  0  0  0  0  0  0  0
  146.3275  133.6951  149.6238 H   0  0  0  0  0  0  0  0  0  0  0  0
  146.2727  135.4844  151.2755 H   0  0  0  0  0  0  0  0  0  0  0  0
  144.5594  135.2979  150.9761 H   0  0  0  0  0  0  0  0  0  0  0  0
  144.9306  136.5507  153.0871 H   0  0  0  0  0  0  0  0  0  0  0  0
  144.0804  135.0579  153.3672 H   0  0  0  0  0  0  0  0  0  0  0  0
  145.7574  135.2233  155.0910 H   0  0  0  0  0  0  0  0  0  0  0  0
  147.7564  135.7584  152.9626 H   0  0  0  0  0  0  0  0  0  0  0  0
  149.3180  136.8649  153.3905 H   0  0  0  0  0  0  0  0  0  0  0  0
  151.5683  138.0411  153.4482 H   0  0  0  0  0  0  0  0  0  0  0  0
  153.1682  139.2907  154.8324 H   0  0  0  0  0  0  0  0  0  0  0  0
  152.6643  141.8667  157.6080 H   0  0  0  0  0  0  0  0  0  0  0  0
  151.2234  141.0000  158.1058 H   0  0  0  0  0  0  0  0  0  0  0  0
  153.7508  141.5063  159.6673 H   0  0  0  0  0  0  0  0  0  0  0  0
  152.0904  141.4992  160.2668 H   0  0  0  0  0  0  0  0  0  0  0  0
  153.6559  139.3355  160.7367 H   0  0  0  0  0  0  0  0  0  0  0  0
  152.0009  139.0781  160.1759 H   0  0  0  0  0  0  0  0  0  0  0  0
  153.2019  137.8881  158.4886 H   0  0  0  0  0  0  0  0  0  0  0  0
  154.5398  139.0307  158.5130 H   0  0  0  0  0  0  0  0  0  0  0  0
  149.1116  137.5175  157.0190 H   0  0  0  0  0  0  0  0  0  0  0  0
  147.1513  133.1778  154.6124 H   0  0  0  0  0  0  0  0  0  0  0  0
  145.4456  132.9784  154.3144 H   0  0  0  0  0  0  0  0  0  0  0  0
  146.7029  131.9788  152.4728 H   0  0  0  0  0  0  0  0  0  0  0  0
  147.5801  133.4650  152.1730 H   0  0  0  0  0  0  0  0  0  0  0  0
  144.6884  133.1071  151.9333 H   0  0  0  0  0  0  0  0  0  0  0  0
  150.7013  138.7065  158.1872 H   0  0  0  0  0  0  0  0  0  0  0  0
  1  2  1  0  0  0  0
  1 26  1  0  0  0  0
  1 27  1  0  0  0  0
  2  3  2  0  0  0  0
  2  4  1  0  0  0  0
  4  5  1  0  0  0  0
  4 28  1  0  0  0  0
  4 29  1  0  0  0  0
  5 25  1  0  0  0  0
  5  6  1  0  0  0  0
  5 52  1  0  0  0  0
  6  7  1  0  0  0  0
  6 30  1  0  0  0  0
  6 31  1  0  0  0  0
  7  8  1  0  0  0  0
  7 32  1  0  0  0  0
  7 33  1  0  0  0  0
  8  9  1  0  0  0  0
  8 24  1  0  0  0  0
  8 34  1  0  0  0  0
  9 10  1  0  0  0  0
  9 35  1  0  0  0  0
 10 11  2  0  0  0  0
 10 12  1  0  0  0  0
 12 13  1  0  0  0  0
 12 36  1  0  0  0  0
 13 23  1  0  0  0  0
 13 14  2  0  0  0  0
 14 15  1  0  0  0  0
 14 37  1  0  0  0  0
 15 16  2  0  0  0  0
 15 38  1  0  0  0  0
 16 17  1  0  0  0  0
 16 22  1  0  0  0  0
 17 21  1  0  0  0  0
 17 18  1  0  0  0  0
 18 19  1  0  0  0  0
 18 39  1  0  0  0  0
 18 40  1  0  0  0  0
 19 20  1  0  0  0  0
 19 41  1  0  0  0  0
 19 42  1  0  0  0  0
 20 21  1  0  0  0  0
 20 43  1  0  0  0  0
 20 44  1  0  0  0  0
 21 45  1  0  0  0  0
 21 46  1  0  0  0  0
 22 23  2  0  0  0  0
 22 53  1  0  0  0  0
 23 47  1  0  0  0  0
 24 25  1  0  0  0  0
 24 48  1  0  0  0  0
 24 49  1  0  0  0  0
 25 50  1  0  0  0  0
 25 51  1  0  0  0  0
M  CHG  1   5   1
M  CHG  1  22   1
M  END
> <s_m_source_file>
AV-unprocessed.smi

> <i_m_source_file_index>
1911

> <i_lp_mmshare_version>
43012

> <i_f3d_flags>
0

> <s_epik_input>
W05IMl1DKD1PKVtDSDJdTjFbQ0gyXVtDSDJdW0NIXShbQ0gyXVtDSDJdMSlbTkhdQyg9TylbTkhdYzJbY0hdW2NIXWMobltjSF0yKU4zW0NIMl1bQ0gyXVtDSDJdW0NIMl0z

> <s_epik_cmdline>
J2VwaWtfcHl0aG9uJywgJy1waCcsICc3LjAnLCAnLXRuJywgJzgnLCAnLW1hJywgJzIwMCcsICctbWV0YWxfYmluZGluZycsICctaW1hZScsICc8aW5maWxlLm1hZT4nLCAnLW9tYWUnLCAnPG91dGZpbGUubWFlPic=

> <r_lp_tautomer_probability>
0.999994

> <r_epik_Ionization_Penalty>
2.11361

> <r_epik_Ionization_Penalty_Charging>
2.11355

> <r_epik_Ionization_Penalty_Neutral>
5.99226e-05

> <r_epik_State_Penalty>
2.13444

> <r_epik_Charging_Adjusted_Penalty>
4.24799

> <i_epik_Tot_Q>
2

> <i_epik_Tot_abs_Q>
2

> <r_epik_Metal_State_Penalty>
2.23538

> <b_epik_Metal_Only>
0

> <s_lp_Force_Field>
OPLS_2005

> <r_lp_Energy>
50.1523

> <b_lp_Chiralities_Consistent>
1

> <s_lp_Variant>
AV-unprocessed.smi:1911-6

> <Gold.Version>
5.8.1

> <Gold.Id.Protein>
6NUR|6NUR_protein|mol2

> <Gold.PLP.Fitness>
46.7637

> <Gold.PLP.PLP>
-33.1984

> <Gold.PLP.part.hbond>
-5.0000

> <Gold.PLP.part.metal>
0.0000

> <Gold.PLP.part.buried>
-4.9289

> <Gold.PLP.part.nonpolar>
-23.3613

> <Gold.PLP.part.repulsive>
0.4434

> <Gold.PLP.ligand.clash>
0.0322

> <Gold.PLP.ligand.torsion>
0.6438

> <Gold.PLP.Chemscore.Hbond>
4.9200

> <Gold.PLP.Chemscore.CHOScore>
0.0000

> <Gold.PLP.Chemscore.Metal>
0.0000

> <Gold.Chemscore.Hbonds>
donor molecule, donor type, donor heavy atom, donor atom, acceptor molecule, acceptor atom, score
      L1  H     1    27       P1  7921  0.99
      L1  H     9    35       P1  7948  1.00
      L1  H    12    36       P1  7948  1.00
      P1  H  7997  8008       L1    17  0.95
      P1  H 10785 10796       L1     3  0.91

> <Gold.PLP.Chemscore.Internal.Correction>
0.1252

> <Gold.Rescore>
     Score         DG    S(hbond)    S(metal)    S(lipo)     H(rot)  DE(clash)    DE(int)     intcor
     19.24     -21.42       3.83        0.00      75.58       2.22       0.05       2.13       ----

> <Gold.Chemscore.Fitness>
19.2376

> <Gold.Chemscore.DG>
-21.4194

> <Gold.Chemscore.ZeroCoef>
-5.4800

> <Gold.Chemscore.Hbond>
3.8269

> <Gold.Chemscore.Metal>
0.0000

> <Gold.Chemscore.Lipo>
75.5765

> <Gold.Chemscore.Internal_Hbond>
0.0000

> <Gold.Chemscore.DEClash>
0.0518

> <Gold.Chemscore.DEInternal>
2.1300

> <Gold.Chemscore.Rot>
2.2207

> <Gold.Chemscore.Internal.Correction>
   9.000000E+99

> <Gold.Chemscore.Hbonds>
donor molecule, donor type, donor heavy atom, donor atom, acceptor molecule, acceptor atom, score
      L1  H     1    27       P1  7921  0.94
      L1  H     9    35       P1  7948  0.96
      L1  H    12    36       P1  7948  0.93
      P1  H  7997  8008       L1    17  0.07
      P1  H 10785 10796       L1     3  0.83

> <Gold.Chemscore.Hbond.Weighted>
-12.7818

> <Gold.Chemscore.Metal.Weighted>
-0.0000

> <Gold.Chemscore.Lipo.Weighted>
-8.8425

> <Gold.Chemscore.Internal_Hbond.Weighted>
0.0000

> <Gold.Chemscore.DEClash.Weighted>
0.0518

> <Gold.Chemscore.DEInternal.Weighted>
2.1300

> <Gold.Chemscore.Rot.Weighted>
5.6849

> <Gold.Chemscore.Internal.Correction.Weighted>
   9.000000E+99

> <Gold.Protein.RotatedTorsions>
[ 6907 6896 6895 6894 ] final -162.67 input  -60.11 | X-H torsion
[ 7974 7965 7964 7962 ] final   43.72 input  175.53 | X-H torsion
[ 8008 7997 7996 7995 ] final  -53.02 input   59.86 | X-H torsion
[ 10167 10162 10161 10158 ] final  -96.60 input  -65.29 | X-H torsion
[ 10718 10713 10712 10709 ] final   19.83 input   66.30 | X-H torsion
[ 10763 10752 10751 10750 ] final   75.21 input  -60.55 | X-H torsion
[ 11005 11000 10999 10996 ] final  176.96 input  -57.11 | X-H torsion

> <Gold.Protein.ActiveResidues>
 VAL166  LYS551  ARG553  GLY616  TRP617  ASP618  TYR619  PRO620  LYS621  CYS622 
 ASP623  PHE694  ASN695  SER759  ASP760  ASP761  ALA762  ILE779  LEU786  VAL792 
 PHE793  MET794  SER795  GLU796  ALA797  LYS798  CYS799  TRP800  GLU811  SER814 

> <Gold.Protein.RotatedAtoms>
  151.3839  133.3812  159.2712 H   0  0  0  0  0  0  0  0  0  0  0  0  # atno 6907 bound_to 6896
  150.9556  134.8952  159.7710 H   0  0  0  0  0  0  0  0  0  0  0  0  # atno 6908 bound_to 6896
  152.5129  134.3796  159.9399 H   0  0  0  0  0  0  0  0  0  0  0  0  # atno 6909 bound_to 6896
  146.0631  139.5154  142.9646 H   0  0  0  0  0  0  0  0  0  0  0  0  # atno 7974 bound_to 7965
  154.4122  140.1210  156.5086 H   0  0  0  0  0  0  0  0  0  0  0  0  # atno 8008 bound_to 7997
  155.6822  140.3496  155.4840 H   0  0  0  0  0  0  0  0  0  0  0  0  # atno 8009 bound_to 7997
  155.9542  140.1110  157.0941 H   0  0  0  0  0  0  0  0  0  0  0  0  # atno 8010 bound_to 7997
  140.2921  143.3215  152.0335 H   0  0  0  0  0  0  0  0  0  0  0  0  # atno 10167 bound_to 10162
  157.1159  130.6529  149.5910 H   0  0  0  0  0  0  0  0  0  0  0  0  # atno 10718 bound_to 10713
  153.0639  135.4997  154.8155 H   0  0  0  0  0  0  0  0  0  0  0  0  # atno 10763 bound_to 10752
  154.6924  135.2987  154.9463 H   0  0  0  0  0  0  0  0  0  0  0  0  # atno 10764 bound_to 10752
  154.0213  135.6741  153.4825 H   0  0  0  0  0  0  0  0  0  0  0  0  # atno 10765 bound_to 10752
  140.3788  134.6964  157.4438 H   0  0  0  0  0  0  0  0  0  0  0  0  # atno 11005 bound_to 11000
  145.6526  141.0259  143.1752 LP  0  0  0  0  0  0  0  0  0  0  0  0  # atno 17320 bound_to 7965
  144.7186  139.8108  143.7390 LP  0  0  0  0  0  0  0  0  0  0  0  0  # atno 17321 bound_to 7965
  139.4935  144.6517  151.6660 LP  0  0  0  0  0  0  0  0  0  0  0  0  # atno 17342 bound_to 10162
  140.5723  144.0087  150.6223 LP  0  0  0  0  0  0  0  0  0  0  0  0  # atno 17343 bound_to 10162
  155.9839  130.4862  150.6958 LP  0  0  0  0  0  0  0  0  0  0  0  0  # atno 17370 bound_to 10713
  157.4518  131.0873  151.0837 LP  0  0  0  0  0  0  0  0  0  0  0  0  # atno 17371 bound_to 10713
  140.0494  134.6152  155.8880 LP  0  0  0  0  0  0  0  0  0  0  0  0  # atno 17394 bound_to 11000
  141.1930  133.6577  156.5529 LP  0  0  0  0  0  0  0  0  0  0  0  0  # atno 17395 bound_to 11000

$$$$
