AV-unprocessed.smi:2061|AV-procd|sdf|8366|dock9
  -GOLD-   2272011 43D 1   1.00000     0.00000
 Structure written by MMmdl.
 46 47  0  0  0  0  0  0  0  0  2 V2000
  147.0791  135.6715  162.9418 C   0  0  0  0  0  0  0  0  0  0  0  0
  147.2900  136.0348  161.5120 C   0  0  0  0  0  0  0  0  0  0  0  0
  147.3147  135.3011  160.3598 C   0  0  0  0  0  0  0  0  0  0  0  0
  147.5693  136.2851  159.3604 C   0  0  0  0  0  0  0  0  0  0  0  0
  147.7060  136.0518  157.9676 N   0  0  0  0  0  0  0  0  0  0  0  0
  148.5379  135.2014  157.3435 C   0  0  0  0  0  0  0  0  0  0  0  0
  149.3197  134.4295  157.8992 O   0  0  0  0  0  0  0  0  0  0  0  0
  148.4176  135.2904  156.0110 N   0  0  0  0  0  0  0  0  0  0  0  0
  149.1903  134.5037  155.0542 C   0  0  0  0  0  0  0  0  0  0  0  0
  148.3567  133.3865  154.3710 C   0  0  2  0  0  0  0  0  0  0  0  0
  149.2717  132.1932  154.0024 C   0  0  0  0  0  0  0  0  0  0  0  0
  147.5989  133.9451  153.2039 N   0  3  1  0  0  0  0  0  0  0  0  0
  147.0552  132.9426  152.2471 C   0  0  0  0  0  0  0  0  0  0  0  0
  146.3425  133.6326  151.0678 C   0  0  1  0  0  0  0  0  0  0  0  0
  145.7065  132.6228  150.1060 C   0  0  0  0  0  0  0  0  0  0  0  0
  145.3136  134.4765  151.5675 O   0  0  0  0  0  0  0  0  0  0  0  0
  145.8215  135.5071  152.4040 C   0  0  1  0  0  0  0  0  0  0  0  0
  144.6522  136.4113  152.8093 C   0  0  0  0  0  0  0  0  0  0  0  0
  146.5075  134.8656  153.6237 C   0  0  0  0  0  0  0  0  0  0  0  0
  147.6914  137.5003  159.8618 N   0  0  0  0  0  0  0  0  0  0  0  0
  147.5106  137.3497  161.2417 O   0  0  0  0  0  0  0  0  0  0  0  0
  146.9486  134.5951  163.0553 H   0  0  0  0  0  0  0  0  0  0  0  0
  146.1912  136.1639  163.3389 H   0  0  0  0  0  0  0  0  0  0  0  0
  147.9340  135.9736  163.5469 H   0  0  0  0  0  0  0  0  0  0  0  0
  147.1748  134.2347  160.2674 H   0  0  0  0  0  0  0  0  0  0  0  0
  147.1010  136.6044  157.3780 H   0  0  0  0  0  0  0  0  0  0  0  0
  147.7494  135.9462  155.6325 H   0  0  0  0  0  0  0  0  0  0  0  0
  149.6267  135.1919  154.3314 H   0  0  0  0  0  0  0  0  0  0  0  0
  150.0307  134.0595  155.5885 H   0  0  0  0  0  0  0  0  0  0  0  0
  147.6214  133.0063  155.0821 H   0  0  0  0  0  0  0  0  0  0  0  0
  149.8311  131.8318  154.8652 H   0  0  0  0  0  0  0  0  0  0  0  0
  149.9973  132.4685  153.2363 H   0  0  0  0  0  0  0  0  0  0  0  0
  148.7015  131.3361  153.6433 H   0  0  0  0  0  0  0  0  0  0  0  0
  147.8554  132.3306  151.8320 H   0  0  0  0  0  0  0  0  0  0  0  0
  146.3674  132.2753  152.7697 H   0  0  0  0  0  0  0  0  0  0  0  0
  147.0607  134.2351  150.5086 H   0  0  0  0  0  0  0  0  0  0  0  0
  146.4569  131.9500  149.6899 H   0  0  0  0  0  0  0  0  0  0  0  0
  145.2198  133.1316  149.2736 H   0  0  0  0  0  0  0  0  0  0  0  0
  144.9544  132.0153  150.6102 H   0  0  0  0  0  0  0  0  0  0  0  0
  146.5442  136.1048  151.8456 H   0  0  0  0  0  0  0  0  0  0  0  0
  144.9899  137.2287  153.4472 H   0  0  0  0  0  0  0  0  0  0  0  0
  143.8918  135.8527  153.3558 H   0  0  0  0  0  0  0  0  0  0  0  0
  144.1767  136.8505  151.9320 H   0  0  0  0  0  0  0  0  0  0  0  0
  145.7746  134.3117  154.2130 H   0  0  0  0  0  0  0  0  0  0  0  0
  146.8876  135.6585  154.2650 H   0  0  0  0  0  0  0  0  0  0  0  0
  148.2617  134.4946  152.6759 H   0  0  0  0  0  0  0  0  0  0  0  0
  1  2  1  0  0  0  0
  1 22  1  0  0  0  0
  1 23  1  0  0  0  0
  1 24  1  0  0  0  0
  2 21  1  0  0  0  0
  2  3  2  0  0  0  0
  3  4  1  0  0  0  0
  3 25  1  0  0  0  0
  4  5  1  0  0  0  0
  4 20  2  0  0  0  0
  5  6  1  0  0  0  0
  5 26  1  0  0  0  0
  6  7  2  0  0  0  0
  6  8  1  0  0  0  0
  8  9  1  0  0  0  0
  8 27  1  0  0  0  0
  9 10  1  0  0  0  0
  9 28  1  0  0  0  0
  9 29  1  0  0  0  0
 10 11  1  0  0  0  0
 10 12  1  0  0  0  0
 10 30  1  0  0  0  0
 11 31  1  0  0  0  0
 11 32  1  0  0  0  0
 11 33  1  0  0  0  0
 12 19  1  0  0  0  0
 12 13  1  0  0  0  0
 12 46  1  0  0  0  0
 13 14  1  0  0  0  0
 13 34  1  0  0  0  0
 13 35  1  0  0  0  0
 14 15  1  0  0  0  0
 14 16  1  0  0  0  0
 14 36  1  0  0  0  0
 15 37  1  0  0  0  0
 15 38  1  0  0  0  0
 15 39  1  0  0  0  0
 16 17  1  0  0  0  0
 17 18  1  0  0  0  0
 17 19  1  0  0  0  0
 17 40  1  0  0  0  0
 18 41  1  0  0  0  0
 18 42  1  0  0  0  0
 18 43  1  0  0  0  0
 19 44  1  0  0  0  0
 19 45  1  0  0  0  0
 20 21  1  0  0  0  0
M  CHG  1  12   1
M  END
> <s_m_source_file>
AV-unprocessed.smi

> <i_m_source_file_index>
2061

> <i_lp_mmshare_version>
43012

> <i_f3d_flags>
0

> <s_epik_input>
W0NIM11jMVtjSF1jKG5vMSlbTkhdQyg9TylbTkhdW0NIMl1bQ0BIXShbQ0gzXSlOMltDSDJdW0NAQEhdKFtDSDNdKU9bQ0BASF0oW0NIM10pW0NIMl0y

> <s_epik_cmdline>
J2VwaWtfcHl0aG9uJywgJy1waCcsICc3LjAnLCAnLXRuJywgJzgnLCAnLW1hJywgJzIwMCcsICctbWV0YWxfYmluZGluZycsICctaW1hZScsICc8aW5maWxlLm1hZT4nLCAnLW9tYWUnLCAnPG91dGZpbGUubWFlPic=

> <r_epik_Ionization_Penalty>
0.707076

> <r_epik_Ionization_Penalty_Charging>
0.707039

> <r_epik_Ionization_Penalty_Neutral>
3.6548e-05

> <r_epik_State_Penalty>
0.730276

> <r_epik_Charging_Adjusted_Penalty>
1.43732

> <i_epik_Tot_Q>
1

> <i_epik_Tot_abs_Q>
1

> <r_epik_Metal_State_Penalty>
0.743132

> <b_epik_Metal_Only>
0

> <s_lp_Force_Field>
OPLS_2005

> <r_lp_Energy>
18.102

> <b_lp_Chiralities_Consistent>
1

> <s_lp_Variant>
AV-unprocessed.smi:2061-7

> <Gold.Version>
5.8.1

> <Gold.Id.Protein>
6NUR|6NUR_protein|mol2

> <Gold.PLP.Fitness>
44.0278

> <Gold.PLP.PLP>
-34.2692

> <Gold.PLP.part.hbond>
-5.5723

> <Gold.PLP.part.metal>
0.0000

> <Gold.PLP.part.buried>
-3.9168

> <Gold.PLP.part.nonpolar>
-24.8352

> <Gold.PLP.part.repulsive>
0.1384

> <Gold.PLP.ligand.clash>
0.0000

> <Gold.PLP.ligand.torsion>
1.1111

> <Gold.PLP.Chemscore.Hbond>
3.9760

> <Gold.PLP.Chemscore.CHOScore>
0.0000

> <Gold.PLP.Chemscore.Metal>
0.0000

> <Gold.Chemscore.Hbonds>
donor molecule, donor type, donor heavy atom, donor atom, acceptor molecule, acceptor atom, score
      L1  H    12    46       P1  7948  2.00
      P1  H  6896  6909       L1     7  0.98
      P1  H  6931  6943       L1    21  0.83

> <Gold.PLP.Chemscore.Internal.Correction>
0.0529

> <Gold.Rescore>
     Score         DG    S(hbond)    S(metal)    S(lipo)     H(rot)  DE(clash)    DE(int)     intcor
     14.05     -16.43       2.14        0.00      67.20       1.58       0.28       2.10       ----

> <Gold.Chemscore.Fitness>
14.0537

> <Gold.Chemscore.DG>
-16.4318

> <Gold.Chemscore.ZeroCoef>
-5.4800

> <Gold.Chemscore.Hbond>
2.1384

> <Gold.Chemscore.Metal>
0.0000

> <Gold.Chemscore.Lipo>
67.2043

> <Gold.Chemscore.Internal_Hbond>
0.0000

> <Gold.Chemscore.DEClash>
0.2753

> <Gold.Chemscore.DEInternal>
2.1028

> <Gold.Chemscore.Rot>
1.5834

> <Gold.Chemscore.Internal.Correction>
   9.000000E+99

> <Gold.Chemscore.Hbonds>
donor molecule, donor type, donor heavy atom, donor atom, acceptor molecule, acceptor atom, score
      L1  H    12    46       P1  7948  0.28
      P1  H  6896  6909       L1     7  0.89
      P1  H  6931  6943       L1    21  0.24

> <Gold.Chemscore.Hbond.Weighted>
-7.1424

> <Gold.Chemscore.Metal.Weighted>
-0.0000

> <Gold.Chemscore.Lipo.Weighted>
-7.8629

> <Gold.Chemscore.Internal_Hbond.Weighted>
0.0000

> <Gold.Chemscore.DEClash.Weighted>
0.2753

> <Gold.Chemscore.DEInternal.Weighted>
2.1028

> <Gold.Chemscore.Rot.Weighted>
4.0535

> <Gold.Chemscore.Internal.Correction.Weighted>
   9.000000E+99

> <Gold.Protein.RotatedTorsions>
[ 6907 6896 6895 6894 ] final    7.63 input  -60.11 | X-H torsion
[ 7974 7965 7964 7962 ] final   94.75 input  175.53 | X-H torsion
[ 8008 7997 7996 7995 ] final   80.79 input   59.86 | X-H torsion
[ 10167 10162 10161 10158 ] final -142.96 input  -65.29 | X-H torsion
[ 10718 10713 10712 10709 ] final   43.85 input   66.30 | X-H torsion
[ 10763 10752 10751 10750 ] final  -28.52 input  -60.55 | X-H torsion
[ 11005 11000 10999 10996 ] final  150.07 input  -57.11 | X-H torsion

> <Gold.Protein.ActiveResidues>
 VAL166  LYS551  ARG553  GLY616  TRP617  ASP618  TYR619  PRO620  LYS621  CYS622 
 ASP623  PHE694  ASN695  SER759  ASP760  ASP761  ALA762  ILE779  LEU786  VAL792 
 PHE793  MET794  SER795  GLU796  ALA797  LYS798  CYS799  TRP800  GLU811  SER814 

> <Gold.Protein.RotatedAtoms>
  151.6929  135.0943  160.0236 H   0  0  0  0  0  0  0  0  0  0  0  0  # atno 6907 bound_to 6896
  152.3767  133.6487  159.6138 H   0  0  0  0  0  0  0  0  0  0  0  0  # atno 6908 bound_to 6896
  150.7715  133.9098  159.3407 H   0  0  0  0  0  0  0  0  0  0  0  0  # atno 6909 bound_to 6896
  145.4614  139.2287  143.2985 H   0  0  0  0  0  0  0  0  0  0  0  0  # atno 7974 bound_to 7965
  155.8883  140.3440  155.5937 H   0  0  0  0  0  0  0  0  0  0  0  0  # atno 8008 bound_to 7997
  155.7640  140.0836  157.2160 H   0  0  0  0  0  0  0  0  0  0  0  0  # atno 8009 bound_to 7997
  154.4031  140.1530  156.2853 H   0  0  0  0  0  0  0  0  0  0  0  0  # atno 8010 bound_to 7997
  139.8039  143.7795  152.2660 H   0  0  0  0  0  0  0  0  0  0  0  0  # atno 10167 bound_to 10162
  157.4204  130.7966  149.7510 H   0  0  0  0  0  0  0  0  0  0  0  0  # atno 10718 bound_to 10713
  153.7496  135.6927  153.4948 H   0  0  0  0  0  0  0  0  0  0  0  0  # atno 10763 bound_to 10752
  153.2012  135.4436  155.0268 H   0  0  0  0  0  0  0  0  0  0  0  0  # atno 10764 bound_to 10752
  154.8192  135.3413  154.7017 H   0  0  0  0  0  0  0  0  0  0  0  0  # atno 10765 bound_to 10752
  140.1100  134.8930  157.1921 H   0  0  0  0  0  0  0  0  0  0  0  0  # atno 11005 bound_to 11000
  146.2449  140.5383  142.8918 LP  0  0  0  0  0  0  0  0  0  0  0  0  # atno 17320 bound_to 7965
  144.8001  140.6196  143.6484 LP  0  0  0  0  0  0  0  0  0  0  0  0  # atno 17321 bound_to 7965
  139.7924  144.7405  150.9937 LP  0  0  0  0  0  0  0  0  0  0  0  0  # atno 17342 bound_to 10162
  140.7819  143.4429  151.0526 LP  0  0  0  0  0  0  0  0  0  0  0  0  # atno 17343 bound_to 10162
  155.9879  130.3963  150.3144 LP  0  0  0  0  0  0  0  0  0  0  0  0  # atno 17370 bound_to 10713
  157.1291  131.0267  151.2977 LP  0  0  0  0  0  0  0  0  0  0  0  0  # atno 17371 bound_to 10713
  140.3104  134.3030  155.7268 LP  0  0  0  0  0  0  0  0  0  0  0  0  # atno 17394 bound_to 11000
  141.2128  133.7647  156.9769 LP  0  0  0  0  0  0  0  0  0  0  0  0  # atno 17395 bound_to 11000

$$$$
