AV-unprocessed.smi:514|AV-procd|sdf|2777|dock3
  -GOLD-   2262023243D 1   1.00000     0.00000
 Structure written by MMmdl.
 45 47  0  0  0  0  0  0  0  0  1 V2000
  147.2440  142.2191  154.1528 C   0  0  0  0  0  0  0  0  0  0  0  0
  148.0102  141.2121  155.0132 C   0  0  0  0  0  0  0  0  0  0  0  0
  149.3351  141.6802  155.1978 O   0  0  0  0  0  0  0  0  0  0  0  0
  149.6258  141.9776  156.5524 C   0  0  0  0  0  0  0  0  0  0  0  0
  151.1151  142.3181  156.6752 C   0  0  0  0  0  0  0  0  0  0  0  0
  151.8273  141.3113  157.4572 N   0  0  0  0  0  0  0  0  0  0  0  0
  152.5035  141.4659  158.6290 C   0  0  0  0  0  0  0  0  0  0  0  0
  152.5786  142.6918  159.2907 N   0  0  0  0  0  0  0  0  0  0  0  0
  152.6698  143.9868  158.6235 C   0  0  0  0  0  0  0  0  0  0  0  0
  151.6374  144.9744  159.2040 C   0  0  0  0  0  0  0  0  0  0  0  0
  151.8897  145.1764  160.6272 N   0  0  0  0  0  0  0  0  0  0  0  0
  151.7941  143.8889  161.3072 C   0  0  0  0  0  0  0  0  0  0  0  0
  152.8325  142.9179  160.7118 C   0  0  0  0  0  0  0  0  0  0  0  0
  153.1294  140.3670  159.0589 N   0  0  0  0  0  0  0  0  0  0  0  0
  152.8075  139.4240  158.0955 C   0  0  0  0  0  0  0  0  0  0  0  0
  152.0373  139.9721  157.1212 C   0  0  0  0  0  0  0  0  0  0  0  0
  151.5890  139.2059  155.9497 C   0  0  0  0  0  0  0  0  0  0  0  0
  150.9198  139.6868  155.0381 O   0  0  0  0  0  0  0  0  0  0  0  0
  151.9947  137.9130  155.9726 N   0  0  0  0  0  0  0  0  0  0  0  0
  152.7568  137.2973  156.9270 C   0  0  0  0  0  0  0  0  0  0  0  0
  153.0412  136.1052  156.8125 O   0  0  0  0  0  0  0  0  0  0  0  0
  153.1792  138.0532  157.9903 N   0  0  0  0  0  0  0  0  0  0  0  0
  154.0057  137.4485  159.0368 C   0  0  0  0  0  0  0  0  0  0  0  0
  151.7048  137.3392  155.1942 H   0  0  0  0  0  0  0  0  0  0  0  0
  146.2172  141.8908  153.9900 H   0  0  0  0  0  0  0  0  0  0  0  0
  147.7157  142.3383  153.1773 H   0  0  0  0  0  0  0  0  0  0  0  0
  147.2108  143.1978  154.6319 H   0  0  0  0  0  0  0  0  0  0  0  0
  147.5147  141.0946  155.9780 H   0  0  0  0  0  0  0  0  0  0  0  0
  148.0196  140.2369  154.5244 H   0  0  0  0  0  0  0  0  0  0  0  0
  149.0181  142.8176  156.8928 H   0  0  0  0  0  0  0  0  0  0  0  0
  149.3853  141.1184  157.1809 H   0  0  0  0  0  0  0  0  0  0  0  0
  151.5557  142.4079  155.6875 H   0  0  0  0  0  0  0  0  0  0  0  0
  151.2484  143.2984  157.1287 H   0  0  0  0  0  0  0  0  0  0  0  0
  153.6815  144.3831  158.7222 H   0  0  0  0  0  0  0  0  0  0  0  0
  152.4884  143.8576  157.5559 H   0  0  0  0  0  0  0  0  0  0  0  0
  151.7072  145.9347  158.6931 H   0  0  0  0  0  0  0  0  0  0  0  0
  150.6221  144.6037  159.0554 H   0  0  0  0  0  0  0  0  0  0  0  0
  151.2044  145.8135  161.0075 H   0  0  0  0  0  0  0  0  0  0  0  0
  151.9834  144.0365  162.3704 H   0  0  0  0  0  0  0  0  0  0  0  0
  150.7833  143.4901  161.2117 H   0  0  0  0  0  0  0  0  0  0  0  0
  152.8370  141.9732  161.2537 H   0  0  0  0  0  0  0  0  0  0  0  0
  153.8367  143.3272  160.8328 H   0  0  0  0  0  0  0  0  0  0  0  0
  153.4331  136.7000  159.5857 H   0  0  0  0  0  0  0  0  0  0  0  0
  154.3690  138.1798  159.7587 H   0  0  0  0  0  0  0  0  0  0  0  0
  154.8813  136.9604  158.6064 H   0  0  0  0  0  0  0  0  0  0  0  0
  1  2  1  0  0  0  0
  1 25  1  0  0  0  0
  1 26  1  0  0  0  0
  1 27  1  0  0  0  0
  2  3  1  0  0  0  0
  2 28  1  0  0  0  0
  2 29  1  0  0  0  0
  3  4  1  0  0  0  0
  4  5  1  0  0  0  0
  4 30  1  0  0  0  0
  4 31  1  0  0  0  0
  5  6  1  0  0  0  0
  5 32  1  0  0  0  0
  5 33  1  0  0  0  0
  6 16  1  0  0  0  0
  6  7  1  0  0  0  0
  7  8  1  0  0  0  0
  7 14  2  0  0  0  0
  8 13  1  0  0  0  0
  8  9  1  0  0  0  0
  9 10  1  0  0  0  0
  9 34  1  0  0  0  0
  9 35  1  0  0  0  0
 10 11  1  0  0  0  0
 10 36  1  0  0  0  0
 10 37  1  0  0  0  0
 11 12  1  0  0  0  0
 11 38  1  0  0  0  0
 12 13  1  0  0  0  0
 12 39  1  0  0  0  0
 12 40  1  0  0  0  0
 13 41  1  0  0  0  0
 13 42  1  0  0  0  0
 14 15  1  0  0  0  0
 15 22  1  0  0  0  0
 15 16  2  0  0  0  0
 16 17  1  0  0  0  0
 17 18  2  0  0  0  0
 17 19  1  0  0  0  0
 19 24  1  0  0  0  0
 19 20  1  0  0  0  0
 20 21  2  0  0  0  0
 20 22  1  0  0  0  0
 22 23  1  0  0  0  0
 23 43  1  0  0  0  0
 23 44  1  0  0  0  0
 23 45  1  0  0  0  0
M  END
> <s_m_source_file>
AV-unprocessed.smi

> <i_m_source_file_index>
514

> <i_lp_mmshare_version>
43012

> <i_f3d_flags>
0

> <s_epik_input>
W0NIM11uMWMoPU8pW25IXWMoPU8pYyhjMTIpbihbQ0gyXVtDSDJdT1tDSDJdW0NIM10pYyhuMilOM1tDSDJdW0NIMl1bTkhdW0NIMl1bQ0gyXTM=

> <s_epik_cmdline>
J2VwaWtfcHl0aG9uJywgJy1waCcsICc3LjAnLCAnLXRuJywgJzgnLCAnLW1hJywgJzIwMCcsICctbWV0YWxfYmluZGluZycsICctaW1hZScsICc8aW5maWxlLm1hZT4nLCAnLW9tYWUnLCAnPG91dGZpbGUubWFlPic=

> <r_epik_Ionization_Penalty>
2.51413

> <r_epik_Ionization_Penalty_Charging>
1.58739e-05

> <r_epik_Ionization_Penalty_Neutral>
2.51411

> <r_epik_State_Penalty>
2.67993

> <r_epik_Charging_Adjusted_Penalty>
2.67995

> <i_epik_Tot_Q>
0

> <i_epik_Tot_abs_Q>
0

> <r_epik_Metal_State_Penalty>
2.70758

> <b_epik_Metal_Only>
0

> <s_lp_Force_Field>
OPLS_2005

> <r_lp_Energy>
49.2261

> <b_lp_Chiralities_Consistent>
1

> <s_lp_Variant>
AV-unprocessed.smi:514-2

> <Gold.Version>
5.8.1

> <Gold.Id.Protein>
6NUR|6NUR_protein|mol2

> <Gold.PLP.Fitness>
46.4275

> <Gold.PLP.PLP>
-42.4078

> <Gold.PLP.part.hbond>
-2.2252

> <Gold.PLP.part.metal>
0.0000

> <Gold.PLP.part.buried>
-4.7959

> <Gold.PLP.part.nonpolar>
-34.5552

> <Gold.PLP.part.repulsive>
0.5369

> <Gold.PLP.ligand.clash>
0.0148

> <Gold.PLP.ligand.torsion>
1.1711

> <Gold.PLP.Chemscore.Hbond>
1.9913

> <Gold.PLP.Chemscore.CHOScore>
0.0000

> <Gold.PLP.Chemscore.Metal>
0.0000

> <Gold.Chemscore.Hbonds>
donor molecule, donor type, donor heavy atom, donor atom, acceptor molecule, acceptor atom, score
      P1  H  7989  7998       L1    18  0.91
      P1  H 10752 10764       L1    21  1.00

> <Gold.PLP.Chemscore.Internal.Correction>
0.4029

> <Gold.Rescore>
     Score         DG    S(hbond)    S(metal)    S(lipo)     H(rot)  DE(clash)    DE(int)     intcor
     13.49     -17.48       1.96        0.00      84.31       1.72       0.18       3.81       ----

> <Gold.Chemscore.Fitness>
13.4942

> <Gold.Chemscore.DG>
-17.4841

> <Gold.Chemscore.ZeroCoef>
-5.4800

> <Gold.Chemscore.Hbond>
1.9601

> <Gold.Chemscore.Metal>
0.0000

> <Gold.Chemscore.Lipo>
84.3110

> <Gold.Chemscore.Internal_Hbond>
0.0000

> <Gold.Chemscore.DEClash>
0.1795

> <Gold.Chemscore.DEInternal>
3.8104

> <Gold.Chemscore.Rot>
1.7214

> <Gold.Chemscore.Internal.Correction>
   9.000000E+99

> <Gold.Chemscore.Hbonds>
donor molecule, donor type, donor heavy atom, donor atom, acceptor molecule, acceptor atom, score
      P1  H  7989  7998       L1    18  0.87
      P1  H 10752 10764       L1    21  1.00

> <Gold.Chemscore.Hbond.Weighted>
-6.5466

> <Gold.Chemscore.Metal.Weighted>
-0.0000

> <Gold.Chemscore.Lipo.Weighted>
-9.8644

> <Gold.Chemscore.Internal_Hbond.Weighted>
0.0000

> <Gold.Chemscore.DEClash.Weighted>
0.1795

> <Gold.Chemscore.DEInternal.Weighted>
3.8104

> <Gold.Chemscore.Rot.Weighted>
4.4069

> <Gold.Chemscore.Internal.Correction.Weighted>
   9.000000E+99

> <Gold.Protein.RotatedTorsions>
[ 6907 6896 6895 6894 ] final   28.56 input  -60.11 | X-H torsion
[ 7974 7965 7964 7962 ] final  -39.95 input  175.53 | X-H torsion
[ 8008 7997 7996 7995 ] final  -68.91 input   59.86 | X-H torsion
[ 10167 10162 10161 10158 ] final  114.03 input  -65.29 | X-H torsion
[ 10718 10713 10712 10709 ] final  -24.89 input   66.30 | X-H torsion
[ 10763 10752 10751 10750 ] final    2.70 input  -60.55 | X-H torsion
[ 11005 11000 10999 10996 ] final  130.27 input  -57.11 | X-H torsion

> <Gold.Protein.ActiveResidues>
 VAL166  LYS551  ARG553  GLY616  TRP617  ASP618  TYR619  PRO620  LYS621  CYS622 
 ASP623  PHE694  ASN695  SER759  ASP760  ASP761  ALA762  ILE779  LEU786  VAL792 
 PHE793  MET794  SER795  GLU796  ALA797  LYS798  CYS799  TRP800  GLU811  SER814 

> <Gold.Protein.RotatedAtoms>
  152.0188  134.9834  160.0569 H   0  0  0  0  0  0  0  0  0  0  0  0  # atno 6907 bound_to 6896
  152.1357  133.4429  159.4751 H   0  0  0  0  0  0  0  0  0  0  0  0  # atno 6908 bound_to 6896
  150.6860  134.2284  159.4468 H   0  0  0  0  0  0  0  0  0  0  0  0  # atno 6909 bound_to 6896
  146.0349  140.6683  142.9114 H   0  0  0  0  0  0  0  0  0  0  0  0  # atno 7974 bound_to 7965
  154.4901  140.0864  156.7574 H   0  0  0  0  0  0  0  0  0  0  0  0  # atno 8008 bound_to 7997
  155.4253  140.3447  155.4257 H   0  0  0  0  0  0  0  0  0  0  0  0  # atno 8009 bound_to 7997
  156.1317  140.1503  156.9043 H   0  0  0  0  0  0  0  0  0  0  0  0  # atno 8010 bound_to 7997
  139.6418  144.7124  151.2222 H   0  0  0  0  0  0  0  0  0  0  0  0  # atno 10167 bound_to 10162
  156.4716  130.4525  149.6866 H   0  0  0  0  0  0  0  0  0  0  0  0  # atno 10718 bound_to 10713
  153.2924  135.6949  153.7280 H   0  0  0  0  0  0  0  0  0  0  0  0  # atno 10763 bound_to 10752
  153.6226  135.3424  155.3016 H   0  0  0  0  0  0  0  0  0  0  0  0  # atno 10764 bound_to 10752
  154.8528  135.4390  154.2010 H   0  0  0  0  0  0  0  0  0  0  0  0  # atno 10765 bound_to 10752
  139.9662  134.9590  156.9269 H   0  0  0  0  0  0  0  0  0  0  0  0  # atno 11005 bound_to 11000
  144.7047  140.3803  143.7127 LP  0  0  0  0  0  0  0  0  0  0  0  0  # atno 17320 bound_to 7965
  145.6979  139.1654  143.2609 LP  0  0  0  0  0  0  0  0  0  0  0  0  # atno 17321 bound_to 7965
  140.7494  143.6299  150.8433 LP  0  0  0  0  0  0  0  0  0  0  0  0  # atno 17342 bound_to 10162
  139.9937  143.5819  152.2901 LP  0  0  0  0  0  0  0  0  0  0  0  0  # atno 17343 bound_to 10162
  156.3613  130.7483  151.2455 LP  0  0  0  0  0  0  0  0  0  0  0  0  # atno 17370 bound_to 10713
  157.7491  131.0349  150.4340 LP  0  0  0  0  0  0  0  0  0  0  0  0  # atno 17371 bound_to 10713
  140.5391  134.0738  155.7336 LP  0  0  0  0  0  0  0  0  0  0  0  0  # atno 17394 bound_to 11000
  141.1342  133.9250  157.2470 LP  0  0  0  0  0  0  0  0  0  0  0  0  # atno 17395 bound_to 11000

$$$$
