#       Name:                AV-unprocessed.smi:50
#       Creating user name   scv26
#       Creation time:       Thu Mar 26 16:35:52 2020


#       File generated by GOLD software.
#

@<TRIPOS>MOLECULE
AV-unprocessed.smi:50
    52    53     1
SMALL
NO_CHARGES


@<TRIPOS>ATOM
      1 ****        -4.4067   3.2171   2.4767 C.3            1 S1                 0.0000
      2 ****        -4.6728   1.9076   1.7137 C.3            1 S1                 0.0000
      3 ****        -4.1010   0.7074   2.4942 C.3            1 S1                 0.0000
      4 ****        -4.2126   1.9978   0.2317 C.3            1 S1                 0.0000
      5 ****        -4.7968   0.9158  -0.5623 N.3            1 S1                 0.0000
      6 ****        -2.6868   2.1158   0.0495 C.2            1 S1                 0.0000
      7 ****        -2.1123   3.1814  -0.1756 O.2            1 S1                 0.0000
      8 ****        -2.0775   0.9223   0.1840 O.3            1 S1                 0.0000
      9 ****        -0.6669   0.8360   0.0732 C.3            1 S1                 0.0000
     10 ****        -0.2369  -0.6246   0.2317 C.3            1 S1                 0.0000
     11 ****         1.1772  -0.6945   0.1515 O.3            1 S1                 0.0000
     12 ****         1.6666  -1.9907   0.2485 C.3            1 S1                 0.0000
     13 ****         3.1141  -1.9120   0.2540 N.pl3          1 S1                 0.0000
     14 ****         3.9678  -1.8921   1.3286 C.2            1 S1                 0.0000
     15 ****         5.2277  -1.8107   1.0020 N.2            1 S1                 0.0000
     16 ****         5.2174  -1.7697  -0.3894 C.2            1 S1                 0.0000
     17 ****         6.3060  -1.6776  -1.3206 C.2            1 S1                 0.0000
     18 ****         7.5099  -1.6146  -1.0813 O.2            1 S1                 0.0000
     19 ****         5.8638  -1.6623  -2.6497 N.am           1 S1                 0.0000
     20 ****         4.5252  -1.7283  -3.0297 C.2            1 S1                 0.0000
     21 ****         4.2708  -1.7015  -4.3446 N.pl3          1 S1                 0.0000
     22 ****         3.5236  -1.8136  -2.1715 N.2            1 S1                 0.0000
     23 ****         3.9204  -1.8315  -0.8609 C.2            1 S1                 0.0000
     24 ****        -4.6432   2.9177  -0.1652 H              1 S1                 0.0000
     25 ****         6.5727  -1.5982  -3.3655 H              1 S1                 0.0000
     26 ****        -3.3393   3.4122   2.5831 H              1 S1                 0.0000
     27 ****        -4.8351   3.1801   3.4787 H              1 S1                 0.0000
     28 ****        -4.8514   4.0696   1.9626 H              1 S1                 0.0000
     29 ****        -5.7566   1.7822   1.6983 H              1 S1                 0.0000
     30 ****        -3.0284   0.8048   2.6635 H              1 S1                 0.0000
     31 ****        -4.2738  -0.2308   1.9667 H              1 S1                 0.0000
     32 ****        -4.5746   0.6217   3.4724 H              1 S1                 0.0000
     33 ****        -5.7980   0.8651  -0.4402 H              1 S1                 0.0000
     34 ****        -4.6380   1.0560  -1.5498 H              1 S1                 0.0000
     35 ****        -0.3452   1.2189  -0.8964 H              1 S1                 0.0000
     36 ****        -0.1997   1.4511   0.8436 H              1 S1                 0.0000
     37 ****        -0.5771  -1.0118   1.1935 H              1 S1                 0.0000
     38 ****        -0.6904  -1.2339  -0.5516 H              1 S1                 0.0000
     39 ****         1.3422  -2.4624   1.1780 H              1 S1                 0.0000
     40 ****         1.3401  -2.5984  -0.5974 H              1 S1                 0.0000
     41 ****         3.6309  -1.9377   2.3541 H              1 S1                 0.0000
     42 ****         5.0350  -1.6362  -5.0016 H              1 S1                 0.0000
     43 ****         3.3196  -1.7463  -4.6806 H              1 S1                 0.0000
     44 ****        -4.3559   0.0767  -0.2437 LP             1 S1                 0.0000
     45 ****        -2.6395   4.0280  -0.2487 LP             1 S1                 0.0000
     46 ****        -1.1185   3.2002  -0.2854 LP             1 S1                 0.0000
     47 ****         1.5651  -0.1516   0.8963 LP             1 S1                 0.0000
     48 ****         1.4653  -0.3107  -0.7259 LP             1 S1                 0.0000
     49 ****         6.0199  -1.7839   1.6116 LP             1 S1                 0.0000
     50 ****         7.8328  -1.6247  -0.1350 LP             1 S1                 0.0000
     51 ****         8.1666  -1.5532  -1.8330 LP             1 S1                 0.0000
     52 ****         2.5652  -1.8607  -2.4531 LP             1 S1                 0.0000
@<TRIPOS>BOND
    1    1    2 1     
    2    1   26 1     
    3    1   27 1     
    4    1   28 1     
    5    2    3 1     
    6    2    4 1     
    7    2   29 1     
    8    3   30 1     
    9    3   31 1     
   10    3   32 1     
   11    4   24 1     
   12    4    5 1     
   13    4    6 1     
   14    5   33 1     
   15    5   34 1     
   16    6    7 2     
   17    6    8 1     
   18    8    9 1     
   19    9   10 1     
   20    9   35 1     
   21    9   36 1     
   22   10   11 1     
   23   10   37 1     
   24   10   38 1     
   25   11   12 1     
   26   12   13 1     
   27   12   39 1     
   28   12   40 1     
   29   13   23 1     
   30   13   14 1     
   31   14   15 2     
   32   14   41 1     
   33   15   16 1     
   34   16   23 2     
   35   16   17 1     
   36   17   18 2     
   37   17   19 am    
   38   19   25 1     
   39   19   20 1     
   40   20   21 1     
   41   20   22 2     
   42   21   42 1     
   43   21   43 1     
   44   22   23 1     
   45    5   44 1     
   46    7   45 1     
   47    7   46 1     
   48   11   47 1     
   49   11   48 1     
   50   15   49 1     
   51   18   50 1     
   52   18   51 1     
   53   22   52 1     
@<TRIPOS>SUBSTRUCTURE
      1 S1             1
@<TRIPOS>SET
LONE_PAIRS      STATIC     ATOMS    <user>   **** ""
9 44 45 46 47 48 49 50 51 52
DONOR_HYDROGENS      STATIC     ATOMS    <user>   **** ""
5 33 34 25 42 43
ATOM$BLUE        STATIC     ATOMS    COLORGROUP SYSTEM
9 44 45 46 47 48 49 50 51 52
ATOM$RED        STATIC     ATOMS    COLORGROUP SYSTEM
5 33 34 25 42 43
