AV-unprocessed.smi:2279|AV-procd|sdf|9185|dock1
  -GOLD-   2272012403D 1   1.00000     0.00000
 Structure written by MMmdl.
 58 60  0  0  0  0  0  0  0  0  3 V2000
  153.8330  140.7575  160.7216 C   0  0  0  0  0  0  0  0  0  0  0  0
  152.9039  141.3078  159.6601 C   0  0  0  0  0  0  0  0  0  0  0  0
  152.7121  142.6951  159.5137 C   0  0  0  0  0  0  0  0  0  0  0  0
  151.8335  143.1417  158.5071 C   0  0  0  0  0  0  0  0  0  0  0  0
  151.5775  144.6192  158.2956 C   0  0  0  0  0  0  0  0  0  0  0  0
  151.1714  142.3029  157.6817 N   0  0  0  0  0  0  0  0  0  0  0  0
  151.3498  140.9652  157.8134 C   0  0  0  0  0  0  0  0  0  0  0  0
  150.7055  139.9998  156.9952 N   0  0  0  0  0  0  0  0  0  0  0  0
  149.4704  140.0514  156.4664 C   0  0  0  0  0  0  0  0  0  0  0  0
  148.6654  140.9705  156.6196 O   0  0  0  0  0  0  0  0  0  0  0  0
  149.2101  138.9599  155.7317 N   0  0  0  0  0  0  0  0  0  0  0  0
  147.9564  138.7044  155.0285 C   0  0  2  0  0  0  0  0  0  0  0  0
  147.5509  137.2353  155.1958 C   0  0  0  0  0  0  0  0  0  0  0  0
  146.2750  136.9069  154.4013 C   0  0  0  0  0  0  0  0  0  0  0  0
  146.4200  137.2327  152.9511 N   0  3  1  0  0  0  0  0  0  0  0  0
  145.2497  136.8413  152.0928 C   0  0  2  0  0  0  0  0  0  0  0  0
  144.1707  135.9829  152.8004 C   0  0  0  0  0  0  0  0  0  0  0  0
  144.6781  134.5668  153.1325 C   0  0  0  0  0  0  0  0  0  0  0  0
  145.1370  133.8660  151.9079 N   0  3  2  0  0  0  0  0  0  0  0  0
  145.5506  132.4719  152.1772 C   0  0  0  0  0  0  0  0  0  0  0  0
  146.1763  134.6342  151.1785 C   0  0  0  0  0  0  0  0  0  0  0  0
  145.6805  136.0509  150.8326 C   0  0  0  0  0  0  0  0  0  0  0  0
  146.7949  138.6670  152.7795 C   0  0  0  0  0  0  0  0  0  0  0  0
  148.0898  139.0148  153.5299 C   0  0  0  0  0  0  0  0  0  0  0  0
  152.2129  140.4337  158.7976 C   0  0  0  0  0  0  0  0  0  0  0  0
  154.3042  141.5592  161.2910 H   0  0  0  0  0  0  0  0  0  0  0  0
  154.6189  140.1584  160.2609 H   0  0  0  0  0  0  0  0  0  0  0  0
  153.2794  140.1249  161.4160 H   0  0  0  0  0  0  0  0  0  0  0  0
  153.2237  143.3978  160.1550 H   0  0  0  0  0  0  0  0  0  0  0  0
  152.2461  145.2276  158.9051 H   0  0  0  0  0  0  0  0  0  0  0  0
  150.5506  144.8672  158.5649 H   0  0  0  0  0  0  0  0  0  0  0  0
  151.7336  144.8880  157.2503 H   0  0  0  0  0  0  0  0  0  0  0  0
  151.2511  139.1774  156.7855 H   0  0  0  0  0  0  0  0  0  0  0  0
  149.9284  138.2542  155.6596 H   0  0  0  0  0  0  0  0  0  0  0  0
  147.1727  139.3318  155.4585 H   0  0  0  0  0  0  0  0  0  0  0  0
  148.3615  136.5863  154.8602 H   0  0  0  0  0  0  0  0  0  0  0  0
  147.3931  137.0101  156.2515 H   0  0  0  0  0  0  0  0  0  0  0  0
  146.0893  135.8448  154.5483 H   0  0  0  0  0  0  0  0  0  0  0  0
  145.4205  137.4455  154.8143 H   0  0  0  0  0  0  0  0  0  0  0  0
  144.7664  137.7667  151.7749 H   0  0  0  0  0  0  0  0  0  0  0  0
  143.7644  136.4733  153.6842 H   0  0  0  0  0  0  0  0  0  0  0  0
  143.3137  135.8874  152.1318 H   0  0  0  0  0  0  0  0  0  0  0  0
  145.4931  134.6109  153.8563 H   0  0  0  0  0  0  0  0  0  0  0  0
  143.8749  133.9932  153.5968 H   0  0  0  0  0  0  0  0  0  0  0  0
  146.4192  132.4403  152.8365 H   0  0  0  0  0  0  0  0  0  0  0  0
  145.8070  131.9601  151.2489 H   0  0  0  0  0  0  0  0  0  0  0  0
  144.7413  131.9145  152.6503 H   0  0  0  0  0  0  0  0  0  0  0  0
  147.0864  134.6867  151.7781 H   0  0  0  0  0  0  0  0  0  0  0  0
  146.4345  134.1064  150.2594 H   0  0  0  0  0  0  0  0  0  0  0  0
  144.8228  135.9632  150.1639 H   0  0  0  0  0  0  0  0  0  0  0  0
  146.4333  136.5748  150.2476 H   0  0  0  0  0  0  0  0  0  0  0  0
  146.9465  138.9165  151.7319 H   0  0  0  0  0  0  0  0  0  0  0  0
  145.9800  139.3007  153.1338 H   0  0  0  0  0  0  0  0  0  0  0  0
  148.3219  140.0704  153.3823 H   0  0  0  0  0  0  0  0  0  0  0  0
  148.9223  138.4532  153.1032 H   0  0  0  0  0  0  0  0  0  0  0  0
  152.3459  139.3656  158.8926 H   0  0  0  0  0  0  0  0  0  0  0  0
  147.2061  136.6884  152.6263 H   0  0  0  0  0  0  0  0  0  0  0  0
  144.3370  133.8096  151.2931 H   0  0  0  0  0  0  0  0  0  0  0  0
  1  2  1  0  0  0  0
  1 26  1  0  0  0  0
  1 27  1  0  0  0  0
  1 28  1  0  0  0  0
  2 25  1  0  0  0  0
  2  3  2  0  0  0  0
  3  4  1  0  0  0  0
  3 29  1  0  0  0  0
  4  5  1  0  0  0  0
  4  6  2  0  0  0  0
  5 30  1  0  0  0  0
  5 31  1  0  0  0  0
  5 32  1  0  0  0  0
  6  7  1  0  0  0  0
  7  8  1  0  0  0  0
  7 25  2  0  0  0  0
  8  9  1  0  0  0  0
  8 33  1  0  0  0  0
  9 10  2  0  0  0  0
  9 11  1  0  0  0  0
 11 12  1  0  0  0  0
 11 34  1  0  0  0  0
 12 24  1  0  0  0  0
 12 13  1  0  0  0  0
 12 35  1  0  0  0  0
 13 14  1  0  0  0  0
 13 36  1  0  0  0  0
 13 37  1  0  0  0  0
 14 15  1  0  0  0  0
 14 38  1  0  0  0  0
 14 39  1  0  0  0  0
 15 16  1  0  0  0  0
 15 23  1  0  0  0  0
 15 57  1  0  0  0  0
 16 22  1  0  0  0  0
 16 17  1  0  0  0  0
 16 40  1  0  0  0  0
 17 18  1  0  0  0  0
 17 41  1  0  0  0  0
 17 42  1  0  0  0  0
 18 19  1  0  0  0  0
 18 43  1  0  0  0  0
 18 44  1  0  0  0  0
 19 20  1  0  0  0  0
 19 21  1  0  0  0  0
 19 58  1  0  0  0  0
 20 45  1  0  0  0  0
 20 46  1  0  0  0  0
 20 47  1  0  0  0  0
 21 22  1  0  0  0  0
 21 48  1  0  0  0  0
 21 49  1  0  0  0  0
 22 50  1  0  0  0  0
 22 51  1  0  0  0  0
 23 24  1  0  0  0  0
 23 52  1  0  0  0  0
 23 53  1  0  0  0  0
 24 54  1  0  0  0  0
 24 55  1  0  0  0  0
 25 56  1  0  0  0  0
M  CHG  1  15   1
M  CHG  1  19   1
M  END
> <s_m_source_file>
AV-unprocessed.smi

> <i_m_source_file_index>
2279

> <i_lp_mmshare_version>
43012

> <i_f3d_flags>
0

> <s_epik_input>
W0NIM11jMVtjSF1jKFtDSDNdKW5jKFtjSF0xKVtOSF1DKD1PKVtOSF1bQ0hdMltDSDJdW0NIMl1OKFtDSDJdW0NIMl0yKVtDSF0zW0NIMl1bQ0gyXU4oW0NIM10pW0NIMl1bQ0gyXTM=

> <s_epik_cmdline>
J2VwaWtfcHl0aG9uJywgJy1waCcsICc3LjAnLCAnLXRuJywgJzgnLCAnLW1hJywgJzIwMCcsICctbWV0YWxfYmluZGluZycsICctaW1hZScsICc8aW5maWxlLm1hZT4nLCAnLW9tYWUnLCAnPG91dGZpbGUubWFlPic=

> <r_epik_Ionization_Penalty>
0.180973

> <r_epik_Ionization_Penalty_Charging>
0.180787

> <r_epik_Ionization_Penalty_Neutral>
0.000186186

> <r_epik_State_Penalty>
0.153592

> <r_epik_Charging_Adjusted_Penalty>
0.334379

> <i_epik_Tot_Q>
2

> <i_epik_Tot_abs_Q>
2

> <r_epik_Metal_State_Penalty>
0.153604

> <b_epik_Metal_Only>
0

> <s_lp_Force_Field>
OPLS_2005

> <r_lp_Energy>
45.6678

> <b_lp_Chiralities_Consistent>
1

> <s_lp_Variant>
AV-unprocessed.smi:2279-3

> <Gold.Version>
5.8.1

> <Gold.Id.Protein>
6NUR|6NUR_protein|mol2

> <Gold.PLP.Fitness>
40.4605

> <Gold.PLP.PLP>
-38.0558

> <Gold.PLP.part.hbond>
-1.0000

> <Gold.PLP.part.metal>
0.0000

> <Gold.PLP.part.buried>
-4.1900

> <Gold.PLP.part.nonpolar>
-33.1524

> <Gold.PLP.part.repulsive>
0.1989

> <Gold.PLP.ligand.clash>
0.0000

> <Gold.PLP.ligand.torsion>
1.8133

> <Gold.PLP.Chemscore.Hbond>
2.0000

> <Gold.PLP.Chemscore.CHOScore>
0.0000

> <Gold.PLP.Chemscore.Metal>
0.0000

> <Gold.Chemscore.Hbonds>
donor molecule, donor type, donor heavy atom, donor atom, acceptor molecule, acceptor atom, score
      L1  H    15    57       P1  7948  2.00

> <Gold.PLP.Chemscore.Internal.Correction>
0.0314

> <Gold.Rescore>
     Score         DG    S(hbond)    S(metal)    S(lipo)     H(rot)  DE(clash)    DE(int)     intcor
     15.68     -18.39       0.97        0.00     109.01       1.21       0.18       2.53       ----

> <Gold.Chemscore.Fitness>
15.6764

> <Gold.Chemscore.DG>
-18.3858

> <Gold.Chemscore.ZeroCoef>
-5.4800

> <Gold.Chemscore.Hbond>
0.9723

> <Gold.Chemscore.Metal>
0.0000

> <Gold.Chemscore.Lipo>
109.0136

> <Gold.Chemscore.Internal_Hbond>
0.0000

> <Gold.Chemscore.DEClash>
0.1783

> <Gold.Chemscore.DEInternal>
2.5311

> <Gold.Chemscore.Rot>
1.2095

> <Gold.Chemscore.Internal.Correction>
   9.000000E+99

> <Gold.Chemscore.Hbonds>
donor molecule, donor type, donor heavy atom, donor atom, acceptor molecule, acceptor atom, score
      L1  H    15    57       P1  7948  0.99

> <Gold.Chemscore.Hbond.Weighted>
-3.2474

> <Gold.Chemscore.Metal.Weighted>
-0.0000

> <Gold.Chemscore.Lipo.Weighted>
-12.7546

> <Gold.Chemscore.Internal_Hbond.Weighted>
0.0000

> <Gold.Chemscore.DEClash.Weighted>
0.1783

> <Gold.Chemscore.DEInternal.Weighted>
2.5311

> <Gold.Chemscore.Rot.Weighted>
3.0963

> <Gold.Chemscore.Internal.Correction.Weighted>
   9.000000E+99

> <Gold.Protein.RotatedTorsions>
[ 6907 6896 6895 6894 ] final -170.10 input  -60.11 | X-H torsion
[ 7974 7965 7964 7962 ] final -121.87 input  175.53 | X-H torsion
[ 8008 7997 7996 7995 ] final -101.60 input   59.86 | X-H torsion
[ 10167 10162 10161 10158 ] final   93.28 input  -65.29 | X-H torsion
[ 10718 10713 10712 10709 ] final  -28.56 input   66.30 | X-H torsion
[ 10763 10752 10751 10750 ] final  -95.74 input  -60.55 | X-H torsion
[ 11005 11000 10999 10996 ] final  133.33 input  -57.11 | X-H torsion

> <Gold.Protein.ActiveResidues>
 VAL166  LYS551  ARG553  GLY616  TRP617  ASP618  TYR619  PRO620  LYS621  CYS622 
 ASP623  PHE694  ASN695  SER759  ASP760  ASP761  ALA762  ILE779  LEU786  VAL792 
 PHE793  MET794  SER795  GLU796  ALA797  LYS798  CYS799  TRP800  GLU811  SER814 

> <Gold.Protein.RotatedAtoms>
  151.5023  133.3502  159.2870 H   0  0  0  0  0  0  0  0  0  0  0  0  # atno 6907 bound_to 6896
  150.8765  134.8151  159.7204 H   0  0  0  0  0  0  0  0  0  0  0  0  # atno 6908 bound_to 6896
  152.4734  134.4914  159.9748 H   0  0  0  0  0  0  0  0  0  0  0  0  # atno 6909 bound_to 6896
  145.0356  140.8103  143.4297 H   0  0  0  0  0  0  0  0  0  0  0  0  # atno 7974 bound_to 7965
  154.8448  140.0433  157.1565 H   0  0  0  0  0  0  0  0  0  0  0  0  # atno 8008 bound_to 7997
  154.9007  140.2999  155.5299 H   0  0  0  0  0  0  0  0  0  0  0  0  # atno 8009 bound_to 7997
  156.2994  140.2376  156.4034 H   0  0  0  0  0  0  0  0  0  0  0  0  # atno 8010 bound_to 7997
  139.8195  144.6738  150.9537 H   0  0  0  0  0  0  0  0  0  0  0  0  # atno 10167 bound_to 10162
  156.4236  130.4431  149.7166 H   0  0  0  0  0  0  0  0  0  0  0  0  # atno 10718 bound_to 10713
  154.7176  135.5109  153.8762 H   0  0  0  0  0  0  0  0  0  0  0  0  # atno 10763 bound_to 10752
  153.0834  135.6638  154.0007 H   0  0  0  0  0  0  0  0  0  0  0  0  # atno 10764 bound_to 10752
  153.9836  135.3026  155.3397 H   0  0  0  0  0  0  0  0  0  0  0  0  # atno 10765 bound_to 10752
  139.9845  134.9537  156.9709 H   0  0  0  0  0  0  0  0  0  0  0  0  # atno 11005 bound_to 11000
  145.1714  139.2402  143.5340 LP  0  0  0  0  0  0  0  0  0  0  0  0  # atno 17320 bound_to 7965
  146.3504  140.1465  142.8593 LP  0  0  0  0  0  0  0  0  0  0  0  0  # atno 17321 bound_to 7965
  140.7814  143.4106  151.1000 LP  0  0  0  0  0  0  0  0  0  0  0  0  # atno 17342 bound_to 10162
  139.7767  143.8415  152.3130 LP  0  0  0  0  0  0  0  0  0  0  0  0  # atno 17343 bound_to 10162
  156.4097  130.7716  151.2728 LP  0  0  0  0  0  0  0  0  0  0  0  0  # atno 17370 bound_to 10713
  157.7508  131.0215  150.3753 LP  0  0  0  0  0  0  0  0  0  0  0  0  # atno 17371 bound_to 10713
  140.5030  134.1078  155.7254 LP  0  0  0  0  0  0  0  0  0  0  0  0  # atno 17394 bound_to 11000
  141.1512  133.8965  157.2093 LP  0  0  0  0  0  0  0  0  0  0  0  0  # atno 17395 bound_to 11000

$$$$
