#       Name:                AV-unprocessed.smi:890
#       Creating user name   scv26
#       Creation time:       Fri Mar 27 01:55:13 2020


#       File generated by GOLD software.
#

@<TRIPOS>MOLECULE
AV-unprocessed.smi:890
    56    59     1
SMALL
NO_CHARGES


@<TRIPOS>ATOM
      1 ****         1.2029   2.0844   0.2688 O.2            1 S1                 0.0000
      2 ****         0.8504   0.9130   0.1334 C.2            1 S1                 0.0000
      3 ****         1.6820  -0.1390   0.0499 N.am           1 S1                 0.0000
      4 ****         3.1051  -0.1387   0.1119 C.ar           1 S1                 0.0000
      5 ****         3.8796   0.9509  -0.3627 C.ar           1 S1                 0.0000
      6 ****         5.2847   0.8985  -0.2828 C.ar           1 S1                 0.0000
      7 ****         5.8954  -0.2455   0.2608 C.ar           1 S1                 0.0000
      8 ****         5.1314  -1.2726   0.6870 N.pl3          1 S1                 1.0000
      9 ****         3.7761  -1.2765   0.6372 C.ar           1 S1                 0.0000
     10 ****         3.0800  -2.4180   1.0872 N.3            1 S1                 0.0000
     11 ****         2.5100  -3.2250   0.0113 C.3            1 S1                 0.0000
     12 ****         2.6738  -4.6882   0.4298 C.3            1 S1                 0.0000
     13 ****         3.8768  -4.6512   1.3641 C.3            1 S1                 0.0000
     14 ****         3.7090  -3.3046   2.0646 C.3            1 S1                 0.0000
     15 ****        -0.4321   0.5269   0.0708 N.am           1 S1                 0.0000
     16 ****        -1.5827   1.4215   0.1604 C.3            1 S1                 0.0000
     17 ****        -2.8294   0.6318   0.5901 C.3            1 S1                 0.0000
     18 ****        -4.0847   1.5220   0.5629 C.3            1 S1                 0.0000
     19 ****        -4.2851   2.0714  -0.7782 N.3            1 S1                 0.0000
     20 ****        -5.5008   2.8686  -0.7837 C.3            1 S1                 0.0000
     21 ****        -6.8070   2.1514  -1.0389 C.3            1 S1                 0.0000
     22 ****        -6.2154   3.0424  -2.1045 C.3            1 S1                 0.0000
     23 ****        -3.1561   2.9300  -1.1368 C.3            1 S1                 0.0000
     24 ****        -1.8584   2.1052  -1.1909 C.3            1 S1                 0.0000
     25 ****         1.2458  -1.0493   0.0396 H              1 S1                 0.0000
     26 ****         3.4192   1.8240  -0.7995 H              1 S1                 0.0000
     27 ****         5.8848   1.7232  -0.6388 H              1 S1                 0.0000
     28 ****         6.9637  -0.3737   0.3580 H              1 S1                 0.0000
     29 ****         1.4612  -2.9766  -0.1526 H              1 S1                 0.0000
     30 ****         3.0459  -3.0427  -0.9219 H              1 S1                 0.0000
     31 ****         1.7910  -5.0179   0.9797 H              1 S1                 0.0000
     32 ****         2.8121  -5.3589  -0.4189 H              1 S1                 0.0000
     33 ****         3.9053  -5.4908   2.0591 H              1 S1                 0.0000
     34 ****         4.8004  -4.6583   0.7835 H              1 S1                 0.0000
     35 ****         4.6522  -2.9380   2.4695 H              1 S1                 0.0000
     36 ****         3.0239  -3.4070   2.9068 H              1 S1                 0.0000
     37 ****        -0.6314  -0.4565  -0.0401 H              1 S1                 0.0000
     38 ****        -1.3859   2.1868   0.9138 H              1 S1                 0.0000
     39 ****        -2.9789  -0.2227  -0.0719 H              1 S1                 0.0000
     40 ****        -2.6881   0.2258   1.5924 H              1 S1                 0.0000
     41 ****        -4.9558   0.9304   0.8477 H              1 S1                 0.0000
     42 ****        -3.9933   2.3290   1.2918 H              1 S1                 0.0000
     43 ****        -5.5652   3.7204  -0.1085 H              1 S1                 0.0000
     44 ****        -6.7752   1.0768  -1.2097 H              1 S1                 0.0000
     45 ****        -7.6888   2.5134  -0.5144 H              1 S1                 0.0000
     46 ****        -6.7015   3.9982  -2.2885 H              1 S1                 0.0000
     47 ****        -5.7892   2.5599  -2.9822 H              1 S1                 0.0000
     48 ****        -3.3385   3.3838  -2.1117 H              1 S1                 0.0000
     49 ****        -3.0581   3.7450  -0.4175 H              1 S1                 0.0000
     50 ****        -1.0252   2.7541  -1.4626 H              1 S1                 0.0000
     51 ****        -1.9381   1.3564  -1.9807 H              1 S1                 0.0000
     52 ****         5.6017  -2.0953   1.0650 H              1 S1                 0.0000
     53 ****         2.1754   2.3106   0.3250 LP             1 S1                 0.0000
     54 ****         0.5169   2.8100   0.3227 LP             1 S1                 0.0000
     55 ****         2.3650  -1.9492   1.6058 LP             1 S1                 0.0000
     56 ****        -4.3565   1.3222  -1.4367 LP             1 S1                 0.0000
@<TRIPOS>BOND
    1    1    2 2     
    2    2    3 am    
    3    2   15 am    
    4    3    4 1     
    5    3   25 1     
    6    4    9 ar    
    7    4    5 ar    
    8    5    6 ar    
    9    5   26 1     
   10    6    7 ar    
   11    6   27 1     
   12    7    8 ar    
   13    7   28 1     
   14    8    9 ar    
   15    8   52 1     
   16    9   10 1     
   17   10   14 1     
   18   10   11 1     
   19   11   12 1     
   20   11   29 1     
   21   11   30 1     
   22   12   13 1     
   23   12   31 1     
   24   12   32 1     
   25   13   14 1     
   26   13   33 1     
   27   13   34 1     
   28   14   35 1     
   29   14   36 1     
   30   15   16 1     
   31   15   37 1     
   32   16   24 1     
   33   16   17 1     
   34   16   38 1     
   35   17   18 1     
   36   17   39 1     
   37   17   40 1     
   38   18   19 1     
   39   18   41 1     
   40   18   42 1     
   41   19   20 1     
   42   19   23 1     
   43   20   22 1     
   44   20   21 1     
   45   20   43 1     
   46   21   22 1     
   47   21   44 1     
   48   21   45 1     
   49   22   46 1     
   50   22   47 1     
   51   23   24 1     
   52   23   48 1     
   53   23   49 1     
   54   24   50 1     
   55   24   51 1     
   56    1   53 1     
   57    1   54 1     
   58   10   55 1     
   59   19   56 1     
@<TRIPOS>SUBSTRUCTURE
      1 S1             1
@<TRIPOS>SET
LONE_PAIRS      STATIC     ATOMS    <user>   **** ""
4 53 54 55 56
DONOR_HYDROGENS      STATIC     ATOMS    <user>   **** ""
3 25 52 37
ATOM$BLUE        STATIC     ATOMS    COLORGROUP SYSTEM
4 53 54 55 56
ATOM$RED        STATIC     ATOMS    COLORGROUP SYSTEM
3 25 52 37
