AV-unprocessed.smi:2901|AV-procd|sdf|11149|dock1
  -GOLD-   2272016 23D 1   1.00000     0.00000
 Structure written by MMmdl.
 40 41  0  0  0  0  0  0  0  0  1 V2000
  152.3128  138.6310  155.1799 C   0  0  0  0  0  0  0  0  0  0  0  0
  150.8950  139.0585  155.0190 C   0  0  0  0  0  0  0  0  0  0  0  0
  149.8012  138.3616  155.3194 N   0  0  0  0  0  0  0  0  0  0  0  0
  148.7450  139.1966  154.9819 C   0  0  0  0  0  0  0  0  0  0  0  0
  147.3162  138.7879  155.1712 C   0  0  0  0  0  0  0  0  0  0  0  0
  146.4701  139.0449  153.9136 C   0  0  0  0  0  0  0  0  0  0  0  0
  146.5566  137.9357  152.9707 N   0  0  0  0  0  0  0  0  0  0  0  0
  145.5183  137.4155  152.3024 C   0  0  0  0  0  0  0  0  0  0  0  0
  144.3603  137.8215  152.4011 O   0  0  0  0  0  0  0  0  0  0  0  0
  145.8919  136.3950  151.5190 N   0  0  0  0  0  0  0  0  0  0  0  0
  144.9899  135.6114  150.6820 C   0  0  0  0  0  0  0  0  0  0  0  0
  144.8066  134.1781  151.2112 C   0  0  2  0  0  0  0  0  0  0  0  0
  146.0486  133.2919  151.1097 C   0  0  0  0  0  0  0  0  0  0  0  0
  145.4787  131.8839  151.0238 C   0  0  0  0  0  0  0  0  0  0  0  0
  143.9871  132.0969  150.7485 C   0  0  0  0  0  0  0  0  0  0  0  0
  143.8633  133.4737  150.4214 O   0  0  0  0  0  0  0  0  0  0  0  0
  149.2659  140.3682  154.4944 C   0  0  0  0  0  0  0  0  0  0  0  0
  148.6449  141.6246  153.9853 C   0  0  0  0  0  0  0  0  0  0  0  0
  150.6327  140.2925  154.5103 O   0  0  0  0  0  0  0  0  0  0  0  0
  152.3667  137.7012  155.7468 H   0  0  0  0  0  0  0  0  0  0  0  0
  152.8759  139.3984  155.7112 H   0  0  0  0  0  0  0  0  0  0  0  0
  152.7672  138.4736  154.2017 H   0  0  0  0  0  0  0  0  0  0  0  0
  147.2640  137.7310  155.4352 H   0  0  0  0  0  0  0  0  0  0  0  0
  146.8912  139.3282  156.0182 H   0  0  0  0  0  0  0  0  0  0  0  0
  145.4279  139.2268  154.1826 H   0  0  0  0  0  0  0  0  0  0  0  0
  146.8214  139.9451  153.4082 H   0  0  0  0  0  0  0  0  0  0  0  0
  147.4706  137.5340  152.8211 H   0  0  0  0  0  0  0  0  0  0  0  0
  146.8671  136.1351  151.5053 H   0  0  0  0  0  0  0  0  0  0  0  0
  144.0234  136.1120  150.6052 H   0  0  0  0  0  0  0  0  0  0  0  0
  145.4039  135.5854  149.6737 H   0  0  0  0  0  0  0  0  0  0  0  0
  144.4476  134.1960  152.2421 H   0  0  0  0  0  0  0  0  0  0  0  0
  146.6004  133.5175  150.1962 H   0  0  0  0  0  0  0  0  0  0  0  0
  146.7266  133.4249  151.9533 H   0  0  0  0  0  0  0  0  0  0  0  0
  145.9582  131.3221  150.2215 H   0  0  0  0  0  0  0  0  0  0  0  0
  145.6246  131.3324  151.9535 H   0  0  0  0  0  0  0  0  0  0  0  0
  143.6144  131.4647  149.9423 H   0  0  0  0  0  0  0  0  0  0  0  0
  143.3993  131.8886  151.6436 H   0  0  0  0  0  0  0  0  0  0  0  0
  147.7595  141.8827  154.5666 H   0  0  0  0  0  0  0  0  0  0  0  0
  148.3447  141.5112  152.9435 H   0  0  0  0  0  0  0  0  0  0  0  0
  149.3434  142.4594  154.0479 H   0  0  0  0  0  0  0  0  0  0  0  0
  1  2  1  0  0  0  0
  1 20  1  0  0  0  0
  1 21  1  0  0  0  0
  1 22  1  0  0  0  0
  2 19  1  0  0  0  0
  2  3  2  0  0  0  0
  3  4  1  0  0  0  0
  4  5  1  0  0  0  0
  4 17  2  0  0  0  0
  5  6  1  0  0  0  0
  5 23  1  0  0  0  0
  5 24  1  0  0  0  0
  6  7  1  0  0  0  0
  6 25  1  0  0  0  0
  6 26  1  0  0  0  0
  7  8  1  0  0  0  0
  7 27  1  0  0  0  0
  8  9  2  0  0  0  0
  8 10  1  0  0  0  0
 10 11  1  0  0  0  0
 10 28  1  0  0  0  0
 11 12  1  0  0  0  0
 11 29  1  0  0  0  0
 11 30  1  0  0  0  0
 12 16  1  0  0  0  0
 12 13  1  0  0  0  0
 12 31  1  0  0  0  0
 13 14  1  0  0  0  0
 13 32  1  0  0  0  0
 13 33  1  0  0  0  0
 14 15  1  0  0  0  0
 14 34  1  0  0  0  0
 14 35  1  0  0  0  0
 15 16  1  0  0  0  0
 15 36  1  0  0  0  0
 15 37  1  0  0  0  0
 17 18  1  0  0  0  0
 17 19  1  0  0  0  0
 18 38  1  0  0  0  0
 18 39  1  0  0  0  0
 18 40  1  0  0  0  0
M  END
> <s_m_source_file>
AV-unprocessed.smi

> <i_m_source_file_index>
2901

> <i_lp_mmshare_version>
43012

> <i_f3d_flags>
0

> <s_epik_input>
W0NIM11jMW5jKGMobzEpW0NIM10pW0NIMl1bQ0gyXVtOSF1DKD1PKVtOSF1bQ0gyXVtDQEBIXTJbQ0gyXVtDSDJdW0NIMl1PMg==

> <s_epik_cmdline>
J2VwaWtfcHl0aG9uJywgJy1waCcsICc3LjAnLCAnLXRuJywgJzgnLCAnLW1hJywgJzIwMCcsICctbWV0YWxfYmluZGluZycsICctaW1hZScsICc8aW5maWxlLm1hZT4nLCAnLW9tYWUnLCAnPG91dGZpbGUubWFlPic=

> <r_lp_tautomer_probability>
1

> <r_epik_Ionization_Penalty>
9.58254e-05

> <r_epik_Ionization_Penalty_Charging>
0

> <r_epik_Ionization_Penalty_Neutral>
9.58254e-05

> <r_epik_State_Penalty>
-0

> <r_epik_Charging_Adjusted_Penalty>
0

> <i_epik_Tot_Q>
0

> <i_epik_Tot_abs_Q>
0

> <r_epik_Metal_State_Penalty>
-0

> <b_epik_Metal_Only>
0

> <s_lp_Force_Field>
OPLS_2005

> <r_lp_Energy>
8.98545

> <b_lp_Chiralities_Consistent>
1

> <s_lp_Variant>
AV-unprocessed.smi:2901-1

> <Gold.Version>
5.8.1

> <Gold.Id.Protein>
6NUR|6NUR_protein|mol2

> <Gold.PLP.Fitness>
43.2320

> <Gold.PLP.PLP>
-35.3821

> <Gold.PLP.part.hbond>
-2.7992

> <Gold.PLP.part.metal>
0.0000

> <Gold.PLP.part.buried>
-6.0017

> <Gold.PLP.part.nonpolar>
-27.8452

> <Gold.PLP.part.repulsive>
1.2476

> <Gold.PLP.ligand.clash>
0.0000

> <Gold.PLP.ligand.torsion>
0.4370

> <Gold.PLP.Chemscore.Hbond>
2.8938

> <Gold.PLP.Chemscore.CHOScore>
0.0000

> <Gold.PLP.Chemscore.Metal>
0.0000

> <Gold.Chemscore.Hbonds>
donor molecule, donor type, donor heavy atom, donor atom, acceptor molecule, acceptor atom, score
      L1  H     7    27       P1  7948  0.62
      L1  H    10    28       P1  7948  0.88
      P1  H  7989  7998       L1    19  1.00

> <Gold.PLP.Chemscore.Internal.Correction>
0.0425

> <Gold.Rescore>
     Score         DG    S(hbond)    S(metal)    S(lipo)     H(rot)  DE(clash)    DE(int)     intcor
     17.01     -18.21       2.89        0.00      68.19       1.92       0.39       0.80       ----

> <Gold.Chemscore.Fitness>
17.0139

> <Gold.Chemscore.DG>
-18.2098

> <Gold.Chemscore.ZeroCoef>
-5.4800

> <Gold.Chemscore.Hbond>
2.8919

> <Gold.Chemscore.Metal>
0.0000

> <Gold.Chemscore.Lipo>
68.1850

> <Gold.Chemscore.Internal_Hbond>
0.0000

> <Gold.Chemscore.DEClash>
0.3942

> <Gold.Chemscore.DEInternal>
0.8017

> <Gold.Chemscore.Rot>
1.9167

> <Gold.Chemscore.Internal.Correction>
   9.000000E+99

> <Gold.Chemscore.Hbonds>
donor molecule, donor type, donor heavy atom, donor atom, acceptor molecule, acceptor atom, score
      L1  H     7    27       P1  7948  0.60
      L1  H    10    28       P1  7948  0.84
      P1  H  7989  7998       L1    19  0.89

> <Gold.Chemscore.Hbond.Weighted>
-9.6590

> <Gold.Chemscore.Metal.Weighted>
-0.0000

> <Gold.Chemscore.Lipo.Weighted>
-7.9776

> <Gold.Chemscore.Internal_Hbond.Weighted>
0.0000

> <Gold.Chemscore.DEClash.Weighted>
0.3942

> <Gold.Chemscore.DEInternal.Weighted>
0.8017

> <Gold.Chemscore.Rot.Weighted>
4.9069

> <Gold.Chemscore.Internal.Correction.Weighted>
   9.000000E+99

> <Gold.Protein.RotatedTorsions>
[ 6907 6896 6895 6894 ] final   31.71 input  -60.11 | X-H torsion
[ 7974 7965 7964 7962 ] final   28.89 input  175.53 | X-H torsion
[ 8008 7997 7996 7995 ] final  -78.82 input   59.86 | X-H torsion
[ 10167 10162 10161 10158 ] final -120.98 input  -65.29 | X-H torsion
[ 10718 10713 10712 10709 ] final  -61.83 input   66.30 | X-H torsion
[ 10763 10752 10751 10750 ] final -178.48 input  -60.55 | X-H torsion
[ 11005 11000 10999 10996 ] final -115.93 input  -57.11 | X-H torsion

> <Gold.Protein.ActiveResidues>
 VAL166  LYS551  ARG553  GLY616  TRP617  ASP618  TYR619  PRO620  LYS621  CYS622 
 ASP623  PHE694  ASN695  SER759  ASP760  ASP761  ALA762  ILE779  LEU786  VAL792 
 PHE793  MET794  SER795  GLU796  ALA797  LYS798  CYS799  TRP800  GLU811  SER814 

> <Gold.Protein.RotatedAtoms>
  152.0642  134.9575  160.0574 H   0  0  0  0  0  0  0  0  0  0  0  0  # atno 6907 bound_to 6896
  152.0926  133.4203  159.4559 H   0  0  0  0  0  0  0  0  0  0  0  0  # atno 6908 bound_to 6896
  150.6837  134.2773  159.4656 H   0  0  0  0  0  0  0  0  0  0  0  0  # atno 6909 bound_to 6896
  146.1703  139.6994  142.8972 H   0  0  0  0  0  0  0  0  0  0  0  0  # atno 7974 bound_to 7965
  154.5725  140.0688  156.8986 H   0  0  0  0  0  0  0  0  0  0  0  0  # atno 8008 bound_to 7997
  155.2608  140.3358  155.4255 H   0  0  0  0  0  0  0  0  0  0  0  0  # atno 8009 bound_to 7997
  156.2129  140.1766  156.7639 H   0  0  0  0  0  0  0  0  0  0  0  0  # atno 8010 bound_to 7997
  140.0300  143.5258  152.2181 H   0  0  0  0  0  0  0  0  0  0  0  0  # atno 10167 bound_to 10162
  156.0896  130.4202  150.1049 H   0  0  0  0  0  0  0  0  0  0  0  0  # atno 10718 bound_to 10713
  154.5472  135.2810  155.1042 H   0  0  0  0  0  0  0  0  0  0  0  0  # atno 10763 bound_to 10752
  154.2501  135.6341  153.5241 H   0  0  0  0  0  0  0  0  0  0  0  0  # atno 10764 bound_to 10752
  152.9993  135.5581  154.6028 H   0  0  0  0  0  0  0  0  0  0  0  0  # atno 10765 bound_to 10752
  141.0455  133.9769  157.2924 H   0  0  0  0  0  0  0  0  0  0  0  0  # atno 11005 bound_to 11000
  145.4358  141.0419  143.2885 LP  0  0  0  0  0  0  0  0  0  0  0  0  # atno 17320 bound_to 7965
  144.8153  139.5888  143.7011 LP  0  0  0  0  0  0  0  0  0  0  0  0  # atno 17321 bound_to 7965
  139.6082  144.7602  151.3012 LP  0  0  0  0  0  0  0  0  0  0  0  0  # atno 17342 bound_to 10162
  140.7306  143.6875  150.7950 LP  0  0  0  0  0  0  0  0  0  0  0  0  # atno 17343 bound_to 10162
  156.9062  130.9636  151.3569 LP  0  0  0  0  0  0  0  0  0  0  0  0  # atno 17370 bound_to 10713
  157.6041  130.8534  149.8847 LP  0  0  0  0  0  0  0  0  0  0  0  0  # atno 17371 bound_to 10713
  139.9308  135.0200  156.8395 LP  0  0  0  0  0  0  0  0  0  0  0  0  # atno 17394 bound_to 11000
  140.6154  134.0043  155.7595 LP  0  0  0  0  0  0  0  0  0  0  0  0  # atno 17395 bound_to 11000

$$$$
