AV-unprocessed.smi:1224|AV-procd|sdf|5130|dock2
  -GOLD-   22720 4193D 1   1.00000     0.00000
 Structure written by MMmdl.
 45 47  0  0  0  0  0  0  0  0  3 V2000
  152.4254  143.5600  161.1020 C   0  0  0  0  0  0  0  0  0  0  0  0
  152.1458  142.7635  159.8388 C   0  0  0  0  0  0  0  0  0  0  0  0
  151.3148  143.3376  158.8503 C   0  0  0  0  0  0  0  0  0  0  0  0
  151.0771  142.5852  157.7064 C   0  0  0  0  0  0  0  0  0  0  0  0
  150.3136  142.8626  156.5705 N   0  3  0  0  0  0  0  0  0  0  0  0
  150.3818  141.8106  155.7086 C   0  0  0  0  0  0  0  0  0  0  0  0
  151.1832  140.8675  156.2756 N   0  0  0  0  0  0  0  0  0  0  0  0
  151.5863  139.5466  155.7741 C   0  0  0  0  0  0  0  0  0  0  0  0
  150.4043  138.7171  155.2327 C   0  0  2  0  0  0  0  0  0  0  0  0
  149.6144  138.2675  156.3170 O   0  0  0  0  0  0  0  0  0  0  0  0
  150.8857  137.4942  154.4349 C   0  0  0  0  0  0  0  0  0  0  0  0
  149.9206  136.3771  154.5246 N   0  3  0  0  0  0  0  0  0  0  0  0
  150.4406  135.1539  155.1701 C   0  0  0  0  0  0  0  0  0  0  0  0
  149.7707  133.9152  154.6696 C   0  0  0  0  0  0  0  0  0  0  0  0
  148.7821  133.8179  153.7228 C   0  0  0  0  0  0  0  0  0  0  0  0
  148.3766  132.4743  153.4715 C   0  0  0  0  0  0  0  0  0  0  0  0
  149.0609  131.5629  154.2306 C   0  0  0  0  0  0  0  0  0  0  0  0
  150.2207  132.3399  155.2731 S   0  0  0  0  0  0  0  0  0  0  0  0
  151.6350  141.3048  157.5251 C   0  0  0  0  0  0  0  0  0  0  0  0
  152.4548  140.7232  158.4891 C   0  0  0  0  0  0  0  0  0  0  0  0
  152.7074  141.4723  159.6609 C   0  0  0  0  0  0  0  0  0  0  0  0
  153.5960  140.8638  160.7326 C   0  0  0  0  0  0  0  0  0  0  0  0
  151.9534  144.5424  161.0668 H   0  0  0  0  0  0  0  0  0  0  0  0
  153.4971  143.7113  161.2316 H   0  0  0  0  0  0  0  0  0  0  0  0
  152.0405  143.0363  161.9772 H   0  0  0  0  0  0  0  0  0  0  0  0
  150.8821  144.3191  158.9799 H   0  0  0  0  0  0  0  0  0  0  0  0
  149.8906  141.7387  154.7486 H   0  0  0  0  0  0  0  0  0  0  0  0
  152.3505  139.6860  155.0083 H   0  0  0  0  0  0  0  0  0  0  0  0
  152.0690  139.0213  156.5998 H   0  0  0  0  0  0  0  0  0  0  0  0
  149.7825  139.3476  154.5958 H   0  0  0  0  0  0  0  0  0  0  0  0
  149.0577  137.5666  156.0129 H   0  0  0  0  0  0  0  0  0  0  0  0
  151.0042  137.7623  153.3841 H   0  0  0  0  0  0  0  0  0  0  0  0
  151.8655  137.1779  154.7949 H   0  0  0  0  0  0  0  0  0  0  0  0
  149.1135  136.6937  155.0434 H   0  0  0  0  0  0  0  0  0  0  0  0
  151.5107  135.0929  154.9702 H   0  0  0  0  0  0  0  0  0  0  0  0
  150.3323  135.2370  156.2521 H   0  0  0  0  0  0  0  0  0  0  0  0
  148.3412  134.6563  153.2037 H   0  0  0  0  0  0  0  0  0  0  0  0
  147.6088  132.2269  152.7532 H   0  0  0  0  0  0  0  0  0  0  0  0
  148.9547  130.4879  154.2414 H   0  0  0  0  0  0  0  0  0  0  0  0
  152.8810  139.7402  158.3543 H   0  0  0  0  0  0  0  0  0  0  0  0
  153.9251  139.8614  160.4572 H   0  0  0  0  0  0  0  0  0  0  0  0
  153.0593  140.7893  161.6786 H   0  0  0  0  0  0  0  0  0  0  0  0
  154.4851  141.4761  160.8855 H   0  0  0  0  0  0  0  0  0  0  0  0
  149.6267  136.1397  153.5882 H   0  0  0  0  0  0  0  0  0  0  0  0
  149.7812  143.7056  156.3954 H   0  0  0  0  0  0  0  0  0  0  0  0
  1  2  1  0  0  0  0
  1 23  1  0  0  0  0
  1 24  1  0  0  0  0
  1 25  1  0  0  0  0
  2 21  1  0  0  0  0
  2  3  2  0  0  0  0
  3  4  1  0  0  0  0
  3 26  1  0  0  0  0
  4 19  2  0  0  0  0
  4  5  1  0  0  0  0
  5  6  2  0  0  0  0
  5 45  1  0  0  0  0
  6  7  1  0  0  0  0
  6 27  1  0  0  0  0
  7  8  1  0  0  0  0
  7 19  1  0  0  0  0
  8  9  1  0  0  0  0
  8 28  1  0  0  0  0
  8 29  1  0  0  0  0
  9 10  1  0  0  0  0
  9 11  1  0  0  0  0
  9 30  1  0  0  0  0
 10 31  1  0  0  0  0
 11 12  1  0  0  0  0
 11 32  1  0  0  0  0
 11 33  1  0  0  0  0
 12 13  1  0  0  0  0
 12 34  1  0  0  0  0
 12 44  1  0  0  0  0
 13 14  1  0  0  0  0
 13 35  1  0  0  0  0
 13 36  1  0  0  0  0
 14 18  1  0  0  0  0
 14 15  2  0  0  0  0
 15 16  1  0  0  0  0
 15 37  1  0  0  0  0
 16 17  2  0  0  0  0
 16 38  1  0  0  0  0
 17 18  1  0  0  0  0
 17 39  1  0  0  0  0
 19 20  1  0  0  0  0
 20 21  2  0  0  0  0
 20 40  1  0  0  0  0
 21 22  1  0  0  0  0
 22 41  1  0  0  0  0
 22 42  1  0  0  0  0
 22 43  1  0  0  0  0
M  CHG  1   5   1
M  CHG  1  12   1
M  END
> <s_m_source_file>
AV-unprocessed.smi

> <i_m_source_file_index>
1224

> <i_lp_mmshare_version>
43012

> <i_f3d_flags>
0

> <s_epik_input>
W0NIM11jKFtjSF0xKWMoW0NIM10pW2NIXWMoYzEyKW4oW2NIXW4yKVtDSDJdW0NASF0oW09IXSlbQ0gyXVtOSF1bQ0gyXWMzW2NIXVtjSF1bY0hdczM=

> <s_epik_cmdline>
J2VwaWtfcHl0aG9uJywgJy1waCcsICc3LjAnLCAnLXRuJywgJzgnLCAnLW1hJywgJzIwMCcsICctbWV0YWxfYmluZGluZycsICctaW1hZScsICc8aW5maWxlLm1hZT4nLCAnLW9tYWUnLCAnPG91dGZpbGUubWFlPic=

> <r_epik_Ionization_Penalty>
1.2222

> <r_epik_Ionization_Penalty_Charging>
1.2222

> <r_epik_Ionization_Penalty_Neutral>
3.40394e-06

> <r_epik_State_Penalty>
1.23781

> <r_epik_Charging_Adjusted_Penalty>
2.46001

> <i_epik_Tot_Q>
2

> <i_epik_Tot_abs_Q>
2

> <r_epik_Metal_State_Penalty>
5.24642

> <b_epik_Metal_Only>
0

> <s_lp_Force_Field>
OPLS_2005

> <r_lp_Energy>
16.8702

> <b_lp_Chiralities_Consistent>
1

> <s_lp_Variant>
AV-unprocessed.smi:1224-3

> <Gold.Version>
5.8.1

> <Gold.Id.Protein>
6NUR|6NUR_protein|mol2

> <Gold.PLP.Fitness>
59.8961

> <Gold.PLP.PLP>
-50.0449

> <Gold.PLP.part.hbond>
-2.1470

> <Gold.PLP.part.metal>
0.0000

> <Gold.PLP.part.buried>
-4.8827

> <Gold.PLP.part.nonpolar>
-43.1158

> <Gold.PLP.part.repulsive>
0.1196

> <Gold.PLP.ligand.clash>
0.0000

> <Gold.PLP.ligand.torsion>
1.1424

> <Gold.PLP.Chemscore.Hbond>
4.0000

> <Gold.PLP.Chemscore.CHOScore>
0.0000

> <Gold.PLP.Chemscore.Metal>
0.0000

> <Gold.Chemscore.Hbonds>
donor molecule, donor type, donor heavy atom, donor atom, acceptor molecule, acceptor atom, score
      L1  H     5    45       P1  8028  2.00
      L1  H    12    44       P1  7948  2.00

> <Gold.PLP.Chemscore.Internal.Correction>
0.1359

> <Gold.Rescore>
     Score         DG    S(hbond)    S(metal)    S(lipo)     H(rot)  DE(clash)    DE(int)     intcor
     18.50     -19.78       1.78        0.00     126.20       2.50       0.16       1.11       ----

> <Gold.Chemscore.Fitness>
18.5022

> <Gold.Chemscore.DG>
-19.7778

> <Gold.Chemscore.ZeroCoef>
-5.4800

> <Gold.Chemscore.Hbond>
1.7793

> <Gold.Chemscore.Metal>
0.0000

> <Gold.Chemscore.Lipo>
126.2029

> <Gold.Chemscore.Internal_Hbond>
0.0000

> <Gold.Chemscore.DEClash>
0.1636

> <Gold.Chemscore.DEInternal>
1.1121

> <Gold.Chemscore.Rot>
2.5042

> <Gold.Chemscore.Internal.Correction>
   9.000000E+99

> <Gold.Chemscore.Hbonds>
donor molecule, donor type, donor heavy atom, donor atom, acceptor molecule, acceptor atom, score
      L1  H     5    45       P1  8028  0.93
      L1  H    12    44       P1  7948  0.35

> <Gold.Chemscore.Hbond.Weighted>
-5.9429

> <Gold.Chemscore.Metal.Weighted>
-0.0000

> <Gold.Chemscore.Lipo.Weighted>
-14.7657

> <Gold.Chemscore.Internal_Hbond.Weighted>
0.0000

> <Gold.Chemscore.DEClash.Weighted>
0.1636

> <Gold.Chemscore.DEInternal.Weighted>
1.1121

> <Gold.Chemscore.Rot.Weighted>
6.4108

> <Gold.Chemscore.Internal.Correction.Weighted>
   9.000000E+99

> <Gold.Protein.RotatedTorsions>
[ 6907 6896 6895 6894 ] final -154.79 input  -60.11 | X-H torsion
[ 7974 7965 7964 7962 ] final  -62.20 input  175.53 | X-H torsion
[ 8008 7997 7996 7995 ] final  110.89 input   59.86 | X-H torsion
[ 10167 10162 10161 10158 ] final -165.11 input  -65.29 | X-H torsion
[ 10718 10713 10712 10709 ] final  -63.20 input   66.30 | X-H torsion
[ 10763 10752 10751 10750 ] final  128.61 input  -60.55 | X-H torsion
[ 11005 11000 10999 10996 ] final -136.22 input  -57.11 | X-H torsion

> <Gold.Protein.ActiveResidues>
 VAL166  LYS551  ARG553  GLY616  TRP617  ASP618  TYR619  PRO620  LYS621  CYS622 
 ASP623  PHE694  ASN695  SER759  ASP760  ASP761  ALA762  ILE779  LEU786  VAL792 
 PHE793  MET794  SER795  GLU796  ALA797  LYS798  CYS799  TRP800  GLU811  SER814 

> <Gold.Protein.RotatedAtoms>
  151.2628  133.4293  159.2616 H   0  0  0  0  0  0  0  0  0  0  0  0  # atno 6907 bound_to 6896
  151.0515  134.9676  159.8224 H   0  0  0  0  0  0  0  0  0  0  0  0  # atno 6908 bound_to 6896
  152.5383  134.2582  159.8978 H   0  0  0  0  0  0  0  0  0  0  0  0  # atno 6909 bound_to 6896
  145.7943  140.8692  143.0265 H   0  0  0  0  0  0  0  0  0  0  0  0  # atno 7974 bound_to 7965
  156.2085  140.3030  155.9680 H   0  0  0  0  0  0  0  0  0  0  0  0  # atno 8008 bound_to 7997
  155.2782  140.0436  157.3030 H   0  0  0  0  0  0  0  0  0  0  0  0  # atno 8009 bound_to 7997
  154.5667  140.2336  155.8262 H   0  0  0  0  0  0  0  0  0  0  0  0  # atno 8010 bound_to 7997
  139.6204  144.0635  152.1927 H   0  0  0  0  0  0  0  0  0  0  0  0  # atno 10167 bound_to 10162
  156.0806  130.4218  150.1243 H   0  0  0  0  0  0  0  0  0  0  0  0  # atno 10718 bound_to 10713
  153.7283  135.3242  155.3280 H   0  0  0  0  0  0  0  0  0  0  0  0  # atno 10763 bound_to 10752
  154.8334  135.4516  154.1148 H   0  0  0  0  0  0  0  0  0  0  0  0  # atno 10764 bound_to 10752
  153.2288  135.6957  153.7995 H   0  0  0  0  0  0  0  0  0  0  0  0  # atno 10765 bound_to 10752
  140.8825  134.1914  157.4582 H   0  0  0  0  0  0  0  0  0  0  0  0  # atno 11005 bound_to 11000
  144.6777  140.0167  143.7484 LP  0  0  0  0  0  0  0  0  0  0  0  0  # atno 17320 bound_to 7965
  145.9945  139.3041  143.0965 LP  0  0  0  0  0  0  0  0  0  0  0  0  # atno 17321 bound_to 7965
  140.0276  144.6106  150.7515 LP  0  0  0  0  0  0  0  0  0  0  0  0  # atno 17342 bound_to 10162
  140.7378  143.2770  151.3711 LP  0  0  0  0  0  0  0  0  0  0  0  0  # atno 17343 bound_to 10162
  156.9275  130.9703  151.3538 LP  0  0  0  0  0  0  0  0  0  0  0  0  # atno 17370 bound_to 10713
  157.5921  130.8451  149.8675 LP  0  0  0  0  0  0  0  0  0  0  0  0  # atno 17371 bound_to 10713
  139.8721  134.9823  156.5152 LP  0  0  0  0  0  0  0  0  0  0  0  0  # atno 17394 bound_to 11000
  140.8444  133.8180  155.9107 LP  0  0  0  0  0  0  0  0  0  0  0  0  # atno 17395 bound_to 11000

$$$$
