#       Name:                AV-unprocessed.smi:2330
#       Creating user name   scv26
#       Creation time:       Fri Mar 27 12:53:02 2020


#       File generated by GOLD software.
#

@<TRIPOS>MOLECULE
AV-unprocessed.smi:2330
    45    46     1
SMALL
NO_CHARGES


@<TRIPOS>ATOM
      1 ****        -5.2042   2.7298   0.5393 C.3            1 S1                 0.0000
      2 ****        -3.9358   1.9227   0.8500 C.3            1 S1                 0.0000
      3 ****        -2.7509   2.8449   1.1957 C.3            1 S1                 0.0000
      4 ****        -1.4778   2.0406   1.5063 C.3            1 S1                 0.0000
      5 ****        -1.1113   1.0918   0.3495 C.3            1 S1                 0.0000
      6 ****         0.0426   0.2772   0.7172 N.am           1 S1                 0.0000
      7 ****         1.3052   0.4859   0.3199 C.2            1 S1                 0.0000
      8 ****         1.6616   1.4121  -0.4083 O.2            1 S1                 0.0000
      9 ****         2.1325  -0.4529   0.7980 N.am           1 S1                 0.0000
     10 ****         3.5511  -0.5665   0.4719 C.3            1 S1                 0.0000
     11 ****         3.7950  -1.1600  -0.9335 C.3            1 S1                 0.0000
     12 ****         5.2834  -1.3734  -1.2431 C.3            1 S1                 0.0000
     13 ****         2.9782  -2.3876  -1.2051 C.2            1 S1                 0.0000
     14 ****         3.1229  -3.5386  -0.5404 N.2            1 S1                 0.0000
     15 ****         2.2235  -4.5193  -0.9655 C.2            1 S1                 0.0000
     16 ****         1.3862  -4.0972  -1.9666 C.2            1 S1                 0.0000
     17 ****         1.6996  -2.4435  -2.4157 S.3            1 S1                 0.0000
     18 ****        -2.2960   0.1746  -0.0040 C.3            1 S1                 0.0000
     19 ****        -3.5628   0.9872  -0.3158 C.3            1 S1                 0.0000
     20 ****        -5.0593   3.3794  -0.3244 H              1 S1                 0.0000
     21 ****        -5.4868   3.3575   1.3850 H              1 S1                 0.0000
     22 ****        -6.0457   2.0709   0.3233 H              1 S1                 0.0000
     23 ****        -4.1471   1.3039   1.7234 H              1 S1                 0.0000
     24 ****        -2.5561   3.5232   0.3637 H              1 S1                 0.0000
     25 ****        -3.0031   3.4720   2.0515 H              1 S1                 0.0000
     26 ****        -0.6517   2.7245   1.7050 H              1 S1                 0.0000
     27 ****        -1.6299   1.4662   2.4213 H              1 S1                 0.0000
     28 ****        -0.8787   1.6929  -0.5316 H              1 S1                 0.0000
     29 ****        -0.1383  -0.5175   1.3126 H              1 S1                 0.0000
     30 ****         1.7451  -1.1710   1.3924 H              1 S1                 0.0000
     31 ****         4.0408   0.4038   0.5707 H              1 S1                 0.0000
     32 ****         4.0012  -1.2157   1.2235 H              1 S1                 0.0000
     33 ****         3.4498  -0.4106  -1.6468 H              1 S1                 0.0000
     34 ****         5.4270  -1.6946  -2.2752 H              1 S1                 0.0000
     35 ****         5.7186  -2.1335  -0.5936 H              1 S1                 0.0000
     36 ****         5.8496  -0.4524  -1.1019 H              1 S1                 0.0000
     37 ****         2.2476  -5.4926  -0.4984 H              1 S1                 0.0000
     38 ****         0.6075  -4.6557  -2.4644 H              1 S1                 0.0000
     39 ****        -2.0409  -0.4503  -0.8609 H              1 S1                 0.0000
     40 ****        -2.4995  -0.5056   0.8245 H              1 S1                 0.0000
     41 ****        -4.3881   0.3069  -0.5283 H              1 S1                 0.0000
     42 ****        -3.4045   1.5722  -1.2229 H              1 S1                 0.0000
     43 ****         0.9889   2.0715  -0.7440 LP             1 S1                 0.0000
     44 ****         2.6238   1.5051  -0.6642 LP             1 S1                 0.0000
     45 ****         3.8001  -3.6817   0.1814 LP             1 S1                 0.0000
@<TRIPOS>BOND
    1    1    2 1     
    2    1   20 1     
    3    1   21 1     
    4    1   22 1     
    5    2   19 1     
    6    2    3 1     
    7    2   23 1     
    8    3    4 1     
    9    3   24 1     
   10    3   25 1     
   11    4    5 1     
   12    4   26 1     
   13    4   27 1     
   14    5    6 1     
   15    5   18 1     
   16    5   28 1     
   17    6    7 am    
   18    6   29 1     
   19    7    8 2     
   20    7    9 am    
   21    9   10 1     
   22    9   30 1     
   23   10   11 1     
   24   10   31 1     
   25   10   32 1     
   26   11   12 1     
   27   11   13 1     
   28   11   33 1     
   29   12   34 1     
   30   12   35 1     
   31   12   36 1     
   32   13   17 1     
   33   13   14 2     
   34   14   15 1     
   35   15   16 2     
   36   15   37 1     
   37   16   17 1     
   38   16   38 1     
   39   18   19 1     
   40   18   39 1     
   41   18   40 1     
   42   19   41 1     
   43   19   42 1     
   44    8   43 1     
   45    8   44 1     
   46   14   45 1     
@<TRIPOS>SUBSTRUCTURE
      1 S1             1
@<TRIPOS>SET
LONE_PAIRS      STATIC     ATOMS    <user>   **** ""
3 43 44 45
DONOR_HYDROGENS      STATIC     ATOMS    <user>   **** ""
2 29 30
ATOM$BLUE        STATIC     ATOMS    COLORGROUP SYSTEM
3 43 44 45
ATOM$RED        STATIC     ATOMS    COLORGROUP SYSTEM
2 29 30
