AV-unprocessed.smi:72|AV-procd|sdf|681|dock5
  -GOLD-   2262016593D 1   1.00000     0.00000
 Structure written by MMmdl.
 29 30  0  0  0  0  0  0  0  0  1 V2000
  140.7434  134.7986  153.7685 N   0  0  0  0  0  0  0  0  0  0  0  0
  141.8971  135.2955  153.4994 C   0  0  0  0  0  0  0  0  0  0  0  0
  142.1260  136.5600  152.9376 N   0  0  0  0  0  0  0  0  0  0  0  0
  143.3491  136.9254  152.7045 C   0  0  0  0  0  0  0  0  0  0  0  0
  144.4879  136.0593  152.9874 N   0  0  0  0  0  0  0  0  0  0  0  0
  145.9265  136.4778  152.7287 C   0  0  2  0  0  0  0  0  0  0  0  0
  146.6148  136.5958  153.9410 O   0  0  0  0  0  0  0  0  0  0  0  0
  146.6542  137.9621  154.3433 C   0  0  1  0  0  0  0  0  0  0  0  0
  147.7329  138.1995  155.4142 C   0  0  0  0  0  0  0  0  0  0  0  0
  147.7776  139.5683  155.7569 O   0  0  0  0  0  0  0  0  0  0  0  0
  146.8720  138.6756  153.0060 C   0  0  1  0  0  0  0  0  0  0  0  0
  148.2421  138.6339  152.6401 O   0  0  0  0  0  0  0  0  0  0  0  0
  145.9848  137.8685  152.0579 C   0  0  1  0  0  0  0  0  0  0  0  0
  146.4926  137.8365  150.7369 O   0  0  0  0  0  0  0  0  0  0  0  0
  144.2704  134.7963  153.5925 C   0  0  0  0  0  0  0  0  0  0  0  0
  145.1955  134.0425  153.8950 O   0  0  0  0  0  0  0  0  0  0  0  0
  142.9801  134.4664  153.8147 N   0  0  0  0  0  0  0  0  0  0  0  0
  146.3599  135.6688  152.1378 H   0  0  0  0  0  0  0  0  0  0  0  0
  145.6767  138.2577  154.7288 H   0  0  0  0  0  0  0  0  0  0  0  0
  146.5643  139.7208  153.0499 H   0  0  0  0  0  0  0  0  0  0  0  0
  144.9859  138.3077  152.0458 H   0  0  0  0  0  0  0  0  0  0  0  0
  140.0169  135.4525  153.5141 H   0  0  0  0  0  0  0  0  0  0  0  0
  143.5892  137.9023  152.2847 H   0  0  0  0  0  0  0  0  0  0  0  0
  147.5540  137.5932  156.3030 H   0  0  0  0  0  0  0  0  0  0  0  0
  148.7147  137.9278  155.0255 H   0  0  0  0  0  0  0  0  0  0  0  0
  148.6806  139.8160  155.8848 H   0  0  0  0  0  0  0  0  0  0  0  0
  148.4274  137.7766  152.2877 H   0  0  0  0  0  0  0  0  0  0  0  0
  145.7950  138.0739  150.1442 H   0  0  0  0  0  0  0  0  0  0  0  0
  142.7913  133.5690  154.2366 H   0  0  0  0  0  0  0  0  0  0  0  0
  1  2  2  0  0  0  0
  1 22  1  0  0  0  0
  2 17  1  0  0  0  0
  2  3  1  0  0  0  0
  3  4  2  0  0  0  0
  4  5  1  0  0  0  0
  4 23  1  0  0  0  0
  5  6  1  0  0  0  0
  5 15  1  0  0  0  0
  6 18  1  0  0  0  0
  6 13  1  0  0  0  0
  6  7  1  0  0  0  0
  7  8  1  0  0  0  0
  8 19  1  0  0  0  0
  8  9  1  0  0  0  0
  8 11  1  0  0  0  0
  9 10  1  0  0  0  0
  9 24  1  0  0  0  0
  9 25  1  0  0  0  0
 10 26  1  0  0  0  0
 11 20  1  0  0  0  0
 11 12  1  0  0  0  0
 11 13  1  0  0  0  0
 12 27  1  0  0  0  0
 13 21  1  0  0  0  0
 13 14  1  0  0  0  0
 14 28  1  0  0  0  0
 15 16  2  0  0  0  0
 15 17  1  0  0  0  0
 17 29  1  0  0  0  0
M  END
> <s_m_source_file>
AV-unprocessed.smi

> <i_m_source_file_index>
72

> <i_lp_mmshare_version>
43012

> <i_f3d_flags>
0

> <s_epik_input>
W05IMl1jMW5bY0hdbihjKD1PKW4xKVtDQEBIXTJPW0NASF0oW0NIMl1bT0hdKVtDQEBIXShbT0hdKVtDQEhdMltPSF0=

> <s_epik_cmdline>
J2VwaWtfcHl0aG9uJywgJy1waCcsICc3LjAnLCAnLXRuJywgJzgnLCAnLW1hJywgJzIwMCcsICctbWV0YWxfYmluZGluZycsICctaW1hZScsICc8aW5maWxlLm1hZT4nLCAnLW9tYWUnLCAnPG91dGZpbGUubWFlPic=

> <r_lp_tautomer_probability>
7.17554e-07

> <r_epik_Ionization_Penalty>
0.0066451

> <r_epik_Ionization_Penalty_Charging>
0.00663793

> <r_epik_Ionization_Penalty_Neutral>
7.17052e-06

> <r_epik_State_Penalty>
0.419231

> <r_epik_Charging_Adjusted_Penalty>
0.425868

> <i_epik_Tot_Q>
0

> <i_epik_Tot_abs_Q>
0

> <r_epik_Metal_State_Penalty>
1.44144

> <b_epik_Metal_Only>
0

> <s_epik_Chemistry_Notes>
This compound contains an acetal/aminal-like group ( X-CH(R)-Y where X, Y are N, S, or O) that may be acid/base labile, releasing an aldehyde.

> <s_lp_Force_Field>
OPLS_2005

> <r_lp_Energy>
42.1864

> <b_lp_Chiralities_Consistent>
1

> <s_lp_Variant>
AV-unprocessed.smi:72-19

> <Gold.Version>
5.8.1

> <Gold.Id.Protein>
6NUR|6NUR_protein|mol2

> <Gold.PLP.Fitness>
43.4255

> <Gold.PLP.PLP>
-22.4967

> <Gold.PLP.part.hbond>
-7.4611

> <Gold.PLP.part.metal>
0.0000

> <Gold.PLP.part.buried>
-3.1669

> <Gold.PLP.part.nonpolar>
-11.8754

> <Gold.PLP.part.repulsive>
0.4006

> <Gold.PLP.ligand.clash>
0.0000

> <Gold.PLP.ligand.torsion>
0.0339

> <Gold.PLP.Chemscore.Hbond>
4.9913

> <Gold.PLP.Chemscore.CHOScore>
2.0000

> <Gold.PLP.Chemscore.Metal>
0.0000

> <Gold.Chemscore.Hbonds>
donor molecule, donor type, donor heavy atom, donor atom, acceptor molecule, acceptor atom, score
      L1  H    12    27       P1  7948  1.00
      L1  H    14    28       P1 10171  1.00
      L1  H    17    29       P1 10957  1.00
      P1  H  7954  7966       L1    14  1.00
      P1  H 11000 11005       L1     1  0.94
      L1  C     4    23       P1 10171  0.90
      L1  C     4    23       P1 10175  0.99

> <Gold.PLP.Chemscore.Internal.Correction>
0.0229

> <Gold.Rescore>
     Score         DG    S(hbond)    S(metal)    S(lipo)     H(rot)  DE(clash)    DE(int)     intcor
     10.93     -12.14       4.51        0.00      17.01       4.06       0.05       1.16       ----

> <Gold.Chemscore.Fitness>
10.9324

> <Gold.Chemscore.DG>
-12.1371

> <Gold.Chemscore.ZeroCoef>
-5.4800

> <Gold.Chemscore.Hbond>
4.5093

> <Gold.Chemscore.Metal>
0.0000

> <Gold.Chemscore.Lipo>
17.0055

> <Gold.Chemscore.Internal_Hbond>
0.0000

> <Gold.Chemscore.DEClash>
0.0462

> <Gold.Chemscore.DEInternal>
1.1585

> <Gold.Chemscore.Rot>
4.0600

> <Gold.Chemscore.Internal.Correction>
   9.000000E+99

> <Gold.Chemscore.Hbonds>
donor molecule, donor type, donor heavy atom, donor atom, acceptor molecule, acceptor atom, score
      L1  H    12    27       P1  7948  1.00
      L1  H    14    28       P1 10171  0.92
      L1  H    17    29       P1 10957  1.00
      P1  H  7954  7966       L1    14  0.76
      P1  H 11000 11005       L1     1  0.35

> <Gold.Chemscore.Hbond.Weighted>
-15.0611

> <Gold.Chemscore.Metal.Weighted>
-0.0000

> <Gold.Chemscore.Lipo.Weighted>
-1.9896

> <Gold.Chemscore.Internal_Hbond.Weighted>
0.0000

> <Gold.Chemscore.DEClash.Weighted>
0.0462

> <Gold.Chemscore.DEInternal.Weighted>
1.1585

> <Gold.Chemscore.Rot.Weighted>
10.3936

> <Gold.Chemscore.Internal.Correction.Weighted>
   9.000000E+99

> <Gold.Protein.RotatedTorsions>
[ 6907 6896 6895 6894 ] final   99.69 input  -60.11 | X-H torsion
[ 7974 7965 7964 7962 ] final -154.39 input  175.53 | X-H torsion
[ 8008 7997 7996 7995 ] final   53.27 input   59.86 | X-H torsion
[ 10167 10162 10161 10158 ] final -108.76 input  -65.29 | X-H torsion
[ 10718 10713 10712 10709 ] final -131.01 input   66.30 | X-H torsion
[ 10763 10752 10751 10750 ] final  -56.33 input  -60.55 | X-H torsion
[ 11005 11000 10999 10996 ] final   32.13 input  -57.11 | X-H torsion

> <Gold.Protein.ActiveResidues>
 VAL166  LYS551  ARG553  GLY616  TRP617  ASP618  TYR619  PRO620  LYS621  CYS622 
 ASP623  PHE694  ASN695  SER759  ASP760  ASP761  ALA762  ILE779  LEU786  VAL792 
 PHE793  MET794  SER795  GLU796  ALA797  LYS798  CYS799  TRP800  GLU811  SER814 

> <Gold.Protein.RotatedAtoms>
  152.5387  134.0391  159.8058 H   0  0  0  0  0  0  0  0  0  0  0  0  # atno 6907 bound_to 6896
  151.0549  133.5585  159.2646 H   0  0  0  0  0  0  0  0  0  0  0  0  # atno 6908 bound_to 6896
  151.2505  135.0628  159.9114 H   0  0  0  0  0  0  0  0  0  0  0  0  # atno 6909 bound_to 6896
  144.7692  140.4394  143.5920 H   0  0  0  0  0  0  0  0  0  0  0  0  # atno 7974 bound_to 7965
  155.4654  140.3463  155.4318 H   0  0  0  0  0  0  0  0  0  0  0  0  # atno 8008 bound_to 7997
  156.1134  140.1467  156.9336 H   0  0  0  0  0  0  0  0  0  0  0  0  # atno 8009 bound_to 7997
  154.4772  140.0881  156.7269 H   0  0  0  0  0  0  0  0  0  0  0  0  # atno 8010 bound_to 7997
  140.1626  143.4107  152.1414 H   0  0  0  0  0  0  0  0  0  0  0  0  # atno 10167 bound_to 10162
  156.2201  130.6973  151.0746 H   0  0  0  0  0  0  0  0  0  0  0  0  # atno 10718 bound_to 10713
  154.2049  135.6404  153.5098 H   0  0  0  0  0  0  0  0  0  0  0  0  # atno 10763 bound_to 10752
  153.0003  135.5460  154.6276 H   0  0  0  0  0  0  0  0  0  0  0  0  # atno 10764 bound_to 10752
  154.5698  135.2916  155.0811 H   0  0  0  0  0  0  0  0  0  0  0  0  # atno 10765 bound_to 10752
  140.2767  134.3020  155.7812 H   0  0  0  0  0  0  0  0  0  0  0  0  # atno 11005 bound_to 11000
  145.6377  139.1545  143.2933 LP  0  0  0  0  0  0  0  0  0  0  0  0  # atno 17320 bound_to 7965
  146.1824  140.6476  142.9183 LP  0  0  0  0  0  0  0  0  0  0  0  0  # atno 17321 bound_to 7965
  139.5374  144.7223  151.4847 LP  0  0  0  0  0  0  0  0  0  0  0  0  # atno 17342 bound_to 10162
  140.6633  143.8452  150.6913 LP  0  0  0  0  0  0  0  0  0  0  0  0  # atno 17343 bound_to 10162
  157.7083  131.0746  150.6590 LP  0  0  0  0  0  0  0  0  0  0  0  0  # atno 17370 bound_to 10713
  156.6653  130.4524  149.5674 LP  0  0  0  0  0  0  0  0  0  0  0  0  # atno 17371 bound_to 10713
  141.2169  133.7500  156.9417 LP  0  0  0  0  0  0  0  0  0  0  0  0  # atno 17394 bound_to 11000
  140.1322  134.9348  157.2353 LP  0  0  0  0  0  0  0  0  0  0  0  0  # atno 17395 bound_to 11000

$$$$
