AV-unprocessed.smi:1492|AV-procd|sdf|6037|dock7
  -GOLD-   22720 6143D 1   1.00000     0.00000
 Structure written by MMmdl.
 52 53  0  0  0  0  0  0  0  0  1 V2000
  145.8462  138.7507  156.9204 C   0  0  0  0  0  0  0  0  0  0  0  0
  146.9728  138.4542  157.9283 C   0  0  0  0  0  0  0  0  0  0  0  0
  148.2162  137.6469  157.4211 C   0  0  2  0  0  0  0  0  0  0  0  0
  147.7289  136.2552  156.9445 C   0  0  0  0  0  0  0  0  0  0  0  0
  149.1814  137.4145  158.6260 C   0  0  0  0  0  0  0  0  0  0  0  0
  148.5165  136.6830  159.7002 N   0  0  0  0  0  0  0  0  0  0  0  0
  148.4528  135.3498  159.8221 C   0  0  0  0  0  0  0  0  0  0  0  0
  148.7673  134.5620  158.9310 O   0  0  0  0  0  0  0  0  0  0  0  0
  148.0178  134.8324  161.1918 C   0  0  0  0  0  0  0  0  0  0  0  0
  146.5980  135.2370  161.5869 C   0  0  0  0  0  0  0  0  0  0  0  0
  145.5988  134.3315  161.8004 C   0  0  0  0  0  0  0  0  0  0  0  0
  145.7958  132.8335  161.6453 C   0  0  0  0  0  0  0  0  0  0  0  0
  144.3159  134.7326  162.1983 N   0  0  0  0  0  0  0  0  0  0  0  0
  144.0856  135.9915  162.3763 C   0  0  0  0  0  0  0  0  0  0  0  0
  142.7503  136.5508  162.8187 C   0  0  0  0  0  0  0  0  0  0  0  0
  145.0615  136.9665  162.1799 N   0  0  0  0  0  0  0  0  0  0  0  0
  146.3209  136.6729  161.7869 C   0  0  0  0  0  0  0  0  0  0  0  0
  147.1481  137.5700  161.6316 O   0  0  0  0  0  0  0  0  0  0  0  0
  148.9052  138.4068  156.3319 N   0  0  0  0  0  0  0  0  0  0  0  0
  149.2719  139.7902  156.6649 C   0  0  0  0  0  0  0  0  0  0  0  0
  149.8385  140.5481  155.4534 C   0  0  0  0  0  0  0  0  0  0  0  0
  150.9668  139.8523  154.9403 O   0  0  0  0  0  0  0  0  0  0  0  0
  150.6487  138.5234  154.5491 C   0  0  0  0  0  0  0  0  0  0  0  0
  150.0798  137.7460  155.7485 C   0  0  0  0  0  0  0  0  0  0  0  0
  144.8242  137.9353  162.3349 H   0  0  0  0  0  0  0  0  0  0  0  0
  145.1022  139.4067  157.3722 H   0  0  0  0  0  0  0  0  0  0  0  0
  145.3208  137.8461  156.6156 H   0  0  0  0  0  0  0  0  0  0  0  0
  146.2151  139.2516  156.0262 H   0  0  0  0  0  0  0  0  0  0  0  0
  147.2988  139.4234  158.3050 H   0  0  0  0  0  0  0  0  0  0  0  0
  146.5294  137.9410  158.7827 H   0  0  0  0  0  0  0  0  0  0  0  0
  147.2574  135.6969  157.7523 H   0  0  0  0  0  0  0  0  0  0  0  0
  148.5490  135.6337  156.5865 H   0  0  0  0  0  0  0  0  0  0  0  0
  146.9962  136.3294  156.1413 H   0  0  0  0  0  0  0  0  0  0  0  0
  150.0608  136.8470  158.3249 H   0  0  0  0  0  0  0  0  0  0  0  0
  149.5981  138.3561  158.9832 H   0  0  0  0  0  0  0  0  0  0  0  0
  148.2115  137.2344  160.4895 H   0  0  0  0  0  0  0  0  0  0  0  0
  148.1267  133.7473  161.2141 H   0  0  0  0  0  0  0  0  0  0  0  0
  148.7211  135.1970  161.9406 H   0  0  0  0  0  0  0  0  0  0  0  0
  146.5854  132.4794  162.3078 H   0  0  0  0  0  0  0  0  0  0  0  0
  146.0636  132.5856  160.6181 H   0  0  0  0  0  0  0  0  0  0  0  0
  144.8852  132.2867  161.8939 H   0  0  0  0  0  0  0  0  0  0  0  0
  141.9729  136.2749  162.1061 H   0  0  0  0  0  0  0  0  0  0  0  0
  142.7739  137.6386  162.8943 H   0  0  0  0  0  0  0  0  0  0  0  0
  142.4804  136.1468  163.7947 H   0  0  0  0  0  0  0  0  0  0  0  0
  148.4140  140.3519  157.0257 H   0  0  0  0  0  0  0  0  0  0  0  0
  150.0154  139.8025  157.4618 H   0  0  0  0  0  0  0  0  0  0  0  0
  149.0819  140.6548  154.6758 H   0  0  0  0  0  0  0  0  0  0  0  0
  150.1419  141.5537  155.7443 H   0  0  0  0  0  0  0  0  0  0  0  0
  149.9318  138.5407  153.7276 H   0  0  0  0  0  0  0  0  0  0  0  0
  151.5499  138.0374  154.1755 H   0  0  0  0  0  0  0  0  0  0  0  0
  150.8606  137.6327  156.5006 H   0  0  0  0  0  0  0  0  0  0  0  0
  149.8331  136.7481  155.3923 H   0  0  0  0  0  0  0  0  0  0  0  0
  1  2  1  0  0  0  0
  1 26  1  0  0  0  0
  1 27  1  0  0  0  0
  1 28  1  0  0  0  0
  2  3  1  0  0  0  0
  2 29  1  0  0  0  0
  2 30  1  0  0  0  0
  3  4  1  0  0  0  0
  3  5  1  0  0  0  0
  3 19  1  0  0  0  0
  4 31  1  0  0  0  0
  4 32  1  0  0  0  0
  4 33  1  0  0  0  0
  5  6  1  0  0  0  0
  5 34  1  0  0  0  0
  5 35  1  0  0  0  0
  6  7  1  0  0  0  0
  6 36  1  0  0  0  0
  7  8  2  0  0  0  0
  7  9  1  0  0  0  0
  9 10  1  0  0  0  0
  9 37  1  0  0  0  0
  9 38  1  0  0  0  0
 10 17  1  0  0  0  0
 10 11  2  0  0  0  0
 11 12  1  0  0  0  0
 11 13  1  0  0  0  0
 12 39  1  0  0  0  0
 12 40  1  0  0  0  0
 12 41  1  0  0  0  0
 13 14  2  0  0  0  0
 14 15  1  0  0  0  0
 14 16  1  0  0  0  0
 15 42  1  0  0  0  0
 15 43  1  0  0  0  0
 15 44  1  0  0  0  0
 16 25  1  0  0  0  0
 16 17  1  0  0  0  0
 17 18  2  0  0  0  0
 19 24  1  0  0  0  0
 19 20  1  0  0  0  0
 20 21  1  0  0  0  0
 20 45  1  0  0  0  0
 20 46  1  0  0  0  0
 21 22  1  0  0  0  0
 21 47  1  0  0  0  0
 21 48  1  0  0  0  0
 22 23  1  0  0  0  0
 23 24  1  0  0  0  0
 23 49  1  0  0  0  0
 23 50  1  0  0  0  0
 24 51  1  0  0  0  0
 24 52  1  0  0  0  0
M  END
> <s_m_source_file>
AV-unprocessed.smi

> <i_m_source_file_index>
1492

> <i_lp_mmshare_version>
43012

> <i_f3d_flags>
0

> <s_epik_input>
W0NIMl0xW0NIMl1PW0NIMl1bQ0gyXU4xW0NAQF0oW0NIM10pKFtDSDJdW0NIM10pW0NIMl1bTkhdQyg9TylbQ0gyXWMyYyhbQ0gzXSluYyhbQ0gzXSlbbkhdYzI9Tw==

> <s_epik_cmdline>
J2VwaWtfcHl0aG9uJywgJy1waCcsICc3LjAnLCAnLXRuJywgJzgnLCAnLW1hJywgJzIwMCcsICctbWV0YWxfYmluZGluZycsICctaW1hZScsICc8aW5maWxlLm1hZT4nLCAnLW9tYWUnLCAnPG91dGZpbGUubWFlPic=

> <r_lp_tautomer_probability>
0.839158

> <r_epik_Ionization_Penalty>
0.328652

> <r_epik_Ionization_Penalty_Charging>
0.000364731

> <r_epik_Ionization_Penalty_Neutral>
0.328288

> <r_epik_State_Penalty>
0.414451

> <r_epik_Charging_Adjusted_Penalty>
0.414816

> <i_epik_Tot_Q>
0

> <i_epik_Tot_abs_Q>
0

> <r_epik_Metal_State_Penalty>
0.592978

> <b_epik_Metal_Only>
0

> <s_lp_Force_Field>
OPLS_2005

> <r_lp_Energy>
44.0338

> <b_lp_Chiralities_Consistent>
1

> <s_lp_Variant>
AV-unprocessed.smi:1492-2

> <Gold.Version>
5.8.1

> <Gold.Id.Protein>
6NUR|6NUR_protein|mol2

> <Gold.PLP.Fitness>
36.3467

> <Gold.PLP.PLP>
-26.0641

> <Gold.PLP.part.hbond>
-3.8978

> <Gold.PLP.part.metal>
0.0000

> <Gold.PLP.part.buried>
-5.2313

> <Gold.PLP.part.nonpolar>
-16.6898

> <Gold.PLP.part.repulsive>
0.4458

> <Gold.PLP.ligand.clash>
0.0000

> <Gold.PLP.ligand.torsion>
0.2428

> <Gold.PLP.Chemscore.Hbond>
3.5461

> <Gold.PLP.Chemscore.CHOScore>
0.0000

> <Gold.PLP.Chemscore.Metal>
0.0000

> <Gold.Chemscore.Hbonds>
donor molecule, donor type, donor heavy atom, donor atom, acceptor molecule, acceptor atom, score
      P1  H  6896  6908       L1     8  1.00
      P1  H  6931  6943       L1    18  0.67
      P1  H  6934  6947       L1    18  0.86
      P1  H  7989  7998       L1    22  1.00

> <Gold.PLP.Chemscore.Internal.Correction>
0.1299

> <Gold.Rescore>
     Score         DG    S(hbond)    S(metal)    S(lipo)     H(rot)  DE(clash)    DE(int)     intcor
     14.28     -16.02       2.90        0.00      53.51       2.12       0.00       1.74       ----

> <Gold.Chemscore.Fitness>
14.2804

> <Gold.Chemscore.DG>
-16.0198

> <Gold.Chemscore.ZeroCoef>
-5.4800

> <Gold.Chemscore.Hbond>
2.9027

> <Gold.Chemscore.Metal>
0.0000

> <Gold.Chemscore.Lipo>
53.5077

> <Gold.Chemscore.Internal_Hbond>
0.0000

> <Gold.Chemscore.DEClash>
0.0004

> <Gold.Chemscore.DEInternal>
1.7390

> <Gold.Chemscore.Rot>
2.1155

> <Gold.Chemscore.Internal.Correction>
   9.000000E+99

> <Gold.Chemscore.Hbonds>
donor molecule, donor type, donor heavy atom, donor atom, acceptor molecule, acceptor atom, score
      P1  H  6896  6908       L1     8  0.34
      P1  H  6931  6943       L1    18  0.63
      P1  H  6934  6947       L1    18  0.84
      P1  H  7989  7998       L1    22  0.50

> <Gold.Chemscore.Hbond.Weighted>
-9.6952

> <Gold.Chemscore.Metal.Weighted>
-0.0000

> <Gold.Chemscore.Lipo.Weighted>
-6.2604

> <Gold.Chemscore.Internal_Hbond.Weighted>
0.0000

> <Gold.Chemscore.DEClash.Weighted>
0.0004

> <Gold.Chemscore.DEInternal.Weighted>
1.7390

> <Gold.Chemscore.Rot.Weighted>
5.4157

> <Gold.Chemscore.Internal.Correction.Weighted>
   9.000000E+99

> <Gold.Protein.RotatedTorsions>
[ 6907 6896 6895 6894 ] final  142.43 input  -60.11 | X-H torsion
[ 7974 7965 7964 7962 ] final    3.92 input  175.53 | X-H torsion
[ 8008 7997 7996 7995 ] final  -66.42 input   59.86 | X-H torsion
[ 10167 10162 10161 10158 ] final  -48.43 input  -65.29 | X-H torsion
[ 10718 10713 10712 10709 ] final   29.34 input   66.30 | X-H torsion
[ 10763 10752 10751 10750 ] final  120.55 input  -60.55 | X-H torsion
[ 11005 11000 10999 10996 ] final  -54.97 input  -57.11 | X-H torsion

> <Gold.Protein.ActiveResidues>
 VAL166  LYS551  ARG553  GLY616  TRP617  ASP618  TYR619  PRO620  LYS621  CYS622 
 ASP623  PHE694  ASN695  SER759  ASP760  ASP761  ALA762  ILE779  LEU786  VAL792 
 PHE793  MET794  SER795  GLU796  ALA797  LYS798  CYS799  TRP800  GLU811  SER814 

> <Gold.Protein.RotatedAtoms>
  152.2188  133.4967  159.5150 H   0  0  0  0  0  0  0  0  0  0  0  0  # atno 6907 bound_to 6896
  150.7007  134.1370  159.4100 H   0  0  0  0  0  0  0  0  0  0  0  0  # atno 6908 bound_to 6896
  151.9291  135.0264  160.0578 H   0  0  0  0  0  0  0  0  0  0  0  0  # atno 6909 bound_to 6896
  146.2445  140.0613  142.8368 H   0  0  0  0  0  0  0  0  0  0  0  0  # atno 7974 bound_to 7965
  154.4734  140.0913  156.7201 H   0  0  0  0  0  0  0  0  0  0  0  0  # atno 8008 bound_to 7997
  155.4663  140.3463  155.4301 H   0  0  0  0  0  0  0  0  0  0  0  0  # atno 8009 bound_to 7997
  156.1076  140.1439  156.9371 H   0  0  0  0  0  0  0  0  0  0  0  0  # atno 8010 bound_to 7997
  140.6731  143.2740  151.4069 H   0  0  0  0  0  0  0  0  0  0  0  0  # atno 10167 bound_to 10162
  157.2453  130.7089  149.6378 H   0  0  0  0  0  0  0  0  0  0  0  0  # atno 10718 bound_to 10713
  153.6003  135.3449  155.2943 H   0  0  0  0  0  0  0  0  0  0  0  0  # atno 10763 bound_to 10752
  154.8637  135.4226  154.2420 H   0  0  0  0  0  0  0  0  0  0  0  0  # atno 10764 bound_to 10752
  153.3247  135.7040  153.7071 H   0  0  0  0  0  0  0  0  0  0  0  0  # atno 10765 bound_to 10752
  141.1051  133.6614  156.4400 H   0  0  0  0  0  0  0  0  0  0  0  0  # atno 11005 bound_to 11000
  145.0897  140.9276  143.4776 LP  0  0  0  0  0  0  0  0  0  0  0  0  # atno 17320 bound_to 7965
  145.0783  139.2979  143.5796 LP  0  0  0  0  0  0  0  0  0  0  0  0  # atno 17321 bound_to 7965
  139.6009  144.1297  152.2197 LP  0  0  0  0  0  0  0  0  0  0  0  0  # atno 17342 bound_to 10162
  140.0681  144.5802  150.7212 LP  0  0  0  0  0  0  0  0  0  0  0  0  # atno 17343 bound_to 10162
  155.9668  130.4445  150.5463 LP  0  0  0  0  0  0  0  0  0  0  0  0  # atno 17370 bound_to 10713
  157.3335  131.0704  151.1842 LP  0  0  0  0  0  0  0  0  0  0  0  0  # atno 17371 bound_to 10713
  140.4922  134.6565  157.5215 LP  0  0  0  0  0  0  0  0  0  0  0  0  # atno 17394 bound_to 11000
  139.9918  134.6973  155.9676 LP  0  0  0  0  0  0  0  0  0  0  0  0  # atno 17395 bound_to 11000

$$$$
