AV-unprocessed.smi:673|AV-procd|sdf|3297|dock4
  -GOLD-   22720 0253D 1   1.00000     0.00000
 Structure written by MMmdl.
 45 46  0  0  0  0  0  0  0  0  1 V2000
  149.1438  134.6791  155.2028 C   0  0  0  0  0  0  0  0  0  0  0  0
  148.7519  135.9202  156.0205 C   0  0  2  0  0  0  0  0  0  0  0  0
  149.9882  136.5958  156.6444 C   0  0  0  0  0  0  0  0  0  0  0  0
  150.5855  137.5792  155.7583 N   0  0  0  0  0  0  0  0  0  0  0  0
  150.1058  138.7342  155.2948 C   0  0  0  0  0  0  0  0  0  0  0  0
  150.9492  139.3855  154.5059 N   0  0  0  0  0  0  0  0  0  0  0  0
  152.0018  138.5146  154.5279 C   0  0  0  0  0  0  0  0  0  0  0  0
  151.8352  137.4154  155.2633 N   0  0  0  0  0  0  0  0  0  0  0  0
  147.8048  135.5543  157.0702 N   0  0  0  0  0  0  0  0  0  0  0  0
  148.0578  134.7512  158.1176 C   0  0  0  0  0  0  0  0  0  0  0  0
  149.1749  134.2769  158.3296 O   0  0  0  0  0  0  0  0  0  0  0  0
  146.9922  134.5405  158.9311 N   0  0  0  0  0  0  0  0  0  0  0  0
  145.7375  135.3044  158.8966 C   0  0  0  0  0  0  0  0  0  0  0  0
  145.8117  136.5814  159.7573 C   0  0  0  0  0  0  0  0  0  0  0  0
  146.8244  136.5854  160.9297 C   0  0  0  0  0  0  0  0  0  0  0  0
  146.8372  135.3704  161.9026 C   0  0  0  0  0  0  0  0  0  0  0  0
  147.6172  135.8015  163.1629 C   0  0  0  0  0  0  0  0  0  0  0  0
  145.4125  134.9863  162.3563 C   0  0  0  0  0  0  0  0  0  0  0  0
  147.5946  134.1483  161.3045 C   0  0  0  0  0  0  0  0  0  0  0  0
  147.0298  133.5423  160.0053 C   0  0  0  0  0  0  0  0  0  0  0  0
  149.8511  134.9373  154.4146 H   0  0  0  0  0  0  0  0  0  0  0  0
  148.2741  134.2271  154.7250 H   0  0  0  0  0  0  0  0  0  0  0  0
  149.6094  133.9197  155.8322 H   0  0  0  0  0  0  0  0  0  0  0  0
  148.2767  136.6377  155.3488 H   0  0  0  0  0  0  0  0  0  0  0  0
  149.7279  137.0776  157.5886 H   0  0  0  0  0  0  0  0  0  0  0  0
  150.7478  135.8481  156.8758 H   0  0  0  0  0  0  0  0  0  0  0  0
  149.1233  139.1080  155.5434 H   0  0  0  0  0  0  0  0  0  0  0  0
  152.9185  138.6960  153.9863 H   0  0  0  0  0  0  0  0  0  0  0  0
  146.8667  135.9165  156.9770 H   0  0  0  0  0  0  0  0  0  0  0  0
  145.4490  135.5553  157.8743 H   0  0  0  0  0  0  0  0  0  0  0  0
  144.9127  134.6847  159.2478 H   0  0  0  0  0  0  0  0  0  0  0  0
  146.0632  137.4193  159.1060 H   0  0  0  0  0  0  0  0  0  0  0  0
  144.8137  136.8043  160.1358 H   0  0  0  0  0  0  0  0  0  0  0  0
  147.8292  136.7221  160.5272 H   0  0  0  0  0  0  0  0  0  0  0  0
  146.6301  137.4940  161.5011 H   0  0  0  0  0  0  0  0  0  0  0  0
  147.6893  134.9891  163.8871 H   0  0  0  0  0  0  0  0  0  0  0  0
  147.1348  136.6403  163.6663 H   0  0  0  0  0  0  0  0  0  0  0  0
  148.6338  136.1109  162.9167 H   0  0  0  0  0  0  0  0  0  0  0  0
  145.4377  134.1883  163.0991 H   0  0  0  0  0  0  0  0  0  0  0  0
  144.7907  134.6361  161.5348 H   0  0  0  0  0  0  0  0  0  0  0  0
  144.9009  135.8366  162.8082 H   0  0  0  0  0  0  0  0  0  0  0  0
  148.6340  134.4270  161.1251 H   0  0  0  0  0  0  0  0  0  0  0  0
  147.6367  133.3553  162.0523 H   0  0  0  0  0  0  0  0  0  0  0  0
  146.0429  133.1173  160.1885 H   0  0  0  0  0  0  0  0  0  0  0  0
  147.6400  132.6869  159.7111 H   0  0  0  0  0  0  0  0  0  0  0  0
  1  2  1  0  0  0  0
  1 21  1  0  0  0  0
  1 22  1  0  0  0  0
  1 23  1  0  0  0  0
  2  3  1  0  0  0  0
  2  9  1  0  0  0  0
  2 24  1  0  0  0  0
  3  4  1  0  0  0  0
  3 25  1  0  0  0  0
  3 26  1  0  0  0  0
  4  8  1  0  0  0  0
  4  5  1  0  0  0  0
  5  6  2  0  0  0  0
  5 27  1  0  0  0  0
  6  7  1  0  0  0  0
  7  8  2  0  0  0  0
  7 28  1  0  0  0  0
  9 10  1  0  0  0  0
  9 29  1  0  0  0  0
 10 11  2  0  0  0  0
 10 12  1  0  0  0  0
 12 20  1  0  0  0  0
 12 13  1  0  0  0  0
 13 14  1  0  0  0  0
 13 30  1  0  0  0  0
 13 31  1  0  0  0  0
 14 15  1  0  0  0  0
 14 32  1  0  0  0  0
 14 33  1  0  0  0  0
 15 16  1  0  0  0  0
 15 34  1  0  0  0  0
 15 35  1  0  0  0  0
 16 17  1  0  0  0  0
 16 18  1  0  0  0  0
 16 19  1  0  0  0  0
 17 36  1  0  0  0  0
 17 37  1  0  0  0  0
 17 38  1  0  0  0  0
 18 39  1  0  0  0  0
 18 40  1  0  0  0  0
 18 41  1  0  0  0  0
 19 20  1  0  0  0  0
 19 42  1  0  0  0  0
 19 43  1  0  0  0  0
 20 44  1  0  0  0  0
 20 45  1  0  0  0  0
M  END
> <s_m_source_file>
AV-unprocessed.smi

> <i_m_source_file_index>
673

> <i_lp_mmshare_version>
43012

> <i_f3d_flags>
0

> <s_epik_input>
bjFbY0hdbltjSF1uMVtDSDJdW0NAQEhdKFtDSDNdKVtOSF1DKD1PKU4oW0NIMl1bQ0gyXTIpW0NIMl1bQ0gyXVtDSDJdQzIoW0NIM10pW0NIM10=

> <s_epik_cmdline>
J2VwaWtfcHl0aG9uJywgJy1waCcsICc3LjAnLCAnLXRuJywgJzgnLCAnLW1hJywgJzIwMCcsICctbWV0YWxfYmluZGluZycsICctaW1hZScsICc8aW5maWxlLm1hZT4nLCAnLW9tYWUnLCAnPG91dGZpbGUubWFlPic=

> <r_lp_tautomer_probability>
1

> <r_epik_Ionization_Penalty>
0.000118908

> <r_epik_Ionization_Penalty_Charging>
0

> <r_epik_Ionization_Penalty_Neutral>
0.000118908

> <r_epik_State_Penalty>
-0

> <r_epik_Charging_Adjusted_Penalty>
0

> <i_epik_Tot_Q>
0

> <i_epik_Tot_abs_Q>
0

> <r_epik_Metal_State_Penalty>
-0

> <b_epik_Metal_Only>
0

> <s_lp_Force_Field>
OPLS_2005

> <r_lp_Energy>
35.7371

> <b_lp_Chiralities_Consistent>
1

> <s_lp_Variant>
AV-unprocessed.smi:673-1

> <Gold.Version>
5.8.1

> <Gold.Id.Protein>
6NUR|6NUR_protein|mol2

> <Gold.PLP.Fitness>
35.2242

> <Gold.PLP.PLP>
-27.3082

> <Gold.PLP.part.hbond>
-3.0000

> <Gold.PLP.part.metal>
0.0000

> <Gold.PLP.part.buried>
-4.8915

> <Gold.PLP.part.nonpolar>
-19.6010

> <Gold.PLP.part.repulsive>
0.2258

> <Gold.PLP.ligand.clash>
0.0000

> <Gold.PLP.ligand.torsion>
0.4689

> <Gold.PLP.Chemscore.Hbond>
2.9440

> <Gold.PLP.Chemscore.CHOScore>
0.0000

> <Gold.PLP.Chemscore.Metal>
0.0000

> <Gold.Chemscore.Hbonds>
donor molecule, donor type, donor heavy atom, donor atom, acceptor molecule, acceptor atom, score
      P1  H  6896  6909       L1    11  1.00
      P1  H  7989  7998       L1     6  1.00
      P1  H 10752 10765       L1     8  0.49

> <Gold.PLP.Chemscore.Internal.Correction>
0.0218

> <Gold.Rescore>
     Score         DG    S(hbond)    S(metal)    S(lipo)     H(rot)  DE(clash)    DE(int)     intcor
     14.84     -16.40       2.81        0.00      53.93       1.86       0.04       1.52       ----

> <Gold.Chemscore.Fitness>
14.8406

> <Gold.Chemscore.DG>
-16.3960

> <Gold.Chemscore.ZeroCoef>
-5.4800

> <Gold.Chemscore.Hbond>
2.8058

> <Gold.Chemscore.Metal>
0.0000

> <Gold.Chemscore.Lipo>
53.9323

> <Gold.Chemscore.Internal_Hbond>
0.0000

> <Gold.Chemscore.DEClash>
0.0377

> <Gold.Chemscore.DEInternal>
1.5176

> <Gold.Chemscore.Rot>
1.8614

> <Gold.Chemscore.Internal.Correction>
   9.000000E+99

> <Gold.Chemscore.Hbonds>
donor molecule, donor type, donor heavy atom, donor atom, acceptor molecule, acceptor atom, score
      P1  H  6896  6909       L1    11  0.95
      P1  H  7989  7998       L1     6  0.40
      P1  H 10752 10765       L1     8  0.44

> <Gold.Chemscore.Hbond.Weighted>
-9.3712

> <Gold.Chemscore.Metal.Weighted>
-0.0000

> <Gold.Chemscore.Lipo.Weighted>
-6.3101

> <Gold.Chemscore.Internal_Hbond.Weighted>
0.0000

> <Gold.Chemscore.DEClash.Weighted>
0.0377

> <Gold.Chemscore.DEInternal.Weighted>
1.5176

> <Gold.Chemscore.Rot.Weighted>
4.7653

> <Gold.Chemscore.Internal.Correction.Weighted>
   9.000000E+99

> <Gold.Protein.RotatedTorsions>
[ 6907 6896 6895 6894 ] final    3.35 input  -60.11 | X-H torsion
[ 7974 7965 7964 7962 ] final -166.99 input  175.53 | X-H torsion
[ 8008 7997 7996 7995 ] final  -59.98 input   59.86 | X-H torsion
[ 10167 10162 10161 10158 ] final  -75.51 input  -65.29 | X-H torsion
[ 10718 10713 10712 10709 ] final -145.98 input   66.30 | X-H torsion
[ 10763 10752 10751 10750 ] final  178.48 input  -60.55 | X-H torsion
[ 11005 11000 10999 10996 ] final -164.21 input  -57.11 | X-H torsion

> <Gold.Protein.ActiveResidues>
 VAL166  LYS551  ARG553  GLY616  TRP617  ASP618  TYR619  PRO620  LYS621  CYS622 
 ASP623  PHE694  ASN695  SER759  ASP760  ASP761  ALA762  ILE779  LEU786  VAL792 
 PHE793  MET794  SER795  GLU796  ALA797  LYS798  CYS799  TRP800  GLU811  SER814 

> <Gold.Protein.RotatedAtoms>
  151.6237  135.1029  160.0106 H   0  0  0  0  0  0  0  0  0  0  0  0  # atno 6907 bound_to 6896
  152.4144  133.7010  159.6434 H   0  0  0  0  0  0  0  0  0  0  0  0  # atno 6908 bound_to 6896
  150.8032  133.8484  159.3239 H   0  0  0  0  0  0  0  0  0  0  0  0  # atno 6909 bound_to 6896
  144.7233  140.2584  143.6268 H   0  0  0  0  0  0  0  0  0  0  0  0  # atno 7974 bound_to 7965
  154.4377  140.1050  156.6201 H   0  0  0  0  0  0  0  0  0  0  0  0  # atno 8008 bound_to 7997
  155.5717  140.3489  155.4498 H   0  0  0  0  0  0  0  0  0  0  0  0  # atno 8009 bound_to 7997
  156.0385  140.1276  157.0171 H   0  0  0  0  0  0  0  0  0  0  0  0  # atno 8010 bound_to 7997
  140.4936  143.2375  151.7867 H   0  0  0  0  0  0  0  0  0  0  0  0  # atno 10167 bound_to 10162
  156.3892  130.7877  151.2077 H   0  0  0  0  0  0  0  0  0  0  0  0  # atno 10718 bound_to 10713
  154.5082  135.2787  155.1364 H   0  0  0  0  0  0  0  0  0  0  0  0  # atno 10763 bound_to 10752
  154.2970  135.6255  153.5412 H   0  0  0  0  0  0  0  0  0  0  0  0  # atno 10764 bound_to 10752
  152.9914  135.5688  154.5541 H   0  0  0  0  0  0  0  0  0  0  0  0  # atno 10765 bound_to 10752
  140.5895  134.5059  157.5190 H   0  0  0  0  0  0  0  0  0  0  0  0  # atno 11005 bound_to 11000
  145.8159  139.2023  143.1966 LP  0  0  0  0  0  0  0  0  0  0  0  0  # atno 17320 bound_to 7965
  146.0556  140.8025  142.9760 LP  0  0  0  0  0  0  0  0  0  0  0  0  # atno 17321 bound_to 7965
  139.4856  144.4616  151.9534 LP  0  0  0  0  0  0  0  0  0  0  0  0  # atno 17342 bound_to 10162
  140.3704  144.2863  150.5921 LP  0  0  0  0  0  0  0  0  0  0  0  0  # atno 17343 bound_to 10162
  157.7498  131.0320  150.4209 LP  0  0  0  0  0  0  0  0  0  0  0  0  # atno 17370 bound_to 10713
  156.4468  130.4003  149.6662 LP  0  0  0  0  0  0  0  0  0  0  0  0  # atno 17371 bound_to 10713
  139.9281  134.8017  156.1011 LP  0  0  0  0  0  0  0  0  0  0  0  0  # atno 17394 bound_to 11000
  141.0944  133.6701  156.2613 LP  0  0  0  0  0  0  0  0  0  0  0  0  # atno 17395 bound_to 11000

$$$$
