AV-unprocessed.smi:109|AV-procd|sdf|1050|dock3
  -GOLD-   2262018103D 1   1.00000     0.00000
 Structure written by MMmdl.
 58 61  0  0  0  0  0  0  0  0  1 V2000
  155.5738  139.6861  159.1240 O   0  0  0  0  0  0  0  0  0  0  0  0
  154.9156  139.6151  160.3703 C   0  0  0  0  0  0  0  0  0  0  0  0
  153.9984  140.8374  160.5489 C   0  0  0  0  0  0  0  0  0  0  0  0
  153.1294  141.1662  159.3095 C   0  0  1  0  0  0  0  0  0  0  0  0
  152.4108  139.9630  158.8824 N   0  0  0  0  0  0  0  0  0  0  0  0
  151.8461  139.8551  157.6585 C   0  0  0  0  0  0  0  0  0  0  0  0
  152.5984  139.6637  156.5449 N   0  0  0  0  0  0  0  0  0  0  0  0
  152.0098  139.5539  155.3523 C   0  0  0  0  0  0  0  0  0  0  0  0
  150.7099  139.6044  155.0588 N   0  0  0  0  0  0  0  0  0  0  0  0
  149.9406  139.7991  156.1699 C   0  0  0  0  0  0  0  0  0  0  0  0
  150.4385  139.9347  157.4977 C   0  0  0  0  0  0  0  0  0  0  0  0
  149.3858  140.1255  158.3797 N   0  0  0  0  0  0  0  0  0  0  0  0
  148.3292  140.1091  157.6145 C   0  0  0  0  0  0  0  0  0  0  0  0
  148.5616  139.9015  156.2718 N   0  0  0  0  0  0  0  0  0  0  0  0
  147.5089  139.8643  155.1952 C   0  0  1  0  0  0  0  0  0  0  0  0
  146.3146  140.3399  155.7273 O   0  0  0  0  0  0  0  0  0  0  0  0
  146.1866  141.7284  155.4586 C   0  0  2  0  0  0  0  0  0  0  0  0
  144.7041  142.1298  155.4940 C   0  0  0  0  0  0  0  0  0  0  0  0
  144.5572  143.4852  155.1274 O   0  0  0  0  0  0  0  0  0  0  0  0
  146.8225  141.8771  154.0663 C   0  0  1  0  0  0  0  0  0  0  0  0
  147.4644  143.1316  153.9581 O   0  0  0  0  0  0  0  0  0  0  0  0
  147.8404  140.7349  153.9716 C   0  0  2  0  0  0  0  0  0  0  0  0
  147.6546  140.0136  152.7703 O   0  0  0  0  0  0  0  0  0  0  0  0
  152.1119  142.3186  159.5503 C   0  0  0  0  0  0  0  0  0  0  0  0
  151.7534  143.0347  158.2220 C   0  0  0  0  0  0  0  0  0  0  0  0
  150.7552  144.1856  158.4221 C   0  0  0  0  0  0  0  0  0  0  0  0
  151.2884  145.2106  159.4295 C   0  0  0  0  0  0  0  0  0  0  0  0
  151.6243  144.5303  160.7619 C   0  0  0  0  0  0  0  0  0  0  0  0
  152.6163  143.3711  160.5700 C   0  0  0  0  0  0  0  0  0  0  0  0
  147.4202  138.8032  154.9579 H   0  0  0  0  0  0  0  0  0  0  0  0
  146.7501  142.2918  156.2027 H   0  0  0  0  0  0  0  0  0  0  0  0
  146.0606  141.7855  153.2902 H   0  0  0  0  0  0  0  0  0  0  0  0
  148.8772  141.0686  154.0039 H   0  0  0  0  0  0  0  0  0  0  0  0
  156.1893  138.9714  159.0676 H   0  0  0  0  0  0  0  0  0  0  0  0
  154.3376  138.6915  160.4121 H   0  0  0  0  0  0  0  0  0  0  0  0
  155.6691  139.5668  161.1564 H   0  0  0  0  0  0  0  0  0  0  0  0
  153.3572  140.6929  161.4196 H   0  0  0  0  0  0  0  0  0  0  0  0
  154.6459  141.6809  160.7814 H   0  0  0  0  0  0  0  0  0  0  0  0
  153.7988  141.5110  158.5215 H   0  0  0  0  0  0  0  0  0  0  0  0
  152.3264  139.2395  159.5817 H   0  0  0  0  0  0  0  0  0  0  0  0
  152.6743  139.4022  154.5146 H   0  0  0  0  0  0  0  0  0  0  0  0
  147.3357  140.2480  158.0155 H   0  0  0  0  0  0  0  0  0  0  0  0
  144.1393  141.5350  154.7751 H   0  0  0  0  0  0  0  0  0  0  0  0
  144.2666  141.9517  156.4767 H   0  0  0  0  0  0  0  0  0  0  0  0
  143.6761  143.7585  155.3328 H   0  0  0  0  0  0  0  0  0  0  0  0
  147.6829  143.4297  154.8287 H   0  0  0  0  0  0  0  0  0  0  0  0
  148.4004  140.1659  152.2105 H   0  0  0  0  0  0  0  0  0  0  0  0
  151.1963  141.8814  159.9523 H   0  0  0  0  0  0  0  0  0  0  0  0
  152.6622  143.4211  157.7586 H   0  0  0  0  0  0  0  0  0  0  0  0
  151.3233  142.3330  157.5071 H   0  0  0  0  0  0  0  0  0  0  0  0
  150.5547  144.6733  157.4678 H   0  0  0  0  0  0  0  0  0  0  0  0
  149.8022  143.7874  158.7726 H   0  0  0  0  0  0  0  0  0  0  0  0
  152.1795  145.6940  159.0269 H   0  0  0  0  0  0  0  0  0  0  0  0
  150.5511  145.9981  159.5874 H   0  0  0  0  0  0  0  0  0  0  0  0
  152.0385  145.2610  161.4570 H   0  0  0  0  0  0  0  0  0  0  0  0
  150.7090  144.1537  161.2201 H   0  0  0  0  0  0  0  0  0  0  0  0
  152.7790  142.9188  161.5468 H   0  0  0  0  0  0  0  0  0  0  0  0
  153.5800  143.7654  160.2451 H   0  0  0  0  0  0  0  0  0  0  0  0
  1  2  1  0  0  0  0
  1 34  1  0  0  0  0
  2  3  1  0  0  0  0
  2 35  1  0  0  0  0
  2 36  1  0  0  0  0
  3  4  1  0  0  0  0
  3 37  1  0  0  0  0
  3 38  1  0  0  0  0
  4  5  1  0  0  0  0
  4 24  1  0  0  0  0
  4 39  1  0  0  0  0
  5  6  1  0  0  0  0
  5 40  1  0  0  0  0
  6 11  1  0  0  0  0
  6  7  2  0  0  0  0
  7  8  1  0  0  0  0
  8  9  2  0  0  0  0
  8 41  1  0  0  0  0
  9 10  1  0  0  0  0
 10 14  1  0  0  0  0
 10 11  2  0  0  0  0
 11 12  1  0  0  0  0
 12 13  2  0  0  0  0
 13 14  1  0  0  0  0
 13 42  1  0  0  0  0
 14 15  1  0  0  0  0
 15 30  1  0  0  0  0
 15 22  1  0  0  0  0
 15 16  1  0  0  0  0
 16 17  1  0  0  0  0
 17 31  1  0  0  0  0
 17 18  1  0  0  0  0
 17 20  1  0  0  0  0
 18 19  1  0  0  0  0
 18 43  1  0  0  0  0
 18 44  1  0  0  0  0
 19 45  1  0  0  0  0
 20 32  1  0  0  0  0
 20 21  1  0  0  0  0
 20 22  1  0  0  0  0
 21 46  1  0  0  0  0
 22 33  1  0  0  0  0
 22 23  1  0  0  0  0
 23 47  1  0  0  0  0
 24 29  1  0  0  0  0
 24 25  1  0  0  0  0
 24 48  1  0  0  0  0
 25 26  1  0  0  0  0
 25 49  1  0  0  0  0
 25 50  1  0  0  0  0
 26 27  1  0  0  0  0
 26 51  1  0  0  0  0
 26 52  1  0  0  0  0
 27 28  1  0  0  0  0
 27 53  1  0  0  0  0
 27 54  1  0  0  0  0
 28 29  1  0  0  0  0
 28 55  1  0  0  0  0
 28 56  1  0  0  0  0
 29 57  1  0  0  0  0
 29 58  1  0  0  0  0
M  END
> <s_m_source_file>
AV-unprocessed.smi

> <i_m_source_file_index>
109

> <i_lp_mmshare_version>
43012

> <i_f3d_flags>
0

> <s_epik_input>
W0NIMl0xW0NIMl1bQ0gyXVtDSDJdW0NIMl1bQ0hdMVtDQEhdKFtDSDJdW0NIMl1bT0hdKVtOSF1jKG5bY0hdbjIpYyhjMjMpbltjSF1uM1tDQEBIXTRPW0NASF0oW0NIMl1bT0hdKVtDQEBIXShbT0hdKVtDQEhdNFtPSF0=

> <s_epik_cmdline>
J2VwaWtfcHl0aG9uJywgJy1waCcsICc3LjAnLCAnLXRuJywgJzgnLCAnLW1hJywgJzIwMCcsICctbWV0YWxfYmluZGluZycsICctaW1hZScsICc8aW5maWxlLm1hZT4nLCAnLW9tYWUnLCAnPG91dGZpbGUubWFlPic=

> <r_lp_tautomer_probability>
1

> <r_epik_Ionization_Penalty>
0.000793976

> <r_epik_Ionization_Penalty_Charging>
0

> <r_epik_Ionization_Penalty_Neutral>
0.000793976

> <r_epik_State_Penalty>
-0

> <r_epik_Charging_Adjusted_Penalty>
0

> <i_epik_Tot_Q>
0

> <i_epik_Tot_abs_Q>
0

> <r_epik_Metal_State_Penalty>
-0

> <b_epik_Metal_Only>
0

> <s_epik_Chemistry_Notes>
This compound contains an acetal/aminal-like group ( X-CH(R)-Y where X, Y are N, S, or O) that may be acid/base labile, releasing an aldehyde.

> <s_lp_Force_Field>
OPLS_2005

> <r_lp_Energy>
47.2869

> <b_lp_Chiralities_Consistent>
1

> <s_lp_Variant>
AV-unprocessed.smi:109-20

> <Gold.Version>
5.8.1

> <Gold.Id.Protein>
6NUR|6NUR_protein|mol2

> <Gold.PLP.Fitness>
57.3061

> <Gold.PLP.PLP>
-48.7812

> <Gold.PLP.part.hbond>
-6.4224

> <Gold.PLP.part.metal>
0.0000

> <Gold.PLP.part.buried>
-4.3309

> <Gold.PLP.part.nonpolar>
-38.6373

> <Gold.PLP.part.repulsive>
0.2122

> <Gold.PLP.ligand.clash>
0.0000

> <Gold.PLP.ligand.torsion>
1.8424

> <Gold.PLP.Chemscore.Hbond>
3.9440

> <Gold.PLP.Chemscore.CHOScore>
0.0000

> <Gold.PLP.Chemscore.Metal>
0.0000

> <Gold.Chemscore.Hbonds>
donor molecule, donor type, donor heavy atom, donor atom, acceptor molecule, acceptor atom, score
      L1  H    21    46       P1  8028  0.75
      L1  H    23    47       P1  7957  1.00
      P1  H  7997  8008       L1     7  1.00
      P1  H  7997  8010       L1     1  0.70

> <Gold.PLP.Chemscore.Internal.Correction>
0.3777

> <Gold.Rescore>
     Score         DG    S(hbond)    S(metal)    S(lipo)     H(rot)  DE(clash)    DE(int)     intcor
     13.44     -15.96       3.18        0.00     118.51       5.47       0.80       1.73       ----

> <Gold.Chemscore.Fitness>
13.4352

> <Gold.Chemscore.DG>
-15.9629

> <Gold.Chemscore.ZeroCoef>
-5.4800

> <Gold.Chemscore.Hbond>
3.1770

> <Gold.Chemscore.Metal>
0.0000

> <Gold.Chemscore.Lipo>
118.5058

> <Gold.Chemscore.Internal_Hbond>
0.0000

> <Gold.Chemscore.DEClash>
0.7996

> <Gold.Chemscore.DEInternal>
1.7281

> <Gold.Chemscore.Rot>
5.4662

> <Gold.Chemscore.Internal.Correction>
   9.000000E+99

> <Gold.Chemscore.Hbonds>
donor molecule, donor type, donor heavy atom, donor atom, acceptor molecule, acceptor atom, score
      L1  H    21    46       P1  8028  0.29
      L1  H    23    47       P1  7957  0.98
      P1  H  7997  8008       L1     7  0.49
      P1  H  7997  8010       L1     1  0.07

> <Gold.Chemscore.Hbond.Weighted>
-10.6112

> <Gold.Chemscore.Metal.Weighted>
-0.0000

> <Gold.Chemscore.Lipo.Weighted>
-13.8652

> <Gold.Chemscore.Internal_Hbond.Weighted>
0.0000

> <Gold.Chemscore.DEClash.Weighted>
0.7996

> <Gold.Chemscore.DEInternal.Weighted>
1.7281

> <Gold.Chemscore.Rot.Weighted>
13.9935

> <Gold.Chemscore.Internal.Correction.Weighted>
   9.000000E+99

> <Gold.Protein.RotatedTorsions>
[ 6907 6896 6895 6894 ] final   24.97 input  -60.11 | X-H torsion
[ 7974 7965 7964 7962 ] final  -68.78 input  175.53 | X-H torsion
[ 8008 7997 7996 7995 ] final  -31.93 input   59.86 | X-H torsion
[ 10167 10162 10161 10158 ] final  143.09 input  -65.29 | X-H torsion
[ 10718 10713 10712 10709 ] final  -25.90 input   66.30 | X-H torsion
[ 10763 10752 10751 10750 ] final   67.14 input  -60.55 | X-H torsion
[ 11005 11000 10999 10996 ] final -154.35 input  -57.11 | X-H torsion

> <Gold.Protein.ActiveResidues>
 VAL166  LYS551  ARG553  GLY616  TRP617  ASP618  TYR619  PRO620  LYS621  CYS622 
 ASP623  PHE694  ASN695  SER759  ASP760  ASP761  ALA762  ILE779  LEU786  VAL792 
 PHE793  MET794  SER795  GLU796  ALA797  LYS798  CYS799  TRP800  GLU811  SER814 

> <Gold.Protein.RotatedAtoms>
  151.9655  135.0103  160.0549 H   0  0  0  0  0  0  0  0  0  0  0  0  # atno 6907 bound_to 6896
  152.1831  133.4716  159.4976 H   0  0  0  0  0  0  0  0  0  0  0  0  # atno 6908 bound_to 6896
  150.6921  134.1726  159.4261 H   0  0  0  0  0  0  0  0  0  0  0  0  # atno 6909 bound_to 6896
  145.7122  140.9074  143.0675 H   0  0  0  0  0  0  0  0  0  0  0  0  # atno 7974 bound_to 7965
  154.4197  140.1751  156.1646 H   0  0  0  0  0  0  0  0  0  0  0  0  # atno 8008 bound_to 7997
  155.9810  140.3377  155.6639 H   0  0  0  0  0  0  0  0  0  0  0  0  # atno 8009 bound_to 7997
  155.6500  140.0689  157.2581 H   0  0  0  0  0  0  0  0  0  0  0  0  # atno 8010 bound_to 7997
  139.4978  144.6063  151.6370 H   0  0  0  0  0  0  0  0  0  0  0  0  # atno 10167 bound_to 10162
  156.4582  130.4498  149.6945 H   0  0  0  0  0  0  0  0  0  0  0  0  # atno 10718 bound_to 10713
  153.0172  135.5294  154.6934 H   0  0  0  0  0  0  0  0  0  0  0  0  # atno 10763 bound_to 10752
  154.6062  135.2873  155.0484 H   0  0  0  0  0  0  0  0  0  0  0  0  # atno 10764 bound_to 10752
  154.1522  135.6561  153.5018 H   0  0  0  0  0  0  0  0  0  0  0  0  # atno 10765 bound_to 10752
  140.6983  134.3965  157.5212 H   0  0  0  0  0  0  0  0  0  0  0  0  # atno 11005 bound_to 11000
  144.6939  139.9089  143.7462 LP  0  0  0  0  0  0  0  0  0  0  0  0  # atno 17320 bound_to 7965
  146.0702  139.3691  143.0527 LP  0  0  0  0  0  0  0  0  0  0  0  0  # atno 17321 bound_to 7965
  140.5726  144.0083  150.6225 LP  0  0  0  0  0  0  0  0  0  0  0  0  # atno 17342 bound_to 10162
  140.3205  143.3140  152.0788 LP  0  0  0  0  0  0  0  0  0  0  0  0  # atno 17343 bound_to 10162
  156.3744  130.7547  151.2533 LP  0  0  0  0  0  0  0  0  0  0  0  0  # atno 17370 bound_to 10713
  157.7499  131.0314  150.4179 LP  0  0  0  0  0  0  0  0  0  0  0  0  # atno 17371 bound_to 10713
  139.8904  134.8806  156.2373 LP  0  0  0  0  0  0  0  0  0  0  0  0  # atno 17394 bound_to 11000
  141.0185  133.7055  156.1228 LP  0  0  0  0  0  0  0  0  0  0  0  0  # atno 17395 bound_to 11000

$$$$
