AV-unprocessed.smi:2825|AV-procd|sdf|10890|dock2
  -GOLD-   2272015333D 1   1.00000     0.00000
 Structure written by MMmdl.
 49 50  0  0  0  0  0  0  0  0  2 V2000
  146.0334  134.6726  162.6515 C   0  0  0  0  0  0  0  0  0  0  0  0
  147.3738  134.0892  162.1938 C   0  0  0  0  0  0  0  0  0  0  0  0
  147.7222  134.4789  160.7495 C   0  0  0  0  0  0  0  0  0  0  0  0
  148.1571  136.2687  160.6050 S   0  0  0  0  0  0  0  0  0  0  0  0
  146.9051  137.0401  160.5730 O   0  0  0  0  0  0  0  0  0  0  0  0
  149.1969  136.5979  161.5929 O   0  0  0  0  0  0  0  0  0  0  0  0
  148.8715  136.3842  159.0243 N   0  0  0  0  0  0  0  0  0  0  0  0
  148.5613  135.3518  158.0253 C   0  0  0  0  0  0  0  0  0  0  0  0
  150.1111  137.1682  158.8276 C   0  0  0  0  0  0  0  0  0  0  0  0
  150.0096  138.2879  157.7634 C   0  0  2  0  0  0  0  0  0  0  0  0
  149.8979  137.7166  156.4762 O   0  0  0  0  0  0  0  0  0  0  0  0
  151.2678  139.1790  157.7759 C   0  0  0  0  0  0  0  0  0  0  0  0
  150.9627  140.5990  157.5549 N   0  0  0  0  0  0  0  0  0  0  0  0
  150.2626  141.2018  156.5558 C   0  0  0  0  0  0  0  0  0  0  0  0
  150.2608  142.5405  156.8064 N   0  3  0  0  0  0  0  0  0  0  0  0
  150.9704  142.7958  157.9820 C   0  0  0  0  0  0  0  0  0  0  0  0
  151.2437  143.9883  158.6416 C   0  0  0  0  0  0  0  0  0  0  0  0
  152.0015  143.9080  159.8320 C   0  0  0  0  0  0  0  0  0  0  0  0
  152.3191  145.1932  160.5774 C   0  0  0  0  0  0  0  0  0  0  0  0
  152.4593  142.6577  160.3235 C   0  0  0  0  0  0  0  0  0  0  0  0
  153.2740  142.5825  161.6037 C   0  0  0  0  0  0  0  0  0  0  0  0
  152.1694  141.4559  159.6388 C   0  0  0  0  0  0  0  0  0  0  0  0
  151.4228  141.5537  158.4674 C   0  0  0  0  0  0  0  0  0  0  0  0
  145.8117  134.3776  163.6775 H   0  0  0  0  0  0  0  0  0  0  0  0
  145.2157  134.3234  162.0203 H   0  0  0  0  0  0  0  0  0  0  0  0
  146.0456  135.7623  162.6138 H   0  0  0  0  0  0  0  0  0  0  0  0
  148.1624  134.4308  162.8650 H   0  0  0  0  0  0  0  0  0  0  0  0
  147.3421  133.0038  162.2872 H   0  0  0  0  0  0  0  0  0  0  0  0
  148.5445  133.8850  160.3524 H   0  0  0  0  0  0  0  0  0  0  0  0
  146.8606  134.2981  160.1067 H   0  0  0  0  0  0  0  0  0  0  0  0
  149.0902  134.4270  158.2560 H   0  0  0  0  0  0  0  0  0  0  0  0
  148.8418  135.6848  157.0257 H   0  0  0  0  0  0  0  0  0  0  0  0
  147.4921  135.1416  158.0124 H   0  0  0  0  0  0  0  0  0  0  0  0
  150.3480  137.6233  159.7899 H   0  0  0  0  0  0  0  0  0  0  0  0
  150.9477  136.5063  158.6036 H   0  0  0  0  0  0  0  0  0  0  0  0
  149.1436  138.9254  157.9352 H   0  0  0  0  0  0  0  0  0  0  0  0
  149.8117  138.4143  155.8447 H   0  0  0  0  0  0  0  0  0  0  0  0
  151.8027  139.0885  158.7222 H   0  0  0  0  0  0  0  0  0  0  0  0
  151.9654  138.8662  156.9974 H   0  0  0  0  0  0  0  0  0  0  0  0
  149.7910  140.7078  155.7184 H   0  0  0  0  0  0  0  0  0  0  0  0
  150.8922  144.9366  158.2617 H   0  0  0  0  0  0  0  0  0  0  0  0
  153.3946  145.3707  160.5890 H   0  0  0  0  0  0  0  0  0  0  0  0
  151.9656  145.1387  161.6070 H   0  0  0  0  0  0  0  0  0  0  0  0
  151.8430  146.0549  160.1085 H   0  0  0  0  0  0  0  0  0  0  0  0
  153.5923  141.5610  161.8141 H   0  0  0  0  0  0  0  0  0  0  0  0
  152.6841  142.9297  162.4523 H   0  0  0  0  0  0  0  0  0  0  0  0
  154.1693  143.1999  161.5269 H   0  0  0  0  0  0  0  0  0  0  0  0
  152.5149  140.5038  160.0137 H   0  0  0  0  0  0  0  0  0  0  0  0
  149.8072  143.2271  156.2173 H   0  0  0  0  0  0  0  0  0  0  0  0
  1  2  1  0  0  0  0
  1 24  1  0  0  0  0
  1 25  1  0  0  0  0
  1 26  1  0  0  0  0
  2  3  1  0  0  0  0
  2 27  1  0  0  0  0
  2 28  1  0  0  0  0
  3  4  1  0  0  0  0
  3 29  1  0  0  0  0
  3 30  1  0  0  0  0
  4  5  2  0  0  0  0
  4  6  2  0  0  0  0
  4  7  1  0  0  0  0
  7  8  1  0  0  0  0
  7  9  1  0  0  0  0
  8 31  1  0  0  0  0
  8 32  1  0  0  0  0
  8 33  1  0  0  0  0
  9 10  1  0  0  0  0
  9 34  1  0  0  0  0
  9 35  1  0  0  0  0
 10 11  1  0  0  0  0
 10 12  1  0  0  0  0
 10 36  1  0  0  0  0
 11 37  1  0  0  0  0
 12 13  1  0  0  0  0
 12 38  1  0  0  0  0
 12 39  1  0  0  0  0
 13 23  1  0  0  0  0
 13 14  1  0  0  0  0
 14 15  2  0  0  0  0
 14 40  1  0  0  0  0
 15 16  1  0  0  0  0
 15 49  1  0  0  0  0
 16 23  2  0  0  0  0
 16 17  1  0  0  0  0
 17 18  2  0  0  0  0
 17 41  1  0  0  0  0
 18 19  1  0  0  0  0
 18 20  1  0  0  0  0
 19 42  1  0  0  0  0
 19 43  1  0  0  0  0
 19 44  1  0  0  0  0
 20 21  1  0  0  0  0
 20 22  2  0  0  0  0
 21 45  1  0  0  0  0
 21 46  1  0  0  0  0
 21 47  1  0  0  0  0
 22 23  1  0  0  0  0
 22 48  1  0  0  0  0
M  CHG  1  15   1
M  END
> <s_m_source_file>
AV-unprocessed.smi

> <i_m_source_file_index>
2825

> <i_lp_mmshare_version>
43012

> <i_f3d_flags>
0

> <s_epik_input>
W0NIM11bQ0gyXVtDSDJdUyg9TykoPU8pTihbQ0gzXSlbQ0gyXVtDQEhdKFtPSF0pW0NIMl1uKFtjSF1uMSljKGMxMilbY0hdYyhbQ0gzXSljKFtjSF0yKVtDSDNd

> <s_epik_cmdline>
J2VwaWtfcHl0aG9uJywgJy1waCcsICc3LjAnLCAnLXRuJywgJzgnLCAnLW1hJywgJzIwMCcsICctbWV0YWxfYmluZGluZycsICctaW1hZScsICc8aW5maWxlLm1hZT4nLCAnLW9tYWUnLCAnPG91dGZpbGUubWFlPic=

> <r_epik_Ionization_Penalty>
1.0773

> <r_epik_Ionization_Penalty_Charging>
1.0773

> <r_epik_Ionization_Penalty_Neutral>
1.44651e-06

> <r_epik_State_Penalty>
1.13242

> <r_epik_Charging_Adjusted_Penalty>
2.20972

> <i_epik_Tot_Q>
1

> <i_epik_Tot_abs_Q>
1

> <r_epik_Metal_State_Penalty>
5.13045

> <b_epik_Metal_Only>
0

> <s_lp_Force_Field>
OPLS_2005

> <r_lp_Energy>
13.8299

> <b_lp_Chiralities_Consistent>
1

> <s_lp_Variant>
AV-unprocessed.smi:2825-3

> <Gold.Version>
5.8.1

> <Gold.Id.Protein>
6NUR|6NUR_protein|mol2

> <Gold.PLP.Fitness>
55.9209

> <Gold.PLP.PLP>
-45.8180

> <Gold.PLP.part.hbond>
-2.8872

> <Gold.PLP.part.metal>
0.0000

> <Gold.PLP.part.buried>
-4.6265

> <Gold.PLP.part.nonpolar>
-39.0948

> <Gold.PLP.part.repulsive>
0.0583

> <Gold.PLP.ligand.clash>
0.0000

> <Gold.PLP.ligand.torsion>
2.1674

> <Gold.PLP.Chemscore.Hbond>
3.9913

> <Gold.PLP.Chemscore.CHOScore>
0.0000

> <Gold.PLP.Chemscore.Metal>
0.0000

> <Gold.Chemscore.Hbonds>
donor molecule, donor type, donor heavy atom, donor atom, acceptor molecule, acceptor atom, score
      L1  H    15    49       P1  8028  2.00
      P1  H  6931  6943       L1     6  1.00
      P1  H  6934  6947       L1     5  0.99

> <Gold.PLP.Chemscore.Internal.Correction>
2.4640

> <Gold.Rescore>
     Score         DG    S(hbond)    S(metal)    S(lipo)     H(rot)  DE(clash)    DE(int)     intcor
     18.36     -20.57       2.46        0.00     113.52       2.51       0.16       2.04       ----

> <Gold.Chemscore.Fitness>
18.3624

> <Gold.Chemscore.DG>
-20.5679

> <Gold.Chemscore.ZeroCoef>
-5.4800

> <Gold.Chemscore.Hbond>
2.4649

> <Gold.Chemscore.Metal>
0.0000

> <Gold.Chemscore.Lipo>
113.5225

> <Gold.Chemscore.Internal_Hbond>
0.0000

> <Gold.Chemscore.DEClash>
0.1648

> <Gold.Chemscore.DEInternal>
2.0407

> <Gold.Chemscore.Rot>
2.5106

> <Gold.Chemscore.Internal.Correction>
   9.000000E+99

> <Gold.Chemscore.Hbonds>
donor molecule, donor type, donor heavy atom, donor atom, acceptor molecule, acceptor atom, score
      L1  H    15    49       P1  8028  1.00
      P1  H  6931  6943       L1     6  0.58
      P1  H  6934  6947       L1     5  0.80

> <Gold.Chemscore.Hbond.Weighted>
-8.2328

> <Gold.Chemscore.Metal.Weighted>
-0.0000

> <Gold.Chemscore.Lipo.Weighted>
-13.2821

> <Gold.Chemscore.Internal_Hbond.Weighted>
0.0000

> <Gold.Chemscore.DEClash.Weighted>
0.1648

> <Gold.Chemscore.DEInternal.Weighted>
2.0407

> <Gold.Chemscore.Rot.Weighted>
6.4271

> <Gold.Chemscore.Internal.Correction.Weighted>
   9.000000E+99

> <Gold.Protein.RotatedTorsions>
[ 6907 6896 6895 6894 ] final   71.10 input  -60.11 | X-H torsion
[ 7974 7965 7964 7962 ] final   64.59 input  175.53 | X-H torsion
[ 8008 7997 7996 7995 ] final  167.10 input   59.86 | X-H torsion
[ 10167 10162 10161 10158 ] final  111.70 input  -65.29 | X-H torsion
[ 10718 10713 10712 10709 ] final  -16.99 input   66.30 | X-H torsion
[ 10763 10752 10751 10750 ] final -137.00 input  -60.55 | X-H torsion
[ 11005 11000 10999 10996 ] final  144.27 input  -57.11 | X-H torsion

> <Gold.Protein.ActiveResidues>
 VAL166  LYS551  ARG553  GLY616  TRP617  ASP618  TYR619  PRO620  LYS621  CYS622 
 ASP623  PHE694  ASN695  SER759  ASP760  ASP761  ALA762  ILE779  LEU786  VAL792 
 PHE793  MET794  SER795  GLU796  ALA797  LYS798  CYS799  TRP800  GLU811  SER814 

> <Gold.Protein.RotatedAtoms>
  152.4790  134.4770  159.9653 H   0  0  0  0  0  0  0  0  0  0  0  0  # atno 6907 bound_to 6896
  151.4780  133.3547  159.2841 H   0  0  0  0  0  0  0  0  0  0  0  0  # atno 6908 bound_to 6896
  150.8848  134.8271  159.7312 H   0  0  0  0  0  0  0  0  0  0  0  0  # atno 6909 bound_to 6896
  145.8484  139.3238  143.0890 H   0  0  0  0  0  0  0  0  0  0  0  0  # atno 7974 bound_to 7965
  156.1662  140.1626  156.8527 H   0  0  0  0  0  0  0  0  0  0  0  0  # atno 8008 bound_to 7997
  154.5210  140.0778  156.8206 H   0  0  0  0  0  0  0  0  0  0  0  0  # atno 8009 bound_to 7997
  155.3606  140.3395  155.4243 H   0  0  0  0  0  0  0  0  0  0  0  0  # atno 8010 bound_to 7997
  139.6591  144.7129  151.1900 H   0  0  0  0  0  0  0  0  0  0  0  0  # atno 10167 bound_to 10162
  156.5798  130.4771  149.6325 H   0  0  0  0  0  0  0  0  0  0  0  0  # atno 10718 bound_to 10713
  154.8671  135.3655  154.5153 H   0  0  0  0  0  0  0  0  0  0  0  0  # atno 10763 bound_to 10752
  153.5786  135.7019  153.5478 H   0  0  0  0  0  0  0  0  0  0  0  0  # atno 10764 bound_to 10752
  153.3478  135.4080  155.1585 H   0  0  0  0  0  0  0  0  0  0  0  0  # atno 10765 bound_to 10752
  140.0619  134.9200  157.1199 H   0  0  0  0  0  0  0  0  0  0  0  0  # atno 11005 bound_to 11000
  145.9386  140.8996  143.0319 LP  0  0  0  0  0  0  0  0  0  0  0  0  # atno 17320 bound_to 7965
  144.6730  140.1517  143.7429 LP  0  0  0  0  0  0  0  0  0  0  0  0  # atno 17321 bound_to 7965
  140.7572  143.6024  150.8687 LP  0  0  0  0  0  0  0  0  0  0  0  0  # atno 17342 bound_to 10162
  139.9679  143.6089  152.2982 LP  0  0  0  0  0  0  0  0  0  0  0  0  # atno 17343 bound_to 10162
  156.2642  130.6979  151.1757 LP  0  0  0  0  0  0  0  0  0  0  0  0  # atno 17370 bound_to 10713
  157.7329  131.0595  150.5604 LP  0  0  0  0  0  0  0  0  0  0  0  0  # atno 17371 bound_to 10713
  140.3757  134.2342  155.7174 LP  0  0  0  0  0  0  0  0  0  0  0  0  # atno 17394 bound_to 11000
  141.1977  133.8053  157.0617 LP  0  0  0  0  0  0  0  0  0  0  0  0  # atno 17395 bound_to 11000

$$$$
