#       Name:                AV-unprocessed.smi:19
#       Creating user name   scv26
#       Creation time:       Thu Mar 26 15:27:27 2020


#       File generated by GOLD software.
#

@<TRIPOS>MOLECULE
AV-unprocessed.smi:19
    69    72     1
SMALL
NO_CHARGES


@<TRIPOS>ATOM
      1 ****        -6.5907  -1.4369   5.2430 C.3            1 S1                 0.0000
      2 ****        -5.9634  -1.1462   4.0064 O.3            1 S1                 0.0000
      3 ****        -4.5593  -0.9924   4.1320 C.3            1 S1                 0.0000
      4 ****        -3.9596  -0.6990   2.7508 C.3            1 S1                 0.0000
      5 ****        -2.4237  -0.8173   2.7571 C.3            1 S1                 0.0000
      6 ****        -1.8820  -0.4289   1.4572 N.3            1 S1                 0.0000
      7 ****        -0.5786  -0.7061   1.1985 C.ar           1 S1                 0.0000
      8 ****         0.2802  -0.9573   2.2232 N.ar           1 S1                 0.0000
      9 ****         1.5664  -1.2230   1.9775 C.ar           1 S1                 0.0000
     10 ****         2.1947  -1.2888   0.8024 N.ar           1 S1                 0.0000
     11 ****         1.3397  -1.0428  -0.2308 C.ar           1 S1                 0.0000
     12 ****        -0.0496  -0.7507  -0.1227 C.ar           1 S1                 0.0000
     13 ****        -0.5958  -0.5841  -1.3897 N.2            1 S1                 0.0000
     14 ****         0.4131  -0.7585  -2.1980 C.2            1 S1                 0.0000
     15 ****         1.6189  -1.0204  -1.5870 N.pl3          1 S1                 0.0000
     16 ****         2.8966  -1.2573  -2.2447 C.3            1 S1                 0.0000
     17 ****         3.6981   0.0291  -2.6051 C.3            1 S1                 0.0000
     18 ****         4.0022   0.8664  -1.3295 C.3            1 S1                 0.0000
     19 ****         4.7666   0.1467  -0.3836 O.3            1 S1                 0.0000
     20 ****         5.0024  -0.3970  -3.3255 C.3            1 S1                 0.0000
     21 ****         5.7384   0.7830  -3.9840 C.3            1 S1                 0.0000
     22 ****         4.8718   1.4391  -4.9000 O.3            1 S1                 0.0000
     23 ****         3.7290   2.0005  -4.2690 C.3            1 S1                 0.0000
     24 ****         2.8888   0.8920  -3.6072 C.3            1 S1                 0.0000
     25 ****        -2.3262   0.8922   1.0261 C.3            1 S1                 0.0000
     26 ****        -3.8625   0.9778   1.0749 C.3            1 S1                 0.0000
     27 ****        -4.3713   2.3851   0.7459 C.3            1 S1                 0.0000
     28 ****        -4.3060   0.6351   2.3853 O.3            1 S1                 0.0000
     29 ****        -7.6657  -1.5373   5.0943 H              1 S1                 0.0000
     30 ****        -6.4241  -0.6388   5.9675 H              1 S1                 0.0000
     31 ****        -6.2203  -2.3733   5.6621 H              1 S1                 0.0000
     32 ****        -4.3155  -0.1931   4.8340 H              1 S1                 0.0000
     33 ****        -4.1358  -1.9170   4.5278 H              1 S1                 0.0000
     34 ****        -4.3744  -1.4023   2.0261 H              1 S1                 0.0000
     35 ****        -2.0025  -0.1753   3.5323 H              1 S1                 0.0000
     36 ****        -2.1351  -1.8434   2.9898 H              1 S1                 0.0000
     37 ****         2.1802  -1.4073   2.8469 H              1 S1                 0.0000
     38 ****         0.3046  -0.6954  -3.2710 H              1 S1                 0.0000
     39 ****         3.4928  -1.9089  -1.6047 H              1 S1                 0.0000
     40 ****         2.6976  -1.8389  -3.1460 H              1 S1                 0.0000
     41 ****         4.5528   1.7748  -1.5676 H              1 S1                 0.0000
     42 ****         3.0804   1.1940  -0.8487 H              1 S1                 0.0000
     43 ****         4.2547  -0.5892  -0.0824 H              1 S1                 0.0000
     44 ****         5.6734  -0.9151  -2.6398 H              1 S1                 0.0000
     45 ****         4.7647  -1.1196  -4.1075 H              1 S1                 0.0000
     46 ****         6.1137   1.4889  -3.2424 H              1 S1                 0.0000
     47 ****         6.6066   0.4167  -4.5317 H              1 S1                 0.0000
     48 ****         4.0319   2.7610  -3.5488 H              1 S1                 0.0000
     49 ****         3.1335   2.5126  -5.0249 H              1 S1                 0.0000
     50 ****         2.4913   0.2531  -4.3971 H              1 S1                 0.0000
     51 ****         2.0254   1.3430  -3.1173 H              1 S1                 0.0000
     52 ****        -1.8867   1.6422   1.6853 H              1 S1                 0.0000
     53 ****        -1.9830   1.1196   0.0176 H              1 S1                 0.0000
     54 ****        -4.2917   0.2768   0.3567 H              1 S1                 0.0000
     55 ****        -4.0563   2.6933  -0.2513 H              1 S1                 0.0000
     56 ****        -3.9927   3.1183   1.4586 H              1 S1                 0.0000
     57 ****        -5.4605   2.4225   0.7763 H              1 S1                 0.0000
     58 ****        -6.3477  -0.2973   3.6438 LP             1 S1                 0.0000
     59 ****        -6.1482  -1.8946   3.3695 LP             1 S1                 0.0000
     60 ****        -2.3145  -1.0901   0.8442 LP             1 S1                 0.0000
     61 ****        -0.0531  -0.9431   3.1660 LP             1 S1                 0.0000
     62 ****         3.1677  -1.4924   0.6934 LP             1 S1                 0.0000
     63 ****        -1.5449  -0.3778  -1.6273 LP             1 S1                 0.0000
     64 ****         4.9924   0.7396   0.3894 LP             1 S1                 0.0000
     65 ****         5.6099  -0.1807  -0.8099 LP             1 S1                 0.0000
     66 ****         4.5664   0.7753  -5.5827 LP             1 S1                 0.0000
     67 ****         5.3801   2.1722  -5.3519 LP             1 S1                 0.0000
     68 ****        -3.8879   1.2651   3.0398 LP             1 S1                 0.0000
     69 ****        -5.3009   0.7288   2.4213 LP             1 S1                 0.0000
@<TRIPOS>BOND
    1    1    2 1     
    2    1   29 1     
    3    1   30 1     
    4    1   31 1     
    5    2    3 1     
    6    3    4 1     
    7    3   32 1     
    8    3   33 1     
    9    4   28 1     
   10    4    5 1     
   11    4   34 1     
   12    5    6 1     
   13    5   35 1     
   14    5   36 1     
   15    6    7 1     
   16    6   25 1     
   17    7   12 ar    
   18    7    8 ar    
   19    8    9 ar    
   20    9   10 ar    
   21    9   37 1     
   22   10   11 ar    
   23   11   15 1     
   24   11   12 ar    
   25   12   13 1     
   26   13   14 2     
   27   14   15 1     
   28   14   38 1     
   29   15   16 1     
   30   16   17 1     
   31   16   39 1     
   32   16   40 1     
   33   17   24 1     
   34   17   18 1     
   35   17   20 1     
   36   18   19 1     
   37   18   41 1     
   38   18   42 1     
   39   19   43 1     
   40   20   21 1     
   41   20   44 1     
   42   20   45 1     
   43   21   22 1     
   44   21   46 1     
   45   21   47 1     
   46   22   23 1     
   47   23   24 1     
   48   23   48 1     
   49   23   49 1     
   50   24   50 1     
   51   24   51 1     
   52   25   26 1     
   53   25   52 1     
   54   25   53 1     
   55   26   27 1     
   56   26   28 1     
   57   26   54 1     
   58   27   55 1     
   59   27   56 1     
   60   27   57 1     
   61    2   58 1     
   62    2   59 1     
   63    6   60 1     
   64    8   61 1     
   65   10   62 1     
   66   13   63 1     
   67   19   64 1     
   68   19   65 1     
   69   22   66 1     
   70   22   67 1     
   71   28   68 1     
   72   28   69 1     
@<TRIPOS>SUBSTRUCTURE
      1 S1             1
@<TRIPOS>SET
LONE_PAIRS      STATIC     ATOMS    <user>   **** ""
12 58 59 60 61 62 63 64 65 66 67 68 69
DONOR_HYDROGENS      STATIC     ATOMS    <user>   **** ""
1 43
ATOM$BLUE        STATIC     ATOMS    COLORGROUP SYSTEM
12 58 59 60 61 62 63 64 65 66 67 68 69
ATOM$RED        STATIC     ATOMS    COLORGROUP SYSTEM
1 43
