AV-unprocessed.smi:1525|AV-procd|sdf|6141|dock8
  -GOLD-   22720 6283D 1   1.00000     0.00000
 Structure written by MMmdl.
 48 50  0  0  0  0  0  0  0  0  1 V2000
  151.1231  135.1527  155.7873 O   0  0  0  0  0  0  0  0  0  0  0  0
  150.4507  135.4970  154.8156 C   0  0  0  0  0  0  0  0  0  0  0  0
  150.4575  136.7389  154.3107 N   0  0  0  0  0  0  0  0  0  0  0  0
  151.2137  137.8651  154.8496 C   0  0  0  0  0  0  0  0  0  0  0  0
  150.3331  139.1222  154.9946 C   0  0  0  0  0  0  0  0  0  0  0  0
  150.3461  139.7528  156.3147 N   0  0  0  0  0  0  0  0  0  0  0  0
  151.6659  139.7249  156.9412 C   0  0  0  0  0  0  0  0  0  0  0  0
  151.6533  140.3939  158.3264 C   0  0  0  0  0  0  0  0  0  0  0  0
  151.1768  141.7306  158.2072 O   0  0  0  0  0  0  0  0  0  0  0  0
  149.8745  141.8006  157.6352 C   0  0  0  0  0  0  0  0  0  0  0  0
  149.8841  141.1343  156.2482 C   0  0  0  0  0  0  0  0  0  0  0  0
  149.6060  134.7044  154.1347 N   0  0  0  0  0  0  0  0  0  0  0  0
  149.2423  133.3528  154.4006 C   0  0  0  0  0  0  0  0  0  0  0  0
  150.0503  132.4989  155.1918 C   0  0  0  0  0  0  0  0  0  0  0  0
  149.6255  131.1829  155.4423 C   0  0  0  0  0  0  0  0  0  0  0  0
  148.4058  130.7618  154.8884 C   0  0  0  0  0  0  0  0  0  0  0  0
  147.6360  131.5532  154.1154 N   0  0  0  0  0  0  0  0  0  0  0  0
  148.0392  132.8208  153.8525 C   0  0  0  0  0  0  0  0  0  0  0  0
  147.2026  133.5953  153.0160 N   0  0  0  0  0  0  0  0  0  0  0  0
  147.2034  133.3006  151.5862 C   0  0  0  0  0  0  0  0  0  0  0  0
  145.7612  133.4897  151.1035 C   0  0  0  0  0  0  0  0  0  0  0  0
  145.1431  134.3969  152.1624 C   0  0  0  0  0  0  0  0  0  0  0  0
  145.8472  133.9368  153.4353 C   0  0  0  0  0  0  0  0  0  0  0  0
  149.8712  136.9288  153.5114 H   0  0  0  0  0  0  0  0  0  0  0  0
  151.7072  137.6025  155.7857 H   0  0  0  0  0  0  0  0  0  0  0  0
  152.0176  138.0790  154.1450 H   0  0  0  0  0  0  0  0  0  0  0  0
  150.6289  139.8542  154.2418 H   0  0  0  0  0  0  0  0  0  0  0  0
  149.3094  138.8398  154.7443 H   0  0  0  0  0  0  0  0  0  0  0  0
  152.0142  138.6991  157.0539 H   0  0  0  0  0  0  0  0  0  0  0  0
  152.3907  140.2314  156.3019 H   0  0  0  0  0  0  0  0  0  0  0  0
  151.0214  139.8345  159.0183 H   0  0  0  0  0  0  0  0  0  0  0  0
  152.6575  140.4088  158.7500 H   0  0  0  0  0  0  0  0  0  0  0  0
  149.1538  141.3122  158.2929 H   0  0  0  0  0  0  0  0  0  0  0  0
  149.5767  142.8459  157.5526 H   0  0  0  0  0  0  0  0  0  0  0  0
  150.5248  141.7076  155.5762 H   0  0  0  0  0  0  0  0  0  0  0  0
  148.8787  141.1690  155.8271 H   0  0  0  0  0  0  0  0  0  0  0  0
  149.0683  135.1563  153.4098 H   0  0  0  0  0  0  0  0  0  0  0  0
  150.9915  132.8251  155.6059 H   0  0  0  0  0  0  0  0  0  0  0  0
  150.2201  130.5142  156.0472 H   0  0  0  0  0  0  0  0  0  0  0  0
  148.0414  129.7604  155.0629 H   0  0  0  0  0  0  0  0  0  0  0  0
  147.8582  134.0118  151.0824 H   0  0  0  0  0  0  0  0  0  0  0  0
  147.5668  132.2945  151.3728 H   0  0  0  0  0  0  0  0  0  0  0  0
  145.7021  133.9060  150.0979 H   0  0  0  0  0  0  0  0  0  0  0  0
  145.2459  132.5282  151.1009 H   0  0  0  0  0  0  0  0  0  0  0  0
  145.3917  135.4381  151.9526 H   0  0  0  0  0  0  0  0  0  0  0  0
  144.0577  134.3105  152.2213 H   0  0  0  0  0  0  0  0  0  0  0  0
  145.3316  133.0635  153.8371 H   0  0  0  0  0  0  0  0  0  0  0  0
  145.8522  134.7149  154.1990 H   0  0  0  0  0  0  0  0  0  0  0  0
  1  2  2  0  0  0  0
  2  3  1  0  0  0  0
  2 12  1  0  0  0  0
  3  4  1  0  0  0  0
  3 24  1  0  0  0  0
  4  5  1  0  0  0  0
  4 25  1  0  0  0  0
  4 26  1  0  0  0  0
  5  6  1  0  0  0  0
  5 27  1  0  0  0  0
  5 28  1  0  0  0  0
  6 11  1  0  0  0  0
  6  7  1  0  0  0  0
  7  8  1  0  0  0  0
  7 29  1  0  0  0  0
  7 30  1  0  0  0  0
  8  9  1  0  0  0  0
  8 31  1  0  0  0  0
  8 32  1  0  0  0  0
  9 10  1  0  0  0  0
 10 11  1  0  0  0  0
 10 33  1  0  0  0  0
 10 34  1  0  0  0  0
 11 35  1  0  0  0  0
 11 36  1  0  0  0  0
 12 13  1  0  0  0  0
 12 37  1  0  0  0  0
 13 18  1  0  0  0  0
 13 14  2  0  0  0  0
 14 15  1  0  0  0  0
 14 38  1  0  0  0  0
 15 16  2  0  0  0  0
 15 39  1  0  0  0  0
 16 17  1  0  0  0  0
 16 40  1  0  0  0  0
 17 18  2  0  0  0  0
 18 19  1  0  0  0  0
 19 23  1  0  0  0  0
 19 20  1  0  0  0  0
 20 21  1  0  0  0  0
 20 41  1  0  0  0  0
 20 42  1  0  0  0  0
 21 22  1  0  0  0  0
 21 43  1  0  0  0  0
 21 44  1  0  0  0  0
 22 23  1  0  0  0  0
 22 45  1  0  0  0  0
 22 46  1  0  0  0  0
 23 47  1  0  0  0  0
 23 48  1  0  0  0  0
M  END
> <s_m_source_file>
AV-unprocessed.smi

> <i_m_source_file_index>
1525

> <i_lp_mmshare_version>
43012

> <i_f3d_flags>
0

> <s_epik_input>
W0NIMl0xW0NIMl1PW0NIMl1bQ0gyXU4xW0NIMl1bQ0gyXVtOSF1DKD1PKVtOSF1jMltjSF1bY0hdW2NIXW5jMk4zW0NIMl1bQ0gyXVtDSDJdW0NIMl0z

> <s_epik_cmdline>
J2VwaWtfcHl0aG9uJywgJy1waCcsICc3LjAnLCAnLXRuJywgJzgnLCAnLW1hJywgJzIwMCcsICctbWV0YWxfYmluZGluZycsICctaW1hZScsICc8aW5maWxlLm1hZT4nLCAnLW9tYWUnLCAnPG91dGZpbGUubWFlPic=

> <r_lp_tautomer_probability>
1

> <r_epik_Ionization_Penalty>
0.363951

> <r_epik_Ionization_Penalty_Charging>
0

> <r_epik_Ionization_Penalty_Neutral>
0.363951

> <r_epik_State_Penalty>
0.349372

> <r_epik_Charging_Adjusted_Penalty>
0.349372

> <i_epik_Tot_Q>
0

> <i_epik_Tot_abs_Q>
0

> <r_epik_Metal_State_Penalty>
0.33306

> <b_epik_Metal_Only>
0

> <s_lp_Force_Field>
OPLS_2005

> <r_lp_Energy>
53.9404

> <b_lp_Chiralities_Consistent>
1

> <s_lp_Variant>
AV-unprocessed.smi:1525-1

> <Gold.Version>
5.8.1

> <Gold.Id.Protein>
6NUR|6NUR_protein|mol2

> <Gold.PLP.Fitness>
42.5760

> <Gold.PLP.PLP>
-35.3384

> <Gold.PLP.part.hbond>
-4.7323

> <Gold.PLP.part.metal>
0.0000

> <Gold.PLP.part.buried>
-1.0542

> <Gold.PLP.part.nonpolar>
-29.4371

> <Gold.PLP.part.repulsive>
0.4069

> <Gold.PLP.ligand.clash>
0.0000

> <Gold.PLP.ligand.torsion>
0.9104

> <Gold.PLP.Chemscore.Hbond>
2.8940

> <Gold.PLP.Chemscore.CHOScore>
0.0000

> <Gold.PLP.Chemscore.Metal>
0.0000

> <Gold.Chemscore.Hbonds>
donor molecule, donor type, donor heavy atom, donor atom, acceptor molecule, acceptor atom, score
      L1  H     3    24       P1  7948  0.94
      L1  H    12    37       P1  7948  0.99
      P1  H 10752 10764       L1     1  0.70

> <Gold.PLP.Chemscore.Internal.Correction>
0.3765

> <Gold.Rescore>
     Score         DG    S(hbond)    S(metal)    S(lipo)     H(rot)  DE(clash)    DE(int)     intcor
     14.16     -16.77       2.01        0.00      73.98       1.60       0.27       2.34       ----

> <Gold.Chemscore.Fitness>
14.1565

> <Gold.Chemscore.DG>
-16.7665

> <Gold.Chemscore.ZeroCoef>
-5.4800

> <Gold.Chemscore.Hbond>
2.0140

> <Gold.Chemscore.Metal>
0.0000

> <Gold.Chemscore.Lipo>
73.9769

> <Gold.Chemscore.Internal_Hbond>
0.0000

> <Gold.Chemscore.DEClash>
0.2741

> <Gold.Chemscore.DEInternal>
2.3359

> <Gold.Chemscore.Rot>
1.5998

> <Gold.Chemscore.Internal.Correction>
   9.000000E+99

> <Gold.Chemscore.Hbonds>
donor molecule, donor type, donor heavy atom, donor atom, acceptor molecule, acceptor atom, score
      L1  H     3    24       P1  7948  0.35
      L1  H    12    37       P1  7948  0.33
      P1  H 10752 10764       L1     1  0.17

> <Gold.Chemscore.Hbond.Weighted>
-6.7268

> <Gold.Chemscore.Metal.Weighted>
-0.0000

> <Gold.Chemscore.Lipo.Weighted>
-8.6553

> <Gold.Chemscore.Internal_Hbond.Weighted>
0.0000

> <Gold.Chemscore.DEClash.Weighted>
0.2741

> <Gold.Chemscore.DEInternal.Weighted>
2.3359

> <Gold.Chemscore.Rot.Weighted>
4.0956

> <Gold.Chemscore.Internal.Correction.Weighted>
   9.000000E+99

> <Gold.Protein.RotatedTorsions>
[ 6907 6896 6895 6894 ] final   65.05 input  -60.11 | X-H torsion
[ 7974 7965 7964 7962 ] final  -25.06 input  175.53 | X-H torsion
[ 8008 7997 7996 7995 ] final   91.47 input   59.86 | X-H torsion
[ 10167 10162 10161 10158 ] final   -0.42 input  -65.29 | X-H torsion
[ 10718 10713 10712 10709 ] final  142.29 input   66.30 | X-H torsion
[ 10763 10752 10751 10750 ] final  -31.99 input  -60.55 | X-H torsion
[ 11005 11000 10999 10996 ] final  120.02 input  -57.11 | X-H torsion

> <Gold.Protein.ActiveResidues>
 VAL166  LYS551  ARG553  GLY616  TRP617  ASP618  TYR619  PRO620  LYS621  CYS622 
 ASP623  PHE694  ASN695  SER759  ASP760  ASP761  ALA762  ILE779  LEU786  VAL792 
 PHE793  MET794  SER795  GLU796  ALA797  LYS798  CYS799  TRP800  GLU811  SER814 

> <Gold.Protein.RotatedAtoms>
  152.4378  134.5651  159.9905 H   0  0  0  0  0  0  0  0  0  0  0  0  # atno 6907 bound_to 6896
  151.5757  133.3378  159.3006 H   0  0  0  0  0  0  0  0  0  0  0  0  # atno 6908 bound_to 6896
  150.8279  134.7553  159.6893 H   0  0  0  0  0  0  0  0  0  0  0  0  # atno 6909 bound_to 6896
  146.1515  140.4835  142.8609 H   0  0  0  0  0  0  0  0  0  0  0  0  # atno 7974 bound_to 7965
  156.0241  140.3337  155.7070 H   0  0  0  0  0  0  0  0  0  0  0  0  # atno 8008 bound_to 7997
  155.5979  140.0653  157.2758 H   0  0  0  0  0  0  0  0  0  0  0  0  # atno 8009 bound_to 7997
  154.4327  140.1815  156.1131 H   0  0  0  0  0  0  0  0  0  0  0  0  # atno 8010 bound_to 7997
  140.6766  143.6896  150.8038 H   0  0  0  0  0  0  0  0  0  0  0  0  # atno 10167 bound_to 10162
  157.3822  131.0993  151.0727 H   0  0  0  0  0  0  0  0  0  0  0  0  # atno 10718 bound_to 10713
  153.8064  135.6886  153.4847 H   0  0  0  0  0  0  0  0  0  0  0  0  # atno 10763 bound_to 10752
  153.1656  135.4563  154.9831 H   0  0  0  0  0  0  0  0  0  0  0  0  # atno 10764 bound_to 10752
  154.7985  135.3328  154.7548 H   0  0  0  0  0  0  0  0  0  0  0  0  # atno 10765 bound_to 10752
  139.9169  134.9632  156.7743 H   0  0  0  0  0  0  0  0  0  0  0  0  # atno 11005 bound_to 11000
  144.7910  140.6032  143.6541 LP  0  0  0  0  0  0  0  0  0  0  0  0  # atno 17320 bound_to 7965
  145.4811  139.1495  143.3761 LP  0  0  0  0  0  0  0  0  0  0  0  0  # atno 17321 bound_to 7965
  140.0590  143.5173  152.2637 LP  0  0  0  0  0  0  0  0  0  0  0  0  # atno 17342 bound_to 10162
  139.6063  144.7597  151.3054 LP  0  0  0  0  0  0  0  0  0  0  0  0  # atno 17343 bound_to 10162
  157.1792  130.6302  149.5666 LP  0  0  0  0  0  0  0  0  0  0  0  0  # atno 17370 bound_to 10713
  155.9778  130.4759  150.6618 LP  0  0  0  0  0  0  0  0  0  0  0  0  # atno 17371 bound_to 10713
  140.6595  133.9658  155.7797 LP  0  0  0  0  0  0  0  0  0  0  0  0  # atno 17394 bound_to 11000
  141.0653  134.0286  157.3602 LP  0  0  0  0  0  0  0  0  0  0  0  0  # atno 17395 bound_to 11000

$$$$
