AV-unprocessed.smi:1006|AV-procd|sdf|4392|dock7
  -GOLD-   22720 2323D 1   1.00000     0.00000
 Structure written by MMmdl.
 46 48  0  0  0  0  0  0  0  0  2 V2000
  146.2486  135.3127  150.5706 C   0  0  0  0  0  0  0  0  0  0  0  0
  145.9147  136.1411  151.7931 C   0  0  0  0  0  0  0  0  0  0  0  0
  144.6399  136.1080  152.3942 C   0  0  0  0  0  0  0  0  0  0  0  0
  144.4511  136.9202  153.5260 C   0  0  0  0  0  0  0  0  0  0  0  0
  143.2269  136.9510  154.1887 N   0  0  0  0  0  0  0  0  0  0  0  0
  145.4424  137.6939  154.0106 N   0  0  0  0  0  0  0  0  0  0  0  0
  146.6299  137.6788  153.3910 C   0  0  0  0  0  0  0  0  0  0  0  0
  147.9650  138.6787  154.0238 S   0  0  0  0  0  0  0  0  0  0  0  0
  147.2757  140.3611  153.9335 C   0  0  0  0  0  0  0  0  0  0  0  0
  147.8719  141.2860  155.0068 C   0  0  2  0  0  0  0  0  0  0  0  0
  147.0595  142.4388  155.1232 O   0  0  0  0  0  0  0  0  0  0  0  0
  149.3173  141.7010  154.6712 C   0  0  0  0  0  0  0  0  0  0  0  0
  150.2674  141.2831  155.6872 N   0  0  0  0  0  0  0  0  0  0  0  0
  150.8647  140.0806  155.7928 C   0  0  0  0  0  0  0  0  0  0  0  0
  151.7073  139.9055  156.8066 N   0  0  0  0  0  0  0  0  0  0  0  0
  151.6516  141.1397  157.4314 C   0  0  0  0  0  0  0  0  0  0  0  0
  152.3197  141.6161  158.5807 C   0  0  0  0  0  0  0  0  0  0  0  0
  152.1107  142.9336  159.0470 C   0  0  0  0  0  0  0  0  0  0  0  0
  152.8519  143.4051  160.2857 C   0  0  0  0  0  0  0  0  0  0  0  0
  151.2195  143.7969  158.3604 C   0  0  0  0  0  0  0  0  0  0  0  0
  150.9802  145.2170  158.8417 C   0  0  0  0  0  0  0  0  0  0  0  0
  150.5426  143.3365  157.2115 C   0  0  0  0  0  0  0  0  0  0  0  0
  150.7606  142.0243  156.7559 C   0  0  0  0  0  0  0  0  0  0  0  0
  146.8904  136.9295  152.3102 N   0  3  0  0  0  0  0  0  0  0  0  0
  145.3505  134.8675  150.1415 H   0  0  0  0  0  0  0  0  0  0  0  0
  146.9362  134.5087  150.8346 H   0  0  0  0  0  0  0  0  0  0  0  0
  146.7187  135.9312  149.8055 H   0  0  0  0  0  0  0  0  0  0  0  0
  143.8461  135.4869  152.0040 H   0  0  0  0  0  0  0  0  0  0  0  0
  142.4421  136.3956  153.8799 H   0  0  0  0  0  0  0  0  0  0  0  0
  143.0884  137.5178  155.0132 H   0  0  0  0  0  0  0  0  0  0  0  0
  147.4897  140.7611  152.9417 H   0  0  0  0  0  0  0  0  0  0  0  0
  146.1907  140.3208  154.0368 H   0  0  0  0  0  0  0  0  0  0  0  0
  147.8668  140.7701  155.9680 H   0  0  0  0  0  0  0  0  0  0  0  0
  147.6174  143.1862  155.2756 H   0  0  0  0  0  0  0  0  0  0  0  0
  149.6232  141.2639  153.7200 H   0  0  0  0  0  0  0  0  0  0  0  0
  149.3857  142.7831  154.5517 H   0  0  0  0  0  0  0  0  0  0  0  0
  150.6683  139.2881  155.0856 H   0  0  0  0  0  0  0  0  0  0  0  0
  152.9983  140.9580  159.1032 H   0  0  0  0  0  0  0  0  0  0  0  0
  153.4954  144.2515  160.0453 H   0  0  0  0  0  0  0  0  0  0  0  0
  153.4786  142.6149  160.7000 H   0  0  0  0  0  0  0  0  0  0  0  0
  152.1480  143.7130  161.0592 H   0  0  0  0  0  0  0  0  0  0  0  0
  150.2641  145.7374  158.2051 H   0  0  0  0  0  0  0  0  0  0  0  0
  151.9108  145.7850  158.8325 H   0  0  0  0  0  0  0  0  0  0  0  0
  150.5846  145.2154  159.8577 H   0  0  0  0  0  0  0  0  0  0  0  0
  149.8590  143.9829  156.6809 H   0  0  0  0  0  0  0  0  0  0  0  0
  147.8122  136.9471  151.8736 H   0  0  0  0  0  0  0  0  0  0  0  0
  1  2  1  0  0  0  0
  1 25  1  0  0  0  0
  1 26  1  0  0  0  0
  1 27  1  0  0  0  0
  2 24  1  0  0  0  0
  2  3  2  0  0  0  0
  3  4  1  0  0  0  0
  3 28  1  0  0  0  0
  4  5  1  0  0  0  0
  4  6  2  0  0  0  0
  5 29  1  0  0  0  0
  5 30  1  0  0  0  0
  6  7  1  0  0  0  0
  7  8  1  0  0  0  0
  7 24  2  0  0  0  0
  8  9  1  0  0  0  0
  9 10  1  0  0  0  0
  9 31  1  0  0  0  0
  9 32  1  0  0  0  0
 10 11  1  0  0  0  0
 10 12  1  0  0  0  0
 10 33  1  0  0  0  0
 11 34  1  0  0  0  0
 12 13  1  0  0  0  0
 12 35  1  0  0  0  0
 12 36  1  0  0  0  0
 13 23  1  0  0  0  0
 13 14  1  0  0  0  0
 14 15  2  0  0  0  0
 14 37  1  0  0  0  0
 15 16  1  0  0  0  0
 16 23  2  0  0  0  0
 16 17  1  0  0  0  0
 17 18  2  0  0  0  0
 17 38  1  0  0  0  0
 18 19  1  0  0  0  0
 18 20  1  0  0  0  0
 19 39  1  0  0  0  0
 19 40  1  0  0  0  0
 19 41  1  0  0  0  0
 20 21  1  0  0  0  0
 20 22  2  0  0  0  0
 21 42  1  0  0  0  0
 21 43  1  0  0  0  0
 21 44  1  0  0  0  0
 22 23  1  0  0  0  0
 22 45  1  0  0  0  0
 24 46  1  0  0  0  0
M  CHG  1  24   1
M  END
> <s_m_source_file>
AV-unprocessed.smi

> <i_m_source_file_index>
1006

> <i_lp_mmshare_version>
43012

> <i_f3d_flags>
0

> <s_epik_input>
W0NIM11jMVtjSF1jKFtOSDJdKW5jKG4xKVNbQ0gyXVtDQEhdKFtPSF0pW0NIMl1uKFtjSF1uMiljKGMyMylbY0hdYyhbQ0gzXSljKFtjSF0zKVtDSDNd

> <s_epik_cmdline>
J2VwaWtfcHl0aG9uJywgJy1waCcsICc3LjAnLCAnLXRuJywgJzgnLCAnLW1hJywgJzIwMCcsICctbWV0YWxfYmluZGluZycsICctaW1hZScsICc8aW5maWxlLm1hZT4nLCAnLW9tYWUnLCAnPG91dGZpbGUubWFlPic=

> <r_lp_tautomer_probability>
0.999762

> <r_epik_Ionization_Penalty>
0.549885

> <r_epik_Ionization_Penalty_Charging>
0.440405

> <r_epik_Ionization_Penalty_Neutral>
0.10948

> <r_epik_State_Penalty>
0.546419

> <r_epik_Charging_Adjusted_Penalty>
0.986823

> <i_epik_Tot_Q>
1

> <i_epik_Tot_abs_Q>
1

> <r_epik_Metal_State_Penalty>
0.699827

> <b_epik_Metal_Only>
0

> <s_lp_Force_Field>
OPLS_2005

> <r_lp_Energy>
10.4004

> <b_lp_Chiralities_Consistent>
1

> <s_lp_Variant>
AV-unprocessed.smi:1006-3

> <Gold.Version>
5.8.1

> <Gold.Id.Protein>
6NUR|6NUR_protein|mol2

> <Gold.PLP.Fitness>
52.3746

> <Gold.PLP.PLP>
-46.0529

> <Gold.PLP.part.hbond>
-2.0000

> <Gold.PLP.part.metal>
0.0000

> <Gold.PLP.part.buried>
-4.3272

> <Gold.PLP.part.nonpolar>
-40.2754

> <Gold.PLP.part.repulsive>
0.1535

> <Gold.PLP.ligand.clash>
0.0000

> <Gold.PLP.ligand.torsion>
1.3761

> <Gold.PLP.Chemscore.Hbond>
3.0000

> <Gold.PLP.Chemscore.CHOScore>
0.0000

> <Gold.PLP.Chemscore.Metal>
0.0000

> <Gold.Chemscore.Hbonds>
donor molecule, donor type, donor heavy atom, donor atom, acceptor molecule, acceptor atom, score
      L1  H    11    34       P1  8028  1.00
      L1  H    24    46       P1  7948  0.80

> <Gold.PLP.Chemscore.Internal.Correction>
0.0740

> <Gold.Rescore>
     Score         DG    S(hbond)    S(metal)    S(lipo)     H(rot)  DE(clash)    DE(int)     intcor
     16.70     -18.16       1.87        0.00     118.24       2.89       0.15       1.31       ----

> <Gold.Chemscore.Fitness>
16.6962

> <Gold.Chemscore.DG>
-18.1562

> <Gold.Chemscore.ZeroCoef>
-5.4800

> <Gold.Chemscore.Hbond>
1.8686

> <Gold.Chemscore.Metal>
0.0000

> <Gold.Chemscore.Lipo>
118.2365

> <Gold.Chemscore.Internal_Hbond>
0.0000

> <Gold.Chemscore.DEClash>
0.1542

> <Gold.Chemscore.DEInternal>
1.3058

> <Gold.Chemscore.Rot>
2.8901

> <Gold.Chemscore.Internal.Correction>
   9.000000E+99

> <Gold.Chemscore.Hbonds>
donor molecule, donor type, donor heavy atom, donor atom, acceptor molecule, acceptor atom, score
      L1  H    11    34       P1  8028  0.34
      L1  H    24    46       P1  7948  0.39

> <Gold.Chemscore.Hbond.Weighted>
-6.2411

> <Gold.Chemscore.Metal.Weighted>
-0.0000

> <Gold.Chemscore.Lipo.Weighted>
-13.8337

> <Gold.Chemscore.Internal_Hbond.Weighted>
0.0000

> <Gold.Chemscore.DEClash.Weighted>
0.1542

> <Gold.Chemscore.DEInternal.Weighted>
1.3058

> <Gold.Chemscore.Rot.Weighted>
7.3986

> <Gold.Chemscore.Internal.Correction.Weighted>
   9.000000E+99

> <Gold.Protein.RotatedTorsions>
[ 6907 6896 6895 6894 ] final -142.58 input  -60.11 | X-H torsion
[ 7974 7965 7964 7962 ] final  -20.43 input  175.53 | X-H torsion
[ 8008 7997 7996 7995 ] final  -64.75 input   59.86 | X-H torsion
[ 10167 10162 10161 10158 ] final  131.46 input  -65.29 | X-H torsion
[ 10718 10713 10712 10709 ] final   19.90 input   66.30 | X-H torsion
[ 10763 10752 10751 10750 ] final  -74.25 input  -60.55 | X-H torsion
[ 11005 11000 10999 10996 ] final  147.72 input  -57.11 | X-H torsion

> <Gold.Protein.ActiveResidues>
 VAL166  LYS551  ARG553  GLY616  TRP617  ASP618  TYR619  PRO620  LYS621  CYS622 
 ASP623  PHE694  ASN695  SER759  ASP760  ASP761  ALA762  ILE779  LEU786  VAL792 
 PHE793  MET794  SER795  GLU796  ALA797  LYS798  CYS799  TRP800  GLU811  SER814 

> <Gold.Protein.RotatedAtoms>
  151.0890  133.5331  159.2615 H   0  0  0  0  0  0  0  0  0  0  0  0  # atno 6907 bound_to 6896
  151.2205  135.0516  159.8958 H   0  0  0  0  0  0  0  0  0  0  0  0  # atno 6908 bound_to 6896
  152.5432  134.0693  159.8240 H   0  0  0  0  0  0  0  0  0  0  0  0  # atno 6909 bound_to 6896
  146.1789  140.4200  142.8502 H   0  0  0  0  0  0  0  0  0  0  0  0  # atno 7974 bound_to 7965
  154.4630  140.0947  156.6944 H   0  0  0  0  0  0  0  0  0  0  0  0  # atno 8008 bound_to 7997
  155.4939  140.3471  155.4341 H   0  0  0  0  0  0  0  0  0  0  0  0  # atno 8009 bound_to 7997
  156.0905  140.1396  156.9587 H   0  0  0  0  0  0  0  0  0  0  0  0  # atno 8010 bound_to 7997
  139.5383  144.6705  151.4711 H   0  0  0  0  0  0  0  0  0  0  0  0  # atno 10167 bound_to 10162
  157.1170  130.6533  149.5913 H   0  0  0  0  0  0  0  0  0  0  0  0  # atno 10718 bound_to 10713
  154.4706  135.5870  153.6319 H   0  0  0  0  0  0  0  0  0  0  0  0  # atno 10763 bound_to 10752
  152.9834  135.6066  154.3372 H   0  0  0  0  0  0  0  0  0  0  0  0  # atno 10764 bound_to 10752
  154.3253  135.2843  155.2478 H   0  0  0  0  0  0  0  0  0  0  0  0  # atno 10765 bound_to 10752
  140.0900  134.9047  157.1635 H   0  0  0  0  0  0  0  0  0  0  0  0  # atno 11005 bound_to 11000
  144.8281  140.6662  143.6309 LP  0  0  0  0  0  0  0  0  0  0  0  0  # atno 17320 bound_to 7965
  145.4134  139.1576  143.4113 LP  0  0  0  0  0  0  0  0  0  0  0  0  # atno 17321 bound_to 7965
  140.6600  143.8518  150.6877 LP  0  0  0  0  0  0  0  0  0  0  0  0  # atno 17342 bound_to 10162
  140.1910  143.4037  152.1863 LP  0  0  0  0  0  0  0  0  0  0  0  0  # atno 17343 bound_to 10162
  155.9837  130.4858  150.6947 LP  0  0  0  0  0  0  0  0  0  0  0  0  # atno 17370 bound_to 10713
  157.4510  131.0872  151.0846 LP  0  0  0  0  0  0  0  0  0  0  0  0  # atno 17371 bound_to 10713
  140.3366  134.2750  155.7219 LP  0  0  0  0  0  0  0  0  0  0  0  0  # atno 17394 bound_to 11000
  141.2075  133.7805  157.0117 LP  0  0  0  0  0  0  0  0  0  0  0  0  # atno 17395 bound_to 11000

$$$$
