AV-unprocessed.smi:521|AV-procd|sdf|2800|dock7
  -GOLD-   2262023273D 1   1.00000     0.00000
 Structure written by MMmdl.
 41 43  0  0  0  0  0  0  0  0  2 V2000
  153.1116  141.1636  162.5037 C   0  0  0  0  0  0  0  0  0  0  0  0
  152.6036  140.9632  161.1930 O   0  0  0  0  0  0  0  0  0  0  0  0
  152.3058  142.0732  160.4294 C   0  0  0  0  0  0  0  0  0  0  0  0
  152.4332  143.4055  160.8984 C   0  0  0  0  0  0  0  0  0  0  0  0
  152.1095  144.4908  160.0644 C   0  0  0  0  0  0  0  0  0  0  0  0
  151.6570  144.2593  158.7547 C   0  0  0  0  0  0  0  0  0  0  0  0
  151.5272  142.9423  158.2783 C   0  0  0  0  0  0  0  0  0  0  0  0
  151.8482  141.8403  159.1112 C   0  0  0  0  0  0  0  0  0  0  0  0
  151.7406  140.5238  158.7124 O   0  0  0  0  0  0  0  0  0  0  0  0
  150.7495  140.1853  157.7539 C   0  0  0  0  0  0  0  0  0  0  0  0
  151.3030  140.4918  156.3575 C   0  0  0  0  0  0  0  0  0  0  0  0
  150.4763  139.8967  155.3001 N   0  0  0  0  0  0  0  0  0  0  0  0
  150.6294  138.7261  154.6175 C   0  0  0  0  0  0  0  0  0  0  0  0
  151.7299  137.7299  154.7995 C   0  0  0  0  0  0  0  0  0  0  0  0
  151.4729  136.4922  154.1693 O   0  0  0  0  0  0  0  0  0  0  0  0
  149.5886  138.6349  153.7403 N   0  3  0  0  0  0  0  0  0  0  0  0
  148.7609  139.7509  153.8688 C   0  0  0  0  0  0  0  0  0  0  0  0
  147.5912  140.1008  153.2014 C   0  0  0  0  0  0  0  0  0  0  0  0
  146.9855  141.3165  153.5818 C   0  0  0  0  0  0  0  0  0  0  0  0
  147.5428  142.1313  154.5889 C   0  0  0  0  0  0  0  0  0  0  0  0
  148.7304  141.7670  155.2570 C   0  0  0  0  0  0  0  0  0  0  0  0
  149.3235  140.5645  154.8733 C   0  0  0  0  0  0  0  0  0  0  0  0
  153.2796  140.1957  162.9757 H   0  0  0  0  0  0  0  0  0  0  0  0
  152.4042  141.7138  163.1257 H   0  0  0  0  0  0  0  0  0  0  0  0
  154.0660  141.6916  162.4857 H   0  0  0  0  0  0  0  0  0  0  0  0
  152.7783  143.6230  161.8976 H   0  0  0  0  0  0  0  0  0  0  0  0
  152.2087  145.5019  160.4308 H   0  0  0  0  0  0  0  0  0  0  0  0
  151.4088  145.0928  158.1141 H   0  0  0  0  0  0  0  0  0  0  0  0
  151.1771  142.8049  157.2668 H   0  0  0  0  0  0  0  0  0  0  0  0
  150.5018  139.1249  157.8237 H   0  0  0  0  0  0  0  0  0  0  0  0
  149.8407  140.7626  157.9307 H   0  0  0  0  0  0  0  0  0  0  0  0
  151.3789  141.5665  156.1893 H   0  0  0  0  0  0  0  0  0  0  0  0
  152.3121  140.0908  156.2573 H   0  0  0  0  0  0  0  0  0  0  0  0
  152.6561  138.1449  154.4017 H   0  0  0  0  0  0  0  0  0  0  0  0
  151.8823  137.5568  155.8654 H   0  0  0  0  0  0  0  0  0  0  0  0
  151.3684  136.6441  153.2421 H   0  0  0  0  0  0  0  0  0  0  0  0
  147.1614  139.4772  152.4311 H   0  0  0  0  0  0  0  0  0  0  0  0
  146.0746  141.6295  153.0922 H   0  0  0  0  0  0  0  0  0  0  0  0
  147.0492  143.0549  154.8548 H   0  0  0  0  0  0  0  0  0  0  0  0
  149.1484  142.3970  156.0283 H   0  0  0  0  0  0  0  0  0  0  0  0
  149.4582  137.8575  153.1054 H   0  0  0  0  0  0  0  0  0  0  0  0
  1  2  1  0  0  0  0
  1 23  1  0  0  0  0
  1 24  1  0  0  0  0
  1 25  1  0  0  0  0
  2  3  1  0  0  0  0
  3  8  1  0  0  0  0
  3  4  2  0  0  0  0
  4  5  1  0  0  0  0
  4 26  1  0  0  0  0
  5  6  2  0  0  0  0
  5 27  1  0  0  0  0
  6  7  1  0  0  0  0
  6 28  1  0  0  0  0
  7  8  2  0  0  0  0
  7 29  1  0  0  0  0
  8  9  1  0  0  0  0
  9 10  1  0  0  0  0
 10 11  1  0  0  0  0
 10 30  1  0  0  0  0
 10 31  1  0  0  0  0
 11 12  1  0  0  0  0
 11 32  1  0  0  0  0
 11 33  1  0  0  0  0
 12 22  1  0  0  0  0
 12 13  1  0  0  0  0
 13 14  1  0  0  0  0
 13 16  2  0  0  0  0
 14 15  1  0  0  0  0
 14 34  1  0  0  0  0
 14 35  1  0  0  0  0
 15 36  1  0  0  0  0
 16 17  1  0  0  0  0
 16 41  1  0  0  0  0
 17 22  2  0  0  0  0
 17 18  1  0  0  0  0
 18 19  2  0  0  0  0
 18 37  1  0  0  0  0
 19 20  1  0  0  0  0
 19 38  1  0  0  0  0
 20 21  2  0  0  0  0
 20 39  1  0  0  0  0
 21 22  1  0  0  0  0
 21 40  1  0  0  0  0
M  CHG  1  16   1
M  END
> <s_m_source_file>
AV-unprocessed.smi

> <i_m_source_file_index>
521

> <i_lp_mmshare_version>
43012

> <i_f3d_flags>
0

> <s_epik_input>
W0NIM11PYzFbY0hdW2NIXVtjSF1bY0hdYzFPW0NIMl1bQ0gyXW4oYyhuMilbQ0gyXVtPSF0pYyhjMjMpW2NIXVtjSF1bY0hdW2NIXTM=

> <s_epik_cmdline>
J2VwaWtfcHl0aG9uJywgJy1waCcsICc3LjAnLCAnLXRuJywgJzgnLCAnLW1hJywgJzIwMCcsICctbWV0YWxfYmluZGluZycsICctaW1hZScsICc8aW5maWxlLm1hZT4nLCAnLW9tYWUnLCAnPG91dGZpbGUubWFlPic=

> <r_lp_tautomer_probability>
1

> <r_epik_Ionization_Penalty>
1.50718

> <r_epik_Ionization_Penalty_Charging>
1.50632

> <r_epik_Ionization_Penalty_Neutral>
0.000855784

> <r_epik_State_Penalty>
1.59697

> <r_epik_Charging_Adjusted_Penalty>
3.1033

> <i_epik_Tot_Q>
1

> <i_epik_Tot_abs_Q>
1

> <r_epik_Metal_State_Penalty>
5.64835

> <b_epik_Metal_Only>
0

> <s_lp_Force_Field>
OPLS_2005

> <r_lp_Energy>
22.6327

> <b_lp_Chiralities_Consistent>
1

> <s_lp_Variant>
AV-unprocessed.smi:521-2

> <Gold.Version>
5.8.1

> <Gold.Id.Protein>
6NUR|6NUR_protein|mol2

> <Gold.PLP.Fitness>
65.7110

> <Gold.PLP.PLP>
-55.6937

> <Gold.PLP.part.hbond>
-4.0000

> <Gold.PLP.part.metal>
0.0000

> <Gold.PLP.part.buried>
-0.4799

> <Gold.PLP.part.nonpolar>
-51.4581

> <Gold.PLP.part.repulsive>
0.0723

> <Gold.PLP.ligand.clash>
0.0000

> <Gold.PLP.ligand.torsion>
1.0102

> <Gold.PLP.Chemscore.Hbond>
4.0000

> <Gold.PLP.Chemscore.CHOScore>
0.0000

> <Gold.PLP.Chemscore.Metal>
0.0000

> <Gold.Chemscore.Hbonds>
donor molecule, donor type, donor heavy atom, donor atom, acceptor molecule, acceptor atom, score
      L1  H    15    36       P1  7949  1.00
      L1  H    16    41       P1  7948  1.79
      P1  H 10752 10764       L1    15  0.90

> <Gold.PLP.Chemscore.Internal.Correction>
0.0376

> <Gold.Rescore>
     Score         DG    S(hbond)    S(metal)    S(lipo)     H(rot)  DE(clash)    DE(int)     intcor
     21.86     -23.17       2.65        0.00     131.31       2.54       0.13       1.18       ----

> <Gold.Chemscore.Fitness>
21.8631

> <Gold.Chemscore.DG>
-23.1707

> <Gold.Chemscore.ZeroCoef>
-5.4800

> <Gold.Chemscore.Hbond>
2.6462

> <Gold.Chemscore.Metal>
0.0000

> <Gold.Chemscore.Lipo>
131.3055

> <Gold.Chemscore.Internal_Hbond>
0.0000

> <Gold.Chemscore.DEClash>
0.1255

> <Gold.Chemscore.DEInternal>
1.1821

> <Gold.Chemscore.Rot>
2.5431

> <Gold.Chemscore.Internal.Correction>
   9.000000E+99

> <Gold.Chemscore.Hbonds>
donor molecule, donor type, donor heavy atom, donor atom, acceptor molecule, acceptor atom, score
      L1  H    15    36       P1  7949  0.74
      L1  H    16    41       P1  7948  0.79
      P1  H 10752 10764       L1    15  0.10

> <Gold.Chemscore.Hbond.Weighted>
-8.8383

> <Gold.Chemscore.Metal.Weighted>
-0.0000

> <Gold.Chemscore.Lipo.Weighted>
-15.3627

> <Gold.Chemscore.Internal_Hbond.Weighted>
0.0000

> <Gold.Chemscore.DEClash.Weighted>
0.1255

> <Gold.Chemscore.DEInternal.Weighted>
1.1821

> <Gold.Chemscore.Rot.Weighted>
6.5103

> <Gold.Chemscore.Internal.Correction.Weighted>
   9.000000E+99

> <Gold.Protein.RotatedTorsions>
[ 6907 6896 6895 6894 ] final  159.66 input  -60.11 | X-H torsion
[ 7974 7965 7964 7962 ] final -119.33 input  175.53 | X-H torsion
[ 8008 7997 7996 7995 ] final  178.87 input   59.86 | X-H torsion
[ 10167 10162 10161 10158 ] final -104.14 input  -65.29 | X-H torsion
[ 10718 10713 10712 10709 ] final -120.97 input   66.30 | X-H torsion
[ 10763 10752 10751 10750 ] final  -89.03 input  -60.55 | X-H torsion
[ 11005 11000 10999 10996 ] final -173.72 input  -57.11 | X-H torsion

> <Gold.Protein.ActiveResidues>
 VAL166  LYS551  ARG553  GLY616  TRP617  ASP618  TYR619  PRO620  LYS621  CYS622 
 ASP623  PHE694  ASN695  SER759  ASP760  ASP761  ALA762  ILE779  LEU786  VAL792 
 PHE793  MET794  SER795  GLU796  ALA797  LYS798  CYS799  TRP800  GLU811  SER814 

> <Gold.Protein.RotatedAtoms>
  151.9823  133.3762  159.4111 H   0  0  0  0  0  0  0  0  0  0  0  0  # atno 6907 bound_to 6896
  150.6933  134.4026  159.5135 H   0  0  0  0  0  0  0  0  0  0  0  0  # atno 6908 bound_to 6896
  152.1746  134.8805  160.0582 H   0  0  0  0  0  0  0  0  0  0  0  0  # atno 6909 bound_to 6896
  145.0638  140.8309  143.4136 H   0  0  0  0  0  0  0  0  0  0  0  0  # atno 7974 bound_to 7965
  156.0498  140.1323  157.0062 H   0  0  0  0  0  0  0  0  0  0  0  0  # atno 8008 bound_to 7997
  154.4429  140.1013  156.6430 H   0  0  0  0  0  0  0  0  0  0  0  0  # atno 8009 bound_to 7997
  155.5540  140.3463  155.4477 H   0  0  0  0  0  0  0  0  0  0  0  0  # atno 8010 bound_to 7997
  140.2125  143.3736  152.1039 H   0  0  0  0  0  0  0  0  0  0  0  0  # atno 10167 bound_to 10162
  156.1300  130.6388  150.9606 H   0  0  0  0  0  0  0  0  0  0  0  0  # atno 10718 bound_to 10713
  154.6509  135.5356  153.7900 H   0  0  0  0  0  0  0  0  0  0  0  0  # atno 10763 bound_to 10752
  153.0385  135.6482  154.1018 H   0  0  0  0  0  0  0  0  0  0  0  0  # atno 10764 bound_to 10752
  154.0936  135.2938  155.3246 H   0  0  0  0  0  0  0  0  0  0  0  0  # atno 10765 bound_to 10752
  140.4826  134.6061  157.4925 H   0  0  0  0  0  0  0  0  0  0  0  0  # atno 11005 bound_to 11000
  145.1376  139.2592  143.5507 LP  0  0  0  0  0  0  0  0  0  0  0  0  # atno 17320 bound_to 7965
  146.3526  140.1044  142.8606 LP  0  0  0  0  0  0  0  0  0  0  0  0  # atno 17321 bound_to 7965
  139.5175  144.6992  151.5543 LP  0  0  0  0  0  0  0  0  0  0  0  0  # atno 17342 bound_to 10162
  140.6313  143.9070  150.6608 LP  0  0  0  0  0  0  0  0  0  0  0  0  # atno 17343 bound_to 10162
  157.6479  131.0901  150.8114 LP  0  0  0  0  0  0  0  0  0  0  0  0  # atno 17370 bound_to 10713
  156.8200  130.4981  149.5344 LP  0  0  0  0  0  0  0  0  0  0  0  0  # atno 17371 bound_to 10713
  139.9817  134.7126  155.9847 LP  0  0  0  0  0  0  0  0  0  0  0  0  # atno 17394 bound_to 11000
  141.1524  133.6547  156.4054 LP  0  0  0  0  0  0  0  0  0  0  0  0  # atno 17395 bound_to 11000

$$$$
