AV-unprocessed.smi:1385|AV-procd|sdf|5629|dock5
  -GOLD-   22720 5243D 1   1.00000     0.00000
 Structure written by MMmdl.
 39 40  0  0  0  0  0  0  0  0  2 V2000
  153.5549  141.4583  160.7645 C   0  0  0  0  0  0  0  0  0  0  0  0
  153.1205  140.8405  159.4796 C   0  0  0  0  0  0  0  0  0  0  0  0
  153.8063  139.8596  158.8803 N   0  0  0  0  0  0  0  0  0  0  0  0
  153.2073  139.4451  157.6988 N   0  0  0  0  0  0  0  0  0  0  0  0
  152.0818  140.1262  157.4431 C   0  0  0  0  0  0  0  0  0  0  0  0
  151.2680  139.9055  156.3004 N   0  0  0  0  0  0  0  0  0  0  0  0
  150.0108  139.4304  156.2529 C   0  0  0  0  0  0  0  0  0  0  0  0
  149.3388  139.0933  157.2281 O   0  0  0  0  0  0  0  0  0  0  0  0
  149.5623  139.3645  154.9905 N   0  0  0  0  0  0  0  0  0  0  0  0
  148.2324  138.9083  154.5967 C   0  0  2  0  0  0  0  0  0  0  0  0
  148.0847  137.3908  154.8095 C   0  0  0  0  0  0  0  0  0  0  0  0
  146.7184  136.8938  154.3100 C   0  0  0  0  0  0  0  0  0  0  0  0
  146.5129  137.2399  152.8780 N   0  3  1  0  0  0  0  0  0  0  0  0
  145.2651  136.6644  152.3125 C   0  0  0  0  0  0  0  0  0  0  0  0
  145.5006  135.8710  151.0228 C   0  0  0  0  0  0  0  0  0  0  0  0
  145.0594  136.4205  149.8892 N   0  0  0  0  0  0  0  0  0  0  0  0
  146.0831  134.7881  151.0434 O   0  0  0  0  0  0  0  0  0  0  0  0
  146.6155  138.7043  152.6511 C   0  0  0  0  0  0  0  0  0  0  0  0
  147.9770  139.2468  153.1192 C   0  0  0  0  0  0  0  0  0  0  0  0
  151.6590  141.3412  158.6374 S   0  0  0  0  0  0  0  0  0  0  0  0
  154.6400  141.4113  160.8629 H   0  0  0  0  0  0  0  0  0  0  0  0
  153.1023  140.9290  161.6031 H   0  0  0  0  0  0  0  0  0  0  0  0
  153.2477  142.5035  160.8020 H   0  0  0  0  0  0  0  0  0  0  0  0
  151.6943  140.1387  155.4158 H   0  0  0  0  0  0  0  0  0  0  0  0
  150.1827  139.6589  154.2503 H   0  0  0  0  0  0  0  0  0  0  0  0
  147.4846  139.4274  155.1999 H   0  0  0  0  0  0  0  0  0  0  0  0
  148.8788  136.8608  154.2810 H   0  0  0  0  0  0  0  0  0  0  0  0
  148.1985  137.1438  155.8657 H   0  0  0  0  0  0  0  0  0  0  0  0
  146.6594  135.8141  154.4499 H   0  0  0  0  0  0  0  0  0  0  0  0
  145.9193  137.3324  154.9099 H   0  0  0  0  0  0  0  0  0  0  0  0
  144.7666  136.0439  153.0593 H   0  0  0  0  0  0  0  0  0  0  0  0
  144.5719  137.4681  152.0597 H   0  0  0  0  0  0  0  0  0  0  0  0
  145.1847  135.9412  149.0091 H   0  0  0  0  0  0  0  0  0  0  0  0
  144.5964  137.3181  149.9149 H   0  0  0  0  0  0  0  0  0  0  0  0
  146.4911  138.9223  151.5897 H   0  0  0  0  0  0  0  0  0  0  0  0
  145.8058  139.2128  153.1771 H   0  0  0  0  0  0  0  0  0  0  0  0
  148.0126  140.3269  152.9712 H   0  0  0  0  0  0  0  0  0  0  0  0
  148.7680  138.8233  152.4980 H   0  0  0  0  0  0  0  0  0  0  0  0
  147.2722  136.8184  152.3614 H   0  0  0  0  0  0  0  0  0  0  0  0
  1  2  1  0  0  0  0
  1 21  1  0  0  0  0
  1 22  1  0  0  0  0
  1 23  1  0  0  0  0
  2 20  1  0  0  0  0
  2  3  2  0  0  0  0
  3  4  1  0  0  0  0
  4  5  2  0  0  0  0
  5  6  1  0  0  0  0
  5 20  1  0  0  0  0
  6  7  1  0  0  0  0
  6 24  1  0  0  0  0
  7  8  2  0  0  0  0
  7  9  1  0  0  0  0
  9 10  1  0  0  0  0
  9 25  1  0  0  0  0
 10 19  1  0  0  0  0
 10 11  1  0  0  0  0
 10 26  1  0  0  0  0
 11 12  1  0  0  0  0
 11 27  1  0  0  0  0
 11 28  1  0  0  0  0
 12 13  1  0  0  0  0
 12 29  1  0  0  0  0
 12 30  1  0  0  0  0
 13 14  1  0  0  0  0
 13 18  1  0  0  0  0
 13 39  1  0  0  0  0
 14 15  1  0  0  0  0
 14 31  1  0  0  0  0
 14 32  1  0  0  0  0
 15 16  1  0  0  0  0
 15 17  2  0  0  0  0
 16 33  1  0  0  0  0
 16 34  1  0  0  0  0
 18 19  1  0  0  0  0
 18 35  1  0  0  0  0
 18 36  1  0  0  0  0
 19 37  1  0  0  0  0
 19 38  1  0  0  0  0
M  CHG  1  13   1
M  END
> <s_m_source_file>
AV-unprocessed.smi

> <i_m_source_file_index>
1385

> <i_lp_mmshare_version>
43012

> <i_f3d_flags>
0

> <s_epik_input>
W0NIM11jMW5uYyhzMSlbTkhdQyg9TylbTkhdW0NIXTJbQ0gyXVtDSDJdTihbQ0gyXVtDSDJdMilbQ0gyXUMoPU8pW05IMl0=

> <s_epik_cmdline>
J2VwaWtfcHl0aG9uJywgJy1waCcsICc3LjAnLCAnLXRuJywgJzgnLCAnLW1hJywgJzIwMCcsICctbWV0YWxfYmluZGluZycsICctaW1hZScsICc8aW5maWxlLm1hZT4nLCAnLW9tYWUnLCAnPG91dGZpbGUubWFlPic=

> <r_lp_tautomer_probability>
1

> <r_epik_Ionization_Penalty>
0.866317

> <r_epik_Ionization_Penalty_Charging>
0.862349

> <r_epik_Ionization_Penalty_Neutral>
0.00396799

> <r_epik_State_Penalty>
0.898939

> <r_epik_Charging_Adjusted_Penalty>
1.76129

> <i_epik_Tot_Q>
1

> <i_epik_Tot_abs_Q>
1

> <r_epik_Metal_State_Penalty>
1.25402

> <b_epik_Metal_Only>
0

> <s_lp_Force_Field>
OPLS_2005

> <r_lp_Energy>
10.5623

> <b_lp_Chiralities_Consistent>
1

> <s_lp_Variant>
AV-unprocessed.smi:1385-2

> <Gold.Version>
5.8.1

> <Gold.Id.Protein>
6NUR|6NUR_protein|mol2

> <Gold.PLP.Fitness>
38.4759

> <Gold.PLP.PLP>
-26.5302

> <Gold.PLP.part.hbond>
-5.0000

> <Gold.PLP.part.metal>
0.0000

> <Gold.PLP.part.buried>
-0.9245

> <Gold.PLP.part.nonpolar>
-20.6092

> <Gold.PLP.part.repulsive>
0.5315

> <Gold.PLP.ligand.clash>
0.0000

> <Gold.PLP.ligand.torsion>
1.5244

> <Gold.PLP.Chemscore.Hbond>
4.9920

> <Gold.PLP.Chemscore.CHOScore>
0.0000

> <Gold.PLP.Chemscore.Metal>
0.0000

> <Gold.Chemscore.Hbonds>
donor molecule, donor type, donor heavy atom, donor atom, acceptor molecule, acceptor atom, score
      L1  H    13    39       P1  7948  2.00
      L1  H    16    33       P1  7921  1.00
      L1  H    16    34       P1 10171  0.80
      P1  H  7997  8008       L1     4  0.85

> <Gold.PLP.Chemscore.Internal.Correction>
0.0184

> <Gold.Rescore>
     Score         DG    S(hbond)    S(metal)    S(lipo)     H(rot)  DE(clash)    DE(int)     intcor
     14.90     -17.82       3.45        0.00      52.24       2.07       1.45       1.46       ----

> <Gold.Chemscore.Fitness>
14.9034

> <Gold.Chemscore.DG>
-17.8157

> <Gold.Chemscore.ZeroCoef>
-5.4800

> <Gold.Chemscore.Hbond>
3.4462

> <Gold.Chemscore.Metal>
0.0000

> <Gold.Chemscore.Lipo>
52.2372

> <Gold.Chemscore.Internal_Hbond>
0.0000

> <Gold.Chemscore.DEClash>
1.4475

> <Gold.Chemscore.DEInternal>
1.4648

> <Gold.Chemscore.Rot>
2.0650

> <Gold.Chemscore.Internal.Correction>
   9.000000E+99

> <Gold.Chemscore.Hbonds>
donor molecule, donor type, donor heavy atom, donor atom, acceptor molecule, acceptor atom, score
      L1  H    13    39       P1  7948  1.00
      L1  H    16    33       P1  7921  0.95
      L1  H    16    34       P1 10171  0.79
      P1  H  7997  8008       L1     4  0.08

> <Gold.Chemscore.Hbond.Weighted>
-11.5104

> <Gold.Chemscore.Metal.Weighted>
-0.0000

> <Gold.Chemscore.Lipo.Weighted>
-6.1118

> <Gold.Chemscore.Internal_Hbond.Weighted>
0.0000

> <Gold.Chemscore.DEClash.Weighted>
1.4475

> <Gold.Chemscore.DEInternal.Weighted>
1.4648

> <Gold.Chemscore.Rot.Weighted>
5.2864

> <Gold.Chemscore.Internal.Correction.Weighted>
   9.000000E+99

> <Gold.Protein.RotatedTorsions>
[ 6907 6896 6895 6894 ] final  -10.79 input  -60.11 | X-H torsion
[ 7974 7965 7964 7962 ] final  112.85 input  175.53 | X-H torsion
[ 8008 7997 7996 7995 ] final  -58.23 input   59.86 | X-H torsion
[ 10167 10162 10161 10158 ] final  164.58 input  -65.29 | X-H torsion
[ 10718 10713 10712 10709 ] final  -60.61 input   66.30 | X-H torsion
[ 10763 10752 10751 10750 ] final   19.62 input  -60.55 | X-H torsion
[ 11005 11000 10999 10996 ] final  156.99 input  -57.11 | X-H torsion

> <Gold.Protein.ActiveResidues>
 VAL166  LYS551  ARG553  GLY616  TRP617  ASP618  TYR619  PRO620  LYS621  CYS622 
 ASP623  PHE694  ASN695  SER759  ASP760  ASP761  ALA762  ILE779  LEU786  VAL792 
 PHE793  MET794  SER795  GLU796  ALA797  LYS798  CYS799  TRP800  GLU811  SER814 

> <Gold.Protein.RotatedAtoms>
  151.3963  135.0964  159.9541 H   0  0  0  0  0  0  0  0  0  0  0  0  # atno 6907 bound_to 6896
  152.5064  133.8931  159.7414 H   0  0  0  0  0  0  0  0  0  0  0  0  # atno 6908 bound_to 6896
  150.9395  133.6616  159.2822 H   0  0  0  0  0  0  0  0  0  0  0  0  # atno 6909 bound_to 6896
  145.2243  139.2848  143.4201 H   0  0  0  0  0  0  0  0  0  0  0  0  # atno 7974 bound_to 7965
  154.4300  140.1089  156.5923 H   0  0  0  0  0  0  0  0  0  0  0  0  # atno 8008 bound_to 7997
  155.5998  140.3493  155.4572 H   0  0  0  0  0  0  0  0  0  0  0  0  # atno 8009 bound_to 7997
  156.0182  140.1234  157.0374 H   0  0  0  0  0  0  0  0  0  0  0  0  # atno 8010 bound_to 7997
  139.4891  144.4220  151.9175 H   0  0  0  0  0  0  0  0  0  0  0  0  # atno 10167 bound_to 10162
  156.0979  130.4190  150.0878 H   0  0  0  0  0  0  0  0  0  0  0  0  # atno 10718 bound_to 10713
  153.1146  135.6705  153.9440 H   0  0  0  0  0  0  0  0  0  0  0  0  # atno 10763 bound_to 10752
  153.8973  135.3040  155.3449 H   0  0  0  0  0  0  0  0  0  0  0  0  # atno 10764 bound_to 10752
  154.7564  135.5010  153.9460 H   0  0  0  0  0  0  0  0  0  0  0  0  # atno 10765 bound_to 10752
  140.1727  134.8532  157.2709 H   0  0  0  0  0  0  0  0  0  0  0  0  # atno 11005 bound_to 11000
  146.3368  140.2559  142.8600 LP  0  0  0  0  0  0  0  0  0  0  0  0  # atno 17320 bound_to 7965
  144.9736  140.8392  143.5440 LP  0  0  0  0  0  0  0  0  0  0  0  0  # atno 17321 bound_to 7965
  140.3665  144.2909  150.5926 LP  0  0  0  0  0  0  0  0  0  0  0  0  # atno 17342 bound_to 10162
  140.5357  143.2234  151.8167 LP  0  0  0  0  0  0  0  0  0  0  0  0  # atno 17343 bound_to 10162
  156.8872  130.9576  151.3592 LP  0  0  0  0  0  0  0  0  0  0  0  0  # atno 17370 bound_to 10713
  157.6143  130.8607  149.9003 LP  0  0  0  0  0  0  0  0  0  0  0  0  # atno 17371 bound_to 10713
  140.2358  134.3854  155.7501 LP  0  0  0  0  0  0  0  0  0  0  0  0  # atno 17394 bound_to 11000
  141.2218  133.7239  156.8712 LP  0  0  0  0  0  0  0  0  0  0  0  0  # atno 17395 bound_to 11000

$$$$
