AV-unprocessed.smi:1683|AV-procd|sdf|6747|dock10
  -GOLD-   22720 7503D 1   1.00000     0.00000
 Structure written by MMmdl.
 36 37  0  0  0  0  0  0  0  0  1 V2000
  145.9762  139.1471  153.9607 O   0  0  0  0  0  0  0  0  0  0  0  0
  146.8965  139.3958  153.1813 C   0  0  0  0  0  0  0  0  0  0  0  0
  147.8749  140.2747  153.4428 N   0  0  0  0  0  0  0  0  0  0  0  0
  148.0088  141.0535  154.6703 C   0  0  0  0  0  0  0  0  0  0  0  0
  149.4829  141.3480  155.0058 C   0  0  2  0  0  0  0  0  0  0  0  0
  150.3853  140.1145  154.9460 C   0  0  0  0  0  0  0  0  0  0  0  0
  151.2313  140.1801  156.2210 C   0  0  0  0  0  0  0  0  0  0  0  0
  151.1190  141.5656  156.6621 N   0  0  0  0  0  0  0  0  0  0  0  0
  151.4657  141.7604  158.0686 C   0  0  0  0  0  0  0  0  0  0  0  0
  151.5271  143.2452  158.4780 C   0  0  0  0  0  0  0  0  0  0  0  0
  152.0718  143.9391  157.4794 F   0  0  0  0  0  0  0  0  0  0  0  0
  150.3119  143.7400  158.7126 F   0  0  0  0  0  0  0  0  0  0  0  0
  152.2850  143.4004  159.5641 F   0  0  0  0  0  0  0  0  0  0  0  0
  149.7214  141.8904  156.4173 C   0  0  0  0  0  0  0  0  0  0  0  0
  147.0536  138.8375  151.9698 N   0  0  0  0  0  0  0  0  0  0  0  0
  146.2353  137.8505  151.3638 C   0  0  0  0  0  0  0  0  0  0  0  0
  145.3850  136.9582  152.0717 C   0  0  0  0  0  0  0  0  0  0  0  0
  144.7369  136.1494  151.2455 N   0  0  0  0  0  0  0  0  0  0  0  0
  145.1650  136.5174  150.0168 N   0  0  0  0  0  0  0  0  0  0  0  0
  146.0773  137.5493  150.0400 C   0  0  0  0  0  0  0  0  0  0  0  0
  144.8280  136.0608  149.1811 H   0  0  0  0  0  0  0  0  0  0  0  0
  148.5853  140.4149  152.7393 H   0  0  0  0  0  0  0  0  0  0  0  0
  147.4372  141.9813  154.6101 H   0  0  0  0  0  0  0  0  0  0  0  0
  147.5614  140.4742  155.4784 H   0  0  0  0  0  0  0  0  0  0  0  0
  149.8667  142.0803  154.2930 H   0  0  0  0  0  0  0  0  0  0  0  0
  149.8190  139.1830  154.9142 H   0  0  0  0  0  0  0  0  0  0  0  0
  151.0143  140.1470  154.0556 H   0  0  0  0  0  0  0  0  0  0  0  0
  150.8125  139.5121  156.9758 H   0  0  0  0  0  0  0  0  0  0  0  0
  152.2664  139.8892  156.0416 H   0  0  0  0  0  0  0  0  0  0  0  0
  150.6968  141.2741  158.6704 H   0  0  0  0  0  0  0  0  0  0  0  0
  152.4065  141.2599  158.3030 H   0  0  0  0  0  0  0  0  0  0  0  0
  149.5334  142.9622  156.4912 H   0  0  0  0  0  0  0  0  0  0  0  0
  149.0830  141.3770  157.1388 H   0  0  0  0  0  0  0  0  0  0  0  0
  147.8469  139.1445  151.4260 H   0  0  0  0  0  0  0  0  0  0  0  0
  145.2192  136.8724  153.1355 H   0  0  0  0  0  0  0  0  0  0  0  0
  146.5114  137.9581  149.1395 H   0  0  0  0  0  0  0  0  0  0  0  0
  1  2  2  0  0  0  0
  2  3  1  0  0  0  0
  2 15  1  0  0  0  0
  3  4  1  0  0  0  0
  3 22  1  0  0  0  0
  4  5  1  0  0  0  0
  4 23  1  0  0  0  0
  4 24  1  0  0  0  0
  5 14  1  0  0  0  0
  5  6  1  0  0  0  0
  5 25  1  0  0  0  0
  6  7  1  0  0  0  0
  6 26  1  0  0  0  0
  6 27  1  0  0  0  0
  7  8  1  0  0  0  0
  7 28  1  0  0  0  0
  7 29  1  0  0  0  0
  8  9  1  0  0  0  0
  8 14  1  0  0  0  0
  9 10  1  0  0  0  0
  9 30  1  0  0  0  0
  9 31  1  0  0  0  0
 10 11  1  0  0  0  0
 10 12  1  0  0  0  0
 10 13  1  0  0  0  0
 14 32  1  0  0  0  0
 14 33  1  0  0  0  0
 15 16  1  0  0  0  0
 15 34  1  0  0  0  0
 16 20  2  0  0  0  0
 16 17  1  0  0  0  0
 17 18  2  0  0  0  0
 17 35  1  0  0  0  0
 18 19  1  0  0  0  0
 19 21  1  0  0  0  0
 19 20  1  0  0  0  0
 20 36  1  0  0  0  0
M  END
> <s_m_source_file>
AV-unprocessed.smi

> <i_m_source_file_index>
1683

> <i_lp_mmshare_version>
43012

> <i_f3d_flags>
0

> <s_epik_input>
W2NIXTFbbkhdbltjSF1jMVtOSF1DKD1PKVtOSF1bQ0gyXVtDQEBIXTJbQ0gyXVtDSDJdTihbQ0gyXTIpW0NIMl1DKEYpKEYpRg==

> <s_epik_cmdline>
J2VwaWtfcHl0aG9uJywgJy1waCcsICc3LjAnLCAnLXRuJywgJzgnLCAnLW1hJywgJzIwMCcsICctbWV0YWxfYmluZGluZycsICctaW1hZScsICc8aW5maWxlLm1hZT4nLCAnLW9tYWUnLCAnPG91dGZpbGUubWFlPic=

> <r_lp_tautomer_probability>
0.5

> <r_epik_Ionization_Penalty>
0.244885

> <r_epik_Ionization_Penalty_Charging>
0

> <r_epik_Ionization_Penalty_Neutral>
0.244885

> <r_epik_State_Penalty>
0.235951

> <r_epik_Charging_Adjusted_Penalty>
0.235951

> <i_epik_Tot_Q>
0

> <i_epik_Tot_abs_Q>
0

> <r_epik_Metal_State_Penalty>
0.23595

> <b_epik_Metal_Only>
0

> <s_lp_Force_Field>
OPLS_2005

> <r_lp_Energy>
32.4259

> <b_lp_Chiralities_Consistent>
1

> <s_lp_Variant>
AV-unprocessed.smi:1683-1

> <Gold.Version>
5.8.1

> <Gold.Id.Protein>
6NUR|6NUR_protein|mol2

> <Gold.PLP.Fitness>
40.5775

> <Gold.PLP.PLP>
-34.4033

> <Gold.PLP.part.hbond>
-4.8197

> <Gold.PLP.part.metal>
0.0000

> <Gold.PLP.part.buried>
6.1272

> <Gold.PLP.part.nonpolar>
-36.9281

> <Gold.PLP.part.repulsive>
0.7289

> <Gold.PLP.ligand.clash>
0.0000

> <Gold.PLP.ligand.torsion>
0.7321

> <Gold.PLP.Chemscore.Hbond>
2.4056

> <Gold.PLP.Chemscore.CHOScore>
0.0000

> <Gold.PLP.Chemscore.Metal>
0.0000

> <Gold.Chemscore.Hbonds>
donor molecule, donor type, donor heavy atom, donor atom, acceptor molecule, acceptor atom, score
      L1  H     3    22       P1  7957  1.00
      L1  H    15    34       P1  7957  1.00
      L1  H    19    21       P1  7921  0.09

> <Gold.PLP.Chemscore.Internal.Correction>
0.4216

> <Gold.Rescore>
     Score         DG    S(hbond)    S(metal)    S(lipo)     H(rot)  DE(clash)    DE(int)     intcor
     12.59     -18.73       2.65        0.00      76.70       1.78       4.12       2.02       ----

> <Gold.Chemscore.Fitness>
12.5922

> <Gold.Chemscore.DG>
-18.7345

> <Gold.Chemscore.ZeroCoef>
-5.4800

> <Gold.Chemscore.Hbond>
2.6454

> <Gold.Chemscore.Metal>
0.0000

> <Gold.Chemscore.Lipo>
76.7016

> <Gold.Chemscore.Internal_Hbond>
0.0000

> <Gold.Chemscore.DEClash>
4.1174

> <Gold.Chemscore.DEInternal>
2.0249

> <Gold.Chemscore.Rot>
1.7793

> <Gold.Chemscore.Internal.Correction>
   9.000000E+99

> <Gold.Chemscore.Hbonds>
donor molecule, donor type, donor heavy atom, donor atom, acceptor molecule, acceptor atom, score
      L1  H     3    22       P1  7957  0.99
      L1  H    15    34       P1  7957  0.83
      L1  H    19    21       P1  7921  0.10

> <Gold.Chemscore.Hbond.Weighted>
-8.8355

> <Gold.Chemscore.Metal.Weighted>
-0.0000

> <Gold.Chemscore.Lipo.Weighted>
-8.9741

> <Gold.Chemscore.Internal_Hbond.Weighted>
0.0000

> <Gold.Chemscore.DEClash.Weighted>
4.1174

> <Gold.Chemscore.DEInternal.Weighted>
2.0249

> <Gold.Chemscore.Rot.Weighted>
4.5551

> <Gold.Chemscore.Internal.Correction.Weighted>
   9.000000E+99

> <Gold.Protein.RotatedTorsions>
[ 6907 6896 6895 6894 ] final   98.77 input  -60.11 | X-H torsion
[ 7974 7965 7964 7962 ] final   -3.99 input  175.53 | X-H torsion
[ 8008 7997 7996 7995 ] final   -5.11 input   59.86 | X-H torsion
[ 10167 10162 10161 10158 ] final  -46.34 input  -65.29 | X-H torsion
[ 10718 10713 10712 10709 ] final  -63.29 input   66.30 | X-H torsion
[ 10763 10752 10751 10750 ] final -150.79 input  -60.55 | X-H torsion
[ 11005 11000 10999 10996 ] final -150.87 input  -57.11 | X-H torsion

> <Gold.Protein.ActiveResidues>
 VAL166  LYS551  ARG553  GLY616  TRP617  ASP618  TYR619  PRO620  LYS621  CYS622 
 ASP623  PHE694  ASN695  SER759  ASP760  ASP761  ALA762  ILE779  LEU786  VAL792 
 PHE793  MET794  SER795  GLU796  ALA797  LYS798  CYS799  TRP800  GLU811  SER814 

> <Gold.Protein.RotatedAtoms>
  152.5404  134.0531  159.8118 H   0  0  0  0  0  0  0  0  0  0  0  0  # atno 6907 bound_to 6896
  151.0669  133.5490  159.2637 H   0  0  0  0  0  0  0  0  0  0  0  0  # atno 6908 bound_to 6896
  151.2367  135.0582  159.9063 H   0  0  0  0  0  0  0  0  0  0  0  0  # atno 6909 bound_to 6896
  146.2380  140.1804  142.8332 H   0  0  0  0  0  0  0  0  0  0  0  0  # atno 7974 bound_to 7965
  154.6073  140.2467  155.7715 H   0  0  0  0  0  0  0  0  0  0  0  0  # atno 8008 bound_to 7997
  156.2349  140.2954  156.0236 H   0  0  0  0  0  0  0  0  0  0  0  0  # atno 8009 bound_to 7997
  155.2111  140.0397  157.2924 H   0  0  0  0  0  0  0  0  0  0  0  0  # atno 8010 bound_to 7997
  140.6821  143.2836  151.3768 H   0  0  0  0  0  0  0  0  0  0  0  0  # atno 10167 bound_to 10162
  156.0800  130.4219  150.1256 H   0  0  0  0  0  0  0  0  0  0  0  0  # atno 10718 bound_to 10713
  154.8097  135.3275  154.7337 H   0  0  0  0  0  0  0  0  0  0  0  0  # atno 10763 bound_to 10752
  153.7989  135.6905  153.4863 H   0  0  0  0  0  0  0  0  0  0  0  0  # atno 10764 bound_to 10752
  153.1867  135.4566  155.0043 H   0  0  0  0  0  0  0  0  0  0  0  0  # atno 10765 bound_to 10752
  140.7356  134.3572  157.5158 H   0  0  0  0  0  0  0  0  0  0  0  0  # atno 11005 bound_to 11000
  144.9939  140.8571  143.5323 LP  0  0  0  0  0  0  0  0  0  0  0  0  # atno 17320 bound_to 7965
  145.1814  139.2350  143.5290 LP  0  0  0  0  0  0  0  0  0  0  0  0  # atno 17321 bound_to 7965
  139.6152  144.1017  152.2338 LP  0  0  0  0  0  0  0  0  0  0  0  0  # atno 17342 bound_to 10162
  140.0444  144.5982  150.7385 LP  0  0  0  0  0  0  0  0  0  0  0  0  # atno 17343 bound_to 10162
  156.9289  130.9707  151.3536 LP  0  0  0  0  0  0  0  0  0  0  0  0  # atno 17370 bound_to 10713
  157.5913  130.8446  149.8664 LP  0  0  0  0  0  0  0  0  0  0  0  0  # atno 17371 bound_to 10713
  139.8817  134.9047  156.2883 LP  0  0  0  0  0  0  0  0  0  0  0  0  # atno 17394 bound_to 11000
  140.9882  133.7225  156.0774 LP  0  0  0  0  0  0  0  0  0  0  0  0  # atno 17395 bound_to 11000

$$$$
