AV-unprocessed.smi:2782|AV-procd|sdf|10722|dock6
  -GOLD-   2272015163D 1   1.00000     0.00000
 Structure written by MMmdl.
 38 39  0  0  0  0  0  0  0  0  1 V2000
  152.0561  145.0325  158.9681 C   0  0  0  0  0  0  0  0  0  0  0  0
  152.0859  143.5191  158.9071 C   0  0  0  0  0  0  0  0  0  0  0  0
  152.6506  142.7859  159.9684 C   0  0  0  0  0  0  0  0  0  0  0  0
  152.6730  141.3806  159.9172 C   0  0  0  0  0  0  0  0  0  0  0  0
  152.1350  140.7042  158.8056 C   0  0  0  0  0  0  0  0  0  0  0  0
  152.1688  138.9777  158.7740 Cl  0  0  0  0  0  0  0  0  0  0  0  0
  151.5727  141.4250  157.7285 C   0  0  0  0  0  0  0  0  0  0  0  0
  151.0796  140.6949  156.6677 O   0  0  0  0  0  0  0  0  0  0  0  0
  150.4202  141.3833  155.6126 C   0  0  0  0  0  0  0  0  0  0  0  0
  149.6881  140.3613  154.7235 C   0  0  1  0  0  0  0  0  0  0  0  0
  149.1835  141.0372  153.5899 O   0  0  0  0  0  0  0  0  0  0  0  0
  150.5841  139.2013  154.2306 C   0  0  0  0  0  0  0  0  0  0  0  0
  150.1482  137.8898  154.7256 N   0  0  0  0  0  0  0  0  0  0  0  0
  148.7810  137.6798  154.6485 N   0  0  0  0  0  0  0  0  0  0  0  0
  148.2566  136.5592  155.0216 C   0  0  0  0  0  0  0  0  0  0  0  0
  146.7735  136.4025  154.8669 C   0  0  0  0  0  0  0  0  0  0  0  0
  149.1087  135.5160  155.5588 C   0  0  0  0  0  0  0  0  0  0  0  0
  150.4408  135.7241  155.6349 C   0  0  0  0  0  0  0  0  0  0  0  0
  151.0495  136.9765  155.1916 C   0  0  0  0  0  0  0  0  0  0  0  0
  152.2610  137.1893  155.2306 O   0  0  0  0  0  0  0  0  0  0  0  0
  151.5459  142.8415  157.7943 C   0  0  0  0  0  0  0  0  0  0  0  0
  152.9930  145.4183  159.3710 H   0  0  0  0  0  0  0  0  0  0  0  0
  151.2415  145.3668  159.6109 H   0  0  0  0  0  0  0  0  0  0  0  0
  151.9116  145.4651  157.9776 H   0  0  0  0  0  0  0  0  0  0  0  0
  153.0645  143.2982  160.8248 H   0  0  0  0  0  0  0  0  0  0  0  0
  153.1033  140.8202  160.7344 H   0  0  0  0  0  0  0  0  0  0  0  0
  149.7063  142.0807  156.0547 H   0  0  0  0  0  0  0  0  0  0  0  0
  151.1195  141.9579  155.0030 H   0  0  0  0  0  0  0  0  0  0  0  0
  148.8265  139.9663  155.2629 H   0  0  0  0  0  0  0  0  0  0  0  0
  148.9385  140.3956  152.9410 H   0  0  0  0  0  0  0  0  0  0  0  0
  150.6084  139.1896  153.1392 H   0  0  0  0  0  0  0  0  0  0  0  0
  151.6168  139.3831  154.5351 H   0  0  0  0  0  0  0  0  0  0  0  0
  146.2397  137.1138  155.4977 H   0  0  0  0  0  0  0  0  0  0  0  0
  146.4519  135.3988  155.1460 H   0  0  0  0  0  0  0  0  0  0  0  0
  146.4722  136.5725  153.8325 H   0  0  0  0  0  0  0  0  0  0  0  0
  148.6750  134.5833  155.8879 H   0  0  0  0  0  0  0  0  0  0  0  0
  151.0750  134.9449  156.0312 H   0  0  0  0  0  0  0  0  0  0  0  0
  151.1120  143.4302  157.0006 H   0  0  0  0  0  0  0  0  0  0  0  0
  1  2  1  0  0  0  0
  1 22  1  0  0  0  0
  1 23  1  0  0  0  0
  1 24  1  0  0  0  0
  2 21  1  0  0  0  0
  2  3  2  0  0  0  0
  3  4  1  0  0  0  0
  3 25  1  0  0  0  0
  4  5  2  0  0  0  0
  4 26  1  0  0  0  0
  5  6  1  0  0  0  0
  5  7  1  0  0  0  0
  7  8  1  0  0  0  0
  7 21  2  0  0  0  0
  8  9  1  0  0  0  0
  9 10  1  0  0  0  0
  9 27  1  0  0  0  0
  9 28  1  0  0  0  0
 10 11  1  0  0  0  0
 10 12  1  0  0  0  0
 10 29  1  0  0  0  0
 11 30  1  0  0  0  0
 12 13  1  0  0  0  0
 12 31  1  0  0  0  0
 12 32  1  0  0  0  0
 13 19  1  0  0  0  0
 13 14  1  0  0  0  0
 14 15  2  0  0  0  0
 15 16  1  0  0  0  0
 15 17  1  0  0  0  0
 16 33  1  0  0  0  0
 16 34  1  0  0  0  0
 16 35  1  0  0  0  0
 17 18  2  0  0  0  0
 17 36  1  0  0  0  0
 18 19  1  0  0  0  0
 18 37  1  0  0  0  0
 19 20  2  0  0  0  0
 21 38  1  0  0  0  0
M  END
> <s_m_source_file>
AV-unprocessed.smi

> <i_m_source_file_index>
2782

> <i_lp_mmshare_version>
43012

> <i_f3d_flags>
0

> <s_epik_input>
W0NIM11jMVtjSF1bY0hdYyhDbCljKFtjSF0xKU9bQ0gyXVtDQEhdKFtPSF0pW0NIMl1uMm5jKFtDSDNdKVtjSF1bY0hdYzI9Tw==

> <s_epik_cmdline>
J2VwaWtfcHl0aG9uJywgJy1waCcsICc3LjAnLCAnLXRuJywgJzgnLCAnLW1hJywgJzIwMCcsICctbWV0YWxfYmluZGluZycsICctaW1hZScsICc8aW5maWxlLm1hZT4nLCAnLW9tYWUnLCAnPG91dGZpbGUubWFlPic=

> <r_lp_tautomer_probability>
1

> <r_epik_Ionization_Penalty>
2.96353e-07

> <r_epik_Ionization_Penalty_Charging>
1.79179e-07

> <r_epik_Ionization_Penalty_Neutral>
1.17174e-07

> <r_epik_State_Penalty>
-0

> <r_epik_Charging_Adjusted_Penalty>
1.79179e-07

> <i_epik_Tot_Q>
0

> <i_epik_Tot_abs_Q>
0

> <r_epik_Metal_State_Penalty>
-0

> <b_epik_Metal_Only>
0

> <s_lp_Force_Field>
OPLS_2005

> <r_lp_Energy>
25.2407

> <b_lp_Chiralities_Consistent>
1

> <s_lp_Variant>
AV-unprocessed.smi:2782-2

> <Gold.Version>
5.8.1

> <Gold.Id.Protein>
6NUR|6NUR_protein|mol2

> <Gold.PLP.Fitness>
47.7975

> <Gold.PLP.PLP>
-42.8198

> <Gold.PLP.part.hbond>
-4.0000

> <Gold.PLP.part.metal>
0.0000

> <Gold.PLP.part.buried>
-4.4857

> <Gold.PLP.part.nonpolar>
-33.6421

> <Gold.PLP.part.repulsive>
0.2337

> <Gold.PLP.ligand.clash>
0.0000

> <Gold.PLP.ligand.torsion>
1.0460

> <Gold.PLP.Chemscore.Hbond>
2.3400

> <Gold.PLP.Chemscore.CHOScore>
0.0000

> <Gold.PLP.Chemscore.Metal>
0.0000

> <Gold.Chemscore.Hbonds>
donor molecule, donor type, donor heavy atom, donor atom, acceptor molecule, acceptor atom, score
      L1  H    11    30       P1  7957  0.64
      P1  H  8011  8017       L1    11  0.85
      P1  H 10752 10765       L1    20  0.80

> <Gold.PLP.Chemscore.Internal.Correction>
0.0497

> <Gold.Rescore>
     Score         DG    S(hbond)    S(metal)    S(lipo)     H(rot)  DE(clash)    DE(int)     intcor
     17.56     -19.25       2.00        0.00     109.15       2.22       0.58       1.12       ----

> <Gold.Chemscore.Fitness>
17.5554

> <Gold.Chemscore.DG>
-19.2532

> <Gold.Chemscore.ZeroCoef>
-5.4800

> <Gold.Chemscore.Hbond>
2.0017

> <Gold.Chemscore.Metal>
0.0000

> <Gold.Chemscore.Lipo>
109.1489

> <Gold.Chemscore.Internal_Hbond>
0.0000

> <Gold.Chemscore.DEClash>
0.5754

> <Gold.Chemscore.DEInternal>
1.1224

> <Gold.Chemscore.Rot>
2.2199

> <Gold.Chemscore.Internal.Correction>
   9.000000E+99

> <Gold.Chemscore.Hbonds>
donor molecule, donor type, donor heavy atom, donor atom, acceptor molecule, acceptor atom, score
      L1  H    11    30       P1  7957  0.64
      P1  H  8011  8017       L1    11  0.14
      P1  H 10752 10765       L1    20  0.32

> <Gold.Chemscore.Hbond.Weighted>
-6.6857

> <Gold.Chemscore.Metal.Weighted>
-0.0000

> <Gold.Chemscore.Lipo.Weighted>
-12.7704

> <Gold.Chemscore.Internal_Hbond.Weighted>
0.0000

> <Gold.Chemscore.DEClash.Weighted>
0.5754

> <Gold.Chemscore.DEInternal.Weighted>
1.1224

> <Gold.Chemscore.Rot.Weighted>
5.6829

> <Gold.Chemscore.Internal.Correction.Weighted>
   9.000000E+99

> <Gold.Protein.RotatedTorsions>
[ 6907 6896 6895 6894 ] final  165.92 input  -60.11 | X-H torsion
[ 7974 7965 7964 7962 ] final -149.59 input  175.53 | X-H torsion
[ 8008 7997 7996 7995 ] final  -78.75 input   59.86 | X-H torsion
[ 10167 10162 10161 10158 ] final -111.97 input  -65.29 | X-H torsion
[ 10718 10713 10712 10709 ] final -117.37 input   66.30 | X-H torsion
[ 10763 10752 10751 10750 ] final -176.81 input  -60.55 | X-H torsion
[ 11005 11000 10999 10996 ] final  103.87 input  -57.11 | X-H torsion

> <Gold.Protein.ActiveResidues>
 VAL166  LYS551  ARG553  GLY616  TRP617  ASP618  TYR619  PRO620  LYS621  CYS622 
 ASP623  PHE694  ASN695  SER759  ASP760  ASP761  ALA762  ILE779  LEU786  VAL792 
 PHE793  MET794  SER795  GLU796  ALA797  LYS798  CYS799  TRP800  GLU811  SER814 

> <Gold.Protein.RotatedAtoms>
  151.8869  133.3507  159.3784 H   0  0  0  0  0  0  0  0  0  0  0  0  # atno 6907 bound_to 6896
  150.7113  134.4963  159.5549 H   0  0  0  0  0  0  0  0  0  0  0  0  # atno 6908 bound_to 6896
  152.2525  134.8118  160.0494 H   0  0  0  0  0  0  0  0  0  0  0  0  # atno 6909 bound_to 6896
  144.7958  140.5044  143.5741 H   0  0  0  0  0  0  0  0  0  0  0  0  # atno 7974 bound_to 7965
  154.5719  140.0689  156.8976 H   0  0  0  0  0  0  0  0  0  0  0  0  # atno 8008 bound_to 7997
  155.2620  140.3359  155.4254 H   0  0  0  0  0  0  0  0  0  0  0  0  # atno 8009 bound_to 7997
  156.2124  140.1764  156.7650 H   0  0  0  0  0  0  0  0  0  0  0  0  # atno 8010 bound_to 7997
  140.1278  143.4386  152.1647 H   0  0  0  0  0  0  0  0  0  0  0  0  # atno 10167 bound_to 10162
  156.1029  130.6187  150.9155 H   0  0  0  0  0  0  0  0  0  0  0  0  # atno 10718 bound_to 10713
  154.5678  135.2825  155.0856 H   0  0  0  0  0  0  0  0  0  0  0  0  # atno 10763 bound_to 10752
  154.2240  135.6386  153.5157 H   0  0  0  0  0  0  0  0  0  0  0  0  # atno 10764 bound_to 10752
  153.0048  135.5521  154.6293 H   0  0  0  0  0  0  0  0  0  0  0  0  # atno 10765 bound_to 10752
  139.8787  134.9279  156.5275 H   0  0  0  0  0  0  0  0  0  0  0  0  # atno 11005 bound_to 11000
  145.5677  139.1482  143.3306 LP  0  0  0  0  0  0  0  0  0  0  0  0  # atno 17320 bound_to 7965
  146.2226  140.5811  142.9010 LP  0  0  0  0  0  0  0  0  0  0  0  0  # atno 17321 bound_to 7965
  139.5535  144.7355  151.4364 LP  0  0  0  0  0  0  0  0  0  0  0  0  # atno 17342 bound_to 10162
  140.6834  143.8029  150.7153 LP  0  0  0  0  0  0  0  0  0  0  0  0  # atno 17343 bound_to 10162
  157.6202  131.0930  150.8636 LP  0  0  0  0  0  0  0  0  0  0  0  0  # atno 17370 bound_to 10713
  156.8761  130.5163  149.5293 LP  0  0  0  0  0  0  0  0  0  0  0  0  # atno 17371 bound_to 10713
  140.8405  133.8209  155.9070 LP  0  0  0  0  0  0  0  0  0  0  0  0  # atno 17394 bound_to 11000
  140.9242  134.2104  157.4907 LP  0  0  0  0  0  0  0  0  0  0  0  0  # atno 17395 bound_to 11000

$$$$
