AV-unprocessed.smi:688|AV-procd|sdf|3354|dock4
  -GOLD-   22720 0323D 1   1.00000     0.00000
 Structure written by MMmdl.
 36 37  0  0  0  0  0  0  0  0  1 V2000
  150.9770  143.3517  157.9108 O   0  0  0  0  0  0  0  0  0  0  0  0
  150.8974  142.3639  157.1831 C   0  0  0  0  0  0  0  0  0  0  0  0
  150.1746  142.4363  155.9883 N   0  0  0  0  0  0  0  0  0  0  0  0
  150.0073  141.3938  155.0759 C   0  0  0  0  0  0  0  0  0  0  0  0
  149.3381  141.5699  154.0575 O   0  0  0  0  0  0  0  0  0  0  0  0
  150.6334  140.1655  155.3907 N   0  0  0  0  0  0  0  0  0  0  0  0
  150.4699  139.0647  154.4716 C   0  0  0  0  0  0  0  0  0  0  0  0
  151.1215  137.7531  154.9644 C   0  0  2  0  0  0  0  0  0  0  0  0
  151.6556  137.0831  153.8389 O   0  0  0  0  0  0  0  0  0  0  0  0
  150.0894  136.8127  155.6088 C   0  0  0  0  0  0  0  0  0  0  0  0
  150.4838  135.4678  155.3918 O   0  0  0  0  0  0  0  0  0  0  0  0
  149.4970  134.7076  154.7124 C   0  0  0  0  0  0  0  0  0  0  0  0
  149.7700  133.2168  154.7849 C   0  0  0  0  0  0  0  0  0  0  0  0
  150.7737  132.7125  155.6398 C   0  0  0  0  0  0  0  0  0  0  0  0
  151.0334  131.3290  155.6892 C   0  0  0  0  0  0  0  0  0  0  0  0
  150.2962  130.4439  154.8786 C   0  0  0  0  0  0  0  0  0  0  0  0
  150.6142  128.7491  154.9388 Cl  0  0  0  0  0  0  0  0  0  0  0  0
  149.3011  130.9438  154.0164 C   0  0  0  0  0  0  0  0  0  0  0  0
  149.0410  132.3273  153.9675 C   0  0  0  0  0  0  0  0  0  0  0  0
  151.3534  140.0459  156.5692 C   0  0  0  0  0  0  0  0  0  0  0  0
  151.5073  141.0621  157.4521 C   0  0  0  0  0  0  0  0  0  0  0  0
  152.4200  140.8348  158.9011 Cl  0  0  0  0  0  0  0  0  0  0  0  0
  149.7329  143.3173  155.7687 H   0  0  0  0  0  0  0  0  0  0  0  0
  149.3955  138.9552  154.3079 H   0  0  0  0  0  0  0  0  0  0  0  0
  150.8799  139.3891  153.5131 H   0  0  0  0  0  0  0  0  0  0  0  0
  151.9164  137.9658  155.6806 H   0  0  0  0  0  0  0  0  0  0  0  0
  150.9416  136.8193  153.2793 H   0  0  0  0  0  0  0  0  0  0  0  0
  150.0568  136.9835  156.6860 H   0  0  0  0  0  0  0  0  0  0  0  0
  149.0863  137.0031  155.2225 H   0  0  0  0  0  0  0  0  0  0  0  0
  148.5153  134.9153  155.1414 H   0  0  0  0  0  0  0  0  0  0  0  0
  149.4616  134.9977  153.6613 H   0  0  0  0  0  0  0  0  0  0  0  0
  151.3484  133.3835  156.2615 H   0  0  0  0  0  0  0  0  0  0  0  0
  151.7998  130.9484  156.3486 H   0  0  0  0  0  0  0  0  0  0  0  0
  148.7366  130.2682  153.3907 H   0  0  0  0  0  0  0  0  0  0  0  0
  148.2787  132.7031  153.3008 H   0  0  0  0  0  0  0  0  0  0  0  0
  151.8140  139.0958  156.8003 H   0  0  0  0  0  0  0  0  0  0  0  0
  1  2  2  0  0  0  0
  2 21  1  0  0  0  0
  2  3  1  0  0  0  0
  3 23  1  0  0  0  0
  3  4  1  0  0  0  0
  4  5  2  0  0  0  0
  4  6  1  0  0  0  0
  6  7  1  0  0  0  0
  6 20  1  0  0  0  0
  7  8  1  0  0  0  0
  7 24  1  0  0  0  0
  7 25  1  0  0  0  0
  8  9  1  0  0  0  0
  8 10  1  0  0  0  0
  8 26  1  0  0  0  0
  9 27  1  0  0  0  0
 10 11  1  0  0  0  0
 10 28  1  0  0  0  0
 10 29  1  0  0  0  0
 11 12  1  0  0  0  0
 12 13  1  0  0  0  0
 12 30  1  0  0  0  0
 12 31  1  0  0  0  0
 13 19  1  0  0  0  0
 13 14  2  0  0  0  0
 14 15  1  0  0  0  0
 14 32  1  0  0  0  0
 15 16  2  0  0  0  0
 15 33  1  0  0  0  0
 16 17  1  0  0  0  0
 16 18  1  0  0  0  0
 18 19  2  0  0  0  0
 18 34  1  0  0  0  0
 19 35  1  0  0  0  0
 20 21  2  0  0  0  0
 20 36  1  0  0  0  0
 21 22  1  0  0  0  0
M  END
> <s_m_source_file>
AV-unprocessed.smi

> <i_m_source_file_index>
688

> <i_lp_mmshare_version>
43012

> <i_f3d_flags>
0

> <s_epik_input>
Tz1jMVtuSF1jKD1PKW4oW2NIXWMxQ2wpW0NIMl1bQ0BIXShbT0hdKVtDSDJdT1tDSDJdYzJbY0hdW2NIXWMoQ2wpW2NIXVtjSF0y

> <s_epik_cmdline>
J2VwaWtfcHl0aG9uJywgJy1waCcsICc3LjAnLCAnLXRuJywgJzgnLCAnLW1hJywgJzIwMCcsICctbWV0YWxfYmluZGluZycsICctaW1hZScsICc8aW5maWxlLm1hZT4nLCAnLW9tYWUnLCAnPG91dGZpbGUubWFlPic=

> <r_lp_tautomer_probability>
0.999537

> <r_epik_Ionization_Penalty>
0.0280571

> <r_epik_Ionization_Penalty_Charging>
0.028057

> <r_epik_Ionization_Penalty_Neutral>
6.25502e-08

> <r_epik_State_Penalty>
0.0230008

> <r_epik_Charging_Adjusted_Penalty>
0.0510579

> <i_epik_Tot_Q>
0

> <i_epik_Tot_abs_Q>
0

> <r_epik_Metal_State_Penalty>
2.1942

> <b_epik_Metal_Only>
0

> <s_lp_Force_Field>
OPLS_2005

> <r_lp_Energy>
17.1949

> <b_lp_Chiralities_Consistent>
1

> <s_lp_Variant>
AV-unprocessed.smi:688-1

> <Gold.Version>
5.8.1

> <Gold.Id.Protein>
6NUR|6NUR_protein|mol2

> <Gold.PLP.Fitness>
50.1328

> <Gold.PLP.PLP>
-43.3470

> <Gold.PLP.part.hbond>
-5.0000

> <Gold.PLP.part.metal>
0.0000

> <Gold.PLP.part.buried>
-5.3868

> <Gold.PLP.part.nonpolar>
-33.2202

> <Gold.PLP.part.repulsive>
0.5670

> <Gold.PLP.ligand.clash>
0.0000

> <Gold.PLP.ligand.torsion>
1.4373

> <Gold.PLP.Chemscore.Hbond>
3.2000

> <Gold.PLP.Chemscore.CHOScore>
0.0000

> <Gold.PLP.Chemscore.Metal>
0.0000

> <Gold.Chemscore.Hbonds>
donor molecule, donor type, donor heavy atom, donor atom, acceptor molecule, acceptor atom, score
      L1  H     3    23       P1  8028  1.00
      L1  H     9    27       P1  7949  0.47
      P1  H  8011  8017       L1     5  0.64
      P1  H 10752 10765       L1     9  1.00

> <Gold.PLP.Chemscore.Internal.Correction>
0.0604

> <Gold.Rescore>
     Score         DG    S(hbond)    S(metal)    S(lipo)     H(rot)  DE(clash)    DE(int)     intcor
     15.33     -16.91       2.92        0.00      78.80       2.94       0.18       1.41       ----

> <Gold.Chemscore.Fitness>
15.3282

> <Gold.Chemscore.DG>
-16.9119

> <Gold.Chemscore.ZeroCoef>
-5.4800

> <Gold.Chemscore.Hbond>
2.9181

> <Gold.Chemscore.Metal>
0.0000

> <Gold.Chemscore.Lipo>
78.7967

> <Gold.Chemscore.Internal_Hbond>
0.0000

> <Gold.Chemscore.DEClash>
0.1751

> <Gold.Chemscore.DEInternal>
1.4086

> <Gold.Chemscore.Rot>
2.9429

> <Gold.Chemscore.Internal.Correction>
   9.000000E+99

> <Gold.Chemscore.Hbonds>
donor molecule, donor type, donor heavy atom, donor atom, acceptor molecule, acceptor atom, score
      L1  H     3    23       P1  8028  1.00
      L1  H     9    27       P1  7949  0.10
      P1  H  8011  8017       L1     5  0.63
      P1  H 10752 10765       L1     9  0.75

> <Gold.Chemscore.Hbond.Weighted>
-9.7464

> <Gold.Chemscore.Metal.Weighted>
-0.0000

> <Gold.Chemscore.Lipo.Weighted>
-9.2192

> <Gold.Chemscore.Internal_Hbond.Weighted>
0.0000

> <Gold.Chemscore.DEClash.Weighted>
0.1751

> <Gold.Chemscore.DEInternal.Weighted>
1.4086

> <Gold.Chemscore.Rot.Weighted>
7.5337

> <Gold.Chemscore.Internal.Correction.Weighted>
   9.000000E+99

> <Gold.Protein.RotatedTorsions>
[ 6907 6896 6895 6894 ] final  -37.12 input  -60.11 | X-H torsion
[ 7974 7965 7964 7962 ] final -122.53 input  175.53 | X-H torsion
[ 8008 7997 7996 7995 ] final    7.37 input   59.86 | X-H torsion
[ 10167 10162 10161 10158 ] final  137.86 input  -65.29 | X-H torsion
[ 10718 10713 10712 10709 ] final   62.40 input   66.30 | X-H torsion
[ 10763 10752 10751 10750 ] final  166.43 input  -60.55 | X-H torsion
[ 11005 11000 10999 10996 ] final  172.45 input  -57.11 | X-H torsion

> <Gold.Protein.ActiveResidues>
 VAL166  LYS551  ARG553  GLY616  TRP617  ASP618  TYR619  PRO620  LYS621  CYS622 
 ASP623  PHE694  ASN695  SER759  ASP760  ASP761  ALA762  ILE779  LEU786  VAL792 
 PHE793  MET794  SER795  GLU796  ALA797  LYS798  CYS799  TRP800  GLU811  SER814 

> <Gold.Protein.RotatedAtoms>
  151.0186  134.9452  159.8046 H   0  0  0  0  0  0  0  0  0  0  0  0  # atno 6907 bound_to 6896
  152.5320  134.2933  159.9061 H   0  0  0  0  0  0  0  0  0  0  0  0  # atno 6908 bound_to 6896
  151.2940  133.4110  159.2669 H   0  0  0  0  0  0  0  0  0  0  0  0  # atno 6909 bound_to 6896
  145.0284  140.8047  143.4338 H   0  0  0  0  0  0  0  0  0  0  0  0  # atno 7974 bound_to 7965
  154.7530  140.2770  155.6276 H   0  0  0  0  0  0  0  0  0  0  0  0  # atno 8008 bound_to 7997
  156.2900  140.2674  156.2215 H   0  0  0  0  0  0  0  0  0  0  0  0  # atno 8009 bound_to 7997
  155.0113  140.0372  157.2390 H   0  0  0  0  0  0  0  0  0  0  0  0  # atno 8010 bound_to 7997
  139.5130  144.6386  151.5630 H   0  0  0  0  0  0  0  0  0  0  0  0  # atno 10167 bound_to 10162
  157.5898  130.9048  149.9584 H   0  0  0  0  0  0  0  0  0  0  0  0  # atno 10718 bound_to 10713
  154.3388  135.2754  155.2433 H   0  0  0  0  0  0  0  0  0  0  0  0  # atno 10763 bound_to 10752
  154.4713  135.5882  153.6327 H   0  0  0  0  0  0  0  0  0  0  0  0  # atno 10764 bound_to 10752
  152.9859  135.6089  154.3588 H   0  0  0  0  0  0  0  0  0  0  0  0  # atno 10765 bound_to 10752
  140.3299  134.7366  157.4126 H   0  0  0  0  0  0  0  0  0  0  0  0  # atno 11005 bound_to 11000
  145.1803  139.2355  143.5296 LP  0  0  0  0  0  0  0  0  0  0  0  0  # atno 17320 bound_to 7965
  146.3495  140.1575  142.8591 LP  0  0  0  0  0  0  0  0  0  0  0  0  # atno 17321 bound_to 7965
  140.6144  143.9376  150.6477 LP  0  0  0  0  0  0  0  0  0  0  0  0  # atno 17342 bound_to 10162
  140.2629  143.3511  152.1307 LP  0  0  0  0  0  0  0  0  0  0  0  0  # atno 17343 bound_to 10162
  156.0951  130.3660  150.0321 LP  0  0  0  0  0  0  0  0  0  0  0  0  # atno 17370 bound_to 10713
  156.8445  130.9437  151.3629 LP  0  0  0  0  0  0  0  0  0  0  0  0  # atno 17371 bound_to 10713
  140.0870  134.5653  155.8483 LP  0  0  0  0  0  0  0  0  0  0  0  0  # atno 17394 bound_to 11000
  141.2066  133.6656  156.6252 LP  0  0  0  0  0  0  0  0  0  0  0  0  # atno 17395 bound_to 11000

$$$$
