#       Name:                AV-unprocessed.smi:3029
#       Creating user name   scv26
#       Creation time:       Fri Mar 27 16:46:55 2020


#       File generated by GOLD software.
#

@<TRIPOS>MOLECULE
AV-unprocessed.smi:3029
    46    47     1
SMALL
NO_CHARGES


@<TRIPOS>ATOM
      1 ****        -2.7525   1.0191   2.2582 O.2            1 S1                 0.0000
      2 ****        -2.7836   1.9529   1.4567 C.2            1 S1                 0.0000
      3 ****        -3.3666   3.2547   1.7974 C.2            1 S1                 0.0000
      4 ****        -3.3755   4.2779   0.9202 C.2            1 S1                 0.0000
      5 ****        -2.8001   4.1186  -0.4014 C.2            1 S1                 0.0000
      6 ****        -2.7897   5.2141  -1.3456 N.pl3          1 S1                 1.0000
      7 ****        -2.2360   5.0593  -2.4300 O.2            1 S1                 0.0000
      8 ****        -3.3352   6.2668  -1.0313 O.2            1 S1                -1.0000
      9 ****        -2.2740   2.9182  -0.7150 C.2            1 S1                 0.0000
     10 ****        -2.2722   1.8425   0.1934 N.am           1 S1                 0.0000
     11 ****        -1.6720   0.5826  -0.2654 C.3            1 S1                 0.0000
     12 ****        -0.1966   0.4772   0.1524 C.3            1 S1                 0.0000
     13 ****         0.3894  -0.7957  -0.3154 N.4            1 S1                 1.0000
     14 ****         1.8335  -0.9779  -0.0315 C.3            1 S1                 0.0000
     15 ****         2.0770  -1.3321   1.4530 C.3            1 S1                 0.0000
     16 ****         1.5522  -2.7344   1.8061 C.3            1 S1                 0.0000
     17 ****         2.1593  -3.8036   0.8858 C.3            1 S1                 0.0000
     18 ****         1.9293  -3.4679  -0.5965 C.3            1 S1                 0.0000
     19 ****         2.4611  -2.0609  -0.9498 C.3            1 S1                 0.0000
     20 ****         2.3473  -1.7436  -2.4589 C.3            1 S1                 0.0000
     21 ****         1.0808  -1.7839  -2.8738 F              1 S1                 0.0000
     22 ****         2.8436  -0.5319  -2.7082 F              1 S1                 0.0000
     23 ****         3.0508  -2.6326  -3.1593 F              1 S1                 0.0000
     24 ****        -3.8008   3.3951   2.7766 H              1 S1                 0.0000
     25 ****        -3.8168   5.2184   1.2163 H              1 S1                 0.0000
     26 ****        -1.8186   2.6996  -1.6703 H              1 S1                 0.0000
     27 ****        -2.2335  -0.2693   0.1229 H              1 S1                 0.0000
     28 ****        -1.7532   0.5022  -1.3508 H              1 S1                 0.0000
     29 ****         0.3680   1.3104  -0.2687 H              1 S1                 0.0000
     30 ****        -0.1115   0.5446   1.2368 H              1 S1                 0.0000
     31 ****        -0.1217  -1.5678   0.0885 H              1 S1                 0.0000
     32 ****         2.3327  -0.0312  -0.2427 H              1 S1                 0.0000
     33 ****         3.1486  -1.2978   1.6542 H              1 S1                 0.0000
     34 ****         1.6324  -0.5897   2.1151 H              1 S1                 0.0000
     35 ****         1.7867  -2.9659   2.8456 H              1 S1                 0.0000
     36 ****         0.4647  -2.7549   1.7263 H              1 S1                 0.0000
     37 ****         3.2298  -3.8835   1.0785 H              1 S1                 0.0000
     38 ****         1.7321  -4.7799   1.1167 H              1 S1                 0.0000
     39 ****         2.4220  -4.2202  -1.2130 H              1 S1                 0.0000
     40 ****         0.8657  -3.5358  -0.8273 H              1 S1                 0.0000
     41 ****         3.5299  -2.0687  -0.7279 H              1 S1                 0.0000
     42 ****         0.2714  -0.8267  -1.3183 H              1 S1                 0.0000
     43 ****        -2.3439   0.1458   1.9928 LP             1 S1                 0.0000
     44 ****        -3.1357   1.1339   3.1747 LP             1 S1                 0.0000
     45 ****        -1.8011   4.1859  -2.6492 LP             1 S1                 0.0000
     46 ****        -2.2197   5.8066  -3.0943 LP             1 S1                 0.0000
@<TRIPOS>BOND
    1    1    2 2     
    2    2   10 am    
    3    2    3 1     
    4    3    4 2     
    5    3   24 1     
    6    4    5 1     
    7    4   25 1     
    8    5    6 1     
    9    5    9 2     
   10    6    7 2     
   11    6    8 1     
   12    9   10 1     
   13    9   26 1     
   14   10   11 1     
   15   11   12 1     
   16   11   27 1     
   17   11   28 1     
   18   12   13 1     
   19   12   29 1     
   20   12   30 1     
   21   13   14 1     
   22   13   31 1     
   23   13   42 1     
   24   14   19 1     
   25   14   15 1     
   26   14   32 1     
   27   15   16 1     
   28   15   33 1     
   29   15   34 1     
   30   16   17 1     
   31   16   35 1     
   32   16   36 1     
   33   17   18 1     
   34   17   37 1     
   35   17   38 1     
   36   18   19 1     
   37   18   39 1     
   38   18   40 1     
   39   19   20 1     
   40   19   41 1     
   41   20   21 1     
   42   20   22 1     
   43   20   23 1     
   44    1   43 1     
   45    1   44 1     
   46    7   45 1     
   47    7   46 1     
@<TRIPOS>SUBSTRUCTURE
      1 S1             1
@<TRIPOS>SET
LONE_PAIRS      STATIC     ATOMS    <user>   **** ""
5 43 44 45 46 8
DONOR_HYDROGENS      STATIC     ATOMS    <user>   **** ""
2 31 42
ATOM$BLUE        STATIC     ATOMS    COLORGROUP SYSTEM
5 43 44 45 46 8
ATOM$RED        STATIC     ATOMS    COLORGROUP SYSTEM
2 31 42
