AV-unprocessed.smi:2147|AV-procd|sdf|8745|dock5
  -GOLD-   2272011523D 1   1.00000     0.00000
 Structure written by MMmdl.
 42 44  0  0  0  0  0  0  0  0  2 V2000
  142.7636  146.4820  154.9833 C   0  0  0  0  0  0  0  0  0  0  0  0
  143.6539  145.9532  153.8601 C   0  0  0  0  0  0  0  0  0  0  0  0
  143.6264  146.5200  152.7681 O   0  0  0  0  0  0  0  0  0  0  0  0
  144.5156  144.7724  154.1528 C   0  0  0  0  0  0  0  0  0  0  0  0
  144.4808  144.1146  155.4042 C   0  0  0  0  0  0  0  0  0  0  0  0
  145.3103  143.0036  155.6499 C   0  0  0  0  0  0  0  0  0  0  0  0
  146.1910  142.5233  154.6608 C   0  0  0  0  0  0  0  0  0  0  0  0
  146.9716  141.4359  154.9902 O   0  0  0  0  0  0  0  0  0  0  0  0
  147.9732  141.0243  154.0695 C   0  0  0  0  0  0  0  0  0  0  0  0
  149.2184  140.5827  154.8522 C   0  0  1  0  0  0  0  0  0  0  0  0
  150.1089  139.9456  153.9572 O   0  0  0  0  0  0  0  0  0  0  0  0
  149.9305  141.7662  155.5380 C   0  0  0  0  0  0  0  0  0  0  0  0
  150.6822  141.3658  156.7345 N   0  0  0  0  0  0  0  0  0  0  0  0
  150.9264  140.1256  157.2382 C   0  0  0  0  0  0  0  0  0  0  0  0
  151.6695  140.2805  158.3692 N   0  3  0  0  0  0  0  0  0  0  0  0
  151.9013  141.6397  158.5919 C   0  0  0  0  0  0  0  0  0  0  0  0
  152.5972  142.2919  159.6051 C   0  0  0  0  0  0  0  0  0  0  0  0
  152.6422  143.7001  159.5367 C   0  0  0  0  0  0  0  0  0  0  0  0
  152.0113  144.4057  158.4910 C   0  0  0  0  0  0  0  0  0  0  0  0
  151.3083  143.7341  157.4687 C   0  0  0  0  0  0  0  0  0  0  0  0
  151.2694  142.3426  157.5444 C   0  0  0  0  0  0  0  0  0  0  0  0
  146.2226  143.1776  153.4049 C   0  0  0  0  0  0  0  0  0  0  0  0
  145.3937  144.2887  153.1573 C   0  0  0  0  0  0  0  0  0  0  0  0
  143.3663  146.7764  155.8426 H   0  0  0  0  0  0  0  0  0  0  0  0
  142.0511  145.7190  155.2969 H   0  0  0  0  0  0  0  0  0  0  0  0
  142.2024  147.3540  154.6462 H   0  0  0  0  0  0  0  0  0  0  0  0
  143.8243  144.4456  156.1949 H   0  0  0  0  0  0  0  0  0  0  0  0
  145.2712  142.5155  156.6127 H   0  0  0  0  0  0  0  0  0  0  0  0
  147.5954  140.1901  153.4757 H   0  0  0  0  0  0  0  0  0  0  0  0
  148.2320  141.8357  153.3868 H   0  0  0  0  0  0  0  0  0  0  0  0
  148.9246  139.8456  155.6002 H   0  0  0  0  0  0  0  0  0  0  0  0
  149.6926  139.8872  153.1106 H   0  0  0  0  0  0  0  0  0  0  0  0
  150.6381  142.2307  154.8498 H   0  0  0  0  0  0  0  0  0  0  0  0
  149.2193  142.5433  155.8209 H   0  0  0  0  0  0  0  0  0  0  0  0
  150.5876  139.1894  156.8186 H   0  0  0  0  0  0  0  0  0  0  0  0
  153.0805  141.7541  160.4075 H   0  0  0  0  0  0  0  0  0  0  0  0
  153.1710  144.2499  160.3017 H   0  0  0  0  0  0  0  0  0  0  0  0
  152.0674  145.4846  158.4731 H   0  0  0  0  0  0  0  0  0  0  0  0
  150.8265  144.2821  156.6726 H   0  0  0  0  0  0  0  0  0  0  0  0
  146.8754  142.8473  152.6115 H   0  0  0  0  0  0  0  0  0  0  0  0
  145.4428  144.7667  152.1894 H   0  0  0  0  0  0  0  0  0  0  0  0
  151.9905  139.5133  158.9457 H   0  0  0  0  0  0  0  0  0  0  0  0
  1  2  1  0  0  0  0
  1 24  1  0  0  0  0
  1 25  1  0  0  0  0
  1 26  1  0  0  0  0
  2  3  2  0  0  0  0
  2  4  1  0  0  0  0
  4 23  1  0  0  0  0
  4  5  2  0  0  0  0
  5  6  1  0  0  0  0
  5 27  1  0  0  0  0
  6  7  2  0  0  0  0
  6 28  1  0  0  0  0
  7  8  1  0  0  0  0
  7 22  1  0  0  0  0
  8  9  1  0  0  0  0
  9 10  1  0  0  0  0
  9 29  1  0  0  0  0
  9 30  1  0  0  0  0
 10 11  1  0  0  0  0
 10 12  1  0  0  0  0
 10 31  1  0  0  0  0
 11 32  1  0  0  0  0
 12 13  1  0  0  0  0
 12 33  1  0  0  0  0
 12 34  1  0  0  0  0
 13 21  1  0  0  0  0
 13 14  1  0  0  0  0
 14 15  2  0  0  0  0
 14 35  1  0  0  0  0
 15 16  1  0  0  0  0
 15 42  1  0  0  0  0
 16 21  2  0  0  0  0
 16 17  1  0  0  0  0
 17 18  2  0  0  0  0
 17 36  1  0  0  0  0
 18 19  1  0  0  0  0
 18 37  1  0  0  0  0
 19 20  2  0  0  0  0
 19 38  1  0  0  0  0
 20 21  1  0  0  0  0
 20 39  1  0  0  0  0
 22 23  2  0  0  0  0
 22 40  1  0  0  0  0
 23 41  1  0  0  0  0
M  CHG  1  15   1
M  END
> <s_m_source_file>
AV-unprocessed.smi

> <i_m_source_file_index>
2147

> <i_lp_mmshare_version>
43012

> <i_f3d_flags>
0

> <s_epik_input>
W0NIM11DKD1PKWMxW2NIXVtjSF1jKFtjSF1bY0hdMSlPW0NIMl1bQ0BIXShbT0hdKVtDSDJdbihbY0hdbjIpYyhjMjMpW2NIXVtjSF1bY0hdW2NIXTM=

> <s_epik_cmdline>
J2VwaWtfcHl0aG9uJywgJy1waCcsICc3LjAnLCAnLXRuJywgJzgnLCAnLW1hJywgJzIwMCcsICctbWV0YWxfYmluZGluZycsICctaW1hZScsICc8aW5maWxlLm1hZT4nLCAnLW9tYWUnLCAnPG91dGZpbGUubWFlPic=

> <r_lp_tautomer_probability>
0.99995

> <r_epik_Ionization_Penalty>
1.40272

> <r_epik_Ionization_Penalty_Charging>
1.40272

> <r_epik_Ionization_Penalty_Neutral>
2.3993e-06

> <r_epik_State_Penalty>
1.48501

> <r_epik_Charging_Adjusted_Penalty>
2.88772

> <i_epik_Tot_Q>
1

> <i_epik_Tot_abs_Q>
1

> <r_epik_Metal_State_Penalty>
5.5274

> <b_epik_Metal_Only>
0

> <s_lp_Force_Field>
OPLS_2005

> <r_lp_Energy>
26.1974

> <b_lp_Chiralities_Consistent>
1

> <s_lp_Variant>
AV-unprocessed.smi:2147-4

> <Gold.Version>
5.8.1

> <Gold.Id.Protein>
6NUR|6NUR_protein|mol2

> <Gold.PLP.Fitness>
59.3414

> <Gold.PLP.PLP>
-54.8417

> <Gold.PLP.part.hbond>
-3.8761

> <Gold.PLP.part.metal>
0.0000

> <Gold.PLP.part.buried>
-7.6075

> <Gold.PLP.part.nonpolar>
-44.2195

> <Gold.PLP.part.repulsive>
0.3006

> <Gold.PLP.ligand.clash>
0.0000

> <Gold.PLP.ligand.torsion>
0.7145

> <Gold.PLP.Chemscore.Hbond>
1.8960

> <Gold.PLP.Chemscore.CHOScore>
0.0000

> <Gold.PLP.Chemscore.Metal>
0.0000

> <Gold.Chemscore.Hbonds>
donor molecule, donor type, donor heavy atom, donor atom, acceptor molecule, acceptor atom, score
      L1  H    11    32       P1  7957  1.00
      P1  H  7989  7998       L1    11  0.90

> <Gold.PLP.Chemscore.Internal.Correction>
0.2406

> <Gold.Rescore>
     Score         DG    S(hbond)    S(metal)    S(lipo)     H(rot)  DE(clash)    DE(int)     intcor
     14.94     -17.46       0.97        0.00     129.03       2.48       1.86       0.67       ----

> <Gold.Chemscore.Fitness>
14.9355

> <Gold.Chemscore.DG>
-17.4639

> <Gold.Chemscore.ZeroCoef>
-5.4800

> <Gold.Chemscore.Hbond>
0.9721

> <Gold.Chemscore.Metal>
0.0000

> <Gold.Chemscore.Lipo>
129.0293

> <Gold.Chemscore.Internal_Hbond>
0.0000

> <Gold.Chemscore.DEClash>
1.8631

> <Gold.Chemscore.DEInternal>
0.6654

> <Gold.Chemscore.Rot>
2.4842

> <Gold.Chemscore.Internal.Correction>
   9.000000E+99

> <Gold.Chemscore.Hbonds>
donor molecule, donor type, donor heavy atom, donor atom, acceptor molecule, acceptor atom, score
      L1  H    11    32       P1  7957  0.97
      P1  H  7989  7998       L1    11  0.18

> <Gold.Chemscore.Hbond.Weighted>
-3.2469

> <Gold.Chemscore.Metal.Weighted>
-0.0000

> <Gold.Chemscore.Lipo.Weighted>
-15.0964

> <Gold.Chemscore.Internal_Hbond.Weighted>
0.0000

> <Gold.Chemscore.DEClash.Weighted>
1.8631

> <Gold.Chemscore.DEInternal.Weighted>
0.6654

> <Gold.Chemscore.Rot.Weighted>
6.3594

> <Gold.Chemscore.Internal.Correction.Weighted>
   9.000000E+99

> <Gold.Protein.RotatedTorsions>
[ 6907 6896 6895 6894 ] final  113.41 input  -60.11 | X-H torsion
[ 7974 7965 7964 7962 ] final  -20.39 input  175.53 | X-H torsion
[ 8008 7997 7996 7995 ] final  164.72 input   59.86 | X-H torsion
[ 10167 10162 10161 10158 ] final  -25.63 input  -65.29 | X-H torsion
[ 10718 10713 10712 10709 ] final   86.26 input   66.30 | X-H torsion
[ 10763 10752 10751 10750 ] final   49.78 input  -60.55 | X-H torsion
[ 11005 11000 10999 10996 ] final   71.86 input  -57.11 | X-H torsion

> <Gold.Protein.ActiveResidues>
 VAL166  LYS551  ARG553  GLY616  TRP617  ASP618  TYR619  PRO620  LYS621  CYS622 
 ASP623  PHE694  ASN695  SER759  ASP760  ASP761  ALA762  ILE779  LEU786  VAL792 
 PHE793  MET794  SER795  GLU796  ALA797  LYS798  CYS799  TRP800  GLU811  SER814 

> <Gold.Protein.RotatedAtoms>
  152.4862  133.8380  159.7137 H   0  0  0  0  0  0  0  0  0  0  0  0  # atno 6907 bound_to 6896
  150.8951  133.7182  159.2900 H   0  0  0  0  0  0  0  0  0  0  0  0  # atno 6908 bound_to 6896
  151.4642  135.1044  159.9785 H   0  0  0  0  0  0  0  0  0  0  0  0  # atno 6909 bound_to 6896
  146.1791  140.4195  142.8502 H   0  0  0  0  0  0  0  0  0  0  0  0  # atno 7974 bound_to 7965
  156.1857  140.1689  156.8189 H   0  0  0  0  0  0  0  0  0  0  0  0  # atno 8008 bound_to 7997
  154.5412  140.0736  156.8545 H   0  0  0  0  0  0  0  0  0  0  0  0  # atno 8009 bound_to 7997
  155.3211  140.3373  155.4243 H   0  0  0  0  0  0  0  0  0  0  0  0  # atno 8010 bound_to 7997
  140.7286  143.4248  151.0894 H   0  0  0  0  0  0  0  0  0  0  0  0  # atno 10167 bound_to 10162
  157.6926  131.0208  150.2946 H   0  0  0  0  0  0  0  0  0  0  0  0  # atno 10718 bound_to 10713
  152.9786  135.5900  154.4145 H   0  0  0  0  0  0  0  0  0  0  0  0  # atno 10763 bound_to 10752
  154.3776  135.2767  155.2232 H   0  0  0  0  0  0  0  0  0  0  0  0  # atno 10764 bound_to 10752
  154.4160  135.6070  153.6035 H   0  0  0  0  0  0  0  0  0  0  0  0  # atno 10765 bound_to 10752
  139.9521  134.7209  156.0838 H   0  0  0  0  0  0  0  0  0  0  0  0  # atno 11005 bound_to 11000
  144.8284  140.6667  143.6307 LP  0  0  0  0  0  0  0  0  0  0  0  0  # atno 17320 bound_to 7965
  145.4128  139.1577  143.4116 LP  0  0  0  0  0  0  0  0  0  0  0  0  # atno 17321 bound_to 7965
  139.7898  143.8235  152.3150 LP  0  0  0  0  0  0  0  0  0  0  0  0  # atno 17342 bound_to 10162
  139.8214  144.7294  150.9567 LP  0  0  0  0  0  0  0  0  0  0  0  0  # atno 17343 bound_to 10162
  156.3472  130.3825  149.7359 LP  0  0  0  0  0  0  0  0  0  0  0  0  # atno 17370 bound_to 10713
  156.4849  130.8058  151.3071 LP  0  0  0  0  0  0  0  0  0  0  0  0  # atno 17371 bound_to 10713
  141.1186  133.6620  156.3156 LP  0  0  0  0  0  0  0  0  0  0  0  0  # atno 17394 bound_to 11000
  140.5695  134.5854  157.5454 LP  0  0  0  0  0  0  0  0  0  0  0  0  # atno 17395 bound_to 11000

$$$$
