AV-unprocessed.smi:3249|AV-procd|sdf|12422|dock8
  -GOLD-   2272018303D 1   1.00000     0.00000
 Structure written by MMmdl.
 44 45  0  0  0  0  0  0  0  0  2 V2000
  152.8572  143.1847  161.1102 C   0  0  0  0  0  0  0  0  0  0  0  0
  152.3063  143.2573  159.7153 C   0  0  0  0  0  0  0  0  0  0  0  0
  152.1798  144.4057  158.8838 C   0  0  0  0  0  0  0  0  0  0  0  0
  151.6465  144.1293  157.7055 N   0  0  0  0  0  0  0  0  0  0  0  0
  151.4202  142.7969  157.7367 N   0  0  0  0  0  0  0  0  0  0  0  0
  150.8072  142.1239  156.5961 C   0  0  1  0  0  0  0  0  0  0  0  0
  151.7554  141.0234  156.0848 C   0  0  0  0  0  0  0  0  0  0  0  0
  149.3821  141.5999  156.9274 C   0  0  2  0  0  0  0  0  0  0  0  0
  148.7074  140.9309  155.7140 C   0  0  0  0  0  0  0  0  0  0  0  0
  148.5377  142.7125  157.4242 N   0  3  0  0  0  0  0  0  0  0  0  0
  147.2383  142.3123  158.0045 C   0  0  0  0  0  0  0  0  0  0  0  0
  146.7907  143.2892  159.1022 C   0  0  1  0  0  0  0  0  0  0  0  0
  145.4001  143.8988  158.8256 C   0  0  0  0  0  0  0  0  0  0  0  0
  144.9556  144.7835  159.9958 C   0  0  0  0  0  0  0  0  0  0  0  0
  145.0457  143.9928  161.3050 C   0  0  0  0  0  0  0  0  0  0  0  0
  146.4444  143.3752  161.4600 C   0  0  0  0  0  0  0  0  0  0  0  0
  146.7438  142.5633  160.3282 O   0  0  0  0  0  0  0  0  0  0  0  0
  151.7994  142.2496  158.9449 C   0  0  0  0  0  0  0  0  0  0  0  0
  153.4610  144.0592  161.3537 H   0  0  0  0  0  0  0  0  0  0  0  0
  153.4914  142.3089  161.2488 H   0  0  0  0  0  0  0  0  0  0  0  0
  152.0613  143.1271  161.8529 H   0  0  0  0  0  0  0  0  0  0  0  0
  152.4563  145.4269  159.1016 H   0  0  0  0  0  0  0  0  0  0  0  0
  150.7151  142.8705  155.8055 H   0  0  0  0  0  0  0  0  0  0  0  0
  151.4241  140.6123  155.1319 H   0  0  0  0  0  0  0  0  0  0  0  0
  151.8317  140.2006  156.7966 H   0  0  0  0  0  0  0  0  0  0  0  0
  152.7603  141.4166  155.9266 H   0  0  0  0  0  0  0  0  0  0  0  0
  149.4691  140.8583  157.7232 H   0  0  0  0  0  0  0  0  0  0  0  0
  149.2632  140.0575  155.3751 H   0  0  0  0  0  0  0  0  0  0  0  0
  148.6272  141.6218  154.8742 H   0  0  0  0  0  0  0  0  0  0  0  0
  147.7028  140.5822  155.9514 H   0  0  0  0  0  0  0  0  0  0  0  0
  149.0563  143.1752  158.1576 H   0  0  0  0  0  0  0  0  0  0  0  0
  146.4751  142.2427  157.2297 H   0  0  0  0  0  0  0  0  0  0  0  0
  147.3474  141.3156  158.4346 H   0  0  0  0  0  0  0  0  0  0  0  0
  147.5345  144.0829  159.1955 H   0  0  0  0  0  0  0  0  0  0  0  0
  145.4142  144.4850  157.9064 H   0  0  0  0  0  0  0  0  0  0  0  0
  144.6710  143.1011  158.6764 H   0  0  0  0  0  0  0  0  0  0  0  0
  145.5949  145.6654  160.0539 H   0  0  0  0  0  0  0  0  0  0  0  0
  143.9383  145.1429  159.8376 H   0  0  0  0  0  0  0  0  0  0  0  0
  144.8210  144.6397  162.1536 H   0  0  0  0  0  0  0  0  0  0  0  0
  144.2958  143.2005  161.3081 H   0  0  0  0  0  0  0  0  0  0  0  0
  147.2027  144.1514  161.5758 H   0  0  0  0  0  0  0  0  0  0  0  0
  146.4835  142.7567  162.3570 H   0  0  0  0  0  0  0  0  0  0  0  0
  151.6792  141.1971  159.1561 H   0  0  0  0  0  0  0  0  0  0  0  0
  148.3854  143.3717  156.6745 H   0  0  0  0  0  0  0  0  0  0  0  0
  1  2  1  0  0  0  0
  1 19  1  0  0  0  0
  1 20  1  0  0  0  0
  1 21  1  0  0  0  0
  2 18  2  0  0  0  0
  2  3  1  0  0  0  0
  3  4  2  0  0  0  0
  3 22  1  0  0  0  0
  4  5  1  0  0  0  0
  5  6  1  0  0  0  0
  5 18  1  0  0  0  0
  6  7  1  0  0  0  0
  6  8  1  0  0  0  0
  6 23  1  0  0  0  0
  7 24  1  0  0  0  0
  7 25  1  0  0  0  0
  7 26  1  0  0  0  0
  8  9  1  0  0  0  0
  8 10  1  0  0  0  0
  8 27  1  0  0  0  0
  9 28  1  0  0  0  0
  9 29  1  0  0  0  0
  9 30  1  0  0  0  0
 10 11  1  0  0  0  0
 10 31  1  0  0  0  0
 10 44  1  0  0  0  0
 11 12  1  0  0  0  0
 11 32  1  0  0  0  0
 11 33  1  0  0  0  0
 12 17  1  0  0  0  0
 12 13  1  0  0  0  0
 12 34  1  0  0  0  0
 13 14  1  0  0  0  0
 13 35  1  0  0  0  0
 13 36  1  0  0  0  0
 14 15  1  0  0  0  0
 14 37  1  0  0  0  0
 14 38  1  0  0  0  0
 15 16  1  0  0  0  0
 15 39  1  0  0  0  0
 15 40  1  0  0  0  0
 16 17  1  0  0  0  0
 16 41  1  0  0  0  0
 16 42  1  0  0  0  0
 18 43  1  0  0  0  0
M  CHG  1  10   1
M  END
> <s_m_source_file>
AV-unprocessed.smi

> <i_m_source_file_index>
3249

> <i_lp_mmshare_version>
43012

> <i_f3d_flags>
0

> <s_epik_input>
W0NIM11jMVtjSF1ubihbY0hdMSlbQ0BIXShbQ0gzXSlbQ0BIXShbQ0gzXSlbTkhdW0NIMl1bQ0BASF0yW0NIMl1bQ0gyXVtDSDJdW0NIMl1PMg==

> <s_epik_cmdline>
J2VwaWtfcHl0aG9uJywgJy1waCcsICc3LjAnLCAnLXRuJywgJzgnLCAnLW1hJywgJzIwMCcsICctbWV0YWxfYmluZGluZycsICctaW1hZScsICc8aW5maWxlLm1hZT4nLCAnLW9tYWUnLCAnPG91dGZpbGUubWFlPic=

> <r_lp_tautomer_probability>
1

> <r_epik_Ionization_Penalty>
0.00659207

> <r_epik_Ionization_Penalty_Charging>
0.00656881

> <r_epik_Ionization_Penalty_Neutral>
2.32662e-05

> <r_epik_State_Penalty>
0.0048654

> <r_epik_Charging_Adjusted_Penalty>
0.0114342

> <i_epik_Tot_Q>
1

> <i_epik_Tot_abs_Q>
1

> <r_epik_Metal_State_Penalty>
-0

> <b_epik_Metal_Only>
0

> <s_lp_Force_Field>
OPLS_2005

> <r_lp_Energy>
17.782

> <b_lp_Chiralities_Consistent>
1

> <s_lp_Variant>
AV-unprocessed.smi:3249-6

> <Gold.Version>
5.8.1

> <Gold.Id.Protein>
6NUR|6NUR_protein|mol2

> <Gold.PLP.Fitness>
44.0432

> <Gold.PLP.PLP>
-36.6776

> <Gold.PLP.part.hbond>
-3.3646

> <Gold.PLP.part.metal>
0.0000

> <Gold.PLP.part.buried>
-4.5426

> <Gold.PLP.part.nonpolar>
-29.2124

> <Gold.PLP.part.repulsive>
0.1805

> <Gold.PLP.ligand.clash>
0.0000

> <Gold.PLP.ligand.torsion>
1.0289

> <Gold.PLP.Chemscore.Hbond>
3.0990

> <Gold.PLP.Chemscore.CHOScore>
0.0000

> <Gold.PLP.Chemscore.Metal>
0.0000

> <Gold.Chemscore.Hbonds>
donor molecule, donor type, donor heavy atom, donor atom, acceptor molecule, acceptor atom, score
      L1  H    10    44       P1  8028  2.00
      P1  H  6934  6946       L1    17  1.00

> <Gold.PLP.Chemscore.Internal.Correction>
0.1265

> <Gold.Rescore>
     Score         DG    S(hbond)    S(metal)    S(lipo)     H(rot)  DE(clash)    DE(int)     intcor
     16.55     -17.71       1.71        0.00      89.35       1.53       0.06       1.10       ----

> <Gold.Chemscore.Fitness>
16.5531

> <Gold.Chemscore.DG>
-17.7123

> <Gold.Chemscore.ZeroCoef>
-5.4800

> <Gold.Chemscore.Hbond>
1.7077

> <Gold.Chemscore.Metal>
0.0000

> <Gold.Chemscore.Lipo>
89.3492

> <Gold.Chemscore.Internal_Hbond>
0.0000

> <Gold.Chemscore.DEClash>
0.0585

> <Gold.Chemscore.DEInternal>
1.1007

> <Gold.Chemscore.Rot>
1.5333

> <Gold.Chemscore.Internal.Correction>
   9.000000E+99

> <Gold.Chemscore.Hbonds>
donor molecule, donor type, donor heavy atom, donor atom, acceptor molecule, acceptor atom, score
      L1  H    10    44       P1  8028  0.34
      P1  H  6934  6946       L1    17  0.81

> <Gold.Chemscore.Hbond.Weighted>
-5.7037

> <Gold.Chemscore.Metal.Weighted>
-0.0000

> <Gold.Chemscore.Lipo.Weighted>
-10.4539

> <Gold.Chemscore.Internal_Hbond.Weighted>
0.0000

> <Gold.Chemscore.DEClash.Weighted>
0.0585

> <Gold.Chemscore.DEInternal.Weighted>
1.1007

> <Gold.Chemscore.Rot.Weighted>
3.9252

> <Gold.Chemscore.Internal.Correction.Weighted>
   9.000000E+99

> <Gold.Protein.RotatedTorsions>
[ 6907 6896 6895 6894 ] final  163.02 input  -60.11 | X-H torsion
[ 7974 7965 7964 7962 ] final  -53.23 input  175.53 | X-H torsion
[ 8008 7997 7996 7995 ] final   -9.95 input   59.86 | X-H torsion
[ 10167 10162 10161 10158 ] final  135.12 input  -65.29 | X-H torsion
[ 10718 10713 10712 10709 ] final  -19.70 input   66.30 | X-H torsion
[ 10763 10752 10751 10750 ] final  -68.16 input  -60.55 | X-H torsion
[ 11005 11000 10999 10996 ] final  -76.60 input  -57.11 | X-H torsion

> <Gold.Protein.ActiveResidues>
 VAL166  LYS551  ARG553  GLY616  TRP617  ASP618  TYR619  PRO620  LYS621  CYS622 
 ASP623  PHE694  ASN695  SER759  ASP760  ASP761  ALA762  ILE779  LEU786  VAL792 
 PHE793  MET794  SER795  GLU796  ALA797  LYS798  CYS799  TRP800  GLU811  SER814 

> <Gold.Protein.RotatedAtoms>
  151.9316  133.3612  159.3932 H   0  0  0  0  0  0  0  0  0  0  0  0  # atno 6907 bound_to 6896
  150.7016  134.4532  159.5355 H   0  0  0  0  0  0  0  0  0  0  0  0  # atno 6908 bound_to 6896
  152.2173  134.8445  160.0541 H   0  0  0  0  0  0  0  0  0  0  0  0  # atno 6909 bound_to 6896
  145.8991  140.8008  142.9752 H   0  0  0  0  0  0  0  0  0  0  0  0  # atno 7974 bound_to 7965
  154.5599  140.2341  155.8352 H   0  0  0  0  0  0  0  0  0  0  0  0  # atno 8008 bound_to 7997
  156.2020  140.3050  155.9507 H   0  0  0  0  0  0  0  0  0  0  0  0  # atno 8009 bound_to 7997
  155.2909  140.0426  157.3013 H   0  0  0  0  0  0  0  0  0  0  0  0  # atno 8010 bound_to 7997
  139.5229  144.6533  151.5238 H   0  0  0  0  0  0  0  0  0  0  0  0  # atno 10167 bound_to 10162
  156.5421  130.4680  149.6494 H   0  0  0  0  0  0  0  0  0  0  0  0  # atno 10718 bound_to 10713
  154.3850  135.6065  153.5811 H   0  0  0  0  0  0  0  0  0  0  0  0  # atno 10763 bound_to 10752
  152.9788  135.5870  154.4366 H   0  0  0  0  0  0  0  0  0  0  0  0  # atno 10764 bound_to 10752
  154.4141  135.2844  155.1996 H   0  0  0  0  0  0  0  0  0  0  0  0  # atno 10765 bound_to 10752
  141.1655  133.6990  156.7693 H   0  0  0  0  0  0  0  0  0  0  0  0  # atno 11005 bound_to 11000
  144.6734  140.1649  143.7419 LP  0  0  0  0  0  0  0  0  0  0  0  0  # atno 17320 bound_to 7965
  145.8813  139.2324  143.1604 LP  0  0  0  0  0  0  0  0  0  0  0  0  # atno 17321 bound_to 7965
  140.6347  143.9007  150.6637 LP  0  0  0  0  0  0  0  0  0  0  0  0  # atno 17342 bound_to 10162
  140.2322  143.3727  152.1556 LP  0  0  0  0  0  0  0  0  0  0  0  0  # atno 17343 bound_to 10162
  156.2962  130.7151  151.2012 LP  0  0  0  0  0  0  0  0  0  0  0  0  # atno 17370 bound_to 10713
  157.7403  131.0518  150.5173 LP  0  0  0  0  0  0  0  0  0  0  0  0  # atno 17371 bound_to 10713
  140.2476  134.8565  157.3635 LP  0  0  0  0  0  0  0  0  0  0  0  0  # atno 17394 bound_to 11000
  140.1734  134.4580  155.7817 LP  0  0  0  0  0  0  0  0  0  0  0  0  # atno 17395 bound_to 11000

$$$$
