#       Name:                AV-unprocessed.smi:3231
#       Creating user name   scv26
#       Creation time:       Fri Mar 27 18:18:38 2020


#       File generated by GOLD software.
#

@<TRIPOS>MOLECULE
AV-unprocessed.smi:3231
    47    48     1
SMALL
NO_CHARGES


@<TRIPOS>ATOM
      1 ****        -0.5127  -1.5331   2.4998 O.3            1 S1                 0.0000
      2 ****        -0.1391  -0.7596   1.3770 C.3            1 S1                 0.0000
      3 ****         1.3962  -0.6732   1.3738 C.3            1 S1                 0.0000
      4 ****         1.8903  -0.0848   0.1335 N.3            1 S1                 0.0000
      5 ****         3.3470  -0.0244   0.0555 C.3            1 S1                 0.0000
      6 ****         3.8172   0.5305  -1.2985 C.3            1 S1                 0.0000
      7 ****         3.4864  -0.3567  -2.3999 N.pl3          1 S1                 0.0000
      8 ****         4.1565  -1.4863  -2.8198 C.2            1 S1                 0.0000
      9 ****         3.4680  -1.9955  -3.8833 C.2            1 S1                 0.0000
     10 ****         2.3779  -1.0951  -4.0427 C.2            1 S1                 0.0000
     11 ****         2.3898  -0.1169  -3.1518 N.2            1 S1                 0.0000
     12 ****        -0.8057   0.6292   1.4921 C.3            1 S1                 0.0000
     13 ****        -2.2837   0.5760   1.3568 N.4            1 S1                 1.0000
     14 ****        -2.9486   1.7525   1.9660 C.3            1 S1                 0.0000
     15 ****        -4.4773   1.6289   1.8504 C.3            1 S1                 0.0000
     16 ****        -4.8427   1.4812   0.4843 O.3            1 S1                 0.0000
     17 ****        -4.2827   0.3079  -0.0918 C.3            1 S1                 0.0000
     18 ****        -2.7476   0.3885  -0.0408 C.3            1 S1                 0.0000
     19 ****        -1.4334  -1.7356   2.4401 H              1 S1                 0.0000
     20 ****        -0.4632  -1.2860   0.4794 H              1 S1                 0.0000
     21 ****         1.7438  -0.0971   2.2325 H              1 S1                 0.0000
     22 ****         1.8114  -1.6761   1.4844 H              1 S1                 0.0000
     23 ****         1.5321  -0.6051  -0.6616 H              1 S1                 0.0000
     24 ****         3.7320   0.6061   0.8576 H              1 S1                 0.0000
     25 ****         3.7740  -1.0164   0.2084 H              1 S1                 0.0000
     26 ****         3.3855   1.5156  -1.4832 H              1 S1                 0.0000
     27 ****         4.8996   0.6629  -1.2862 H              1 S1                 0.0000
     28 ****         5.0553  -1.8313  -2.3303 H              1 S1                 0.0000
     29 ****         3.7065  -2.8768  -4.4596 H              1 S1                 0.0000
     30 ****         1.5829  -1.1243  -4.7732 H              1 S1                 0.0000
     31 ****        -0.5392   1.0622   2.4576 H              1 S1                 0.0000
     32 ****        -0.4108   1.3122   0.7384 H              1 S1                 0.0000
     33 ****        -2.6676   1.8341   3.0168 H              1 S1                 0.0000
     34 ****        -2.6083   2.6630   1.4704 H              1 S1                 0.0000
     35 ****        -4.8457   0.7823   2.4322 H              1 S1                 0.0000
     36 ****        -4.9576   2.5224   2.2494 H              1 S1                 0.0000
     37 ****        -4.6449  -0.5784   0.4318 H              1 S1                 0.0000
     38 ****        -4.6203   0.2269  -1.1250 H              1 S1                 0.0000
     39 ****        -2.4001   1.2195  -0.6566 H              1 S1                 0.0000
     40 ****        -2.3270  -0.5211  -0.4671 H              1 S1                 0.0000
     41 ****        -2.5933  -0.2270   1.8851 H              1 S1                 0.0000
     42 ****        -0.3366  -1.0157   3.3372 LP             1 S1                 0.0000
     43 ****         0.0171  -2.3811   2.5142 LP             1 S1                 0.0000
     44 ****         1.5597   0.8588   0.1187 LP             1 S1                 0.0000
     45 ****         1.7341   0.6320  -3.0564 LP             1 S1                 0.0000
     46 ****        -4.5177   2.2780  -0.0251 LP             1 S1                 0.0000
     47 ****        -5.8393   1.4285   0.4203 LP             1 S1                 0.0000
@<TRIPOS>BOND
    1    1    2 1     
    2    1   19 1     
    3    2    3 1     
    4    2   12 1     
    5    2   20 1     
    6    3    4 1     
    7    3   21 1     
    8    3   22 1     
    9    4    5 1     
   10    4   23 1     
   11    5    6 1     
   12    5   24 1     
   13    5   25 1     
   14    6    7 1     
   15    6   26 1     
   16    6   27 1     
   17    7   11 1     
   18    7    8 1     
   19    8    9 2     
   20    8   28 1     
   21    9   10 1     
   22    9   29 1     
   23   10   11 2     
   24   10   30 1     
   25   12   13 1     
   26   12   31 1     
   27   12   32 1     
   28   13   18 1     
   29   13   14 1     
   30   13   41 1     
   31   14   15 1     
   32   14   33 1     
   33   14   34 1     
   34   15   16 1     
   35   15   35 1     
   36   15   36 1     
   37   16   17 1     
   38   17   18 1     
   39   17   37 1     
   40   17   38 1     
   41   18   39 1     
   42   18   40 1     
   43    1   42 1     
   44    1   43 1     
   45    4   44 1     
   46   11   45 1     
   47   16   46 1     
   48   16   47 1     
@<TRIPOS>SUBSTRUCTURE
      1 S1             1
@<TRIPOS>SET
LONE_PAIRS      STATIC     ATOMS    <user>   **** ""
6 42 43 44 45 46 47
DONOR_HYDROGENS      STATIC     ATOMS    <user>   **** ""
3 19 23 41
ATOM$BLUE        STATIC     ATOMS    COLORGROUP SYSTEM
6 42 43 44 45 46 47
ATOM$RED        STATIC     ATOMS    COLORGROUP SYSTEM
3 19 23 41
