AV-unprocessed.smi:1567|AV-procd|sdf|6307|dock10
  -GOLD-   22720 6503D 1   1.00000     0.00000
 Structure written by MMmdl.
 42 44  0  0  0  0  0  0  0  0  1 V2000
  153.5738  136.1445  160.5030 O   0  0  0  0  0  0  0  0  0  0  0  0
  154.2647  136.8791  159.5164 C   0  0  0  0  0  0  0  0  0  0  0  0
  153.9109  138.3690  159.6362 C   0  0  0  0  0  0  0  0  0  0  0  0
  152.6981  138.7948  158.7884 C   0  0  0  0  0  0  0  0  0  0  0  0
  152.4430  140.2774  158.7966 C   0  0  0  0  0  0  0  0  0  0  0  0
  153.1939  141.1023  159.5283 N   0  0  0  0  0  0  0  0  0  0  0  0
  152.6541  142.3415  159.2491 C   0  0  0  0  0  0  0  0  0  0  0  0
  153.0023  143.6239  159.7301 C   0  0  0  0  0  0  0  0  0  0  0  0
  152.2982  144.7652  159.2936 C   0  0  0  0  0  0  0  0  0  0  0  0
  151.2396  144.6405  158.3710 C   0  0  0  0  0  0  0  0  0  0  0  0
  150.8780  143.3718  157.8786 C   0  0  0  0  0  0  0  0  0  0  0  0
  151.5830  142.2351  158.3187 C   0  0  0  0  0  0  0  0  0  0  0  0
  151.4872  140.8749  158.0365 N   0  0  0  0  0  0  0  0  0  0  0  0
  150.5481  140.2649  157.1032 C   0  0  0  0  0  0  0  0  0  0  0  0
  150.7023  140.7911  155.6633 C   0  0  1  0  0  0  0  0  0  0  0  0
  151.8071  140.1671  155.0361 O   0  0  0  0  0  0  0  0  0  0  0  0
  149.4128  140.6188  154.8731 C   0  0  0  0  0  0  0  0  0  0  0  0
  148.5626  141.7244  154.6467 C   0  0  0  0  0  0  0  0  0  0  0  0
  147.3733  141.5690  153.9089 C   0  0  0  0  0  0  0  0  0  0  0  0
  146.5643  142.6339  153.6981 F   0  0  0  0  0  0  0  0  0  0  0  0
  147.0263  140.3074  153.3897 C   0  0  0  0  0  0  0  0  0  0  0  0
  147.8718  139.2027  153.6057 C   0  0  0  0  0  0  0  0  0  0  0  0
  149.0631  139.3562  154.3420 C   0  0  0  0  0  0  0  0  0  0  0  0
  149.8695  138.2841  154.5317 F   0  0  0  0  0  0  0  0  0  0  0  0
  153.1746  136.7522  161.1068 H   0  0  0  0  0  0  0  0  0  0  0  0
  155.3346  136.7265  159.6561 H   0  0  0  0  0  0  0  0  0  0  0  0
  153.9979  136.4883  158.5339 H   0  0  0  0  0  0  0  0  0  0  0  0
  153.7261  138.6181  160.6821 H   0  0  0  0  0  0  0  0  0  0  0  0
  154.7744  138.9632  159.3345 H   0  0  0  0  0  0  0  0  0  0  0  0
  152.8569  138.4892  157.7538 H   0  0  0  0  0  0  0  0  0  0  0  0
  151.8221  138.2469  159.1309 H   0  0  0  0  0  0  0  0  0  0  0  0
  153.8120  143.7293  160.4368 H   0  0  0  0  0  0  0  0  0  0  0  0
  152.5718  145.7407  159.6681 H   0  0  0  0  0  0  0  0  0  0  0  0
  150.7046  145.5193  158.0417 H   0  0  0  0  0  0  0  0  0  0  0  0
  150.0657  143.2742  157.1740 H   0  0  0  0  0  0  0  0  0  0  0  0
  150.6954  139.1844  157.1217 H   0  0  0  0  0  0  0  0  0  0  0  0
  149.5336  140.4261  157.4677 H   0  0  0  0  0  0  0  0  0  0  0  0
  150.9403  141.8518  155.7008 H   0  0  0  0  0  0  0  0  0  0  0  0
  151.9072  139.2994  155.3969 H   0  0  0  0  0  0  0  0  0  0  0  0
  148.8213  142.6984  155.0360 H   0  0  0  0  0  0  0  0  0  0  0  0
  146.1143  140.1878  152.8237 H   0  0  0  0  0  0  0  0  0  0  0  0
  147.6073  138.2358  153.2038 H   0  0  0  0  0  0  0  0  0  0  0  0
  1  2  1  0  0  0  0
  1 25  1  0  0  0  0
  2  3  1  0  0  0  0
  2 26  1  0  0  0  0
  2 27  1  0  0  0  0
  3  4  1  0  0  0  0
  3 28  1  0  0  0  0
  3 29  1  0  0  0  0
  4  5  1  0  0  0  0
  4 30  1  0  0  0  0
  4 31  1  0  0  0  0
  5 13  1  0  0  0  0
  5  6  2  0  0  0  0
  6  7  1  0  0  0  0
  7 12  2  0  0  0  0
  7  8  1  0  0  0  0
  8  9  2  0  0  0  0
  8 32  1  0  0  0  0
  9 10  1  0  0  0  0
  9 33  1  0  0  0  0
 10 11  2  0  0  0  0
 10 34  1  0  0  0  0
 11 12  1  0  0  0  0
 11 35  1  0  0  0  0
 12 13  1  0  0  0  0
 13 14  1  0  0  0  0
 14 15  1  0  0  0  0
 14 36  1  0  0  0  0
 14 37  1  0  0  0  0
 15 16  1  0  0  0  0
 15 17  1  0  0  0  0
 15 38  1  0  0  0  0
 16 39  1  0  0  0  0
 17 23  1  0  0  0  0
 17 18  2  0  0  0  0
 18 19  1  0  0  0  0
 18 40  1  0  0  0  0
 19 20  1  0  0  0  0
 19 21  2  0  0  0  0
 21 22  1  0  0  0  0
 21 41  1  0  0  0  0
 22 23  2  0  0  0  0
 22 42  1  0  0  0  0
 23 24  1  0  0  0  0
M  END
> <s_m_source_file>
AV-unprocessed.smi

> <i_m_source_file_index>
1567

> <i_lp_mmshare_version>
43012

> <i_f3d_flags>
0

> <s_epik_input>
W09IXVtDSDJdW0NIMl1bQ0gyXWMobjEpbihjKGMxMilbY0hdW2NIXVtjSF1bY0hdMilbQ0gyXVtDQEhdKFtPSF0pYzNbY0hdYyhGKVtjSF1bY0hdYzNG

> <s_epik_cmdline>
J2VwaWtfcHl0aG9uJywgJy1waCcsICc3LjAnLCAnLXRuJywgJzgnLCAnLW1hJywgJzIwMCcsICctbWV0YWxfYmluZGluZycsICctaW1hZScsICc8aW5maWxlLm1hZT4nLCAnLW9tYWUnLCAnPG91dGZpbGUubWFlPic=

> <r_epik_Ionization_Penalty>
0.182562

> <r_epik_Ionization_Penalty_Charging>
0

> <r_epik_Ionization_Penalty_Neutral>
0.182562

> <r_epik_State_Penalty>
0.172086

> <r_epik_Charging_Adjusted_Penalty>
0.172086

> <i_epik_Tot_Q>
0

> <i_epik_Tot_abs_Q>
0

> <r_epik_Metal_State_Penalty>
0.000199649

> <b_epik_Metal_Only>
0

> <s_lp_Force_Field>
OPLS_2005

> <r_lp_Energy>
10.1612

> <b_lp_Chiralities_Consistent>
1

> <s_lp_Variant>
AV-unprocessed.smi:1567-2

> <Gold.Version>
5.8.1

> <Gold.Id.Protein>
6NUR|6NUR_protein|mol2

> <Gold.PLP.Fitness>
56.5544

> <Gold.PLP.PLP>
-52.5193

> <Gold.PLP.part.hbond>
-2.0000

> <Gold.PLP.part.metal>
0.0000

> <Gold.PLP.part.buried>
-4.8944

> <Gold.PLP.part.nonpolar>
-45.4460

> <Gold.PLP.part.repulsive>
0.0000

> <Gold.PLP.ligand.clash>
0.0000

> <Gold.PLP.ligand.torsion>
0.8443

> <Gold.PLP.Chemscore.Hbond>
1.8800

> <Gold.PLP.Chemscore.CHOScore>
0.0000

> <Gold.PLP.Chemscore.Metal>
0.0000

> <Gold.Chemscore.Hbonds>
donor molecule, donor type, donor heavy atom, donor atom, acceptor molecule, acceptor atom, score
      P1  H  6896  6908       L1     1  1.00
      P1  H  7989  7998       L1    16  0.85

> <Gold.PLP.Chemscore.Internal.Correction>
0.0838

> <Gold.Rescore>
     Score         DG    S(hbond)    S(metal)    S(lipo)     H(rot)  DE(clash)    DE(int)     intcor
     16.45     -18.20       1.80        0.00     127.98       3.23       0.01       1.74       ----

> <Gold.Chemscore.Fitness>
16.4507

> <Gold.Chemscore.DG>
-18.2007

> <Gold.Chemscore.ZeroCoef>
-5.4800

> <Gold.Chemscore.Hbond>
1.7996

> <Gold.Chemscore.Metal>
0.0000

> <Gold.Chemscore.Lipo>
127.9813

> <Gold.Chemscore.Internal_Hbond>
0.0000

> <Gold.Chemscore.DEClash>
0.0089

> <Gold.Chemscore.DEInternal>
1.7411

> <Gold.Chemscore.Rot>
3.2281

> <Gold.Chemscore.Internal.Correction>
   9.000000E+99

> <Gold.Chemscore.Hbonds>
donor molecule, donor type, donor heavy atom, donor atom, acceptor molecule, acceptor atom, score
      P1  H  6896  6908       L1     1  0.60
      P1  H  7989  7998       L1    16  0.19

> <Gold.Chemscore.Hbond.Weighted>
-6.0107

> <Gold.Chemscore.Metal.Weighted>
-0.0000

> <Gold.Chemscore.Lipo.Weighted>
-14.9738

> <Gold.Chemscore.Internal_Hbond.Weighted>
0.0000

> <Gold.Chemscore.DEClash.Weighted>
0.0089

> <Gold.Chemscore.DEInternal.Weighted>
1.7411

> <Gold.Chemscore.Rot.Weighted>
8.2639

> <Gold.Chemscore.Internal.Correction.Weighted>
   9.000000E+99

> <Gold.Protein.RotatedTorsions>
[ 6907 6896 6895 6894 ] final  -76.83 input  -60.11 | X-H torsion
[ 7974 7965 7964 7962 ] final  -87.69 input  175.53 | X-H torsion
[ 8008 7997 7996 7995 ] final  118.44 input   59.86 | X-H torsion
[ 10167 10162 10161 10158 ] final  -15.37 input  -65.29 | X-H torsion
[ 10718 10713 10712 10709 ] final   23.21 input   66.30 | X-H torsion
[ 10763 10752 10751 10750 ] final   14.30 input  -60.55 | X-H torsion
[ 11005 11000 10999 10996 ] final   31.64 input  -57.11 | X-H torsion

> <Gold.Protein.ActiveResidues>
 VAL166  LYS551  ARG553  GLY616  TRP617  ASP618  TYR619  PRO620  LYS621  CYS622 
 ASP623  PHE694  ASN695  SER759  ASP760  ASP761  ALA762  ILE779  LEU786  VAL792 
 PHE793  MET794  SER795  GLU796  ALA797  LYS798  CYS799  TRP800  GLU811  SER814 

> <Gold.Protein.RotatedAtoms>
  150.7016  134.4514  159.5337 H   0  0  0  0  0  0  0  0  0  0  0  0  # atno 6907 bound_to 6896
  152.2206  134.8414  160.0495 H   0  0  0  0  0  0  0  0  0  0  0  0  # atno 6908 bound_to 6896
  151.9266  133.3565  159.3953 H   0  0  0  0  0  0  0  0  0  0  0  0  # atno 6909 bound_to 6896
  145.4631  140.9561  143.1958 H   0  0  0  0  0  0  0  0  0  0  0  0  # atno 7974 bound_to 7965
  156.2546  140.2875  156.0834 H   0  0  0  0  0  0  0  0  0  0  0  0  # atno 8008 bound_to 7997
  155.1541  140.0398  157.2845 H   0  0  0  0  0  0  0  0  0  0  0  0  # atno 8009 bound_to 7997
  154.6439  140.2529  155.7297 H   0  0  0  0  0  0  0  0  0  0  0  0  # atno 8010 bound_to 7997
  140.7217  143.5225  150.9616 H   0  0  0  0  0  0  0  0  0  0  0  0  # atno 10167 bound_to 10162
  157.1629  130.6725  149.6050 H   0  0  0  0  0  0  0  0  0  0  0  0  # atno 10718 bound_to 10713
  153.1635  135.6800  153.8708 H   0  0  0  0  0  0  0  0  0  0  0  0  # atno 10763 bound_to 10752
  153.8095  135.3145  155.3400 H   0  0  0  0  0  0  0  0  0  0  0  0  # atno 10764 bound_to 10752
  154.7949  135.4813  154.0228 H   0  0  0  0  0  0  0  0  0  0  0  0  # atno 10765 bound_to 10752
  140.2817  134.2965  155.7799 H   0  0  0  0  0  0  0  0  0  0  0  0  # atno 11005 bound_to 11000
  144.7990  139.6177  143.7080 LP  0  0  0  0  0  0  0  0  0  0  0  0  # atno 17320 bound_to 7965
  146.2439  139.6059  142.9472 LP  0  0  0  0  0  0  0  0  0  0  0  0  # atno 17321 bound_to 7965
  139.8943  143.6914  152.3141 LP  0  0  0  0  0  0  0  0  0  0  0  0  # atno 17342 bound_to 10162
  139.7241  144.7596  151.0907 LP  0  0  0  0  0  0  0  0  0  0  0  0  # atno 17343 bound_to 10162
  155.9751  130.4705  150.6433 LP  0  0  0  0  0  0  0  0  0  0  0  0  # atno 17370 bound_to 10713
  157.4115  131.0824  151.1216 LP  0  0  0  0  0  0  0  0  0  0  0  0  # atno 17371 bound_to 10713
  141.2161  133.7529  156.9491 LP  0  0  0  0  0  0  0  0  0  0  0  0  # atno 17394 bound_to 11000
  140.1277  134.9376  157.2293 LP  0  0  0  0  0  0  0  0  0  0  0  0  # atno 17395 bound_to 11000

$$$$
