AV-unprocessed.smi:1242|AV-procd|sdf|5217|dock8
  -GOLD-   22720 4313D 1   1.00000     0.00000
 Structure written by MMmdl.
 39 40  0  0  0  0  0  0  0  0  1 V2000
  148.6132  140.1122  156.0126 O   0  0  0  0  0  0  0  0  0  0  0  0
  148.9019  141.3095  155.9935 C   0  0  0  0  0  0  0  0  0  0  0  0
  150.3604  141.7619  155.8419 C   0  0  0  0  0  0  0  0  0  0  0  0
  151.1026  141.7457  157.1134 N   0  0  0  0  0  0  0  0  0  0  0  0
  151.0246  142.8988  157.9192 C   0  0  0  0  0  0  0  0  0  0  0  0
  151.6422  143.0028  159.1116 C   0  0  0  0  0  0  0  0  0  0  0  0
  151.5806  144.2786  159.9369 C   0  0  0  0  0  0  0  0  0  0  0  0
  152.0820  145.3122  159.2604 F   0  0  0  0  0  0  0  0  0  0  0  0
  150.3254  144.5718  160.2791 F   0  0  0  0  0  0  0  0  0  0  0  0
  152.2910  144.1298  161.0540 F   0  0  0  0  0  0  0  0  0  0  0  0
  152.4385  141.8649  159.5269 C   0  0  0  0  0  0  0  0  0  0  0  0
  152.5281  140.7567  158.7659 C   0  0  0  0  0  0  0  0  0  0  0  0
  151.8297  140.6489  157.4831 C   0  0  0  0  0  0  0  0  0  0  0  0
  151.8962  139.6377  156.7838 O   0  0  0  0  0  0  0  0  0  0  0  0
  147.9908  142.2878  156.1178 N   0  0  0  0  0  0  0  0  0  0  0  0
  146.5454  142.0916  156.2513 C   0  0  1  0  0  0  0  0  0  0  0  0
  145.9715  143.3289  156.9789 C   0  0  0  0  0  0  0  0  0  0  0  0
  144.6199  143.0726  157.6682 C   0  0  0  0  0  0  0  0  0  0  0  0
  143.4573  142.7484  156.7180 C   0  0  0  0  0  0  0  0  0  0  0  0
  143.6613  141.4559  155.9098 C   0  0  0  0  0  0  0  0  0  0  0  0
  144.5764  141.6468  154.7922 N   0  0  0  0  0  0  0  0  0  0  0  0
  145.8784  141.9634  154.8614 C   0  0  0  0  0  0  0  0  0  0  0  0
  146.5271  142.1523  153.8324 O   0  0  0  0  0  0  0  0  0  0  0  0
  150.8653  141.1325  155.1063 H   0  0  0  0  0  0  0  0  0  0  0  0
  150.3608  142.7627  155.4080 H   0  0  0  0  0  0  0  0  0  0  0  0
  150.4225  143.6955  157.5066 H   0  0  0  0  0  0  0  0  0  0  0  0
  152.9682  141.8987  160.4674 H   0  0  0  0  0  0  0  0  0  0  0  0
  153.1279  139.9264  159.1087 H   0  0  0  0  0  0  0  0  0  0  0  0
  148.3169  143.2427  156.0886 H   0  0  0  0  0  0  0  0  0  0  0  0
  146.3620  141.1908  156.8398 H   0  0  0  0  0  0  0  0  0  0  0  0
  146.6706  143.6394  157.7571 H   0  0  0  0  0  0  0  0  0  0  0  0
  145.8947  144.1809  156.3011 H   0  0  0  0  0  0  0  0  0  0  0  0
  144.7312  142.2656  158.3933 H   0  0  0  0  0  0  0  0  0  0  0  0
  144.3541  143.9567  158.2486 H   0  0  0  0  0  0  0  0  0  0  0  0
  142.5521  142.6411  157.3164 H   0  0  0  0  0  0  0  0  0  0  0  0
  143.2731  143.5880  156.0466 H   0  0  0  0  0  0  0  0  0  0  0  0
  144.0001  140.6388  156.5482 H   0  0  0  0  0  0  0  0  0  0  0  0
  142.7055  141.1408  155.4905 H   0  0  0  0  0  0  0  0  0  0  0  0
  144.1757  141.5590  153.8695 H   0  0  0  0  0  0  0  0  0  0  0  0
  1  2  2  0  0  0  0
  2  3  1  0  0  0  0
  2 15  1  0  0  0  0
  3  4  1  0  0  0  0
  3 24  1  0  0  0  0
  3 25  1  0  0  0  0
  4 13  1  0  0  0  0
  4  5  1  0  0  0  0
  5  6  2  0  0  0  0
  5 26  1  0  0  0  0
  6  7  1  0  0  0  0
  6 11  1  0  0  0  0
  7  8  1  0  0  0  0
  7  9  1  0  0  0  0
  7 10  1  0  0  0  0
 11 12  2  0  0  0  0
 11 27  1  0  0  0  0
 12 13  1  0  0  0  0
 12 28  1  0  0  0  0
 13 14  2  0  0  0  0
 15 16  1  0  0  0  0
 15 29  1  0  0  0  0
 16 22  1  0  0  0  0
 16 17  1  0  0  0  0
 16 30  1  0  0  0  0
 17 18  1  0  0  0  0
 17 31  1  0  0  0  0
 17 32  1  0  0  0  0
 18 19  1  0  0  0  0
 18 33  1  0  0  0  0
 18 34  1  0  0  0  0
 19 20  1  0  0  0  0
 19 35  1  0  0  0  0
 19 36  1  0  0  0  0
 20 21  1  0  0  0  0
 20 37  1  0  0  0  0
 20 38  1  0  0  0  0
 21 22  1  0  0  0  0
 21 39  1  0  0  0  0
 22 23  2  0  0  0  0
M  END
> <s_m_source_file>
AV-unprocessed.smi

> <i_m_source_file_index>
1242

> <i_lp_mmshare_version>
43012

> <i_f3d_flags>
0

> <s_epik_input>
Tz1jMVtjSF1bY0hdYyhDKEYpKEYpRilbY0hdbjFbQ0gyXUMoPU8pW05IXVtDQEBIXTJbQ0gyXVtDSDJdW0NIMl1bQ0gyXVtOSF1DMj1P

> <s_epik_cmdline>
J2VwaWtfcHl0aG9uJywgJy1waCcsICc3LjAnLCAnLXRuJywgJzgnLCAnLW1hJywgJzIwMCcsICctbWV0YWxfYmluZGluZycsICctaW1hZScsICc8aW5maWxlLm1hZT4nLCAnLW9tYWUnLCAnPG91dGZpbGUubWFlPic=

> <r_lp_tautomer_probability>
1

> <r_epik_Ionization_Penalty>
6.92876e-08

> <r_epik_Ionization_Penalty_Charging>
1.59659e-08

> <r_epik_Ionization_Penalty_Neutral>
5.33217e-08

> <r_epik_State_Penalty>
-0

> <r_epik_Charging_Adjusted_Penalty>
1.59659e-08

> <i_epik_Tot_Q>
0

> <i_epik_Tot_abs_Q>
0

> <r_epik_Metal_State_Penalty>
-0

> <b_epik_Metal_Only>
0

> <s_lp_Force_Field>
OPLS_2005

> <r_lp_Energy>
23.3592

> <b_lp_Chiralities_Consistent>
1

> <s_lp_Variant>
AV-unprocessed.smi:1242-2

> <Gold.Version>
5.8.1

> <Gold.Id.Protein>
6NUR|6NUR_protein|mol2

> <Gold.PLP.Fitness>
45.8258

> <Gold.PLP.PLP>
-39.4284

> <Gold.PLP.part.hbond>
-2.0000

> <Gold.PLP.part.metal>
0.0000

> <Gold.PLP.part.buried>
-6.9083

> <Gold.PLP.part.nonpolar>
-31.5213

> <Gold.PLP.part.repulsive>
0.2361

> <Gold.PLP.ligand.clash>
0.5217

> <Gold.PLP.ligand.torsion>
1.0577

> <Gold.PLP.Chemscore.Hbond>
2.0000

> <Gold.PLP.Chemscore.CHOScore>
1.0000

> <Gold.PLP.Chemscore.Metal>
0.0000

> <Gold.Chemscore.Hbonds>
donor molecule, donor type, donor heavy atom, donor atom, acceptor molecule, acceptor atom, score
      L1  H    15    29       P1  8028  1.00
      L1  H    21    39       P1 10175  0.70
      L1  C     5    26       P1  8028  0.84

> <Gold.PLP.Chemscore.Internal.Correction>
0.0345

> <Gold.Rescore>
     Score         DG    S(hbond)    S(metal)    S(lipo)     H(rot)  DE(clash)    DE(int)     intcor
     14.02     -14.99       1.95        0.00      63.38       1.72       0.05       0.92       ----

> <Gold.Chemscore.Fitness>
14.0191

> <Gold.Chemscore.DG>
-14.9869

> <Gold.Chemscore.ZeroCoef>
-5.4800

> <Gold.Chemscore.Hbond>
1.9454

> <Gold.Chemscore.Metal>
0.0000

> <Gold.Chemscore.Lipo>
63.3803

> <Gold.Chemscore.Internal_Hbond>
0.0000

> <Gold.Chemscore.DEClash>
0.0452

> <Gold.Chemscore.DEInternal>
0.9225

> <Gold.Chemscore.Rot>
1.7212

> <Gold.Chemscore.Internal.Correction>
   9.000000E+99

> <Gold.Chemscore.Hbonds>
donor molecule, donor type, donor heavy atom, donor atom, acceptor molecule, acceptor atom, score
      L1  H    15    29       P1  8028  0.74
      L1  H    21    39       P1 10175  0.07

> <Gold.Chemscore.Hbond.Weighted>
-6.4976

> <Gold.Chemscore.Metal.Weighted>
-0.0000

> <Gold.Chemscore.Lipo.Weighted>
-7.4155

> <Gold.Chemscore.Internal_Hbond.Weighted>
0.0000

> <Gold.Chemscore.DEClash.Weighted>
0.0452

> <Gold.Chemscore.DEInternal.Weighted>
0.9225

> <Gold.Chemscore.Rot.Weighted>
4.4062

> <Gold.Chemscore.Internal.Correction.Weighted>
   9.000000E+99

> <Gold.Protein.RotatedTorsions>
[ 6907 6896 6895 6894 ] final  -50.54 input  -60.11 | X-H torsion
[ 7974 7965 7964 7962 ] final   44.00 input  175.53 | X-H torsion
[ 8008 7997 7996 7995 ] final -145.65 input   59.86 | X-H torsion
[ 10167 10162 10161 10158 ] final   -8.35 input  -65.29 | X-H torsion
[ 10718 10713 10712 10709 ] final -173.65 input   66.30 | X-H torsion
[ 10763 10752 10751 10750 ] final   66.72 input  -60.55 | X-H torsion
[ 11005 11000 10999 10996 ] final   82.38 input  -57.11 | X-H torsion

> <Gold.Protein.ActiveResidues>
 VAL166  LYS551  ARG553  GLY616  TRP617  ASP618  TYR619  PRO620  LYS621  CYS622 
 ASP623  PHE694  ASN695  SER759  ASP760  ASP761  ALA762  ILE779  LEU786  VAL792 
 PHE793  MET794  SER795  GLU796  ALA797  LYS798  CYS799  TRP800  GLU811  SER814 

> <Gold.Protein.RotatedAtoms>
  150.8697  134.8069  159.7145 H   0  0  0  0  0  0  0  0  0  0  0  0  # atno 6907 bound_to 6896
  152.4706  134.4966  159.9721 H   0  0  0  0  0  0  0  0  0  0  0  0  # atno 6908 bound_to 6896
  151.5056  133.3457  159.2912 H   0  0  0  0  0  0  0  0  0  0  0  0  # atno 6909 bound_to 6896
  146.0606  139.5123  142.9660 H   0  0  0  0  0  0  0  0  0  0  0  0  # atno 7974 bound_to 7965
  155.5466  140.0613  157.2859 H   0  0  0  0  0  0  0  0  0  0  0  0  # atno 8008 bound_to 7997
  154.4434  140.1910  156.0688 H   0  0  0  0  0  0  0  0  0  0  0  0  # atno 8009 bound_to 7997
  156.0547  140.3280  155.7395 H   0  0  0  0  0  0  0  0  0  0  0  0  # atno 8010 bound_to 7997
  140.7056  143.5978  150.8828 H   0  0  0  0  0  0  0  0  0  0  0  0  # atno 10167 bound_to 10162
  156.7735  130.9457  151.3120 H   0  0  0  0  0  0  0  0  0  0  0  0  # atno 10718 bound_to 10713
  153.0153  135.5310  154.6868 H   0  0  0  0  0  0  0  0  0  0  0  0  # atno 10763 bound_to 10752
  154.6013  135.2868  155.0534 H   0  0  0  0  0  0  0  0  0  0  0  0  # atno 10764 bound_to 10752
  154.1590  135.6550  153.5034 H   0  0  0  0  0  0  0  0  0  0  0  0  # atno 10765 bound_to 10752
  139.9066  134.8067  156.2166 H   0  0  0  0  0  0  0  0  0  0  0  0  # atno 11005 bound_to 11000
  145.6566  141.0250  143.1731 LP  0  0  0  0  0  0  0  0  0  0  0  0  # atno 17320 bound_to 7965
  144.7173  139.8153  143.7394 LP  0  0  0  0  0  0  0  0  0  0  0  0  # atno 17321 bound_to 7965
  139.9703  143.6064  152.2975 LP  0  0  0  0  0  0  0  0  0  0  0  0  # atno 17342 bound_to 10162
  139.6649  144.7662  151.1893 LP  0  0  0  0  0  0  0  0  0  0  0  0  # atno 17343 bound_to 10162
  157.6680  130.9025  149.9975 LP  0  0  0  0  0  0  0  0  0  0  0  0  # atno 17370 bound_to 10713
  156.1263  130.3644  149.9804 LP  0  0  0  0  0  0  0  0  0  0  0  0  # atno 17371 bound_to 10713
  141.0432  133.6927  156.1635 LP  0  0  0  0  0  0  0  0  0  0  0  0  # atno 17394 bound_to 11000
  140.6924  134.4651  157.5588 LP  0  0  0  0  0  0  0  0  0  0  0  0  # atno 17395 bound_to 11000

$$$$
