AV-unprocessed.smi:3287|AV-procd|sdf|12593|dock6
  -GOLD-   2272018513D 1   1.00000     0.00000
 Structure written by MMmdl.
 43 44  0  0  0  0  0  0  0  0  2 V2000
  152.6729  143.7604  162.2499 C   0  0  0  0  0  0  0  0  0  0  0  0
  151.9373  143.5055  160.9240 C   0  0  1  0  0  0  0  0  0  0  0  0
  151.9230  144.7579  160.0262 C   0  0  0  0  0  0  0  0  0  0  0  0
  151.1135  144.5227  158.7406 C   0  0  0  0  0  0  0  0  0  0  0  0
  151.6235  143.2946  157.9584 C   0  0  2  0  0  0  0  0  0  0  0  0
  150.7878  143.0249  156.7675 N   0  3  0  0  0  0  0  0  0  0  0  0
  149.6850  142.0612  156.9719 C   0  0  0  0  0  0  0  0  0  0  0  0
  149.2961  141.3658  155.6555 C   0  0  2  0  0  0  0  0  0  0  0  0
  147.9879  140.8426  155.7828 O   0  0  0  0  0  0  0  0  0  0  0  0
  150.3010  140.2852  155.2898 C   0  0  0  0  0  0  0  0  0  0  0  0
  151.5722  140.2542  155.9005 C   0  0  0  0  0  0  0  0  0  0  0  0
  152.4694  139.2299  155.5373 C   0  0  0  0  0  0  0  0  0  0  0  0
  152.1740  138.2718  154.6331 N   0  0  0  0  0  0  0  0  0  0  0  0
  150.9556  138.3043  154.0527 C   0  0  0  0  0  0  0  0  0  0  0  0
  149.9858  139.2841  154.3453 C   0  0  0  0  0  0  0  0  0  0  0  0
  151.6401  142.0509  158.8696 C   0  0  0  0  0  0  0  0  0  0  0  0
  152.4616  142.2638  160.1587 C   0  0  1  0  0  0  0  0  0  0  0  0
  153.9770  142.2894  159.8730 C   0  0  0  0  0  0  0  0  0  0  0  0
  153.7053  144.0698  162.0873 H   0  0  0  0  0  0  0  0  0  0  0  0
  152.6839  142.8657  162.8729 H   0  0  0  0  0  0  0  0  0  0  0  0
  152.1835  144.5504  162.8202 H   0  0  0  0  0  0  0  0  0  0  0  0
  150.8998  143.2953  161.1891 H   0  0  0  0  0  0  0  0  0  0  0  0
  151.4935  145.5987  160.5722 H   0  0  0  0  0  0  0  0  0  0  0  0
  152.9416  145.0518  159.7721 H   0  0  0  0  0  0  0  0  0  0  0  0
  150.0628  144.3829  158.9989 H   0  0  0  0  0  0  0  0  0  0  0  0
  151.1624  145.4204  158.1246 H   0  0  0  0  0  0  0  0  0  0  0  0
  152.6417  143.4840  157.6165 H   0  0  0  0  0  0  0  0  0  0  0  0
  150.3646  143.8979  156.4852 H   0  0  0  0  0  0  0  0  0  0  0  0
  149.9977  141.3092  157.6964 H   0  0  0  0  0  0  0  0  0  0  0  0
  148.8222  142.5764  157.3970 H   0  0  0  0  0  0  0  0  0  0  0  0
  149.2750  142.1031  154.8517 H   0  0  0  0  0  0  0  0  0  0  0  0
  148.0103  140.1275  156.4011 H   0  0  0  0  0  0  0  0  0  0  0  0
  151.8595  140.9956  156.6317 H   0  0  0  0  0  0  0  0  0  0  0  0
  153.4501  139.1780  155.9870 H   0  0  0  0  0  0  0  0  0  0  0  0
  150.7457  137.5251  153.3350 H   0  0  0  0  0  0  0  0  0  0  0  0
  149.0240  139.2624  153.8542 H   0  0  0  0  0  0  0  0  0  0  0  0
  150.6155  141.7939  159.1438 H   0  0  0  0  0  0  0  0  0  0  0  0
  152.0276  141.1910  158.3217 H   0  0  0  0  0  0  0  0  0  0  0  0
  152.2859  141.3930  160.7920 H   0  0  0  0  0  0  0  0  0  0  0  0
  154.2754  143.1685  159.3027 H   0  0  0  0  0  0  0  0  0  0  0  0
  154.2799  141.4111  159.3025 H   0  0  0  0  0  0  0  0  0  0  0  0
  154.5569  142.2821  160.7956 H   0  0  0  0  0  0  0  0  0  0  0  0
  151.3805  142.7012  156.0165 H   0  0  0  0  0  0  0  0  0  0  0  0
  1  2  1  0  0  0  0
  1 19  1  0  0  0  0
  1 20  1  0  0  0  0
  1 21  1  0  0  0  0
  2 17  1  0  0  0  0
  2  3  1  0  0  0  0
  2 22  1  0  0  0  0
  3  4  1  0  0  0  0
  3 23  1  0  0  0  0
  3 24  1  0  0  0  0
  4  5  1  0  0  0  0
  4 25  1  0  0  0  0
  4 26  1  0  0  0  0
  5  6  1  0  0  0  0
  5 16  1  0  0  0  0
  5 27  1  0  0  0  0
  6  7  1  0  0  0  0
  6 28  1  0  0  0  0
  6 43  1  0  0  0  0
  7  8  1  0  0  0  0
  7 29  1  0  0  0  0
  7 30  1  0  0  0  0
  8  9  1  0  0  0  0
  8 10  1  0  0  0  0
  8 31  1  0  0  0  0
  9 32  1  0  0  0  0
 10 15  1  0  0  0  0
 10 11  2  0  0  0  0
 11 12  1  0  0  0  0
 11 33  1  0  0  0  0
 12 13  2  0  0  0  0
 12 34  1  0  0  0  0
 13 14  1  0  0  0  0
 14 15  2  0  0  0  0
 14 35  1  0  0  0  0
 15 36  1  0  0  0  0
 16 17  1  0  0  0  0
 16 37  1  0  0  0  0
 16 38  1  0  0  0  0
 17 18  1  0  0  0  0
 17 39  1  0  0  0  0
 18 40  1  0  0  0  0
 18 41  1  0  0  0  0
 18 42  1  0  0  0  0
M  CHG  1   6   1
M  END
> <s_m_source_file>
AV-unprocessed.smi

> <i_m_source_file_index>
3287

> <i_lp_mmshare_version>
43012

> <i_f3d_flags>
0

> <s_epik_input>
W0NIM11bQ0BASF0xW0NIMl1bQ0gyXVtDQEhdKFtDSDJdW0NASF0xW0NIM10pW05IXVtDSDJdW0NASF0oW09IXSljMltjSF1bY0hdbltjSF1bY0hdMg==

> <s_epik_cmdline>
J2VwaWtfcHl0aG9uJywgJy1waCcsICc3LjAnLCAnLXRuJywgJzgnLCAnLW1hJywgJzIwMCcsICctbWV0YWxfYmluZGluZycsICctaW1hZScsICc8aW5maWxlLm1hZT4nLCAnLW9tYWUnLCAnPG91dGZpbGUubWFlPic=

> <r_lp_tautomer_probability>
1

> <r_epik_Ionization_Penalty>
0.00537262

> <r_epik_Ionization_Penalty_Charging>
0.00321624

> <r_epik_Ionization_Penalty_Neutral>
0.00215638

> <r_epik_State_Penalty>
-0

> <r_epik_Charging_Adjusted_Penalty>
0.00321624

> <i_epik_Tot_Q>
1

> <i_epik_Tot_abs_Q>
1

> <r_epik_Metal_State_Penalty>
-0

> <b_epik_Metal_Only>
0

> <s_lp_Force_Field>
OPLS_2005

> <r_lp_Energy>
18.3798

> <b_lp_Chiralities_Consistent>
1

> <s_lp_Variant>
AV-unprocessed.smi:3287-4

> <Gold.Version>
5.8.1

> <Gold.Id.Protein>
6NUR|6NUR_protein|mol2

> <Gold.PLP.Fitness>
50.6380

> <Gold.PLP.PLP>
-44.4697

> <Gold.PLP.part.hbond>
-1.0000

> <Gold.PLP.part.metal>
0.0000

> <Gold.PLP.part.buried>
-5.6458

> <Gold.PLP.part.nonpolar>
-37.5016

> <Gold.PLP.part.repulsive>
0.1295

> <Gold.PLP.ligand.clash>
0.9162

> <Gold.PLP.ligand.torsion>
1.2106

> <Gold.PLP.Chemscore.Hbond>
1.9840

> <Gold.PLP.Chemscore.CHOScore>
1.1781

> <Gold.PLP.Chemscore.Metal>
0.0000

> <Gold.Chemscore.Hbonds>
donor molecule, donor type, donor heavy atom, donor atom, acceptor molecule, acceptor atom, score
      L1  H     6    28       P1  8028  1.89
      L1  C    14    35       P1  7948  0.34
      L1  C    14    35       P1  7949  0.78

> <Gold.PLP.Chemscore.Internal.Correction>
0.0196

> <Gold.Rescore>
     Score         DG    S(hbond)    S(metal)    S(lipo)     H(rot)  DE(clash)    DE(int)     intcor
     18.73     -19.58       1.00        0.00     133.66       1.90       0.08       0.77       ----

> <Gold.Chemscore.Fitness>
18.7256

> <Gold.Chemscore.DG>
-19.5769

> <Gold.Chemscore.ZeroCoef>
-5.4800

> <Gold.Chemscore.Hbond>
0.9975

> <Gold.Chemscore.Metal>
0.0000

> <Gold.Chemscore.Lipo>
133.6600

> <Gold.Chemscore.Internal_Hbond>
0.0000

> <Gold.Chemscore.DEClash>
0.0849

> <Gold.Chemscore.DEInternal>
0.7664

> <Gold.Chemscore.Rot>
1.9035

> <Gold.Chemscore.Internal.Correction>
   9.000000E+99

> <Gold.Chemscore.Hbonds>
donor molecule, donor type, donor heavy atom, donor atom, acceptor molecule, acceptor atom, score
      L1  H     6    28       P1  8028  0.91

> <Gold.Chemscore.Hbond.Weighted>
-3.3316

> <Gold.Chemscore.Metal.Weighted>
-0.0000

> <Gold.Chemscore.Lipo.Weighted>
-15.6382

> <Gold.Chemscore.Internal_Hbond.Weighted>
0.0000

> <Gold.Chemscore.DEClash.Weighted>
0.0849

> <Gold.Chemscore.DEInternal.Weighted>
0.7664

> <Gold.Chemscore.Rot.Weighted>
4.8729

> <Gold.Chemscore.Internal.Correction.Weighted>
   9.000000E+99

> <Gold.Protein.RotatedTorsions>
[ 6907 6896 6895 6894 ] final  -72.69 input  -60.11 | X-H torsion
[ 7974 7965 7964 7962 ] final   22.42 input  175.53 | X-H torsion
[ 8008 7997 7996 7995 ] final  169.08 input   59.86 | X-H torsion
[ 10167 10162 10161 10158 ] final  -62.81 input  -65.29 | X-H torsion
[ 10718 10713 10712 10709 ] final  -97.88 input   66.30 | X-H torsion
[ 10763 10752 10751 10750 ] final  130.04 input  -60.55 | X-H torsion
[ 11005 11000 10999 10996 ] final  -66.10 input  -57.11 | X-H torsion

> <Gold.Protein.ActiveResidues>
 VAL166  LYS551  ARG553  GLY616  TRP617  ASP618  TYR619  PRO620  LYS621  CYS622 
 ASP623  PHE694  ASN695  SER759  ASP760  ASP761  ALA762  ILE779  LEU786  VAL792 
 PHE793  MET794  SER795  GLU796  ALA797  LYS798  CYS799  TRP800  GLU811  SER814 

> <Gold.Protein.RotatedAtoms>
  150.7160  134.5126  159.5614 H   0  0  0  0  0  0  0  0  0  0  0  0  # atno 6907 bound_to 6896
  152.2699  134.7941  160.0425 H   0  0  0  0  0  0  0  0  0  0  0  0  # atno 6908 bound_to 6896
  151.8624  133.3424  159.3745 H   0  0  0  0  0  0  0  0  0  0  0  0  # atno 6909 bound_to 6896
  146.2030  139.7888  142.8747 H   0  0  0  0  0  0  0  0  0  0  0  0  # atno 7974 bound_to 7965
  156.1489  140.1573  156.8801 H   0  0  0  0  0  0  0  0  0  0  0  0  # atno 8008 bound_to 7997
  154.5053  140.0814  156.7919 H   0  0  0  0  0  0  0  0  0  0  0  0  # atno 8009 bound_to 7997
  155.3934  140.3411  155.4255 H   0  0  0  0  0  0  0  0  0  0  0  0  # atno 8010 bound_to 7997
  140.5914  143.2342  151.6131 H   0  0  0  0  0  0  0  0  0  0  0  0  # atno 10167 bound_to 10162
  156.0094  130.5213  150.6440 H   0  0  0  0  0  0  0  0  0  0  0  0  # atno 10718 bound_to 10713
  153.7516  135.3209  155.3322 H   0  0  0  0  0  0  0  0  0  0  0  0  # atno 10763 bound_to 10752
  154.8261  135.4568  154.0926 H   0  0  0  0  0  0  0  0  0  0  0  0  # atno 10764 bound_to 10752
  153.2131  135.6938  153.8173 H   0  0  0  0  0  0  0  0  0  0  0  0  # atno 10765 bound_to 10752
  141.1473  133.6693  156.6087 H   0  0  0  0  0  0  0  0  0  0  0  0  # atno 11005 bound_to 11000
  145.3419  141.0289  143.3387 LP  0  0  0  0  0  0  0  0  0  0  0  0  # atno 17320 bound_to 7965
  144.8726  139.5017  143.6761 LP  0  0  0  0  0  0  0  0  0  0  0  0  # atno 17321 bound_to 7965
  139.5230  144.3147  152.0963 LP  0  0  0  0  0  0  0  0  0  0  0  0  # atno 17342 bound_to 10162
  140.2312  144.4367  150.6299 LP  0  0  0  0  0  0  0  0  0  0  0  0  # atno 17343 bound_to 10162
  157.4214  131.0837  151.1127 LP  0  0  0  0  0  0  0  0  0  0  0  0  # atno 17370 bound_to 10713
  157.1728  130.6275  149.5646 LP  0  0  0  0  0  0  0  0  0  0  0  0  # atno 17371 bound_to 10713
  140.3631  134.7670  157.4548 LP  0  0  0  0  0  0  0  0  0  0  0  0  # atno 17394 bound_to 11000
  140.0769  134.5785  155.8581 LP  0  0  0  0  0  0  0  0  0  0  0  0  # atno 17395 bound_to 11000

$$$$
