AV-unprocessed.smi:107|AV-procd|sdf|1018|dock7
  -GOLD-   2262018 23D 1   1.00000     0.00000
 Structure written by MMmdl.
 31 32  0  0  0  0  0  0  0  0  1 V2000
  151.4261  137.5758  154.7539 C   0  0  0  0  0  0  0  0  0  0  0  0
  150.4773  138.7628  154.7654 C   0  0  0  0  0  0  0  0  0  0  0  0
  149.2894  138.7508  154.1084 C   0  0  0  0  0  0  0  0  0  0  0  0
  148.4017  139.8178  154.0997 N   0  0  0  0  0  0  0  0  0  0  0  0
  147.0945  139.7405  153.3441 C   0  0  1  0  0  0  0  0  0  0  0  0
  147.3338  139.3760  151.8782 C   0  0  0  0  0  0  0  0  0  0  0  0
  146.1666  138.4500  151.6080 C   0  0  1  0  0  0  0  0  0  0  0  0
  146.4554  137.5700  150.5411 O   0  0  0  0  0  0  0  0  0  0  0  0
  146.0212  137.7207  152.9459 C   0  0  2  0  0  0  0  0  0  0  0  0
  144.6144  137.1513  153.1834 C   0  0  0  0  0  0  0  0  0  0  0  0
  143.6393  138.0744  152.7480 O   0  0  0  0  0  0  0  0  0  0  0  0
  146.3000  138.7379  153.9081 O   0  0  0  0  0  0  0  0  0  0  0  0
  148.7367  141.0004  154.7920 C   0  0  0  0  0  0  0  0  0  0  0  0
  148.0147  141.9964  154.8103 O   0  0  0  0  0  0  0  0  0  0  0  0
  149.9549  141.0123  155.4694 N   0  0  0  0  0  0  0  0  0  0  0  0
  150.8724  139.9598  155.5129 C   0  0  0  0  0  0  0  0  0  0  0  0
  151.9180  140.0916  156.1469 O   0  0  0  0  0  0  0  0  0  0  0  0
  150.1971  141.8556  155.9690 H   0  0  0  0  0  0  0  0  0  0  0  0
  151.0210  136.7392  154.1840 H   0  0  0  0  0  0  0  0  0  0  0  0
  151.6133  137.2271  155.7702 H   0  0  0  0  0  0  0  0  0  0  0  0
  152.3804  137.8552  154.3058 H   0  0  0  0  0  0  0  0  0  0  0  0
  149.0256  137.8597  153.5594 H   0  0  0  0  0  0  0  0  0  0  0  0
  146.5673  140.6865  153.4754 H   0  0  0  0  0  0  0  0  0  0  0  0
  147.3535  140.2638  151.2455 H   0  0  0  0  0  0  0  0  0  0  0  0
  148.2827  138.8454  151.7795 H   0  0  0  0  0  0  0  0  0  0  0  0
  145.2710  139.0324  151.3854 H   0  0  0  0  0  0  0  0  0  0  0  0
  147.2341  137.0799  150.7572 H   0  0  0  0  0  0  0  0  0  0  0  0
  146.7790  136.9380  153.0172 H   0  0  0  0  0  0  0  0  0  0  0  0
  144.4840  136.1926  152.6806 H   0  0  0  0  0  0  0  0  0  0  0  0
  144.4521  136.9838  154.2487 H   0  0  0  0  0  0  0  0  0  0  0  0
  143.5737  138.0203  151.8068 H   0  0  0  0  0  0  0  0  0  0  0  0
  1  2  1  0  0  0  0
  1 19  1  0  0  0  0
  1 20  1  0  0  0  0
  1 21  1  0  0  0  0
  2 16  1  0  0  0  0
  2  3  2  0  0  0  0
  3  4  1  0  0  0  0
  3 22  1  0  0  0  0
  4  5  1  0  0  0  0
  4 13  1  0  0  0  0
  5 12  1  0  0  0  0
  5  6  1  0  0  0  0
  5 23  1  0  0  0  0
  6  7  1  0  0  0  0
  6 24  1  0  0  0  0
  6 25  1  0  0  0  0
  7  8  1  0  0  0  0
  7  9  1  0  0  0  0
  7 26  1  0  0  0  0
  8 27  1  0  0  0  0
  9 10  1  0  0  0  0
  9 12  1  0  0  0  0
  9 28  1  0  0  0  0
 10 11  1  0  0  0  0
 10 29  1  0  0  0  0
 10 30  1  0  0  0  0
 11 31  1  0  0  0  0
 13 14  2  0  0  0  0
 13 15  1  0  0  0  0
 15 18  1  0  0  0  0
 15 16  1  0  0  0  0
 16 17  2  0  0  0  0
M  END
> <s_m_source_file>
AV-unprocessed.smi

> <i_m_source_file_index>
107

> <i_lp_mmshare_version>
43012

> <i_f3d_flags>
0

> <s_epik_input>
Tz1jMVtuSF1jKD1PKW4oW2NIXWMxW0NIM10pW0NAQEhdMltDSDJdW0NAQEhdKFtPSF0pW0NASF0oTzIpW0NIMl1bT0hd

> <s_epik_cmdline>
J2VwaWtfcHl0aG9uJywgJy1waCcsICc3LjAnLCAnLXRuJywgJzgnLCAnLW1hJywgJzIwMCcsICctbWV0YWxfYmluZGluZycsICctaW1hZScsICc8aW5maWxlLm1hZT4nLCAnLW9tYWUnLCAnPG91dGZpbGUubWFlPic=

> <r_lp_tautomer_probability>
0.999537

> <r_epik_Ionization_Penalty>
0.00121888

> <r_epik_Ionization_Penalty_Charging>
0.00121876

> <r_epik_Ionization_Penalty_Neutral>
1.19946e-07

> <r_epik_State_Penalty>
0.000805124

> <r_epik_Charging_Adjusted_Penalty>
0.00202389

> <i_epik_Tot_Q>
0

> <i_epik_Tot_abs_Q>
0

> <r_epik_Metal_State_Penalty>
0.662472

> <b_epik_Metal_Only>
0

> <s_epik_Chemistry_Notes>
This compound contains an acetal/aminal-like group ( X-CH(R)-Y where X, Y are N, S, or O) that may be acid/base labile, releasing an aldehyde.

> <s_lp_Force_Field>
OPLS_2005

> <r_lp_Energy>
25.0544

> <b_lp_Chiralities_Consistent>
1

> <s_lp_Variant>
AV-unprocessed.smi:107-6

> <Gold.Version>
5.8.1

> <Gold.Id.Protein>
6NUR|6NUR_protein|mol2

> <Gold.PLP.Fitness>
36.4396

> <Gold.PLP.PLP>
-27.9446

> <Gold.PLP.part.hbond>
-4.7651

> <Gold.PLP.part.metal>
0.0000

> <Gold.PLP.part.buried>
3.2527

> <Gold.PLP.part.nonpolar>
-27.4717

> <Gold.PLP.part.repulsive>
1.2631

> <Gold.PLP.ligand.clash>
0.0000

> <Gold.PLP.ligand.torsion>
0.1711

> <Gold.PLP.Chemscore.Hbond>
1.9425

> <Gold.PLP.Chemscore.CHOScore>
1.0000

> <Gold.PLP.Chemscore.Metal>
0.0000

> <Gold.Chemscore.Hbonds>
donor molecule, donor type, donor heavy atom, donor atom, acceptor molecule, acceptor atom, score
      L1  H     8    27       P1  7948  0.68
      L1  H    11    31       P1 10171  0.88
      L1  C     3    22       P1  7948  1.00

> <Gold.PLP.Chemscore.Internal.Correction>
0.0098

> <Gold.Rescore>
     Score         DG    S(hbond)    S(metal)    S(lipo)     H(rot)  DE(clash)    DE(int)     intcor
      8.60     -10.85       1.92        0.00      50.80       2.73       2.01       0.24       ----

> <Gold.Chemscore.Fitness>
8.5963

> <Gold.Chemscore.DG>
-10.8510

> <Gold.Chemscore.ZeroCoef>
-5.4800

> <Gold.Chemscore.Hbond>
1.9175

> <Gold.Chemscore.Metal>
0.0000

> <Gold.Chemscore.Lipo>
50.7994

> <Gold.Chemscore.Internal_Hbond>
0.0000

> <Gold.Chemscore.DEClash>
2.0138

> <Gold.Chemscore.DEInternal>
0.2410

> <Gold.Chemscore.Rot>
2.7253

> <Gold.Chemscore.Internal.Correction>
   9.000000E+99

> <Gold.Chemscore.Hbonds>
donor molecule, donor type, donor heavy atom, donor atom, acceptor molecule, acceptor atom, score
      L1  H     8    27       P1  7948  0.68
      L1  H    11    31       P1 10171  0.78
      P1  H  7997  8008       L1    17  0.01

> <Gold.Chemscore.Hbond.Weighted>
-6.4044

> <Gold.Chemscore.Metal.Weighted>
-0.0000

> <Gold.Chemscore.Lipo.Weighted>
-5.9435

> <Gold.Chemscore.Internal_Hbond.Weighted>
0.0000

> <Gold.Chemscore.DEClash.Weighted>
2.0138

> <Gold.Chemscore.DEInternal.Weighted>
0.2410

> <Gold.Chemscore.Rot.Weighted>
6.9769

> <Gold.Chemscore.Internal.Correction.Weighted>
   9.000000E+99

> <Gold.Protein.RotatedTorsions>
[ 6907 6896 6895 6894 ] final   63.44 input  -60.11 | X-H torsion
[ 7974 7965 7964 7962 ] final   53.35 input  175.53 | X-H torsion
[ 8008 7997 7996 7995 ] final  -16.42 input   59.86 | X-H torsion
[ 10167 10162 10161 10158 ] final  105.87 input  -65.29 | X-H torsion
[ 10718 10713 10712 10709 ] final    6.58 input   66.30 | X-H torsion
[ 10763 10752 10751 10750 ] final   97.96 input  -60.55 | X-H torsion
[ 11005 11000 10999 10996 ] final -105.50 input  -57.11 | X-H torsion

> <Gold.Protein.ActiveResidues>
 VAL166  LYS551  ARG553  GLY616  TRP617  ASP618  TYR619  PRO620  LYS621  CYS622 
 ASP623  PHE694  ASN695  SER759  ASP760  ASP761  ALA762  ILE779  LEU786  VAL792 
 PHE793  MET794  SER795  GLU796  ALA797  LYS798  CYS799  TRP800  GLU811  SER814 

> <Gold.Protein.RotatedAtoms>
  152.4253  134.5880  159.9966 H   0  0  0  0  0  0  0  0  0  0  0  0  # atno 6907 bound_to 6896
  151.6018  133.3350  159.3057 H   0  0  0  0  0  0  0  0  0  0  0  0  # atno 6908 bound_to 6896
  150.8142  134.7352  159.6780 H   0  0  0  0  0  0  0  0  0  0  0  0  # atno 6909 bound_to 6896
  145.9720  139.4158  143.0184 H   0  0  0  0  0  0  0  0  0  0  0  0  # atno 7974 bound_to 7965
  154.5054  140.2170  155.9262 H   0  0  0  0  0  0  0  0  0  0  0  0  # atno 8008 bound_to 7997
  156.1487  140.3165  155.8579 H   0  0  0  0  0  0  0  0  0  0  0  0  # atno 8009 bound_to 7997
  155.3981  140.0482  157.3028 H   0  0  0  0  0  0  0  0  0  0  0  0  # atno 8010 bound_to 7997
  139.7056  144.7087  151.1112 H   0  0  0  0  0  0  0  0  0  0  0  0  # atno 10167 bound_to 10162
  156.9243  130.5802  149.5648 H   0  0  0  0  0  0  0  0  0  0  0  0  # atno 10718 bound_to 10713
  153.2832  135.4165  155.1098 H   0  0  0  0  0  0  0  0  0  0  0  0  # atno 10763 bound_to 10752
  154.8496  135.3500  154.6083 H   0  0  0  0  0  0  0  0  0  0  0  0  # atno 10764 bound_to 10752
  153.6504  135.7053  153.5268 H   0  0  0  0  0  0  0  0  0  0  0  0  # atno 10765 bound_to 10752
  141.1050  133.8813  157.1742 H   0  0  0  0  0  0  0  0  0  0  0  0  # atno 11005 bound_to 11000
  145.7892  140.9822  143.1058 LP  0  0  0  0  0  0  0  0  0  0  0  0  # atno 17320 bound_to 7965
  144.6839  139.9661  143.7481 LP  0  0  0  0  0  0  0  0  0  0  0  0  # atno 17321 bound_to 7965
  140.7721  143.5363  150.9364 LP  0  0  0  0  0  0  0  0  0  0  0  0  # atno 17342 bound_to 10162
  139.9046  143.6794  152.3125 LP  0  0  0  0  0  0  0  0  0  0  0  0  # atno 17343 bound_to 10162
  156.0477  130.5551  150.8917 LP  0  0  0  0  0  0  0  0  0  0  0  0  # atno 17370 bound_to 10713
  157.5888  131.0945  150.9153 LP  0  0  0  0  0  0  0  0  0  0  0  0  # atno 17371 bound_to 10713
  139.9917  135.0062  156.9989 LP  0  0  0  0  0  0  0  0  0  0  0  0  # atno 17394 bound_to 11000
  140.4925  134.1179  155.7235 LP  0  0  0  0  0  0  0  0  0  0  0  0  # atno 17395 bound_to 11000

$$$$
