AV-unprocessed.smi:2641|AV-procd|sdf|10273|dock9
  -GOLD-   2272014283D 1   1.00000     0.00000
 Structure written by MMmdl.
 40 41  0  0  0  0  0  0  0  0  3 V2000
  151.6330  144.5854  158.8709 C   0  0  0  0  0  0  0  0  0  0  0  0
  151.5418  143.2182  158.2268 C   0  0  0  0  0  0  0  0  0  0  0  0
  152.2025  142.0892  158.7571 C   0  0  0  0  0  0  0  0  0  0  0  0
  152.0747  140.8466  158.1023 C   0  0  0  0  0  0  0  0  0  0  0  0
  151.2894  140.7570  156.9316 C   0  0  0  0  0  0  0  0  0  0  0  0
  151.1339  139.4341  156.2029 C   0  0  0  0  0  0  0  0  0  0  0  0
  149.6864  138.9456  156.2832 C   0  0  0  0  0  0  0  0  0  0  0  0
  148.8811  139.3129  155.4290 O   0  0  0  0  0  0  0  0  0  0  0  0
  149.4067  138.1292  157.3165 N   0  0  0  0  0  0  0  0  0  0  0  0
  148.1730  137.4381  157.7256 C   0  0  0  0  0  0  0  0  0  0  0  0
  148.4969  136.8493  159.1228 C   0  0  0  0  0  0  0  0  0  0  0  0
  147.7942  137.2206  160.0898 O   0  0  0  0  0  0  0  0  0  0  0  0
  149.4756  136.0758  159.2209 O   0  5  0  0  0  0  0  0  0  0  0  0
  147.0555  138.5171  157.8137 C   0  0  0  0  0  0  0  0  0  0  0  0
  145.6760  137.9425  158.1930 C   0  0  0  0  0  0  0  0  0  0  0  0
  145.2461  136.8354  157.2200 C   0  0  0  0  0  0  0  0  0  0  0  0
  146.3133  135.7357  157.1253 C   0  0  0  0  0  0  0  0  0  0  0  0
  147.6858  136.3245  156.7434 C   0  0  0  0  0  0  0  0  0  0  0  0
  150.6523  141.9201  156.4476 C   0  0  0  0  0  0  0  0  0  0  0  0
  150.8001  143.0920  157.1032 N   0  3  0  0  0  0  0  0  0  0  0  0
  152.1881  144.5419  159.8085 H   0  0  0  0  0  0  0  0  0  0  0  0
  150.6368  144.9744  159.0838 H   0  0  0  0  0  0  0  0  0  0  0  0
  152.1417  145.2840  158.2060 H   0  0  0  0  0  0  0  0  0  0  0  0
  152.8012  142.1711  159.6528 H   0  0  0  0  0  0  0  0  0  0  0  0
  152.5775  139.9739  158.4934 H   0  0  0  0  0  0  0  0  0  0  0  0
  151.4151  139.5491  155.1554 H   0  0  0  0  0  0  0  0  0  0  0  0
  151.8161  138.6980  156.6318 H   0  0  0  0  0  0  0  0  0  0  0  0
  150.1929  137.9159  157.9129 H   0  0  0  0  0  0  0  0  0  0  0  0
  147.3255  139.3060  158.5172 H   0  0  0  0  0  0  0  0  0  0  0  0
  146.9671  139.0146  156.8467 H   0  0  0  0  0  0  0  0  0  0  0  0
  145.6988  137.5485  159.2096 H   0  0  0  0  0  0  0  0  0  0  0  0
  144.9328  138.7402  158.1942 H   0  0  0  0  0  0  0  0  0  0  0  0
  144.2958  136.4066  157.5391 H   0  0  0  0  0  0  0  0  0  0  0  0
  145.0764  137.2643  156.2317 H   0  0  0  0  0  0  0  0  0  0  0  0
  146.3799  135.2041  158.0749 H   0  0  0  0  0  0  0  0  0  0  0  0
  146.0124  134.9951  156.3840 H   0  0  0  0  0  0  0  0  0  0  0  0
  147.5879  136.7417  155.7404 H   0  0  0  0  0  0  0  0  0  0  0  0
  148.4155  135.5174  156.6638 H   0  0  0  0  0  0  0  0  0  0  0  0
  150.0367  141.9488  155.5601 H   0  0  0  0  0  0  0  0  0  0  0  0
  150.3313  143.9189  156.7328 H   0  0  0  0  0  0  0  0  0  0  0  0
  1  2  1  0  0  0  0
  1 21  1  0  0  0  0
  1 22  1  0  0  0  0
  1 23  1  0  0  0  0
  2 20  1  0  0  0  0
  2  3  2  0  0  0  0
  3  4  1  0  0  0  0
  3 24  1  0  0  0  0
  4  5  2  0  0  0  0
  4 25  1  0  0  0  0
  5  6  1  0  0  0  0
  5 19  1  0  0  0  0
  6  7  1  0  0  0  0
  6 26  1  0  0  0  0
  6 27  1  0  0  0  0
  7  8  2  0  0  0  0
  7  9  1  0  0  0  0
  9 10  1  0  0  0  0
  9 28  1  0  0  0  0
 10 18  1  0  0  0  0
 10 11  1  0  0  0  0
 10 14  1  0  0  0  0
 11 12  2  0  0  0  0
 11 13  1  0  0  0  0
 14 15  1  0  0  0  0
 14 29  1  0  0  0  0
 14 30  1  0  0  0  0
 15 16  1  0  0  0  0
 15 31  1  0  0  0  0
 15 32  1  0  0  0  0
 16 17  1  0  0  0  0
 16 33  1  0  0  0  0
 16 34  1  0  0  0  0
 17 18  1  0  0  0  0
 17 35  1  0  0  0  0
 17 36  1  0  0  0  0
 18 37  1  0  0  0  0
 18 38  1  0  0  0  0
 19 20  2  0  0  0  0
 19 39  1  0  0  0  0
 20 40  1  0  0  0  0
M  CHG  1  13  -1
M  CHG  1  20   1
M  END
> <s_m_source_file>
AV-unprocessed.smi

> <i_m_source_file_index>
2641

> <i_lp_mmshare_version>
43012

> <i_f3d_flags>
0

> <s_epik_input>
W0NIM11jMVtjSF1bY0hdYyhbY0hdbjEpW0NIMl1DKD1PKVtOSF1DMihDKD1PKVtPSF0pW0NIMl1bQ0gyXVtDSDJdW0NIMl1bQ0gyXTI=

> <s_epik_cmdline>
J2VwaWtfcHl0aG9uJywgJy1waCcsICc3LjAnLCAnLXRuJywgJzgnLCAnLW1hJywgJzIwMCcsICctbWV0YWxfYmluZGluZycsICctaW1hZScsICc8aW5maWxlLm1hZT4nLCAnLW9tYWUnLCAnPG91dGZpbGUubWFlPic=

> <r_epik_Ionization_Penalty>
2.05743

> <r_epik_Ionization_Penalty_Charging>
2.05743

> <r_epik_Ionization_Penalty_Neutral>
6.51537e-08

> <r_epik_State_Penalty>
2.19002

> <r_epik_Charging_Adjusted_Penalty>
4.24745

> <i_epik_Tot_Q>
0

> <i_epik_Tot_abs_Q>
2

> <r_epik_Metal_State_Penalty>
2.2083

> <b_epik_Metal_Only>
0

> <s_lp_Force_Field>
OPLS_2005

> <r_lp_Energy>
7.8147

> <b_lp_Chiralities_Consistent>
1

> <s_lp_Variant>
AV-unprocessed.smi:2641-2

> <Gold.Version>
5.8.1

> <Gold.Id.Protein>
6NUR|6NUR_protein|mol2

> <Gold.PLP.Fitness>
44.2011

> <Gold.PLP.PLP>
-25.4763

> <Gold.PLP.part.hbond>
-4.0000

> <Gold.PLP.part.metal>
0.0000

> <Gold.PLP.part.buried>
-3.9721

> <Gold.PLP.part.nonpolar>
-19.2068

> <Gold.PLP.part.repulsive>
0.0904

> <Gold.PLP.ligand.clash>
0.0000

> <Gold.PLP.ligand.torsion>
0.5686

> <Gold.PLP.Chemscore.Hbond>
6.6032

> <Gold.PLP.Chemscore.CHOScore>
0.0000

> <Gold.PLP.Chemscore.Metal>
0.0000

> <Gold.Chemscore.Hbonds>
donor molecule, donor type, donor heavy atom, donor atom, acceptor molecule, acceptor atom, score
      L1  H    20    40       P1  8028  2.00
      P1  H  6896  6909       L1    13  2.00
      P1  H  6931  6943       L1    12  0.04
      P1  H  6934  6947       L1    12  1.46

> <Gold.PLP.Chemscore.Internal.Correction>
0.0525

> <Gold.Rescore>
     Score         DG    S(hbond)    S(metal)    S(lipo)     H(rot)  DE(clash)    DE(int)     intcor
     17.63     -19.25       3.36        0.00      63.55       1.91       0.01       1.62       ----

> <Gold.Chemscore.Fitness>
17.6267

> <Gold.Chemscore.DG>
-19.2517

> <Gold.Chemscore.ZeroCoef>
-5.4800

> <Gold.Chemscore.Hbond>
3.3649

> <Gold.Chemscore.Metal>
0.0000

> <Gold.Chemscore.Lipo>
63.5477

> <Gold.Chemscore.Internal_Hbond>
0.0000

> <Gold.Chemscore.DEClash>
0.0077

> <Gold.Chemscore.DEInternal>
1.6173

> <Gold.Chemscore.Rot>
1.9149

> <Gold.Chemscore.Internal.Correction>
   9.000000E+99

> <Gold.Chemscore.Hbonds>
donor molecule, donor type, donor heavy atom, donor atom, acceptor molecule, acceptor atom, score
      L1  H    20    40       P1  8028  0.94
      P1  H  6896  6909       L1    13  1.00
      P1  H  6931  6943       L1    12  0.05
      P1  H  6934  6947       L1    12  0.71

> <Gold.Chemscore.Hbond.Weighted>
-11.2389

> <Gold.Chemscore.Metal.Weighted>
-0.0000

> <Gold.Chemscore.Lipo.Weighted>
-7.4351

> <Gold.Chemscore.Internal_Hbond.Weighted>
0.0000

> <Gold.Chemscore.DEClash.Weighted>
0.0077

> <Gold.Chemscore.DEInternal.Weighted>
1.6173

> <Gold.Chemscore.Rot.Weighted>
4.9023

> <Gold.Chemscore.Internal.Correction.Weighted>
   9.000000E+99

> <Gold.Protein.RotatedTorsions>
[ 6907 6896 6895 6894 ] final   58.82 input  -60.11 | X-H torsion
[ 7974 7965 7964 7962 ] final  143.38 input  175.53 | X-H torsion
[ 8008 7997 7996 7995 ] final    6.64 input   59.86 | X-H torsion
[ 10167 10162 10161 10158 ] final -157.86 input  -65.29 | X-H torsion
[ 10718 10713 10712 10709 ] final  -30.85 input   66.30 | X-H torsion
[ 10763 10752 10751 10750 ] final  -17.90 input  -60.55 | X-H torsion
[ 11005 11000 10999 10996 ] final  176.86 input  -57.11 | X-H torsion

> <Gold.Protein.ActiveResidues>
 VAL166  LYS551  ARG553  GLY616  TRP617  ASP618  TYR619  PRO620  LYS621  CYS622 
 ASP623  PHE694  ASN695  SER759  ASP760  ASP761  ALA762  ILE779  LEU786  VAL792 
 PHE793  MET794  SER795  GLU796  ALA797  LYS798  CYS799  TRP800  GLU811  SER814 

> <Gold.Protein.RotatedAtoms>
  152.3859  134.6518  160.0125 H   0  0  0  0  0  0  0  0  0  0  0  0  # atno 6907 bound_to 6896
  151.6767  133.3307  159.3217 H   0  0  0  0  0  0  0  0  0  0  0  0  # atno 6908 bound_to 6896
  150.7785  134.6752  159.6458 H   0  0  0  0  0  0  0  0  0  0  0  0  # atno 6909 bound_to 6896
  144.8926  139.5536  143.5791 H   0  0  0  0  0  0  0  0  0  0  0  0  # atno 7974 bound_to 7965
  154.7436  140.2753  155.6352 H   0  0  0  0  0  0  0  0  0  0  0  0  # atno 8008 bound_to 7997
  156.2879  140.2692  156.2096 H   0  0  0  0  0  0  0  0  0  0  0  0  # atno 8009 bound_to 7997
  155.0226  140.0371  157.2433 H   0  0  0  0  0  0  0  0  0  0  0  0  # atno 8010 bound_to 7997
  139.6737  143.9701  152.2298 H   0  0  0  0  0  0  0  0  0  0  0  0  # atno 10167 bound_to 10162
  156.3946  130.4379  149.7369 H   0  0  0  0  0  0  0  0  0  0  0  0  # atno 10718 bound_to 10713
  153.5809  135.7005  153.5463 H   0  0  0  0  0  0  0  0  0  0  0  0  # atno 10763 bound_to 10752
  153.3261  135.4060  155.1457 H   0  0  0  0  0  0  0  0  0  0  0  0  # atno 10764 bound_to 10752
  154.8617  135.3707  154.5337 H   0  0  0  0  0  0  0  0  0  0  0  0  # atno 10765 bound_to 10752
  140.3777  134.6974  157.4432 H   0  0  0  0  0  0  0  0  0  0  0  0  # atno 11005 bound_to 11000
  146.3063  139.7590  142.9054 LP  0  0  0  0  0  0  0  0  0  0  0  0  # atno 17320 bound_to 7965
  145.3756  141.0350  143.3206 LP  0  0  0  0  0  0  0  0  0  0  0  0  # atno 17321 bound_to 7965
  139.9472  144.6644  150.8208 LP  0  0  0  0  0  0  0  0  0  0  0  0  # atno 17342 bound_to 10162
  140.7627  143.3206  151.2632 LP  0  0  0  0  0  0  0  0  0  0  0  0  # atno 17343 bound_to 10162
  156.4409  130.7860  151.2881 LP  0  0  0  0  0  0  0  0  0  0  0  0  # atno 17370 bound_to 10713
  157.7501  131.0125  150.3388 LP  0  0  0  0  0  0  0  0  0  0  0  0  # atno 17371 bound_to 10713
  140.0502  134.6141  155.8871 LP  0  0  0  0  0  0  0  0  0  0  0  0  # atno 17394 bound_to 11000
  141.1934  133.6578  156.5545 LP  0  0  0  0  0  0  0  0  0  0  0  0  # atno 17395 bound_to 11000

$$$$
