AV-unprocessed.smi:3166|AV-procd|sdf|12094|dock5
  -GOLD-   2272017523D 1   1.00000     0.00000
 Structure written by MMmdl.
 41 42  0  0  0  0  0  0  0  0  2 V2000
  143.9618  136.7571  152.7168 C   0  0  0  0  0  0  0  0  0  0  0  0
  145.3632  136.3018  152.2769 C   0  0  1  0  0  0  0  0  0  0  0  0
  145.3377  135.8034  150.8175 C   0  0  0  0  0  0  0  0  0  0  0  0
  145.3426  134.3539  150.7113 N   0  0  0  0  0  0  0  0  0  0  0  0
  144.3586  133.5289  150.2076 C   0  0  0  0  0  0  0  0  0  0  0  0
  144.8011  132.2434  150.3346 C   0  0  0  0  0  0  0  0  0  0  0  0
  146.0791  132.3840  150.9437 C   0  0  0  0  0  0  0  0  0  0  0  0
  146.3982  133.6479  151.1715 N   0  0  0  0  0  0  0  0  0  0  0  0
  146.3515  137.3948  152.4225 N   0  3  0  0  0  0  0  0  0  0  0  0
  146.6808  137.7761  153.8135 C   0  0  0  0  0  0  0  0  0  0  0  0
  147.7359  138.9027  153.8744 C   0  0  0  0  0  0  0  0  0  0  0  0
  148.6967  138.6295  152.8696 O   0  0  0  0  0  0  0  0  0  0  0  0
  147.1113  140.2983  153.6241 C   0  0  0  0  0  0  0  0  0  0  0  0
  148.1193  141.4466  153.8100 C   0  0  0  0  0  0  0  0  0  0  0  0
  148.7820  141.3914  155.1932 C   0  0  0  0  0  0  0  0  0  0  0  0
  149.4540  140.0314  155.4260 C   0  0  0  0  0  0  0  0  0  0  0  0
  148.4554  138.8743  155.2441 C   0  0  0  0  0  0  0  0  0  0  0  0
  143.2316  135.9597  152.5757 H   0  0  0  0  0  0  0  0  0  0  0  0
  143.6250  137.6192  152.1400 H   0  0  0  0  0  0  0  0  0  0  0  0
  143.9352  137.0290  153.7716 H   0  0  0  0  0  0  0  0  0  0  0  0
  145.6701  135.4729  152.9168 H   0  0  0  0  0  0  0  0  0  0  0  0
  144.4458  136.1721  150.3090 H   0  0  0  0  0  0  0  0  0  0  0  0
  146.1945  136.1962  150.2676 H   0  0  0  0  0  0  0  0  0  0  0  0
  143.4352  133.9191  149.8052 H   0  0  0  0  0  0  0  0  0  0  0  0
  144.2880  131.3392  150.0420 H   0  0  0  0  0  0  0  0  0  0  0  0
  146.7777  131.6107  151.2272 H   0  0  0  0  0  0  0  0  0  0  0  0
  147.2131  137.0818  151.9970 H   0  0  0  0  0  0  0  0  0  0  0  0
  145.7732  138.0967  154.3251 H   0  0  0  0  0  0  0  0  0  0  0  0
  147.0481  136.8961  154.3441 H   0  0  0  0  0  0  0  0  0  0  0  0
  148.6094  137.7243  152.6104 H   0  0  0  0  0  0  0  0  0  0  0  0
  146.6853  140.3563  152.6219 H   0  0  0  0  0  0  0  0  0  0  0  0
  146.2799  140.4489  154.3145 H   0  0  0  0  0  0  0  0  0  0  0  0
  148.8850  141.3964  153.0348 H   0  0  0  0  0  0  0  0  0  0  0  0
  147.6157  142.4050  153.6800 H   0  0  0  0  0  0  0  0  0  0  0  0
  149.5177  142.1910  155.2856 H   0  0  0  0  0  0  0  0  0  0  0  0
  148.0332  141.5685  155.9663 H   0  0  0  0  0  0  0  0  0  0  0  0
  150.2904  139.9122  154.7363 H   0  0  0  0  0  0  0  0  0  0  0  0
  149.8789  139.9972  156.4296 H   0  0  0  0  0  0  0  0  0  0  0  0
  147.7121  138.9313  156.0407 H   0  0  0  0  0  0  0  0  0  0  0  0
  148.9703  137.9226  155.3828 H   0  0  0  0  0  0  0  0  0  0  0  0
  146.0252  138.2081  151.9211 H   0  0  0  0  0  0  0  0  0  0  0  0
  1  2  1  0  0  0  0
  1 18  1  0  0  0  0
  1 19  1  0  0  0  0
  1 20  1  0  0  0  0
  2  3  1  0  0  0  0
  2  9  1  0  0  0  0
  2 21  1  0  0  0  0
  3  4  1  0  0  0  0
  3 22  1  0  0  0  0
  3 23  1  0  0  0  0
  4  8  1  0  0  0  0
  4  5  1  0  0  0  0
  5  6  2  0  0  0  0
  5 24  1  0  0  0  0
  6  7  1  0  0  0  0
  6 25  1  0  0  0  0
  7  8  2  0  0  0  0
  7 26  1  0  0  0  0
  9 10  1  0  0  0  0
  9 27  1  0  0  0  0
  9 41  1  0  0  0  0
 10 11  1  0  0  0  0
 10 28  1  0  0  0  0
 10 29  1  0  0  0  0
 11 17  1  0  0  0  0
 11 12  1  0  0  0  0
 11 13  1  0  0  0  0
 12 30  1  0  0  0  0
 13 14  1  0  0  0  0
 13 31  1  0  0  0  0
 13 32  1  0  0  0  0
 14 15  1  0  0  0  0
 14 33  1  0  0  0  0
 14 34  1  0  0  0  0
 15 16  1  0  0  0  0
 15 35  1  0  0  0  0
 15 36  1  0  0  0  0
 16 17  1  0  0  0  0
 16 37  1  0  0  0  0
 16 38  1  0  0  0  0
 17 39  1  0  0  0  0
 17 40  1  0  0  0  0
M  CHG  1   9   1
M  END
> <s_m_source_file>
AV-unprocessed.smi

> <i_m_source_file_index>
3166

> <i_lp_mmshare_version>
43012

> <i_f3d_flags>
0

> <s_epik_input>
bjFbY0hdW2NIXVtjSF1uMVtDSDJdW0NAQEhdKFtDSDNdKVtOSF1bQ0gyXUMyKFtPSF0pW0NIMl1bQ0gyXVtDSDJdW0NIMl1bQ0gyXTI=

> <s_epik_cmdline>
J2VwaWtfcHl0aG9uJywgJy1waCcsICc3LjAnLCAnLXRuJywgJzgnLCAnLW1hJywgJzIwMCcsICctbWV0YWxfYmluZGluZycsICctaW1hZScsICc8aW5maWxlLm1hZT4nLCAnLW9tYWUnLCAnPG91dGZpbGUubWFlPic=

> <r_lp_tautomer_probability>
1

> <r_epik_Ionization_Penalty>
0.0111521

> <r_epik_Ionization_Penalty_Charging>
0.0111472

> <r_epik_Ionization_Penalty_Neutral>
4.96355e-06

> <r_epik_State_Penalty>
0.00856328

> <r_epik_Charging_Adjusted_Penalty>
0.0197104

> <i_epik_Tot_Q>
1

> <i_epik_Tot_abs_Q>
1

> <r_epik_Metal_State_Penalty>
0.00856387

> <b_epik_Metal_Only>
0

> <s_lp_Force_Field>
OPLS_2005

> <r_lp_Energy>
16.9358

> <b_lp_Chiralities_Consistent>
1

> <s_lp_Variant>
AV-unprocessed.smi:3166-2

> <Gold.Version>
5.8.1

> <Gold.Id.Protein>
6NUR|6NUR_protein|mol2

> <Gold.PLP.Fitness>
44.6640

> <Gold.PLP.PLP>
-31.5976

> <Gold.PLP.part.hbond>
-2.5301

> <Gold.PLP.part.metal>
0.0000

> <Gold.PLP.part.buried>
-5.4930

> <Gold.PLP.part.nonpolar>
-24.3481

> <Gold.PLP.part.repulsive>
0.2366

> <Gold.PLP.ligand.clash>
0.0000

> <Gold.PLP.ligand.torsion>
1.0004

> <Gold.PLP.Chemscore.Hbond>
3.0000

> <Gold.PLP.Chemscore.CHOScore>
2.0000

> <Gold.PLP.Chemscore.Metal>
0.0000

> <Gold.Chemscore.Hbonds>
donor molecule, donor type, donor heavy atom, donor atom, acceptor molecule, acceptor atom, score
      L1  H     9    27       P1  7948  2.00
      L1  H    12    30       P1  7948  1.00
      L1  C     5    24       P1 10186  1.00
      L1  C     7    26       P1 10747  1.00

> <Gold.PLP.Chemscore.Internal.Correction>
0.0672

> <Gold.Rescore>
     Score         DG    S(hbond)    S(metal)    S(lipo)     H(rot)  DE(clash)    DE(int)     intcor
     15.05     -15.95       1.98        0.00      80.96       2.20       0.09       0.81       ----

> <Gold.Chemscore.Fitness>
15.0530

> <Gold.Chemscore.DG>
-15.9497

> <Gold.Chemscore.ZeroCoef>
-5.4800

> <Gold.Chemscore.Hbond>
1.9841

> <Gold.Chemscore.Metal>
0.0000

> <Gold.Chemscore.Lipo>
80.9621

> <Gold.Chemscore.Internal_Hbond>
0.0000

> <Gold.Chemscore.DEClash>
0.0884

> <Gold.Chemscore.DEInternal>
0.8083

> <Gold.Chemscore.Rot>
2.1991

> <Gold.Chemscore.Internal.Correction>
   9.000000E+99

> <Gold.Chemscore.Hbonds>
donor molecule, donor type, donor heavy atom, donor atom, acceptor molecule, acceptor atom, score
      L1  H     9    27       P1  7948  0.99
      L1  H    12    30       P1  7948  0.99

> <Gold.Chemscore.Hbond.Weighted>
-6.6269

> <Gold.Chemscore.Metal.Weighted>
-0.0000

> <Gold.Chemscore.Lipo.Weighted>
-9.4726

> <Gold.Chemscore.Internal_Hbond.Weighted>
0.0000

> <Gold.Chemscore.DEClash.Weighted>
0.0884

> <Gold.Chemscore.DEInternal.Weighted>
0.8083

> <Gold.Chemscore.Rot.Weighted>
5.6298

> <Gold.Chemscore.Internal.Correction.Weighted>
   9.000000E+99

> <Gold.Protein.RotatedTorsions>
[ 6907 6896 6895 6894 ] final  -11.68 input  -60.11 | X-H torsion
[ 7974 7965 7964 7962 ] final  -84.35 input  175.53 | X-H torsion
[ 8008 7997 7996 7995 ] final  144.65 input   59.86 | X-H torsion
[ 10167 10162 10161 10158 ] final -136.93 input  -65.29 | X-H torsion
[ 10718 10713 10712 10709 ] final   38.70 input   66.30 | X-H torsion
[ 10763 10752 10751 10750 ] final   38.73 input  -60.55 | X-H torsion
[ 11005 11000 10999 10996 ] final    4.99 input  -57.11 | X-H torsion

> <Gold.Protein.ActiveResidues>
 VAL166  LYS551  ARG553  GLY616  TRP617  ASP618  TYR619  PRO620  LYS621  CYS622 
 ASP623  PHE694  ASN695  SER759  ASP760  ASP761  ALA762  ILE779  LEU786  VAL792 
 PHE793  MET794  SER795  GLU796  ALA797  LYS798  CYS799  TRP800  GLU811  SER814 

> <Gold.Protein.RotatedAtoms>
  151.3824  135.0942  159.9499 H   0  0  0  0  0  0  0  0  0  0  0  0  # atno 6907 bound_to 6896
  152.5104  133.9059  159.7474 H   0  0  0  0  0  0  0  0  0  0  0  0  # atno 6908 bound_to 6896
  150.9495  133.6510  159.2803 H   0  0  0  0  0  0  0  0  0  0  0  0  # atno 6909 bound_to 6896
  145.5077  140.9542  143.1724 H   0  0  0  0  0  0  0  0  0  0  0  0  # atno 7974 bound_to 7965
  156.2903  140.2230  156.5087 H   0  0  0  0  0  0  0  0  0  0  0  0  # atno 8008 bound_to 7997
  154.7627  140.0472  157.1008 H   0  0  0  0  0  0  0  0  0  0  0  0  # atno 8009 bound_to 7997
  154.9971  140.3097  155.4886 H   0  0  0  0  0  0  0  0  0  0  0  0  # atno 8010 bound_to 7997
  139.8628  143.7055  152.2648 H   0  0  0  0  0  0  0  0  0  0  0  0  # atno 10167 bound_to 10162
  157.3619  130.7654  149.7054 H   0  0  0  0  0  0  0  0  0  0  0  0  # atno 10718 bound_to 10713
  152.9991  135.6241  154.2352 H   0  0  0  0  0  0  0  0  0  0  0  0  # atno 10763 bound_to 10752
  154.2093  135.2800  155.2965 H   0  0  0  0  0  0  0  0  0  0  0  0  # atno 10764 bound_to 10752
  154.5620  135.5702  153.7074 H   0  0  0  0  0  0  0  0  0  0  0  0  # atno 10765 bound_to 10752
  140.5757  134.0060  155.8027 H   0  0  0  0  0  0  0  0  0  0  0  0  # atno 11005 bound_to 11000
  144.7744  139.6662  143.7181 LP  0  0  0  0  0  0  0  0  0  0  0  0  # atno 17320 bound_to 7965
  146.2186  139.5594  142.9633 LP  0  0  0  0  0  0  0  0  0  0  0  0  # atno 17321 bound_to 7965
  139.7357  144.7572  151.0731 LP  0  0  0  0  0  0  0  0  0  0  0  0  # atno 17342 bound_to 10162
  140.7772  143.5033  150.9743 LP  0  0  0  0  0  0  0  0  0  0  0  0  # atno 17343 bound_to 10162
  155.9739  130.4111  150.3966 LP  0  0  0  0  0  0  0  0  0  0  0  0  # atno 17370 bound_to 10713
  157.2044  131.0445  151.2633 LP  0  0  0  0  0  0  0  0  0  0  0  0  # atno 17371 bound_to 10713
  141.1028  133.9741  157.3050 LP  0  0  0  0  0  0  0  0  0  0  0  0  # atno 17394 bound_to 11000
  139.9340  135.0198  156.8496 LP  0  0  0  0  0  0  0  0  0  0  0  0  # atno 17395 bound_to 11000

$$$$
