AV-unprocessed.smi:1601|AV-procd|sdf|6438|dock8
  -GOLD-   22720 7 83D 1   1.00000     0.00000
 Structure written by MMmdl.
 42 43  0  0  0  0  0  0  0  0  2 V2000
  149.5069  134.5042  154.6240 C   0  0  0  0  0  0  0  0  0  0  0  0
  149.0954  135.8197  155.3306 C   0  0  1  0  0  0  0  0  0  0  0  0
  149.4738  135.7780  156.8349 C   0  0  0  0  0  0  0  0  0  0  0  0
  148.3120  135.8368  157.7191 N   0  0  0  0  0  0  0  0  0  0  0  0
  148.2735  136.4333  158.9219 C   0  0  0  0  0  0  0  0  0  0  0  0
  149.2450  137.0005  159.4233 O   0  0  0  0  0  0  0  0  0  0  0  0
  146.9314  136.3672  159.6677 C   0  0  1  0  0  0  0  0  0  0  0  0
  145.9525  135.3541  159.0466 C   0  0  0  0  0  0  0  0  0  0  0  0
  147.1449  136.0853  161.0811 N   0  0  0  0  0  0  0  0  0  0  0  0
  146.8663  134.9317  161.7889 C   0  0  0  0  0  0  0  0  0  0  0  0
  147.2281  135.1504  163.0870 C   0  0  0  0  0  0  0  0  0  0  0  0
  147.7193  136.4854  163.0800 C   0  0  0  0  0  0  0  0  0  0  0  0
  147.6672  137.0416  161.8806 N   0  0  0  0  0  0  0  0  0  0  0  0
  149.6750  137.0450  154.6855 N   0  3  0  0  0  0  0  0  0  0  0  0
  149.0495  138.3381  155.0810 C   0  0  0  0  0  0  0  0  0  0  0  0
  149.6981  139.5209  154.3411 C   0  0  0  0  0  0  0  0  0  0  0  0
  151.0958  139.5378  154.5878 O   0  0  0  0  0  0  0  0  0  0  0  0
  151.7206  138.3571  154.1076 C   0  0  0  0  0  0  0  0  0  0  0  0
  151.1520  137.1376  154.8512 C   0  0  0  0  0  0  0  0  0  0  0  0
  149.0775  133.6297  155.1111 H   0  0  0  0  0  0  0  0  0  0  0  0
  150.5899  134.3768  154.6190 H   0  0  0  0  0  0  0  0  0  0  0  0
  149.1505  134.4605  153.5950 H   0  0  0  0  0  0  0  0  0  0  0  0
  148.0092  135.8876  155.2516 H   0  0  0  0  0  0  0  0  0  0  0  0
  150.0790  134.8935  157.0408 H   0  0  0  0  0  0  0  0  0  0  0  0
  150.0922  136.6303  157.1090 H   0  0  0  0  0  0  0  0  0  0  0  0
  147.4644  135.3989  157.3870 H   0  0  0  0  0  0  0  0  0  0  0  0
  146.4710  137.3539  159.5849 H   0  0  0  0  0  0  0  0  0  0  0  0
  145.7733  135.5724  157.9933 H   0  0  0  0  0  0  0  0  0  0  0  0
  144.9883  135.3861  159.5547 H   0  0  0  0  0  0  0  0  0  0  0  0
  146.3273  134.3323  159.1170 H   0  0  0  0  0  0  0  0  0  0  0  0
  146.4382  134.0611  161.3139 H   0  0  0  0  0  0  0  0  0  0  0  0
  147.1502  134.4630  163.9159 H   0  0  0  0  0  0  0  0  0  0  0  0
  148.1082  137.0635  163.9052 H   0  0  0  0  0  0  0  0  0  0  0  0
  147.9878  138.3483  154.8360 H   0  0  0  0  0  0  0  0  0  0  0  0
  149.1407  138.4752  156.1597 H   0  0  0  0  0  0  0  0  0  0  0  0
  149.5061  139.4620  153.2684 H   0  0  0  0  0  0  0  0  0  0  0  0
  149.2681  140.4607  154.6881 H   0  0  0  0  0  0  0  0  0  0  0  0
  151.5765  138.2619  153.0301 H   0  0  0  0  0  0  0  0  0  0  0  0
  152.7943  138.4335  154.2794 H   0  0  0  0  0  0  0  0  0  0  0  0
  151.3957  137.2082  155.9126 H   0  0  0  0  0  0  0  0  0  0  0  0
  151.6493  136.2468  154.4727 H   0  0  0  0  0  0  0  0  0  0  0  0
  149.4975  136.9498  153.6955 H   0  0  0  0  0  0  0  0  0  0  0  0
  1  2  1  0  0  0  0
  1 20  1  0  0  0  0
  1 21  1  0  0  0  0
  1 22  1  0  0  0  0
  2  3  1  0  0  0  0
  2 14  1  0  0  0  0
  2 23  1  0  0  0  0
  3  4  1  0  0  0  0
  3 24  1  0  0  0  0
  3 25  1  0  0  0  0
  4  5  1  0  0  0  0
  4 26  1  0  0  0  0
  5  6  2  0  0  0  0
  5  7  1  0  0  0  0
  7  8  1  0  0  0  0
  7  9  1  0  0  0  0
  7 27  1  0  0  0  0
  8 28  1  0  0  0  0
  8 29  1  0  0  0  0
  8 30  1  0  0  0  0
  9 13  1  0  0  0  0
  9 10  1  0  0  0  0
 10 11  2  0  0  0  0
 10 31  1  0  0  0  0
 11 12  1  0  0  0  0
 11 32  1  0  0  0  0
 12 13  2  0  0  0  0
 12 33  1  0  0  0  0
 14 19  1  0  0  0  0
 14 15  1  0  0  0  0
 14 42  1  0  0  0  0
 15 16  1  0  0  0  0
 15 34  1  0  0  0  0
 15 35  1  0  0  0  0
 16 17  1  0  0  0  0
 16 36  1  0  0  0  0
 16 37  1  0  0  0  0
 17 18  1  0  0  0  0
 18 19  1  0  0  0  0
 18 38  1  0  0  0  0
 18 39  1  0  0  0  0
 19 40  1  0  0  0  0
 19 41  1  0  0  0  0
M  CHG  1  14   1
M  END
> <s_m_source_file>
AV-unprocessed.smi

> <i_m_source_file_index>
1601

> <i_lp_mmshare_version>
43012

> <i_f3d_flags>
0

> <s_epik_input>
W0NIMl0xW0NIMl1PW0NIMl1bQ0gyXU4xW0NASF0oW0NIM10pW0NIMl1bTkhdQyg9TylbQ0BIXShbQ0gzXSluMltjSF1bY0hdW2NIXW4y

> <s_epik_cmdline>
J2VwaWtfcHl0aG9uJywgJy1waCcsICc3LjAnLCAnLXRuJywgJzgnLCAnLW1hJywgJzIwMCcsICctbWV0YWxfYmluZGluZycsICctaW1hZScsICc8aW5maWxlLm1hZT4nLCAnLW9tYWUnLCAnPG91dGZpbGUubWFlPic=

> <r_lp_tautomer_probability>
1

> <r_epik_Ionization_Penalty>
0.732551

> <r_epik_Ionization_Penalty_Charging>
0.732531

> <r_epik_Ionization_Penalty_Neutral>
2.04647e-05

> <r_epik_State_Penalty>
0.757939

> <r_epik_Charging_Adjusted_Penalty>
1.49047

> <i_epik_Tot_Q>
1

> <i_epik_Tot_abs_Q>
1

> <r_epik_Metal_State_Penalty>
0.757952

> <b_epik_Metal_Only>
0

> <s_lp_Force_Field>
OPLS_2005

> <r_lp_Energy>
25.2472

> <b_lp_Chiralities_Consistent>
1

> <s_lp_Variant>
AV-unprocessed.smi:1601-8

> <Gold.Version>
5.8.1

> <Gold.Id.Protein>
6NUR|6NUR_protein|mol2

> <Gold.PLP.Fitness>
43.2309

> <Gold.PLP.PLP>
-33.0692

> <Gold.PLP.part.hbond>
-4.1165

> <Gold.PLP.part.metal>
0.0000

> <Gold.PLP.part.buried>
-3.5548

> <Gold.PLP.part.nonpolar>
-24.4382

> <Gold.PLP.part.repulsive>
0.1760

> <Gold.PLP.ligand.clash>
0.0000

> <Gold.PLP.ligand.torsion>
1.7746

> <Gold.PLP.Chemscore.Hbond>
4.5303

> <Gold.PLP.Chemscore.CHOScore>
0.0000

> <Gold.PLP.Chemscore.Metal>
0.0000

> <Gold.Chemscore.Hbonds>
donor molecule, donor type, donor heavy atom, donor atom, acceptor molecule, acceptor atom, score
      L1  H    14    42       P1  7948  2.00
      P1  H  6931  6943       L1    13  1.00
      P1  H  6934  6947       L1    13  0.33
      P1  H  7989  7998       L1    17  1.00

> <Gold.PLP.Chemscore.Internal.Correction>
0.1200

> <Gold.Rescore>
     Score         DG    S(hbond)    S(metal)    S(lipo)     H(rot)  DE(clash)    DE(int)     intcor
     13.21     -17.44       2.59        0.00      69.11       1.86       1.34       2.90       ----

> <Gold.Chemscore.Fitness>
13.2057

> <Gold.Chemscore.DG>
-17.4404

> <Gold.Chemscore.ZeroCoef>
-5.4800

> <Gold.Chemscore.Hbond>
2.5879

> <Gold.Chemscore.Metal>
0.0000

> <Gold.Chemscore.Lipo>
69.1144

> <Gold.Chemscore.Internal_Hbond>
0.0000

> <Gold.Chemscore.DEClash>
1.3393

> <Gold.Chemscore.DEInternal>
2.8954

> <Gold.Chemscore.Rot>
1.8631

> <Gold.Chemscore.Internal.Correction>
   9.000000E+99

> <Gold.Chemscore.Hbonds>
donor molecule, donor type, donor heavy atom, donor atom, acceptor molecule, acceptor atom, score
      L1  H    14    42       P1  7948  0.83
      P1  H  6931  6943       L1    13  0.39
      P1  H  6934  6947       L1    13  0.22
      P1  H  7989  7998       L1    17  0.19

> <Gold.Chemscore.Hbond.Weighted>
-8.6437

> <Gold.Chemscore.Metal.Weighted>
-0.0000

> <Gold.Chemscore.Lipo.Weighted>
-8.0864

> <Gold.Chemscore.Internal_Hbond.Weighted>
0.0000

> <Gold.Chemscore.DEClash.Weighted>
1.3393

> <Gold.Chemscore.DEInternal.Weighted>
2.8954

> <Gold.Chemscore.Rot.Weighted>
4.7697

> <Gold.Chemscore.Internal.Correction.Weighted>
   9.000000E+99

> <Gold.Protein.RotatedTorsions>
[ 6907 6896 6895 6894 ] final   36.06 input  -60.11 | X-H torsion
[ 7974 7965 7964 7962 ] final -107.12 input  175.53 | X-H torsion
[ 8008 7997 7996 7995 ] final -103.30 input   59.86 | X-H torsion
[ 10167 10162 10161 10158 ] final  -56.61 input  -65.29 | X-H torsion
[ 10718 10713 10712 10709 ] final   88.39 input   66.30 | X-H torsion
[ 10763 10752 10751 10750 ] final   51.49 input  -60.55 | X-H torsion
[ 11005 11000 10999 10996 ] final   44.68 input  -57.11 | X-H torsion

> <Gold.Protein.ActiveResidues>
 VAL166  LYS551  ARG553  GLY616  TRP617  ASP618  TYR619  PRO620  LYS621  CYS622 
 ASP623  PHE694  ASN695  SER759  ASP760  ASP761  ALA762  ILE779  LEU786  VAL792 
 PHE793  MET794  SER795  GLU796  ALA797  LYS798  CYS799  TRP800  GLU811  SER814 

> <Gold.Protein.RotatedAtoms>
  152.1246  134.9180  160.0561 H   0  0  0  0  0  0  0  0  0  0  0  0  # atno 6907 bound_to 6896
  152.0308  133.3931  159.4304 H   0  0  0  0  0  0  0  0  0  0  0  0  # atno 6908 bound_to 6896
  150.6851  134.3444  159.4925 H   0  0  0  0  0  0  0  0  0  0  0  0  # atno 6909 bound_to 6896
  145.2093  140.9089  143.3324 H   0  0  0  0  0  0  0  0  0  0  0  0  # atno 7974 bound_to 7965
  154.8690  140.0423  157.1712 H   0  0  0  0  0  0  0  0  0  0  0  0  # atno 8008 bound_to 7997
  154.8759  140.2965  155.5433 H   0  0  0  0  0  0  0  0  0  0  0  0  # atno 8009 bound_to 7997
  156.2999  140.2420  156.3755 H   0  0  0  0  0  0  0  0  0  0  0  0  # atno 8010 bound_to 7997
  140.6307  143.2458  151.5248 H   0  0  0  0  0  0  0  0  0  0  0  0  # atno 10167 bound_to 10162
  157.6948  131.0293  150.3267 H   0  0  0  0  0  0  0  0  0  0  0  0  # atno 10718 bound_to 10713
  152.9785  135.5844  154.4424 H   0  0  0  0  0  0  0  0  0  0  0  0  # atno 10763 bound_to 10752
  154.4024  135.2769  155.2090 H   0  0  0  0  0  0  0  0  0  0  0  0  # atno 10764 bound_to 10752
  154.3915  135.6124  153.5900 H   0  0  0  0  0  0  0  0  0  0  0  0  # atno 10765 bound_to 10752
  140.1530  134.4438  155.8369 H   0  0  0  0  0  0  0  0  0  0  0  0  # atno 11005 bound_to 11000
  144.9872  139.3725  143.6233 LP  0  0  0  0  0  0  0  0  0  0  0  0  # atno 17320 bound_to 7965
  146.3401  139.9038  142.8790 LP  0  0  0  0  0  0  0  0  0  0  0  0  # atno 17321 bound_to 7965
  139.5522  144.2367  152.1550 LP  0  0  0  0  0  0  0  0  0  0  0  0  # atno 17342 bound_to 10162
  140.1610  144.5025  150.6632 LP  0  0  0  0  0  0  0  0  0  0  0  0  # atno 17343 bound_to 10162
  156.3746  130.3869  149.7148 LP  0  0  0  0  0  0  0  0  0  0  0  0  # atno 17370 bound_to 10713
  156.4551  130.7925  151.2946 LP  0  0  0  0  0  0  0  0  0  0  0  0  # atno 17371 bound_to 10713
  141.2201  133.6880  156.7456 LP  0  0  0  0  0  0  0  0  0  0  0  0  # atno 17394 bound_to 11000
  140.2582  134.8487  157.3733 LP  0  0  0  0  0  0  0  0  0  0  0  0  # atno 17395 bound_to 11000

$$$$
