#       Name:                AV-unprocessed.smi:256
#       Creating user name   scv26
#       Creation time:       Thu Mar 26 21:10:19 2020


#       File generated by GOLD software.
#

@<TRIPOS>MOLECULE
AV-unprocessed.smi:256
    71    74     1
SMALL
NO_CHARGES


@<TRIPOS>ATOM
      1 ****        -0.4363  -2.7548   1.6582 C.3            1 S1                 0.0000
      2 ****        -1.2761  -1.4799   1.4965 C.3            1 S1                 0.0000
      3 ****        -2.6347  -1.7026   0.7796 C.3            1 S1                 0.0000
      4 ****        -2.4867  -2.2668  -0.6539 C.3            1 S1                 0.0000
      5 ****        -1.9982  -1.2446  -1.5792 N.pl3          1 S1                 0.0000
      6 ****        -0.6634  -1.1983  -1.8477 C.ar           1 S1                 0.0000
      7 ****        -0.0422  -2.3789  -2.1069 N.ar           1 S1                 0.0000
      8 ****         1.2653  -2.4214  -2.3730 C.ar           1 S1                 0.0000
      9 ****         2.1348  -1.4140  -2.4309 N.ar           1 S1                 0.0000
     10 ****         1.5273  -0.2219  -2.1726 C.ar           1 S1                 0.0000
     11 ****         0.1463  -0.0202  -1.8794 C.ar           1 S1                 0.0000
     12 ****        -0.0831   1.3367  -1.6706 N.2            1 S1                 0.0000
     13 ****         1.0809   1.8989  -1.8417 C.2            1 S1                 0.0000
     14 ****         2.1085   1.0332  -2.1329 N.pl3          1 S1                 0.0000
     15 ****         3.5038   1.3783  -2.3604 C.3            1 S1                 0.0000
     16 ****         4.3673   1.3960  -1.0744 C.3            1 S1                 0.0000
     17 ****         4.3381   0.0963  -0.5100 O.3            1 S1                 0.0000
     18 ****         5.8298   1.7432  -1.4177 C.3            1 S1                 0.0000
     19 ****         6.6900   1.9439  -0.1576 C.3            1 S1                 0.0000
     20 ****         6.1063   2.9391   0.6741 O.3            1 S1                 0.0000
     21 ****         4.8201   2.5681   1.1550 C.3            1 S1                 0.0000
     22 ****         3.8423   2.3961  -0.0212 C.3            1 S1                 0.0000
     23 ****        -2.8267  -0.0460  -1.6252 C.3            1 S1                 0.0000
     24 ****        -3.0105   0.5511  -0.2178 C.3            1 S1                 0.0000
     25 ****        -3.4939  -0.4752   0.7441 N.4            1 S1                 1.0000
     26 ****        -3.8606   0.1172   2.0596 C.3            1 S1                 0.0000
     27 ****        -4.5988  -0.8632   2.9926 C.3            1 S1                 0.0000
     28 ****        -5.7375  -1.4422   2.3683 O.3            1 S1                 0.0000
     29 ****        -6.8564  -0.5746   2.2703 C.3            1 S1                 0.0000
     30 ****         0.4546  -2.5540   2.2536 H              1 S1                 0.0000
     31 ****        -0.0989  -3.1442   0.6981 H              1 S1                 0.0000
     32 ****        -1.0009  -3.5394   2.1625 H              1 S1                 0.0000
     33 ****        -1.4458  -1.0881   2.4982 H              1 S1                 0.0000
     34 ****        -0.6834  -0.7273   0.9772 H              1 S1                 0.0000
     35 ****        -3.1745  -2.4643   1.3412 H              1 S1                 0.0000
     36 ****        -1.8794  -3.1706  -0.6582 H              1 S1                 0.0000
     37 ****        -3.4669  -2.5844  -1.0118 H              1 S1                 0.0000
     38 ****         1.6732  -3.4028  -2.5654 H              1 S1                 0.0000
     39 ****         1.2255   2.9655  -1.7483 H              1 S1                 0.0000
     40 ****         3.9167   0.6729  -3.0830 H              1 S1                 0.0000
     41 ****         3.5332   2.3559  -2.8433 H              1 S1                 0.0000
     42 ****         4.8850   0.0904   0.2606 H              1 S1                 0.0000
     43 ****         6.2682   0.9703  -2.0506 H              1 S1                 0.0000
     44 ****         5.8546   2.6645  -2.0013 H              1 S1                 0.0000
     45 ****         6.8033   1.0103   0.3954 H              1 S1                 0.0000
     46 ****         7.6926   2.2657  -0.4392 H              1 S1                 0.0000
     47 ****         4.8894   1.6533   1.7453 H              1 S1                 0.0000
     48 ****         4.4597   3.3483   1.8257 H              1 S1                 0.0000
     49 ****         3.6937   3.3682  -0.4929 H              1 S1                 0.0000
     50 ****         2.8680   2.0874   0.3589 H              1 S1                 0.0000
     51 ****        -2.4400   0.6905  -2.3282 H              1 S1                 0.0000
     52 ****        -3.8015  -0.3363  -2.0186 H              1 S1                 0.0000
     53 ****        -2.0769   0.9784   0.1478 H              1 S1                 0.0000
     54 ****        -3.7264   1.3720  -0.2726 H              1 S1                 0.0000
     55 ****        -2.9751   0.5133   2.5562 H              1 S1                 0.0000
     56 ****        -4.4989   0.9830   1.8837 H              1 S1                 0.0000
     57 ****        -3.9301  -1.6679   3.2974 H              1 S1                 0.0000
     58 ****        -4.8898  -0.3609   3.9162 H              1 S1                 0.0000
     59 ****        -7.6977  -1.1169   1.8389 H              1 S1                 0.0000
     60 ****        -6.6521   0.2804   1.6261 H              1 S1                 0.0000
     61 ****        -7.1630  -0.2104   3.2517 H              1 S1                 0.0000
     62 ****        -4.3701  -0.7939   0.3555 H              1 S1                 0.0000
     63 ****        -0.5717  -3.2272  -2.0982 LP             1 S1                 0.0000
     64 ****         3.1076  -1.5190  -2.6373 LP             1 S1                 0.0000
     65 ****        -0.9486   1.7816  -1.4405 LP             1 S1                 0.0000
     66 ****         4.6837  -0.5672  -1.1737 LP             1 S1                 0.0000
     67 ****         3.3996  -0.1412  -0.2591 LP             1 S1                 0.0000
     68 ****         6.0192   3.7849   0.1478 LP             1 S1                 0.0000
     69 ****         6.7081   3.0944   1.4575 LP             1 S1                 0.0000
     70 ****        -6.0100  -2.2456   2.8978 LP             1 S1                 0.0000
     71 ****        -5.4784  -1.7241   1.4445 LP             1 S1                 0.0000
@<TRIPOS>BOND
    1    1    2 1     
    2    1   30 1     
    3    1   31 1     
    4    1   32 1     
    5    2    3 1     
    6    2   33 1     
    7    2   34 1     
    8    3   25 1     
    9    3    4 1     
   10    3   35 1     
   11    4    5 1     
   12    4   36 1     
   13    4   37 1     
   14    5    6 1     
   15    5   23 1     
   16    6   11 ar    
   17    6    7 ar    
   18    7    8 ar    
   19    8    9 ar    
   20    8   38 1     
   21    9   10 ar    
   22   10   14 1     
   23   10   11 ar    
   24   11   12 1     
   25   12   13 2     
   26   13   14 1     
   27   13   39 1     
   28   14   15 1     
   29   15   16 1     
   30   15   40 1     
   31   15   41 1     
   32   16   22 1     
   33   16   17 1     
   34   16   18 1     
   35   17   42 1     
   36   18   19 1     
   37   18   43 1     
   38   18   44 1     
   39   19   20 1     
   40   19   45 1     
   41   19   46 1     
   42   20   21 1     
   43   21   22 1     
   44   21   47 1     
   45   21   48 1     
   46   22   49 1     
   47   22   50 1     
   48   23   24 1     
   49   23   51 1     
   50   23   52 1     
   51   24   25 1     
   52   24   53 1     
   53   24   54 1     
   54   25   26 1     
   55   25   62 1     
   56   26   27 1     
   57   26   55 1     
   58   26   56 1     
   59   27   28 1     
   60   27   57 1     
   61   27   58 1     
   62   28   29 1     
   63   29   59 1     
   64   29   60 1     
   65   29   61 1     
   66    7   63 1     
   67    9   64 1     
   68   12   65 1     
   69   17   66 1     
   70   17   67 1     
   71   20   68 1     
   72   20   69 1     
   73   28   70 1     
   74   28   71 1     
@<TRIPOS>SUBSTRUCTURE
      1 S1             1
@<TRIPOS>SET
LONE_PAIRS      STATIC     ATOMS    <user>   **** ""
9 63 64 65 66 67 68 69 70 71
DONOR_HYDROGENS      STATIC     ATOMS    <user>   **** ""
2 42 62
ATOM$BLUE        STATIC     ATOMS    COLORGROUP SYSTEM
9 63 64 65 66 67 68 69 70 71
ATOM$RED        STATIC     ATOMS    COLORGROUP SYSTEM
2 42 62
