AV-unprocessed.smi:1825|AV-procd|sdf|7414|dock4
  -GOLD-   22720 9 93D 1   1.00000     0.00000
 Structure written by MMmdl.
 33 34  0  0  0  0  0  0  0  0  2 V2000
  152.4789  139.3609  156.3438 O   0  0  0  0  0  0  0  0  0  0  0  0
  151.7249  140.2789  156.0124 C   0  0  0  0  0  0  0  0  0  0  0  0
  151.5510  141.3325  156.8244 N   0  0  0  0  0  0  0  0  0  0  0  0
  152.1829  141.5442  158.1268 C   0  0  0  0  0  0  0  0  0  0  0  0
  151.6198  142.7688  158.8931 C   0  0  0  0  0  0  0  0  0  0  0  0
  150.2536  142.4962  159.1517 O   0  0  0  0  0  0  0  0  0  0  0  0
  152.3310  142.8917  160.2629 C   0  0  0  0  0  0  0  0  0  0  0  0
  151.8903  144.1276  161.0680 C   0  0  0  0  0  0  0  0  0  0  0  0
  152.0656  145.4151  160.2519 C   0  0  0  0  0  0  0  0  0  0  0  0
  151.3029  145.3280  158.9234 C   0  0  0  0  0  0  0  0  0  0  0  0
  151.7352  144.0988  158.1040 C   0  0  0  0  0  0  0  0  0  0  0  0
  151.0214  140.3593  154.8601 N   0  5  0  0  0  0  0  0  0  0  0  0
  149.7416  140.7659  154.8813 C   0  0  0  0  0  0  0  0  0  0  0  0
  149.1571  141.3905  153.8525 N   0  0  0  0  0  0  0  0  0  0  0  0
  147.8198  141.7155  154.0878 C   0  0  0  0  0  0  0  0  0  0  0  0
  147.3732  141.3215  155.3211 C   0  0  0  0  0  0  0  0  0  0  0  0
  148.6269  140.5271  156.2302 S   0  0  0  0  0  0  0  0  0  0  0  0
  150.9308  142.0613  156.5029 H   0  0  0  0  0  0  0  0  0  0  0  0
  152.0539  140.6368  158.7183 H   0  0  0  0  0  0  0  0  0  0  0  0
  153.2609  141.6537  157.9988 H   0  0  0  0  0  0  0  0  0  0  0  0
  149.8899  143.2266  159.6277 H   0  0  0  0  0  0  0  0  0  0  0  0
  152.1679  141.9908  160.8562 H   0  0  0  0  0  0  0  0  0  0  0  0
  153.4083  142.9536  160.1026 H   0  0  0  0  0  0  0  0  0  0  0  0
  150.8472  144.0227  161.3692 H   0  0  0  0  0  0  0  0  0  0  0  0
  152.4694  144.1933  161.9894 H   0  0  0  0  0  0  0  0  0  0  0  0
  151.7144  146.2720  160.8273 H   0  0  0  0  0  0  0  0  0  0  0  0
  153.1252  145.5848  160.0562 H   0  0  0  0  0  0  0  0  0  0  0  0
  150.2309  145.2828  159.1182 H   0  0  0  0  0  0  0  0  0  0  0  0
  151.4697  146.2346  158.3411 H   0  0  0  0  0  0  0  0  0  0  0  0
  152.7695  144.2360  157.7863 H   0  0  0  0  0  0  0  0  0  0  0  0
  151.1401  144.0585  157.1910 H   0  0  0  0  0  0  0  0  0  0  0  0
  147.2597  142.2264  153.3189 H   0  0  0  0  0  0  0  0  0  0  0  0
  146.3899  141.4476  155.7483 H   0  0  0  0  0  0  0  0  0  0  0  0
  1  2  2  0  0  0  0
  2  3  1  0  0  0  0
  2 12  1  0  0  0  0
  3  4  1  0  0  0  0
  3 18  1  0  0  0  0
  4  5  1  0  0  0  0
  4 19  1  0  0  0  0
  4 20  1  0  0  0  0
  5 11  1  0  0  0  0
  5  6  1  0  0  0  0
  5  7  1  0  0  0  0
  6 21  1  0  0  0  0
  7  8  1  0  0  0  0
  7 22  1  0  0  0  0
  7 23  1  0  0  0  0
  8  9  1  0  0  0  0
  8 24  1  0  0  0  0
  8 25  1  0  0  0  0
  9 10  1  0  0  0  0
  9 26  1  0  0  0  0
  9 27  1  0  0  0  0
 10 11  1  0  0  0  0
 10 28  1  0  0  0  0
 10 29  1  0  0  0  0
 11 30  1  0  0  0  0
 11 31  1  0  0  0  0
 12 13  1  0  0  0  0
 13 17  1  0  0  0  0
 13 14  2  0  0  0  0
 14 15  1  0  0  0  0
 15 16  2  0  0  0  0
 15 32  1  0  0  0  0
 16 17  1  0  0  0  0
 16 33  1  0  0  0  0
M  CHG  1  12  -1
M  END
> <s_m_source_file>
AV-unprocessed.smi

> <i_m_source_file_index>
1825

> <i_lp_mmshare_version>
43012

> <i_f3d_flags>
0

> <s_epik_input>
czFbY0hdW2NIXW5jMVtOSF1DKD1PKVtOSF1bQ0gyXUMyKFtPSF0pW0NIMl1bQ0gyXVtDSDJdW0NIMl1bQ0gyXTI=

> <s_epik_cmdline>
J2VwaWtfcHl0aG9uJywgJy1waCcsICc3LjAnLCAnLXRuJywgJzgnLCAnLW1hJywgJzIwMCcsICctbWV0YWxfYmluZGluZycsICctaW1hZScsICc8aW5maWxlLm1hZT4nLCAnLW9tYWUnLCAnPG91dGZpbGUubWFlPic=

> <r_lp_tautomer_probability>
0.999

> <r_epik_Ionization_Penalty>
8.3436

> <r_epik_Ionization_Penalty_Charging>
6.70408

> <r_epik_Ionization_Penalty_Neutral>
1.63952

> <r_epik_State_Penalty>
6.70425

> <r_epik_Charging_Adjusted_Penalty>
13.4083

> <i_epik_Tot_Q>
-1

> <i_epik_Tot_abs_Q>
1

> <r_epik_Metal_State_Penalty>
2.62591

> <b_epik_Metal_Only>
1

> <s_lp_Force_Field>
OPLS_2005

> <r_lp_Energy>
9.48325

> <b_lp_Chiralities_Consistent>
1

> <s_lp_Variant>
AV-unprocessed.smi:1825-2

> <Gold.Version>
5.8.1

> <Gold.Id.Protein>
6NUR|6NUR_protein|mol2

> <Gold.PLP.Fitness>
44.4216

> <Gold.PLP.PLP>
-38.4590

> <Gold.PLP.part.hbond>
-4.7458

> <Gold.PLP.part.metal>
0.0000

> <Gold.PLP.part.buried>
-3.6826

> <Gold.PLP.part.nonpolar>
-29.3903

> <Gold.PLP.part.repulsive>
0.9486

> <Gold.PLP.ligand.clash>
1.2682

> <Gold.PLP.ligand.torsion>
0.5718

> <Gold.PLP.Chemscore.Hbond>
2.7840

> <Gold.PLP.Chemscore.CHOScore>
0.0000

> <Gold.PLP.Chemscore.Metal>
0.0000

> <Gold.Chemscore.Hbonds>
donor molecule, donor type, donor heavy atom, donor atom, acceptor molecule, acceptor atom, score
      P1  H  7989  7998       L1    12  1.00
      P1  H  7997  8010       L1     1  1.00
      P1  H  8011  8017       L1    14  0.78

> <Gold.PLP.Chemscore.Internal.Correction>
0.0225

> <Gold.Rescore>
     Score         DG    S(hbond)    S(metal)    S(lipo)     H(rot)  DE(clash)    DE(int)     intcor
     18.65     -19.50       2.39        0.00      91.56       1.83       0.27       0.58       ----

> <Gold.Chemscore.Fitness>
18.6542

> <Gold.Chemscore.DG>
-19.4986

> <Gold.Chemscore.ZeroCoef>
-5.4800

> <Gold.Chemscore.Hbond>
2.3905

> <Gold.Chemscore.Metal>
0.0000

> <Gold.Chemscore.Lipo>
91.5605

> <Gold.Chemscore.Internal_Hbond>
0.0000

> <Gold.Chemscore.DEClash>
0.2676

> <Gold.Chemscore.DEInternal>
0.5769

> <Gold.Chemscore.Rot>
1.8274

> <Gold.Chemscore.Internal.Correction>
   9.000000E+99

> <Gold.Chemscore.Hbonds>
donor molecule, donor type, donor heavy atom, donor atom, acceptor molecule, acceptor atom, score
      P1  H  7989  7998       L1    12  0.58
      P1  H  7997  8010       L1     1  0.58
      P1  H  8011  8017       L1    14  0.54

> <Gold.Chemscore.Hbond.Weighted>
-7.9842

> <Gold.Chemscore.Metal.Weighted>
-0.0000

> <Gold.Chemscore.Lipo.Weighted>
-10.7126

> <Gold.Chemscore.Internal_Hbond.Weighted>
0.0000

> <Gold.Chemscore.DEClash.Weighted>
0.2676

> <Gold.Chemscore.DEInternal.Weighted>
0.5769

> <Gold.Chemscore.Rot.Weighted>
4.6781

> <Gold.Chemscore.Internal.Correction.Weighted>
   9.000000E+99

> <Gold.Protein.RotatedTorsions>
[ 6907 6896 6895 6894 ] final  106.25 input  -60.11 | X-H torsion
[ 7974 7965 7964 7962 ] final   56.18 input  175.53 | X-H torsion
[ 8008 7997 7996 7995 ] final   73.37 input   59.86 | X-H torsion
[ 10167 10162 10161 10158 ] final  172.99 input  -65.29 | X-H torsion
[ 10718 10713 10712 10709 ] final  -66.50 input   66.30 | X-H torsion
[ 10763 10752 10751 10750 ] final   32.80 input  -60.55 | X-H torsion
[ 11005 11000 10999 10996 ] final  -80.55 input  -57.11 | X-H torsion

> <Gold.Protein.ActiveResidues>
 VAL166  LYS551  ARG553  GLY616  TRP617  ASP618  TYR619  PRO620  LYS621  CYS622 
 ASP623  PHE694  ASN695  SER759  ASP760  ASP761  ALA762  ILE779  LEU786  VAL792 
 PHE793  MET794  SER795  GLU796  ALA797  LYS798  CYS799  TRP800  GLU811  SER814 

> <Gold.Protein.RotatedAtoms>
  152.5200  133.9408  159.7625 H   0  0  0  0  0  0  0  0  0  0  0  0  # atno 6907 bound_to 6896
  150.9739  133.6307  159.2740 H   0  0  0  0  0  0  0  0  0  0  0  0  # atno 6908 bound_to 6896
  151.3509  135.0890  159.9455 H   0  0  0  0  0  0  0  0  0  0  0  0  # atno 6909 bound_to 6896
  145.9425  139.3901  143.0355 H   0  0  0  0  0  0  0  0  0  0  0  0  # atno 7974 bound_to 7965
  155.7827  140.3481  155.5306 H   0  0  0  0  0  0  0  0  0  0  0  0  # atno 8008 bound_to 7997
  155.8713  140.0987  157.1569 H   0  0  0  0  0  0  0  0  0  0  0  0  # atno 8009 bound_to 7997
  154.4018  140.1340  156.4068 H   0  0  0  0  0  0  0  0  0  0  0  0  # atno 8010 bound_to 7997
  139.5094  144.3312  152.0110 H   0  0  0  0  0  0  0  0  0  0  0  0  # atno 10167 bound_to 10162
  156.0609  130.4263  150.1718 H   0  0  0  0  0  0  0  0  0  0  0  0  # atno 10718 bound_to 10713
  153.0244  135.6403  154.1412 H   0  0  0  0  0  0  0  0  0  0  0  0  # atno 10763 bound_to 10752
  154.1143  135.2851  155.3225 H   0  0  0  0  0  0  0  0  0  0  0  0  # atno 10764 bound_to 10752
  154.6309  135.5493  153.7742 H   0  0  0  0  0  0  0  0  0  0  0  0  # atno 10765 bound_to 10752
  141.1668  133.7155  156.8290 H   0  0  0  0  0  0  0  0  0  0  0  0  # atno 11005 bound_to 11000
  145.8281  140.9645  143.0863 LP  0  0  0  0  0  0  0  0  0  0  0  0  # atno 17320 bound_to 7965
  144.6781  140.0127  143.7484 LP  0  0  0  0  0  0  0  0  0  0  0  0  # atno 17321 bound_to 7965
  140.2751  144.3921  150.6138 LP  0  0  0  0  0  0  0  0  0  0  0  0  # atno 17342 bound_to 10162
  140.6059  143.2168  151.6981 LP  0  0  0  0  0  0  0  0  0  0  0  0  # atno 17343 bound_to 10162
  156.9786  130.9857  151.3442 LP  0  0  0  0  0  0  0  0  0  0  0  0  # atno 17370 bound_to 10713
  157.5616  130.8250  149.8274 LP  0  0  0  0  0  0  0  0  0  0  0  0  # atno 17371 bound_to 10713
  140.2065  134.8859  157.3227 LP  0  0  0  0  0  0  0  0  0  0  0  0  # atno 17394 bound_to 11000
  140.2132  134.4113  155.7602 LP  0  0  0  0  0  0  0  0  0  0  0  0  # atno 17395 bound_to 11000

$$$$
