#       Name:                AV-unprocessed.smi:1578
#       Creating user name   scv26
#       Creation time:       Fri Mar 27 06:57:10 2020


#       File generated by GOLD software.
#

@<TRIPOS>MOLECULE
AV-unprocessed.smi:1578
    51    52     1
SMALL
NO_CHARGES


@<TRIPOS>ATOM
      1 ****        -2.7521   1.3033   2.1234 C.3            1 S1                 0.0000
      2 ****        -1.9498   1.3469   0.8163 C.3            1 S1                 0.0000
      3 ****        -2.3248   0.1795  -0.1232 C.3            1 S1                 0.0000
      4 ****        -1.4659   0.1196  -1.3333 N.4            1 S1                 1.0000
      5 ****        -1.3675  -1.2392  -1.9143 C.3            1 S1                 0.0000
      6 ****        -0.3940  -1.2366  -3.1053 C.3            1 S1                 0.0000
      7 ****        -0.8232  -0.2859  -4.0726 O.3            1 S1                 0.0000
      8 ****        -0.8479   1.0364  -3.5484 C.3            1 S1                 0.0000
      9 ****        -1.8389   1.1061  -2.3750 C.3            1 S1                 0.0000
     10 ****        -0.5208   1.3103   1.1233 N.am           1 S1                 0.0000
     11 ****         0.4276   2.1124   0.6072 C.2            1 S1                 0.0000
     12 ****         0.1749   3.0303  -0.1716 O.2            1 S1                 0.0000
     13 ****         1.8942   1.8231   0.9687 C.3            1 S1                 0.0000
     14 ****         2.1180   0.5040   1.5868 N.am           1 S1                 0.0000
     15 ****         2.2678  -0.5855   0.7061 C.2            1 S1                 0.0000
     16 ****         2.4646  -1.8487   1.1284 C.2            1 S1                 0.0000
     17 ****         2.5455  -3.0121   0.1524 C.3            1 S1                 0.0000
     18 ****         2.1468  -4.1481   0.7245 F              1 S1                 0.0000
     19 ****         1.7813  -2.7926  -0.9185 F              1 S1                 0.0000
     20 ****         3.8018  -3.1717  -0.2603 F              1 S1                 0.0000
     21 ****         2.4955  -2.0505   2.5637 C.2            1 S1                 0.0000
     22 ****         2.3378  -1.0221   3.4200 C.2            1 S1                 0.0000
     23 ****         2.1270   0.3471   2.9444 C.2            1 S1                 0.0000
     24 ****         1.9560   1.2905   3.7160 O.2            1 S1                 0.0000
     25 ****        -3.8237   1.3474   1.9269 H              1 S1                 0.0000
     26 ****        -2.5012   2.1479   2.7660 H              1 S1                 0.0000
     27 ****        -2.5537   0.3887   2.6836 H              1 S1                 0.0000
     28 ****        -2.1981   2.2873   0.3227 H              1 S1                 0.0000
     29 ****        -2.2087  -0.7513   0.4345 H              1 S1                 0.0000
     30 ****        -3.3757   0.2319  -0.4114 H              1 S1                 0.0000
     31 ****        -1.0165  -1.9421  -1.1579 H              1 S1                 0.0000
     32 ****        -2.3553  -1.5746  -2.2342 H              1 S1                 0.0000
     33 ****         0.6209  -1.0051  -2.7777 H              1 S1                 0.0000
     34 ****        -0.3620  -2.2233  -3.5676 H              1 S1                 0.0000
     35 ****         0.1527   1.3351  -3.2310 H              1 S1                 0.0000
     36 ****        -1.1506   1.7247  -4.3375 H              1 S1                 0.0000
     37 ****        -2.8512   0.9039  -2.7281 H              1 S1                 0.0000
     38 ****        -1.8405   2.1138  -1.9604 H              1 S1                 0.0000
     39 ****        -0.2202   0.5906   1.7651 H              1 S1                 0.0000
     40 ****         2.4926   1.9007   0.0594 H              1 S1                 0.0000
     41 ****         2.2556   2.6283   1.6102 H              1 S1                 0.0000
     42 ****         2.1946  -0.3268  -0.3408 H              1 S1                 0.0000
     43 ****         2.6535  -3.0426   2.9606 H              1 S1                 0.0000
     44 ****         2.3693  -1.2098   4.4835 H              1 S1                 0.0000
     45 ****        -0.5338   0.3590  -1.0265 H              1 S1                 0.0000
     46 ****        -1.7440  -0.5292  -4.3775 LP             1 S1                 0.0000
     47 ****        -0.1964  -0.3125  -4.8512 LP             1 S1                 0.0000
     48 ****        -0.7702   3.2064  -0.4471 LP             1 S1                 0.0000
     49 ****         0.9144   3.6005  -0.5292 LP             1 S1                 0.0000
     50 ****         1.8038   2.2105   3.3549 LP             1 S1                 0.0000
     51 ****         1.9692   1.1370   4.7041 LP             1 S1                 0.0000
@<TRIPOS>BOND
    1    1    2 1     
    2    1   25 1     
    3    1   26 1     
    4    1   27 1     
    5    2    3 1     
    6    2   10 1     
    7    2   28 1     
    8    3    4 1     
    9    3   29 1     
   10    3   30 1     
   11    4    9 1     
   12    4    5 1     
   13    4   45 1     
   14    5    6 1     
   15    5   31 1     
   16    5   32 1     
   17    6    7 1     
   18    6   33 1     
   19    6   34 1     
   20    7    8 1     
   21    8    9 1     
   22    8   35 1     
   23    8   36 1     
   24    9   37 1     
   25    9   38 1     
   26   10   11 am    
   27   10   39 1     
   28   11   12 2     
   29   11   13 1     
   30   13   14 1     
   31   13   40 1     
   32   13   41 1     
   33   14   23 am    
   34   14   15 1     
   35   15   16 2     
   36   15   42 1     
   37   16   17 1     
   38   16   21 1     
   39   17   18 1     
   40   17   19 1     
   41   17   20 1     
   42   21   22 2     
   43   21   43 1     
   44   22   23 1     
   45   22   44 1     
   46   23   24 2     
   47    7   46 1     
   48    7   47 1     
   49   12   48 1     
   50   12   49 1     
   51   24   50 1     
   52   24   51 1     
@<TRIPOS>SUBSTRUCTURE
      1 S1             1
@<TRIPOS>SET
LONE_PAIRS      STATIC     ATOMS    <user>   **** ""
6 46 47 48 49 50 51
DONOR_HYDROGENS      STATIC     ATOMS    <user>   **** ""
2 45 39
ATOM$BLUE        STATIC     ATOMS    COLORGROUP SYSTEM
6 46 47 48 49 50 51
ATOM$RED        STATIC     ATOMS    COLORGROUP SYSTEM
2 45 39
