AV-unprocessed.smi:1822|AV-procd|sdf|7390|dock5
  -GOLD-   22720 9 63D 1   1.00000     0.00000
 Structure written by MMmdl.
 46 47  0  0  0  0  0  0  0  0  1 V2000
  152.8328  142.6096  161.8847 C   0  0  0  0  0  0  0  0  0  0  0  0
  152.3662  142.2640  160.5505 N   0  0  0  0  0  0  0  0  0  0  0  0
  152.8122  141.2185  159.8348 C   0  0  0  0  0  0  0  0  0  0  0  0
  153.6701  140.4512  160.2752 O   0  0  0  0  0  0  0  0  0  0  0  0
  152.1893  141.0955  158.5146 C   0  0  0  0  0  0  0  0  0  0  0  0
  151.3313  142.1210  157.9402 C   0  0  0  0  0  0  0  0  0  0  0  0
  150.7869  141.9542  156.7190 C   0  0  0  0  0  0  0  0  0  0  0  0
  151.0299  140.7475  155.9233 C   0  0  0  0  0  0  0  0  0  0  0  0
  150.5348  140.5908  154.8072 O   0  0  0  0  0  0  0  0  0  0  0  0
  151.8391  139.8081  156.5001 N   0  0  0  0  0  0  0  0  0  0  0  0
  152.1574  138.5539  155.7967 C   0  0  0  0  0  0  0  0  0  0  0  0
  151.6504  137.3177  156.5503 C   0  0  0  0  0  0  0  0  0  0  0  0
  151.6451  137.3266  157.7825 O   0  0  0  0  0  0  0  0  0  0  0  0
  151.2287  136.2934  155.7795 N   0  0  0  0  0  0  0  0  0  0  0  0
  150.7375  135.1070  156.1845 C   0  0  0  0  0  0  0  0  0  0  0  0
  150.6968  134.7047  157.3493 O   0  0  0  0  0  0  0  0  0  0  0  0
  150.2809  134.3971  155.1422 N   0  0  0  0  0  0  0  0  0  0  0  0
  149.7884  133.0242  155.2046 C   0  0  0  0  0  0  0  0  0  0  0  0
  150.9445  132.0799  155.5850 C   0  0  0  0  0  0  0  0  0  0  0  0
  150.4924  130.6106  155.5965 C   0  0  0  0  0  0  0  0  0  0  0  0
  149.8766  130.2062  154.2481 C   0  0  0  0  0  0  0  0  0  0  0  0
  148.7173  131.1399  153.8666 C   0  0  0  0  0  0  0  0  0  0  0  0
  149.1640  132.6109  153.8553 C   0  0  0  0  0  0  0  0  0  0  0  0
  152.4067  139.9889  157.7771 C   0  0  0  0  0  0  0  0  0  0  0  0
  152.3375  143.5182  162.2271 H   0  0  0  0  0  0  0  0  0  0  0  0
  153.9089  142.7869  161.8871 H   0  0  0  0  0  0  0  0  0  0  0  0
  152.6087  141.8115  162.5932 H   0  0  0  0  0  0  0  0  0  0  0  0
  151.6611  142.8592  160.1404 H   0  0  0  0  0  0  0  0  0  0  0  0
  151.1101  143.0335  158.4741 H   0  0  0  0  0  0  0  0  0  0  0  0
  150.1531  142.7292  156.3134 H   0  0  0  0  0  0  0  0  0  0  0  0
  151.7363  138.5655  154.7894 H   0  0  0  0  0  0  0  0  0  0  0  0
  153.2338  138.4514  155.6507 H   0  0  0  0  0  0  0  0  0  0  0  0
  151.2928  136.4335  154.7821 H   0  0  0  0  0  0  0  0  0  0  0  0
  150.2679  134.8403  154.2354 H   0  0  0  0  0  0  0  0  0  0  0  0
  149.0256  132.9538  155.9828 H   0  0  0  0  0  0  0  0  0  0  0  0
  151.7668  132.1978  154.8777 H   0  0  0  0  0  0  0  0  0  0  0  0
  151.3396  132.3486  156.5653 H   0  0  0  0  0  0  0  0  0  0  0  0
  151.3387  129.9632  155.8272 H   0  0  0  0  0  0  0  0  0  0  0  0
  149.7617  130.4598  156.3920 H   0  0  0  0  0  0  0  0  0  0  0  0
  150.6423  130.2377  153.4719 H   0  0  0  0  0  0  0  0  0  0  0  0
  149.5245  129.1753  154.2937 H   0  0  0  0  0  0  0  0  0  0  0  0
  148.3240  130.8635  152.8879 H   0  0  0  0  0  0  0  0  0  0  0  0
  147.8984  131.0133  154.5756 H   0  0  0  0  0  0  0  0  0  0  0  0
  148.3095  133.2482  153.6246 H   0  0  0  0  0  0  0  0  0  0  0  0
  149.8866  132.7623  153.0522 H   0  0  0  0  0  0  0  0  0  0  0  0
  153.0245  139.1663  158.1103 H   0  0  0  0  0  0  0  0  0  0  0  0
  1  2  1  0  0  0  0
  1 25  1  0  0  0  0
  1 26  1  0  0  0  0
  1 27  1  0  0  0  0
  2  3  1  0  0  0  0
  2 28  1  0  0  0  0
  3  4  2  0  0  0  0
  3  5  1  0  0  0  0
  5 24  2  0  0  0  0
  5  6  1  0  0  0  0
  6  7  2  0  0  0  0
  6 29  1  0  0  0  0
  7  8  1  0  0  0  0
  7 30  1  0  0  0  0
  8  9  2  0  0  0  0
  8 10  1  0  0  0  0
 10 11  1  0  0  0  0
 10 24  1  0  0  0  0
 11 12  1  0  0  0  0
 11 31  1  0  0  0  0
 11 32  1  0  0  0  0
 12 13  2  0  0  0  0
 12 14  1  0  0  0  0
 14 15  1  0  0  0  0
 14 33  1  0  0  0  0
 15 16  2  0  0  0  0
 15 17  1  0  0  0  0
 17 18  1  0  0  0  0
 17 34  1  0  0  0  0
 18 23  1  0  0  0  0
 18 19  1  0  0  0  0
 18 35  1  0  0  0  0
 19 20  1  0  0  0  0
 19 36  1  0  0  0  0
 19 37  1  0  0  0  0
 20 21  1  0  0  0  0
 20 38  1  0  0  0  0
 20 39  1  0  0  0  0
 21 22  1  0  0  0  0
 21 40  1  0  0  0  0
 21 41  1  0  0  0  0
 22 23  1  0  0  0  0
 22 42  1  0  0  0  0
 22 43  1  0  0  0  0
 23 44  1  0  0  0  0
 23 45  1  0  0  0  0
 24 46  1  0  0  0  0
M  END
> <s_m_source_file>
AV-unprocessed.smi

> <i_m_source_file_index>
1822

> <i_lp_mmshare_version>
43012

> <i_f3d_flags>
0

> <s_epik_input>
W0NIM11bTkhdQyg9TyljMVtjSF1bY0hdYyg9TyluKFtjSF0xKVtDSDJdQyg9TylbTkhdQyg9TylbTkhdW0NIXTJbQ0gyXVtDSDJdW0NIMl1bQ0gyXVtDSDJdMg==

> <s_epik_cmdline>
J2VwaWtfcHl0aG9uJywgJy1waCcsICc3LjAnLCAnLXRuJywgJzgnLCAnLW1hJywgJzIwMCcsICctbWV0YWxfYmluZGluZycsICctaW1hZScsICc8aW5maWxlLm1hZT4nLCAnLW9tYWUnLCAnPG91dGZpbGUubWFlPic=

> <r_lp_tautomer_probability>
1

> <r_epik_Ionization_Penalty>
3.30797e-05

> <r_epik_Ionization_Penalty_Charging>
3.7169e-08

> <r_epik_Ionization_Penalty_Neutral>
3.30425e-05

> <r_epik_State_Penalty>
-0

> <r_epik_Charging_Adjusted_Penalty>
3.7169e-08

> <i_epik_Tot_Q>
0

> <i_epik_Tot_abs_Q>
0

> <r_epik_Metal_State_Penalty>
-0

> <b_epik_Metal_Only>
0

> <s_lp_Force_Field>
OPLS_2005

> <r_lp_Energy>
24.3679

> <b_lp_Chiralities_Consistent>
1

> <s_lp_Variant>
AV-unprocessed.smi:1822-1

> <Gold.Version>
5.8.1

> <Gold.Id.Protein>
6NUR|6NUR_protein|mol2

> <Gold.PLP.Fitness>
45.3249

> <Gold.PLP.PLP>
-42.0591

> <Gold.PLP.part.hbond>
-2.0000

> <Gold.PLP.part.metal>
0.0000

> <Gold.PLP.part.buried>
-6.3259

> <Gold.PLP.part.nonpolar>
-34.5800

> <Gold.PLP.part.repulsive>
0.3878

> <Gold.PLP.ligand.clash>
0.0000

> <Gold.PLP.ligand.torsion>
0.4696

> <Gold.PLP.Chemscore.Hbond>
1.3982

> <Gold.PLP.Chemscore.CHOScore>
0.0000

> <Gold.PLP.Chemscore.Metal>
0.0000

> <Gold.Chemscore.Hbonds>
donor molecule, donor type, donor heavy atom, donor atom, acceptor molecule, acceptor atom, score
      P1  H  6896  6907       L1    16  0.42
      P1  H  7989  7998       L1     9  0.96

> <Gold.PLP.Chemscore.Internal.Correction>
0.0103

> <Gold.Rescore>
     Score         DG    S(hbond)    S(metal)    S(lipo)     H(rot)  DE(clash)    DE(int)     intcor
     12.58     -15.83       1.78        0.00      72.92       1.62       0.00       3.25       ----

> <Gold.Chemscore.Fitness>
12.5797

> <Gold.Chemscore.DG>
-15.8258

> <Gold.Chemscore.ZeroCoef>
-5.4800

> <Gold.Chemscore.Hbond>
1.7809

> <Gold.Chemscore.Metal>
0.0000

> <Gold.Chemscore.Lipo>
72.9229

> <Gold.Chemscore.Internal_Hbond>
0.0000

> <Gold.Chemscore.DEClash>
0.0000

> <Gold.Chemscore.DEInternal>
3.2461

> <Gold.Chemscore.Rot>
1.6151

> <Gold.Chemscore.Internal.Correction>
   9.000000E+99

> <Gold.Chemscore.Hbonds>
donor molecule, donor type, donor heavy atom, donor atom, acceptor molecule, acceptor atom, score
      P1  H  6896  6907       L1    16  0.40
      P1  H  7989  7998       L1     9  0.81

> <Gold.Chemscore.Hbond.Weighted>
-5.9484

> <Gold.Chemscore.Metal.Weighted>
-0.0000

> <Gold.Chemscore.Lipo.Weighted>
-8.5320

> <Gold.Chemscore.Internal_Hbond.Weighted>
0.0000

> <Gold.Chemscore.DEClash.Weighted>
0.0000

> <Gold.Chemscore.DEInternal.Weighted>
3.2461

> <Gold.Chemscore.Rot.Weighted>
4.1346

> <Gold.Chemscore.Internal.Correction.Weighted>
   9.000000E+99

> <Gold.Protein.RotatedTorsions>
[ 6907 6896 6895 6894 ] final -107.94 input  -60.11 | X-H torsion
[ 7974 7965 7964 7962 ] final  -35.43 input  175.53 | X-H torsion
[ 8008 7997 7996 7995 ] final   10.85 input   59.86 | X-H torsion
[ 10167 10162 10161 10158 ] final  -90.65 input  -65.29 | X-H torsion
[ 10718 10713 10712 10709 ] final -141.18 input   66.30 | X-H torsion
[ 10763 10752 10751 10750 ] final -116.84 input  -60.55 | X-H torsion
[ 11005 11000 10999 10996 ] final -128.94 input  -57.11 | X-H torsion

> <Gold.Protein.ActiveResidues>
 VAL166  LYS551  ARG553  GLY616  TRP617  ASP618  TYR619  PRO620  LYS621  CYS622 
 ASP623  PHE694  ASN695  SER759  ASP760  ASP761  ALA762  ILE779  LEU786  VAL792 
 PHE793  MET794  SER795  GLU796  ALA797  LYS798  CYS799  TRP800  GLU811  SER814 

> <Gold.Protein.RotatedAtoms>
  150.7473  133.9752  159.3558 H   0  0  0  0  0  0  0  0  0  0  0  0  # atno 6907 bound_to 6896
  151.7688  135.0789  160.0366 H   0  0  0  0  0  0  0  0  0  0  0  0  # atno 6908 bound_to 6896
  152.3353  133.5967  159.5874 H   0  0  0  0  0  0  0  0  0  0  0  0  # atno 6909 bound_to 6896
  146.0747  140.6158  142.8936 H   0  0  0  0  0  0  0  0  0  0  0  0  # atno 7974 bound_to 7965
  154.7990  140.2849  155.5935 H   0  0  0  0  0  0  0  0  0  0  0  0  # atno 8008 bound_to 7997
  156.2974  140.2590  156.2783 H   0  0  0  0  0  0  0  0  0  0  0  0  # atno 8009 bound_to 7997
  154.9580  140.0378  157.2166 H   0  0  0  0  0  0  0  0  0  0  0  0  # atno 8010 bound_to 7997
  140.3528  143.2882  151.9706 H   0  0  0  0  0  0  0  0  0  0  0  0  # atno 10167 bound_to 10162
  156.3309  130.7586  151.1703 H   0  0  0  0  0  0  0  0  0  0  0  0  # atno 10718 bound_to 10713
  154.8534  135.4331  154.1885 H   0  0  0  0  0  0  0  0  0  0  0  0  # atno 10763 bound_to 10752
  153.2959  135.6965  153.7255 H   0  0  0  0  0  0  0  0  0  0  0  0  # atno 10764 bound_to 10752
  153.6404  135.3469  155.3044 H   0  0  0  0  0  0  0  0  0  0  0  0  # atno 10765 bound_to 10752
  140.9474  134.1111  157.4094 H   0  0  0  0  0  0  0  0  0  0  0  0  # atno 11005 bound_to 11000
  144.7254  140.4507  143.6977 LP  0  0  0  0  0  0  0  0  0  0  0  0  # atno 17320 bound_to 7965
  145.6327  139.1538  143.2960 LP  0  0  0  0  0  0  0  0  0  0  0  0  # atno 17321 bound_to 7965
  139.4824  144.6061  151.7519 LP  0  0  0  0  0  0  0  0  0  0  0  0  # atno 17342 bound_to 10162
  140.5202  144.0890  150.6020 LP  0  0  0  0  0  0  0  0  0  0  0  0  # atno 17343 bound_to 10162
  157.7430  131.0481  150.4980 LP  0  0  0  0  0  0  0  0  0  0  0  0  # atno 17370 bound_to 10713
  156.5145  130.4147  149.6283 LP  0  0  0  0  0  0  0  0  0  0  0  0  # atno 17371 bound_to 10713
  139.8837  135.0055  156.6321 LP  0  0  0  0  0  0  0  0  0  0  0  0  # atno 17394 bound_to 11000
  140.7650  133.8786  155.8447 LP  0  0  0  0  0  0  0  0  0  0  0  0  # atno 17395 bound_to 11000

$$$$
