AV-unprocessed.smi:3055|AV-procd|sdf|11644|dock9
  -GOLD-   2272017 43D 1   1.00000     0.00000
 Structure written by MMmdl.
 47 49  0  0  0  0  0  0  0  0  2 V2000
  146.9774  138.6228  151.1560 O   0  0  0  0  0  0  0  0  0  0  0  0
  146.4279  138.4659  152.2472 C   0  0  0  0  0  0  0  0  0  0  0  0
  146.3570  139.4496  153.1580 N   0  0  0  0  0  0  0  0  0  0  0  0
  146.8805  140.7946  152.9663 C   0  0  0  0  0  0  0  0  0  0  0  0
  147.2430  141.4279  154.3159 C   0  0  0  0  0  0  0  0  0  0  0  0
  148.5712  141.0389  154.7440 N   0  0  0  0  0  0  0  0  0  0  0  0
  149.2672  141.5136  155.8478 C   0  0  0  0  0  0  0  0  0  0  0  0
  150.4826  140.8674  155.8533 C   0  0  0  0  0  0  0  0  0  0  0  0
  150.5549  139.9955  154.7692 N   0  0  0  0  0  0  0  0  0  0  0  0
  149.3875  140.1521  154.1585 C   0  0  0  0  0  0  0  0  0  0  0  0
  145.8788  137.2877  152.6382 N   0  0  0  0  0  0  0  0  0  0  0  0
  144.7066  137.1268  153.5128 C   0  0  0  0  0  0  0  0  0  0  0  0
  143.4906  136.7924  152.6332 C   0  0  0  0  0  0  0  0  0  0  0  0
  143.7582  135.5449  151.7687 C   0  0  0  0  0  0  0  0  0  0  0  0
  145.0986  135.6383  150.9922 C   0  0  2  0  0  0  0  0  0  0  0  0
  145.4146  134.3709  150.2759 N   0  3  0  0  0  0  0  0  0  0  0  0
  146.1640  133.3653  151.0604 C   0  0  0  0  0  0  0  0  0  0  0  0
  145.9120  132.0408  150.3500 C   0  0  0  0  0  0  0  0  0  0  0  0
  144.4587  132.1644  149.9088 C   0  0  0  0  0  0  0  0  0  0  0  0
  144.2431  133.6688  149.6920 C   0  0  0  0  0  0  0  0  0  0  0  0
  146.2269  136.0211  151.9825 C   0  0  0  0  0  0  0  0  0  0  0  0
  145.9074  139.2523  154.0402 H   0  0  0  0  0  0  0  0  0  0  0  0
  147.7598  140.7486  152.3220 H   0  0  0  0  0  0  0  0  0  0  0  0
  146.1361  141.4073  152.4546 H   0  0  0  0  0  0  0  0  0  0  0  0
  147.2071  142.5162  154.2503 H   0  0  0  0  0  0  0  0  0  0  0  0
  146.5271  141.1309  155.0841 H   0  0  0  0  0  0  0  0  0  0  0  0
  148.8525  142.2523  156.5180 H   0  0  0  0  0  0  0  0  0  0  0  0
  151.3043  140.9624  156.5476 H   0  0  0  0  0  0  0  0  0  0  0  0
  149.1208  139.6097  153.2630 H   0  0  0  0  0  0  0  0  0  0  0  0
  144.8915  136.3151  154.2180 H   0  0  0  0  0  0  0  0  0  0  0  0
  144.4908  137.9993  154.1294 H   0  0  0  0  0  0  0  0  0  0  0  0
  142.6099  136.6319  153.2557 H   0  0  0  0  0  0  0  0  0  0  0  0
  143.2628  137.6423  151.9882 H   0  0  0  0  0  0  0  0  0  0  0  0
  143.7766  134.6667  152.4159 H   0  0  0  0  0  0  0  0  0  0  0  0
  142.9200  135.4068  151.0856 H   0  0  0  0  0  0  0  0  0  0  0  0
  145.0065  136.4289  150.2451 H   0  0  0  0  0  0  0  0  0  0  0  0
  147.2267  133.6026  151.1202 H   0  0  0  0  0  0  0  0  0  0  0  0
  145.7659  133.3186  152.0757 H   0  0  0  0  0  0  0  0  0  0  0  0
  146.5605  131.9576  149.4767 H   0  0  0  0  0  0  0  0  0  0  0  0
  146.0911  131.1753  150.9886 H   0  0  0  0  0  0  0  0  0  0  0  0
  144.2419  131.5751  149.0173 H   0  0  0  0  0  0  0  0  0  0  0  0
  143.8036  131.8117  150.7068 H   0  0  0  0  0  0  0  0  0  0  0  0
  143.3079  133.9776  150.1621 H   0  0  0  0  0  0  0  0  0  0  0  0
  144.1765  133.9100  148.6307 H   0  0  0  0  0  0  0  0  0  0  0  0
  147.1943  136.0842  151.4831 H   0  0  0  0  0  0  0  0  0  0  0  0
  146.3451  135.2430  152.7384 H   0  0  0  0  0  0  0  0  0  0  0  0
  146.0117  134.6108  149.4973 H   0  0  0  0  0  0  0  0  0  0  0  0
  1  2  2  0  0  0  0
  2  3  1  0  0  0  0
  2 11  1  0  0  0  0
  3  4  1  0  0  0  0
  3 22  1  0  0  0  0
  4  5  1  0  0  0  0
  4 23  1  0  0  0  0
  4 24  1  0  0  0  0
  5  6  1  0  0  0  0
  5 25  1  0  0  0  0
  5 26  1  0  0  0  0
  6 10  1  0  0  0  0
  6  7  1  0  0  0  0
  7  8  2  0  0  0  0
  7 27  1  0  0  0  0
  8  9  1  0  0  0  0
  8 28  1  0  0  0  0
  9 10  2  0  0  0  0
 10 29  1  0  0  0  0
 11 21  1  0  0  0  0
 11 12  1  0  0  0  0
 12 13  1  0  0  0  0
 12 30  1  0  0  0  0
 12 31  1  0  0  0  0
 13 14  1  0  0  0  0
 13 32  1  0  0  0  0
 13 33  1  0  0  0  0
 14 15  1  0  0  0  0
 14 34  1  0  0  0  0
 14 35  1  0  0  0  0
 15 16  1  0  0  0  0
 15 21  1  0  0  0  0
 15 36  1  0  0  0  0
 16 20  1  0  0  0  0
 16 17  1  0  0  0  0
 16 47  1  0  0  0  0
 17 18  1  0  0  0  0
 17 37  1  0  0  0  0
 17 38  1  0  0  0  0
 18 19  1  0  0  0  0
 18 39  1  0  0  0  0
 18 40  1  0  0  0  0
 19 20  1  0  0  0  0
 19 41  1  0  0  0  0
 19 42  1  0  0  0  0
 20 43  1  0  0  0  0
 20 44  1  0  0  0  0
 21 45  1  0  0  0  0
 21 46  1  0  0  0  0
M  CHG  1  16   1
M  END
> <s_m_source_file>
AV-unprocessed.smi

> <i_m_source_file_index>
3055

> <i_lp_mmshare_version>
43012

> <i_f3d_flags>
0

> <s_epik_input>
W2NIXTFuW2NIXVtjSF1uMVtDSDJdW0NIMl1bTkhdQyg9TylOMltDSDJdW0NIMl1bQ0gyXVtDQEhdKFtDSDJdMilOM1tDSDJdW0NIMl1bQ0gyXVtDSDJdMw==

> <s_epik_cmdline>
J2VwaWtfcHl0aG9uJywgJy1waCcsICc3LjAnLCAnLXRuJywgJzgnLCAnLW1hJywgJzIwMCcsICctbWV0YWxfYmluZGluZycsICctaW1hZScsICc8aW5maWxlLm1hZT4nLCAnLW9tYWUnLCAnPG91dGZpbGUubWFlPic=

> <r_lp_tautomer_probability>
1

> <r_epik_Ionization_Penalty>
0.618392

> <r_epik_Ionization_Penalty_Charging>
0.618355

> <r_epik_Ionization_Penalty_Neutral>
3.68592e-05

> <r_epik_State_Penalty>
0.635579

> <r_epik_Charging_Adjusted_Penalty>
1.25393

> <i_epik_Tot_Q>
1

> <i_epik_Tot_abs_Q>
1

> <r_epik_Metal_State_Penalty>
0.306847

> <b_epik_Metal_Only>
0

> <s_lp_Force_Field>
OPLS_2005

> <r_lp_Energy>
57.1272

> <b_lp_Chiralities_Consistent>
1

> <s_lp_Variant>
AV-unprocessed.smi:3055-4

> <Gold.Version>
5.8.1

> <Gold.Id.Protein>
6NUR|6NUR_protein|mol2

> <Gold.PLP.Fitness>
52.2025

> <Gold.PLP.PLP>
-40.1729

> <Gold.PLP.part.hbond>
-4.0000

> <Gold.PLP.part.metal>
0.0000

> <Gold.PLP.part.buried>
1.1408

> <Gold.PLP.part.nonpolar>
-39.1484

> <Gold.PLP.part.repulsive>
1.5291

> <Gold.PLP.ligand.clash>
0.0000

> <Gold.PLP.ligand.torsion>
1.1914

> <Gold.PLP.Chemscore.Hbond>
3.0000

> <Gold.PLP.Chemscore.CHOScore>
1.7780

> <Gold.PLP.Chemscore.Metal>
0.0000

> <Gold.Chemscore.Hbonds>
donor molecule, donor type, donor heavy atom, donor atom, acceptor molecule, acceptor atom, score
      L1  H    16    47       P1  7921  0.94
      P1  H  7954  7966       L1     1  1.00
      P1  H  7989  7998       L1     9  0.90
      L1  C     7    27       P1  8028  0.58
      L1  C    10    29       P1  7957  1.00

> <Gold.PLP.Chemscore.Internal.Correction>
0.0784

> <Gold.Rescore>
     Score         DG    S(hbond)    S(metal)    S(lipo)     H(rot)  DE(clash)    DE(int)     intcor
     15.10     -17.01       1.89        0.00      84.17       1.81       0.53       1.37       ----

> <Gold.Chemscore.Fitness>
15.1029

> <Gold.Chemscore.DG>
-17.0055

> <Gold.Chemscore.ZeroCoef>
-5.4800

> <Gold.Chemscore.Hbond>
1.8869

> <Gold.Chemscore.Metal>
0.0000

> <Gold.Chemscore.Lipo>
84.1737

> <Gold.Chemscore.Internal_Hbond>
0.0000

> <Gold.Chemscore.DEClash>
0.5306

> <Gold.Chemscore.DEInternal>
1.3720

> <Gold.Chemscore.Rot>
1.8066

> <Gold.Chemscore.Internal.Correction>
   9.000000E+99

> <Gold.Chemscore.Hbonds>
donor molecule, donor type, donor heavy atom, donor atom, acceptor molecule, acceptor atom, score
      L1  H    16    47       P1  7921  0.50
      P1  H  7954  7966       L1     1  0.95
      P1  H  7989  7998       L1     9  0.09

> <Gold.Chemscore.Hbond.Weighted>
-6.3021

> <Gold.Chemscore.Metal.Weighted>
-0.0000

> <Gold.Chemscore.Lipo.Weighted>
-9.8483

> <Gold.Chemscore.Internal_Hbond.Weighted>
0.0000

> <Gold.Chemscore.DEClash.Weighted>
0.5306

> <Gold.Chemscore.DEInternal.Weighted>
1.3720

> <Gold.Chemscore.Rot.Weighted>
4.6249

> <Gold.Chemscore.Internal.Correction.Weighted>
   9.000000E+99

> <Gold.Protein.RotatedTorsions>
[ 6907 6896 6895 6894 ] final -160.15 input  -60.11 | X-H torsion
[ 7974 7965 7964 7962 ] final   36.80 input  175.53 | X-H torsion
[ 8008 7997 7996 7995 ] final  154.56 input   59.86 | X-H torsion
[ 10167 10162 10161 10158 ] final  -14.04 input  -65.29 | X-H torsion
[ 10718 10713 10712 10709 ] final   70.18 input   66.30 | X-H torsion
[ 10763 10752 10751 10750 ] final -110.03 input  -60.55 | X-H torsion
[ 11005 11000 10999 10996 ] final  -91.60 input  -57.11 | X-H torsion

> <Gold.Protein.ActiveResidues>
 VAL166  LYS551  ARG553  GLY616  TRP617  ASP618  TYR619  PRO620  LYS621  CYS622 
 ASP623  PHE694  ASN695  SER759  ASP760  ASP761  ALA762  ILE779  LEU786  VAL792 
 PHE793  MET794  SER795  GLU796  ALA797  LYS798  CYS799  TRP800  GLU811  SER814 

> <Gold.Protein.RotatedAtoms>
  151.3446  133.3949  159.2674 H   0  0  0  0  0  0  0  0  0  0  0  0  # atno 6907 bound_to 6896
  150.9850  134.9198  159.7877 H   0  0  0  0  0  0  0  0  0  0  0  0  # atno 6908 bound_to 6896
  152.5229  134.3410  159.9269 H   0  0  0  0  0  0  0  0  0  0  0  0  # atno 6909 bound_to 6896
  146.1184  139.5972  142.9306 H   0  0  0  0  0  0  0  0  0  0  0  0  # atno 7974 bound_to 7965
  156.2524  140.1963  156.6666 H   0  0  0  0  0  0  0  0  0  0  0  0  # atno 8008 bound_to 7997
  154.6424  140.0582  156.9887 H   0  0  0  0  0  0  0  0  0  0  0  0  # atno 8009 bound_to 7997
  155.1542  140.3254  155.4427 H   0  0  0  0  0  0  0  0  0  0  0  0  # atno 8010 bound_to 7997
  140.7194  143.5363  150.9461 H   0  0  0  0  0  0  0  0  0  0  0  0  # atno 10167 bound_to 10162
  157.6386  130.9464  150.0615 H   0  0  0  0  0  0  0  0  0  0  0  0  # atno 10718 bound_to 10713
  154.8226  135.4579  154.0823 H   0  0  0  0  0  0  0  0  0  0  0  0  # atno 10763 bound_to 10752
  153.2164  135.6888  153.8058 H   0  0  0  0  0  0  0  0  0  0  0  0  # atno 10764 bound_to 10752
  153.7491  135.3301  155.3294 H   0  0  0  0  0  0  0  0  0  0  0  0  # atno 10765 bound_to 10752
  141.1541  133.7766  156.9902 H   0  0  0  0  0  0  0  0  0  0  0  0  # atno 11005 bound_to 11000
  145.5517  141.0412  143.2274 LP  0  0  0  0  0  0  0  0  0  0  0  0  # atno 17320 bound_to 7965
  144.7574  139.7040  143.7248 LP  0  0  0  0  0  0  0  0  0  0  0  0  # atno 17321 bound_to 7965
  139.9085  143.6749  152.3119 LP  0  0  0  0  0  0  0  0  0  0  0  0  # atno 17342 bound_to 10162
  139.7124  144.7618  151.1090 LP  0  0  0  0  0  0  0  0  0  0  0  0  # atno 17343 bound_to 10162
  156.1646  130.3644  149.9250 LP  0  0  0  0  0  0  0  0  0  0  0  0  # atno 17370 bound_to 10713
  156.7240  130.9018  151.3620 LP  0  0  0  0  0  0  0  0  0  0  0  0  # atno 17371 bound_to 10713
  140.1008  134.9537  157.1919 LP  0  0  0  0  0  0  0  0  0  0  0  0  # atno 17394 bound_to 11000
  140.3321  134.2798  155.7226 LP  0  0  0  0  0  0  0  0  0  0  0  0  # atno 17395 bound_to 11000

$$$$
