AV-unprocessed.smi:2457|AV-procd|sdf|9704|dock5
  -GOLD-   2272013343D 1   1.00000     0.00000
 Structure written by MMmdl.
 40 41  0  0  0  0  0  0  0  0  1 V2000
  144.5580  144.8733  153.7653 C   0  0  0  0  0  0  0  0  0  0  0  0
  145.2449  143.6765  154.3429 C   0  0  0  0  0  0  0  0  0  0  0  0
  144.9751  143.0677  155.5428 C   0  0  0  0  0  0  0  0  0  0  0  0
  146.0059  141.6909  155.8176 S   0  0  0  0  0  0  0  0  0  0  0  0
  146.7779  141.9952  154.2645 C   0  0  0  0  0  0  0  0  0  0  0  0
  147.8452  141.1113  153.6915 C   0  0  2  0  0  0  0  0  0  0  0  0
  147.2606  139.8508  153.0382 C   0  0  0  0  0  0  0  0  0  0  0  0
  148.9820  140.7991  154.6906 C   0  0  0  0  0  0  0  0  0  0  0  0
  149.4824  142.0047  155.3495 N   0  0  0  0  0  0  0  0  0  0  0  0
  150.4601  142.0371  156.2667 C   0  0  0  0  0  0  0  0  0  0  0  0
  151.1324  141.0604  156.5978 O   0  0  0  0  0  0  0  0  0  0  0  0
  150.5861  143.2533  156.8148 N   0  0  0  0  0  0  0  0  0  0  0  0
  151.4744  143.5802  157.9261 C   0  0  2  0  0  0  0  0  0  0  0  0
  151.4778  142.4309  158.9569 C   0  0  0  0  0  0  0  0  0  0  0  0
  152.4441  142.6895  160.1238 C   0  0  0  0  0  0  0  0  0  0  0  0
  152.0817  143.9548  160.9146 C   0  0  0  0  0  0  0  0  0  0  0  0
  152.1730  145.4335  159.8687 S   0  0  0  0  0  0  0  0  0  0  0  0
  151.0323  144.9110  158.5583 C   0  0  0  0  0  0  0  0  0  0  0  0
  146.2770  143.0601  153.6307 N   0  0  0  0  0  0  0  0  0  0  0  0
  143.8999  145.3458  154.4949 H   0  0  0  0  0  0  0  0  0  0  0  0
  143.9510  144.5977  152.9026 H   0  0  0  0  0  0  0  0  0  0  0  0
  145.2790  145.6226  153.4378 H   0  0  0  0  0  0  0  0  0  0  0  0
  144.2324  143.3415  156.2775 H   0  0  0  0  0  0  0  0  0  0  0  0
  148.3014  141.6827  152.8819 H   0  0  0  0  0  0  0  0  0  0  0  0
  146.5326  140.1092  152.2687 H   0  0  0  0  0  0  0  0  0  0  0  0
  146.7593  139.2200  153.7732 H   0  0  0  0  0  0  0  0  0  0  0  0
  148.0421  139.2540  152.5677 H   0  0  0  0  0  0  0  0  0  0  0  0
  148.6395  140.0733  155.4302 H   0  0  0  0  0  0  0  0  0  0  0  0
  149.8147  140.3273  154.1683 H   0  0  0  0  0  0  0  0  0  0  0  0
  148.9952  142.8654  155.1479 H   0  0  0  0  0  0  0  0  0  0  0  0
  149.9878  143.9928  156.4771 H   0  0  0  0  0  0  0  0  0  0  0  0
  152.4862  143.7110  157.5373 H   0  0  0  0  0  0  0  0  0  0  0  0
  150.4699  142.2747  159.3440 H   0  0  0  0  0  0  0  0  0  0  0  0
  151.7619  141.4975  158.4689 H   0  0  0  0  0  0  0  0  0  0  0  0
  152.4327  141.8308  160.7958 H   0  0  0  0  0  0  0  0  0  0  0  0
  153.4646  142.7695  159.7470 H   0  0  0  0  0  0  0  0  0  0  0  0
  151.0752  143.8714  161.3258 H   0  0  0  0  0  0  0  0  0  0  0  0
  152.7619  144.0814  161.7572 H   0  0  0  0  0  0  0  0  0  0  0  0
  150.9964  145.6980  157.8043 H   0  0  0  0  0  0  0  0  0  0  0  0
  150.0295  144.8231  158.9779 H   0  0  0  0  0  0  0  0  0  0  0  0
  1  2  1  0  0  0  0
  1 20  1  0  0  0  0
  1 21  1  0  0  0  0
  1 22  1  0  0  0  0
  2 19  1  0  0  0  0
  2  3  2  0  0  0  0
  3  4  1  0  0  0  0
  3 23  1  0  0  0  0
  4  5  1  0  0  0  0
  5  6  1  0  0  0  0
  5 19  2  0  0  0  0
  6  7  1  0  0  0  0
  6  8  1  0  0  0  0
  6 24  1  0  0  0  0
  7 25  1  0  0  0  0
  7 26  1  0  0  0  0
  7 27  1  0  0  0  0
  8  9  1  0  0  0  0
  8 28  1  0  0  0  0
  8 29  1  0  0  0  0
  9 10  1  0  0  0  0
  9 30  1  0  0  0  0
 10 11  2  0  0  0  0
 10 12  1  0  0  0  0
 12 13  1  0  0  0  0
 12 31  1  0  0  0  0
 13 18  1  0  0  0  0
 13 14  1  0  0  0  0
 13 32  1  0  0  0  0
 14 15  1  0  0  0  0
 14 33  1  0  0  0  0
 14 34  1  0  0  0  0
 15 16  1  0  0  0  0
 15 35  1  0  0  0  0
 15 36  1  0  0  0  0
 16 17  1  0  0  0  0
 16 37  1  0  0  0  0
 16 38  1  0  0  0  0
 17 18  1  0  0  0  0
 18 39  1  0  0  0  0
 18 40  1  0  0  0  0
M  END
> <s_m_source_file>
AV-unprocessed.smi

> <i_m_source_file_index>
2457

> <i_lp_mmshare_version>
43012

> <i_f3d_flags>
0

> <s_epik_input>
W0NIM11jMVtjSF1zYyhuMSlbQ0BIXShbQ0gzXSlbQ0gyXVtOSF1DKD1PKVtOSF1bQ0BASF0yW0NIMl1bQ0gyXVtDSDJdU1tDSDJdMg==

> <s_epik_cmdline>
J2VwaWtfcHl0aG9uJywgJy1waCcsICc3LjAnLCAnLXRuJywgJzgnLCAnLW1hJywgJzIwMCcsICctbWV0YWxfYmluZGluZycsICctaW1hZScsICc8aW5maWxlLm1hZT4nLCAnLW9tYWUnLCAnPG91dGZpbGUubWFlPic=

> <r_epik_Ionization_Penalty>
0.00154805

> <r_epik_Ionization_Penalty_Charging>
0

> <r_epik_Ionization_Penalty_Neutral>
0.00154805

> <r_epik_State_Penalty>
0.00100357

> <r_epik_Charging_Adjusted_Penalty>
0.00100357

> <i_epik_Tot_Q>
0

> <i_epik_Tot_abs_Q>
0

> <r_epik_Metal_State_Penalty>
-0

> <b_epik_Metal_Only>
0

> <s_lp_Force_Field>
OPLS_2005

> <r_lp_Energy>
-7.34104

> <b_lp_Chiralities_Consistent>
1

> <s_lp_Variant>
AV-unprocessed.smi:2457-1

> <Gold.Version>
5.8.1

> <Gold.Id.Protein>
6NUR|6NUR_protein|mol2

> <Gold.PLP.Fitness>
48.6735

> <Gold.PLP.PLP>
-44.3712

> <Gold.PLP.part.hbond>
-1.9735

> <Gold.PLP.part.metal>
0.0000

> <Gold.PLP.part.buried>
-5.6735

> <Gold.PLP.part.nonpolar>
-37.2956

> <Gold.PLP.part.repulsive>
0.4475

> <Gold.PLP.ligand.clash>
0.0000

> <Gold.PLP.ligand.torsion>
0.7305

> <Gold.PLP.Chemscore.Hbond>
1.8800

> <Gold.PLP.Chemscore.CHOScore>
0.0000

> <Gold.PLP.Chemscore.Metal>
0.0000

> <Gold.Chemscore.Hbonds>
donor molecule, donor type, donor heavy atom, donor atom, acceptor molecule, acceptor atom, score
      L1  H     9    30       P1  8028  0.88
      L1  H    12    31       P1  8028  1.00

> <Gold.PLP.Chemscore.Internal.Correction>
0.1232

> <Gold.Rescore>
     Score         DG    S(hbond)    S(metal)    S(lipo)     H(rot)  DE(clash)    DE(int)     intcor
     18.99     -20.94       1.73        0.00     114.81       1.46       0.14       1.82       ----

> <Gold.Chemscore.Fitness>
18.9860

> <Gold.Chemscore.DG>
-20.9411

> <Gold.Chemscore.ZeroCoef>
-5.4800

> <Gold.Chemscore.Hbond>
1.7275

> <Gold.Chemscore.Metal>
0.0000

> <Gold.Chemscore.Lipo>
114.8094

> <Gold.Chemscore.Internal_Hbond>
0.0000

> <Gold.Chemscore.DEClash>
0.1379

> <Gold.Chemscore.DEInternal>
1.8172

> <Gold.Chemscore.Rot>
1.4616

> <Gold.Chemscore.Internal.Correction>
   9.000000E+99

> <Gold.Chemscore.Hbonds>
donor molecule, donor type, donor heavy atom, donor atom, acceptor molecule, acceptor atom, score
      L1  H     9    30       P1  8028  0.86
      L1  H    12    31       P1  8028  0.94

> <Gold.Chemscore.Hbond.Weighted>
-5.7700

> <Gold.Chemscore.Metal.Weighted>
-0.0000

> <Gold.Chemscore.Lipo.Weighted>
-13.4327

> <Gold.Chemscore.Internal_Hbond.Weighted>
0.0000

> <Gold.Chemscore.DEClash.Weighted>
0.1379

> <Gold.Chemscore.DEInternal.Weighted>
1.8172

> <Gold.Chemscore.Rot.Weighted>
3.7416

> <Gold.Chemscore.Internal.Correction.Weighted>
   9.000000E+99

> <Gold.Protein.RotatedTorsions>
[ 6907 6896 6895 6894 ] final  -50.14 input  -60.11 | X-H torsion
[ 7974 7965 7964 7962 ] final   97.22 input  175.53 | X-H torsion
[ 8008 7997 7996 7995 ] final   45.81 input   59.86 | X-H torsion
[ 10167 10162 10161 10158 ] final   24.18 input  -65.29 | X-H torsion
[ 10718 10713 10712 10709 ] final -168.52 input   66.30 | X-H torsion
[ 10763 10752 10751 10750 ] final  -16.15 input  -60.55 | X-H torsion
[ 11005 11000 10999 10996 ] final  -89.03 input  -57.11 | X-H torsion

> <Gold.Protein.ActiveResidues>
 VAL166  LYS551  ARG553  GLY616  TRP617  ASP618  TYR619  PRO620  LYS621  CYS622 
 ASP623  PHE694  ASN695  SER759  ASP760  ASP761  ALA762  ILE779  LEU786  VAL792 
 PHE793  MET794  SER795  GLU796  ALA797  LYS798  CYS799  TRP800  GLU811  SER814 

> <Gold.Protein.RotatedAtoms>
  150.8736  134.8114  159.7172 H   0  0  0  0  0  0  0  0  0  0  0  0  # atno 6907 bound_to 6896
  152.4731  134.4908  159.9704 H   0  0  0  0  0  0  0  0  0  0  0  0  # atno 6908 bound_to 6896
  151.4993  133.3469  159.2902 H   0  0  0  0  0  0  0  0  0  0  0  0  # atno 6909 bound_to 6896
  145.4283  139.2313  143.3158 H   0  0  0  0  0  0  0  0  0  0  0  0  # atno 7974 bound_to 7965
  155.3420  140.3408  155.4239 H   0  0  0  0  0  0  0  0  0  0  0  0  # atno 8008 bound_to 7997
  156.1808  140.1663  156.8313 H   0  0  0  0  0  0  0  0  0  0  0  0  # atno 8009 bound_to 7997
  154.5332  140.0741  156.8364 H   0  0  0  0  0  0  0  0  0  0  0  0  # atno 8010 bound_to 7997
  140.5209  144.0004  150.6416 H   0  0  0  0  0  0  0  0  0  0  0  0  # atno 10167 bound_to 10162
  156.6981  130.9186  151.3077 H   0  0  0  0  0  0  0  0  0  0  0  0  # atno 10718 bound_to 10713
  153.5541  135.7011  153.5577 H   0  0  0  0  0  0  0  0  0  0  0  0  # atno 10763 bound_to 10752
  153.3488  135.4001  155.1630 H   0  0  0  0  0  0  0  0  0  0  0  0  # atno 10764 bound_to 10752
  154.8657  135.3760  154.5054 H   0  0  0  0  0  0  0  0  0  0  0  0  # atno 10765 bound_to 10752
  141.1592  133.7605  156.9536 H   0  0  0  0  0  0  0  0  0  0  0  0  # atno 11005 bound_to 11000
  146.2620  140.5017  142.8849 LP  0  0  0  0  0  0  0  0  0  0  0  0  # atno 17320 bound_to 7965
  144.8199  140.6532  143.6359 LP  0  0  0  0  0  0  0  0  0  0  0  0  # atno 17321 bound_to 7965
  140.3353  143.3052  152.0645 LP  0  0  0  0  0  0  0  0  0  0  0  0  # atno 17342 bound_to 10162
  139.4923  144.6481  151.6735 LP  0  0  0  0  0  0  0  0  0  0  0  0  # atno 17343 bound_to 10162
  157.6983  130.9306  150.0710 LP  0  0  0  0  0  0  0  0  0  0  0  0  # atno 17370 bound_to 10713
  156.1748  130.3648  149.9115 LP  0  0  0  0  0  0  0  0  0  0  0  0  # atno 17371 bound_to 10713
  140.1240  134.9399  157.2244 LP  0  0  0  0  0  0  0  0  0  0  0  0  # atno 17394 bound_to 11000
  140.3036  134.3103  155.7283 LP  0  0  0  0  0  0  0  0  0  0  0  0  # atno 17395 bound_to 11000

$$$$
