AV-unprocessed.smi:69|AV-procd|sdf|645|dock5
  -GOLD-   2262016543D 1   1.00000     0.00000
 Structure written by MMmdl.
 32 34  0  0  0  0  0  0  0  0  1 V2000
  142.5704  132.5344  150.5472 N   0  0  0  0  0  0  0  0  0  0  0  0
  143.7886  133.0085  150.8433 C   0  0  0  0  0  0  0  0  0  0  0  0
  144.8658  132.2505  150.5322 N   0  0  0  0  0  0  0  0  0  0  0  0
  146.0915  132.7020  150.8160 C   0  0  0  0  0  0  0  0  0  0  0  0
  146.4443  133.8527  151.3949 N   0  0  0  0  0  0  0  0  0  0  0  0
  145.3581  134.6180  151.7087 C   0  0  0  0  0  0  0  0  0  0  0  0
  144.0011  134.2648  151.4656 C   0  0  0  0  0  0  0  0  0  0  0  0
  143.1615  135.2754  151.9114 N   0  0  0  0  0  0  0  0  0  0  0  0
  143.9801  136.1755  152.3856 C   0  0  0  0  0  0  0  0  0  0  0  0
  145.3204  135.8614  152.3115 N   0  0  0  0  0  0  0  0  0  0  0  0
  146.4715  136.7117  152.7568 C   0  0  2  0  0  0  0  0  0  0  0  0
  146.4251  136.8139  154.1498 O   0  0  0  0  0  0  0  0  0  0  0  0
  146.2295  138.1686  154.5534 C   0  0  1  0  0  0  0  0  0  0  0  0
  146.8696  138.4344  155.9277 C   0  0  0  0  0  0  0  0  0  0  0  0
  146.6953  139.7875  156.2908 O   0  0  0  0  0  0  0  0  0  0  0  0
  146.8041  138.9780  153.3839 C   0  0  1  0  0  0  0  0  0  0  0  0
  148.2133  139.0987  153.5057 O   0  0  0  0  0  0  0  0  0  0  0  0
  146.3924  138.1345  152.1816 C   0  0  1  0  0  0  0  0  0  0  0  0
  147.2491  138.3477  151.0747 O   0  0  0  0  0  0  0  0  0  0  0  0
  147.3703  136.1669  152.4637 H   0  0  0  0  0  0  0  0  0  0  0  0
  145.1604  138.3741  154.6060 H   0  0  0  0  0  0  0  0  0  0  0  0
  146.3782  139.9810  153.3373 H   0  0  0  0  0  0  0  0  0  0  0  0
  145.3655  138.3706  151.9022 H   0  0  0  0  0  0  0  0  0  0  0  0
  141.7509  133.0813  150.7689 H   0  0  0  0  0  0  0  0  0  0  0  0
  142.4751  131.6348  150.0989 H   0  0  0  0  0  0  0  0  0  0  0  0
  146.9061  132.0485  150.5407 H   0  0  0  0  0  0  0  0  0  0  0  0
  143.6231  137.1044  152.8063 H   0  0  0  0  0  0  0  0  0  0  0  0
  146.4529  137.7809  156.6947 H   0  0  0  0  0  0  0  0  0  0  0  0
  147.9426  138.2451  155.8851 H   0  0  0  0  0  0  0  0  0  0  0  0
  147.5456  140.1670  156.4520 H   0  0  0  0  0  0  0  0  0  0  0  0
  148.5780  139.1966  152.6389 H   0  0  0  0  0  0  0  0  0  0  0  0
  147.8437  139.0504  151.2884 H   0  0  0  0  0  0  0  0  0  0  0  0
  1  2  1  0  0  0  0
  1 24  1  0  0  0  0
  1 25  1  0  0  0  0
  2  7  1  0  0  0  0
  2  3  2  0  0  0  0
  3  4  1  0  0  0  0
  4  5  2  0  0  0  0
  4 26  1  0  0  0  0
  5  6  1  0  0  0  0
  6 10  1  0  0  0  0
  6  7  2  0  0  0  0
  7  8  1  0  0  0  0
  8  9  2  0  0  0  0
  9 10  1  0  0  0  0
  9 27  1  0  0  0  0
 10 11  1  0  0  0  0
 11 20  1  0  0  0  0
 11 18  1  0  0  0  0
 11 12  1  0  0  0  0
 12 13  1  0  0  0  0
 13 21  1  0  0  0  0
 13 14  1  0  0  0  0
 13 16  1  0  0  0  0
 14 15  1  0  0  0  0
 14 28  1  0  0  0  0
 14 29  1  0  0  0  0
 15 30  1  0  0  0  0
 16 22  1  0  0  0  0
 16 17  1  0  0  0  0
 16 18  1  0  0  0  0
 17 31  1  0  0  0  0
 18 23  1  0  0  0  0
 18 19  1  0  0  0  0
 19 32  1  0  0  0  0
M  END
> <s_m_source_file>
AV-unprocessed.smi

> <i_m_source_file_index>
69

> <i_lp_mmshare_version>
43012

> <i_f3d_flags>
0

> <s_epik_input>
bjFbY0hdbmMoW05IMl0pYyhjMTIpbltjSF1uMltDQEBIXTNPW0NASF0oW0NIMl1bT0hdKVtDQEBIXShbT0hdKVtDQEhdM1tPSF0=

> <s_epik_cmdline>
J2VwaWtfcHl0aG9uJywgJy1waCcsICc3LjAnLCAnLXRuJywgJzgnLCAnLW1hJywgJzIwMCcsICctbWV0YWxfYmluZGluZycsICctaW1hZScsICc8aW5maWxlLm1hZT4nLCAnLW9tYWUnLCAnPG91dGZpbGUubWFlPic=

> <r_lp_tautomer_probability>
1

> <r_epik_Ionization_Penalty>
0.000428445

> <r_epik_Ionization_Penalty_Charging>
0

> <r_epik_Ionization_Penalty_Neutral>
0.000428445

> <r_epik_State_Penalty>
-0

> <r_epik_Charging_Adjusted_Penalty>
0

> <i_epik_Tot_Q>
0

> <i_epik_Tot_abs_Q>
0

> <r_epik_Metal_State_Penalty>
-0

> <b_epik_Metal_Only>
0

> <s_epik_Chemistry_Notes>
This compound contains an acetal/aminal-like group ( X-CH(R)-Y where X, Y are N, S, or O) that may be acid/base labile, releasing an aldehyde.

> <s_lp_Force_Field>
OPLS_2005

> <r_lp_Energy>
42.3633

> <b_lp_Chiralities_Consistent>
1

> <s_lp_Variant>
AV-unprocessed.smi:69-3

> <Gold.Version>
5.8.1

> <Gold.Id.Protein>
6NUR|6NUR_protein|mol2

> <Gold.PLP.Fitness>
37.2562

> <Gold.PLP.PLP>
-23.8139

> <Gold.PLP.part.hbond>
-6.0000

> <Gold.PLP.part.metal>
0.0000

> <Gold.PLP.part.buried>
-1.7133

> <Gold.PLP.part.nonpolar>
-17.2442

> <Gold.PLP.part.repulsive>
0.7174

> <Gold.PLP.ligand.clash>
0.0000

> <Gold.PLP.ligand.torsion>
0.1092

> <Gold.PLP.Chemscore.Hbond>
3.5511

> <Gold.PLP.Chemscore.CHOScore>
1.0000

> <Gold.PLP.Chemscore.Metal>
0.0000

> <Gold.Chemscore.Hbonds>
donor molecule, donor type, donor heavy atom, donor atom, acceptor molecule, acceptor atom, score
      L1  H     1    24       P1 10186  0.48
      L1  H     1    25       P1 10952  0.47
      L1  H    17    31       P1  7957  1.00
      L1  H    19    32       P1  7957  1.00
      P1  H  7954  7966       L1    19  0.55
      L1  C     4    26       P1 10747  1.00

> <Gold.PLP.Chemscore.Internal.Correction>
0.0075

> <Gold.Rescore>
     Score         DG    S(hbond)    S(metal)    S(lipo)     H(rot)  DE(clash)    DE(int)     intcor
      5.33      -7.02       2.85        0.00      19.91       4.03       1.37       0.32       ----

> <Gold.Chemscore.Fitness>
5.3273

> <Gold.Chemscore.DG>
-7.0213

> <Gold.Chemscore.ZeroCoef>
-5.4800

> <Gold.Chemscore.Hbond>
2.8511

> <Gold.Chemscore.Metal>
0.0000

> <Gold.Chemscore.Lipo>
19.9119

> <Gold.Chemscore.Internal_Hbond>
0.0000

> <Gold.Chemscore.DEClash>
1.3700

> <Gold.Chemscore.DEInternal>
0.3240

> <Gold.Chemscore.Rot>
4.0277

> <Gold.Chemscore.Internal.Correction>
   9.000000E+99

> <Gold.Chemscore.Hbonds>
donor molecule, donor type, donor heavy atom, donor atom, acceptor molecule, acceptor atom, score
      L1  H     1    24       P1 10186  0.44
      L1  H     1    25       P1 10952  0.41
      L1  H    17    31       P1  7957  0.97
      L1  H    19    32       P1  7957  0.66
      P1  H  7954  7966       L1    19  0.03

> <Gold.Chemscore.Hbond.Weighted>
-9.5226

> <Gold.Chemscore.Metal.Weighted>
-0.0000

> <Gold.Chemscore.Lipo.Weighted>
-2.3297

> <Gold.Chemscore.Internal_Hbond.Weighted>
0.0000

> <Gold.Chemscore.DEClash.Weighted>
1.3700

> <Gold.Chemscore.DEInternal.Weighted>
0.3240

> <Gold.Chemscore.Rot.Weighted>
10.3110

> <Gold.Chemscore.Internal.Correction.Weighted>
   9.000000E+99

> <Gold.Protein.RotatedTorsions>
[ 6907 6896 6895 6894 ] final -171.14 input  -60.11 | X-H torsion
[ 7974 7965 7964 7962 ] final   49.11 input  175.53 | X-H torsion
[ 8008 7997 7996 7995 ] final   68.79 input   59.86 | X-H torsion
[ 10167 10162 10161 10158 ] final  -44.99 input  -65.29 | X-H torsion
[ 10718 10713 10712 10709 ] final   98.97 input   66.30 | X-H torsion
[ 10763 10752 10751 10750 ] final -107.01 input  -60.55 | X-H torsion
[ 11005 11000 10999 10996 ] final  -73.30 input  -57.11 | X-H torsion

> <Gold.Protein.ActiveResidues>
 VAL166  LYS551  ARG553  GLY616  TRP617  ASP618  TYR619  PRO620  LYS621  CYS622 
 ASP623  PHE694  ASN695  SER759  ASP760  ASP761  ALA762  ILE779  LEU786  VAL792 
 PHE793  MET794  SER795  GLU796  ALA797  LYS798  CYS799  TRP800  GLU811  SER814 

> <Gold.Protein.RotatedAtoms>
  151.5191  133.3470  159.2897 H   0  0  0  0  0  0  0  0  0  0  0  0  # atno 6907 bound_to 6896
  150.8664  134.8030  159.7133 H   0  0  0  0  0  0  0  0  0  0  0  0  # atno 6908 bound_to 6896
  152.4667  134.5068  159.9793 H   0  0  0  0  0  0  0  0  0  0  0  0  # atno 6909 bound_to 6896
  146.0140  139.4575  142.9938 H   0  0  0  0  0  0  0  0  0  0  0  0  # atno 7974 bound_to 7965
  155.7136  140.3494  155.4985 H   0  0  0  0  0  0  0  0  0  0  0  0  # atno 8008 bound_to 7997
  155.9333  140.1088  157.1137 H   0  0  0  0  0  0  0  0  0  0  0  0  # atno 8009 bound_to 7997
  154.4089  140.1227  156.4818 H   0  0  0  0  0  0  0  0  0  0  0  0  # atno 8010 bound_to 7997
  140.6876  143.2902  151.3574 H   0  0  0  0  0  0  0  0  0  0  0  0  # atno 10167 bound_to 10162
  157.6885  131.0656  150.4877 H   0  0  0  0  0  0  0  0  0  0  0  0  # atno 10718 bound_to 10713
  154.8049  135.4690  154.0366 H   0  0  0  0  0  0  0  0  0  0  0  0  # atno 10763 bound_to 10752
  153.1843  135.6845  153.8443 H   0  0  0  0  0  0  0  0  0  0  0  0  # atno 10764 bound_to 10752
  153.7982  135.3233  155.3364 H   0  0  0  0  0  0  0  0  0  0  0  0  # atno 10765 bound_to 10752
  141.1621  133.6874  156.7191 H   0  0  0  0  0  0  0  0  0  0  0  0  # atno 11005 bound_to 11000
  145.7298  141.0046  143.1358 LP  0  0  0  0  0  0  0  0  0  0  0  0  # atno 17320 bound_to 7965
  144.6964  139.8970  143.7456 LP  0  0  0  0  0  0  0  0  0  0  0  0  # atno 17321 bound_to 7965
  139.6247  144.0837  152.2424 LP  0  0  0  0  0  0  0  0  0  0  0  0  # atno 17342 bound_to 10162
  140.0292  144.6094  150.7502 LP  0  0  0  0  0  0  0  0  0  0  0  0  # atno 17343 bound_to 10162
  156.5205  130.4161  149.6253 LP  0  0  0  0  0  0  0  0  0  0  0  0  # atno 17370 bound_to 10713
  156.3158  130.7254  151.2156 LP  0  0  0  0  0  0  0  0  0  0  0  0  # atno 17371 bound_to 10713
  140.2829  134.8302  157.3949 LP  0  0  0  0  0  0  0  0  0  0  0  0  # atno 17394 bound_to 11000
  140.1416  134.4964  155.8027 LP  0  0  0  0  0  0  0  0  0  0  0  0  # atno 17395 bound_to 11000

$$$$
