AV-unprocessed.smi:245|AV-procd|sdf|1877|dock6
  -GOLD-   2262020523D 1   1.00000     0.00000
 Structure written by MMmdl.
 54 58  0  0  0  0  0  0  0  0  1 V2000
  151.4377  137.7564  159.1294 O   0  0  0  0  0  0  0  0  0  0  0  0
  151.4136  138.9197  158.7345 C   0  0  0  0  0  0  0  0  0  0  0  0
  150.4899  139.3032  157.5643 C   0  0  0  0  0  0  0  0  0  0  0  0
  150.4972  140.7286  157.1935 N   0  0  0  0  0  0  0  0  0  0  0  0
  149.4318  141.0251  156.4103 C   0  0  0  0  0  0  0  0  0  0  0  0
  149.5405  140.9576  155.0568 N   0  0  0  0  0  0  0  0  0  0  0  0
  148.4946  141.2699  154.2859 C   0  0  0  0  0  0  0  0  0  0  0  0
  147.2776  141.6759  154.6541 N   0  0  0  0  0  0  0  0  0  0  0  0
  147.1710  141.7600  156.0118 C   0  0  0  0  0  0  0  0  0  0  0  0
  148.1924  141.4553  156.9544 C   0  0  0  0  0  0  0  0  0  0  0  0
  147.7221  141.6469  158.2466 N   0  0  0  0  0  0  0  0  0  0  0  0
  146.4881  142.0381  158.0782 C   0  0  0  0  0  0  0  0  0  0  0  0
  146.0771  142.1486  156.7671 N   0  0  0  0  0  0  0  0  0  0  0  0
  144.7757  142.5317  156.2954 C   0  0  0  0  0  0  0  0  0  0  0  0
  144.4652  142.6739  154.8017 C   0  0  0  0  0  0  0  0  0  0  0  0
  143.5691  143.8991  155.0943 C   0  0  0  0  0  0  0  0  0  0  0  0
  143.8130  145.1180  154.1913 C   0  0  0  0  0  0  0  0  0  0  0  0
  143.3051  146.3021  154.7717 O   0  0  0  0  0  0  0  0  0  0  0  0
  142.0430  143.6598  155.1324 C   0  0  0  0  0  0  0  0  0  0  0  0
  141.4775  143.4570  153.8532 O   0  0  0  0  0  0  0  0  0  0  0  0
  144.2848  143.9704  156.4627 C   0  0  0  0  0  0  0  0  0  0  0  0
  150.8906  141.7017  158.2202 C   0  0  2  0  0  0  0  0  0  0  0  0
  151.0492  143.1469  157.6851 C   0  0  0  0  0  0  0  0  0  0  0  0
  151.4778  144.1096  158.8059 C   0  0  0  0  0  0  0  0  0  0  0  0
  152.7708  143.6414  159.4920 C   0  0  0  0  0  0  0  0  0  0  0  0
  152.6458  142.1943  159.9948 C   0  0  0  0  0  0  0  0  0  0  0  0
  152.2278  141.2541  158.8512 C   0  0  1  0  0  0  0  0  0  0  0  0
  152.1615  139.8729  159.3114 N   0  0  0  0  0  0  0  0  0  0  0  0
  150.7858  138.7127  156.6962 H   0  0  0  0  0  0  0  0  0  0  0  0
  149.4781  138.9890  157.8290 H   0  0  0  0  0  0  0  0  0  0  0  0
  148.6568  141.1845  153.2216 H   0  0  0  0  0  0  0  0  0  0  0  0
  145.8418  142.2539  158.9161 H   0  0  0  0  0  0  0  0  0  0  0  0
  144.0675  141.8367  156.7481 H   0  0  0  0  0  0  0  0  0  0  0  0
  145.3388  142.9287  154.2007 H   0  0  0  0  0  0  0  0  0  0  0  0
  143.9401  141.8199  154.3725 H   0  0  0  0  0  0  0  0  0  0  0  0
  144.8757  145.2517  153.9860 H   0  0  0  0  0  0  0  0  0  0  0  0
  143.3262  144.9891  153.2239 H   0  0  0  0  0  0  0  0  0  0  0  0
  143.9746  146.9678  154.7312 H   0  0  0  0  0  0  0  0  0  0  0  0
  141.8043  142.7871  155.7409 H   0  0  0  0  0  0  0  0  0  0  0  0
  141.5260  144.5065  155.5849 H   0  0  0  0  0  0  0  0  0  0  0  0
  142.1402  143.0930  153.2861 H   0  0  0  0  0  0  0  0  0  0  0  0
  143.6263  144.1206  157.3188 H   0  0  0  0  0  0  0  0  0  0  0  0
  145.1073  144.6874  156.4781 H   0  0  0  0  0  0  0  0  0  0  0  0
  150.1213  141.6986  158.9953 H   0  0  0  0  0  0  0  0  0  0  0  0
  151.7887  143.1648  156.8832 H   0  0  0  0  0  0  0  0  0  0  0  0
  150.1202  143.5159  157.2520 H   0  0  0  0  0  0  0  0  0  0  0  0
  151.6151  145.1127  158.4014 H   0  0  0  0  0  0  0  0  0  0  0  0
  150.6795  144.1824  159.5458 H   0  0  0  0  0  0  0  0  0  0  0  0
  153.6012  143.7112  158.7882 H   0  0  0  0  0  0  0  0  0  0  0  0
  153.0135  144.3050  160.3223 H   0  0  0  0  0  0  0  0  0  0  0  0
  153.5971  141.8717  160.4197 H   0  0  0  0  0  0  0  0  0  0  0  0
  151.9128  142.1478  160.8014 H   0  0  0  0  0  0  0  0  0  0  0  0
  153.0036  141.2831  158.0837 H   0  0  0  0  0  0  0  0  0  0  0  0
  152.7499  139.6144  160.0903 H   0  0  0  0  0  0  0  0  0  0  0  0
  1  2  2  0  0  0  0
  2 28  1  0  0  0  0
  2  3  1  0  0  0  0
  3  4  1  0  0  0  0
  3 29  1  0  0  0  0
  3 30  1  0  0  0  0
  4  5  1  0  0  0  0
  4 22  1  0  0  0  0
  5 10  1  0  0  0  0
  5  6  2  0  0  0  0
  6  7  1  0  0  0  0
  7  8  2  0  0  0  0
  7 31  1  0  0  0  0
  8  9  1  0  0  0  0
  9 13  1  0  0  0  0
  9 10  2  0  0  0  0
 10 11  1  0  0  0  0
 11 12  2  0  0  0  0
 12 13  1  0  0  0  0
 12 32  1  0  0  0  0
 13 14  1  0  0  0  0
 14 21  1  0  0  0  0
 14 15  1  0  0  0  0
 14 33  1  0  0  0  0
 15 16  1  0  0  0  0
 15 34  1  0  0  0  0
 15 35  1  0  0  0  0
 16 17  1  0  0  0  0
 16 19  1  0  0  0  0
 16 21  1  0  0  0  0
 17 18  1  0  0  0  0
 17 36  1  0  0  0  0
 17 37  1  0  0  0  0
 18 38  1  0  0  0  0
 19 20  1  0  0  0  0
 19 39  1  0  0  0  0
 19 40  1  0  0  0  0
 20 41  1  0  0  0  0
 21 42  1  0  0  0  0
 21 43  1  0  0  0  0
 22 27  1  0  0  0  0
 22 23  1  0  0  0  0
 22 44  1  0  0  0  0
 23 24  1  0  0  0  0
 23 45  1  0  0  0  0
 23 46  1  0  0  0  0
 24 25  1  0  0  0  0
 24 47  1  0  0  0  0
 24 48  1  0  0  0  0
 25 26  1  0  0  0  0
 25 49  1  0  0  0  0
 25 50  1  0  0  0  0
 26 27  1  0  0  0  0
 26 51  1  0  0  0  0
 26 52  1  0  0  0  0
 27 28  1  0  0  0  0
 27 53  1  0  0  0  0
 28 54  1  0  0  0  0
M  END
> <s_m_source_file>
AV-unprocessed.smi

> <i_m_source_file_index>
245

> <i_lp_mmshare_version>
43012

> <i_f3d_flags>
0

> <s_epik_input>
W0NIMl0xW0NIMl1bQ0gyXVtDSDJdW0NASF0oW0NASF0xMilbTkhdQyg9TylbQ0gyXU4yYyhuW2NIXW4zKWMoYzM0KW5bY0hdbjRbQ0hdKFtDSDJdNSlbQ0gyXUM1KFtDSDJdW09IXSlbQ0gyXVtPSF0=

> <s_epik_cmdline>
J2VwaWtfcHl0aG9uJywgJy1waCcsICc3LjAnLCAnLXRuJywgJzgnLCAnLW1hJywgJzIwMCcsICctbWV0YWxfYmluZGluZycsICctaW1hZScsICc8aW5maWxlLm1hZT4nLCAnLW9tYWUnLCAnPG91dGZpbGUubWFlPic=

> <r_lp_tautomer_probability>
1

> <r_epik_Ionization_Penalty>
0.000702616

> <r_epik_Ionization_Penalty_Charging>
0

> <r_epik_Ionization_Penalty_Neutral>
0.000702616

> <r_epik_State_Penalty>
0.000343985

> <r_epik_Charging_Adjusted_Penalty>
0.000343985

> <i_epik_Tot_Q>
0

> <i_epik_Tot_abs_Q>
0

> <r_epik_Metal_State_Penalty>
-0

> <b_epik_Metal_Only>
0

> <s_lp_Force_Field>
OPLS_2005

> <r_lp_Energy>
50.1647

> <b_lp_Chiralities_Consistent>
1

> <s_lp_Variant>
AV-unprocessed.smi:245-2

> <Gold.Version>
5.8.1

> <Gold.Id.Protein>
6NUR|6NUR_protein|mol2

> <Gold.PLP.Fitness>
50.7292

> <Gold.PLP.PLP>
-44.9698

> <Gold.PLP.part.hbond>
-2.7157

> <Gold.PLP.part.metal>
0.0000

> <Gold.PLP.part.buried>
-8.7909

> <Gold.PLP.part.nonpolar>
-34.6425

> <Gold.PLP.part.repulsive>
0.5334

> <Gold.PLP.ligand.clash>
0.0000

> <Gold.PLP.ligand.torsion>
0.7042

> <Gold.PLP.Chemscore.Hbond>
1.1292

> <Gold.PLP.Chemscore.CHOScore>
1.0000

> <Gold.PLP.Chemscore.Metal>
0.0000

> <Gold.Chemscore.Hbonds>
donor molecule, donor type, donor heavy atom, donor atom, acceptor molecule, acceptor atom, score
      L1  H    20    41       P1 10174  0.63
      P1  H 10162 10167       L1    20  0.36
      L1  C     7    31       P1  7957  0.99

> <Gold.PLP.Chemscore.Internal.Correction>
0.7802

> <Gold.Rescore>
     Score         DG    S(hbond)    S(metal)    S(lipo)     H(rot)  DE(clash)    DE(int)     intcor
     10.10     -11.82       0.99        0.00      97.53       3.28       0.03       1.69       ----

> <Gold.Chemscore.Fitness>
10.1017

> <Gold.Chemscore.DG>
-11.8170

> <Gold.Chemscore.ZeroCoef>
-5.4800

> <Gold.Chemscore.Hbond>
0.9916

> <Gold.Chemscore.Metal>
0.0000

> <Gold.Chemscore.Lipo>
97.5288

> <Gold.Chemscore.Internal_Hbond>
0.0000

> <Gold.Chemscore.DEClash>
0.0256

> <Gold.Chemscore.DEInternal>
1.6898

> <Gold.Chemscore.Rot>
3.2758

> <Gold.Chemscore.Internal.Correction>
   9.000000E+99

> <Gold.Chemscore.Hbonds>
donor molecule, donor type, donor heavy atom, donor atom, acceptor molecule, acceptor atom, score
      L1  H    20    41       P1 10174  0.63
      P1  H 10162 10167       L1    20  0.05

> <Gold.Chemscore.Hbond.Weighted>
-3.3121

> <Gold.Chemscore.Metal.Weighted>
-0.0000

> <Gold.Chemscore.Lipo.Weighted>
-11.4109

> <Gold.Chemscore.Internal_Hbond.Weighted>
0.0000

> <Gold.Chemscore.DEClash.Weighted>
0.0256

> <Gold.Chemscore.DEInternal.Weighted>
1.6898

> <Gold.Chemscore.Rot.Weighted>
8.3859

> <Gold.Chemscore.Internal.Correction.Weighted>
   9.000000E+99

> <Gold.Protein.RotatedTorsions>
[ 6907 6896 6895 6894 ] final   62.90 input  -60.11 | X-H torsion
[ 7974 7965 7964 7962 ] final   42.51 input  175.53 | X-H torsion
[ 8008 7997 7996 7995 ] final   71.38 input   59.86 | X-H torsion
[ 10167 10162 10161 10158 ] final -133.65 input  -65.29 | X-H torsion
[ 10718 10713 10712 10709 ] final  166.44 input   66.30 | X-H torsion
[ 10763 10752 10751 10750 ] final -164.42 input  -60.55 | X-H torsion
[ 11005 11000 10999 10996 ] final  -89.76 input  -57.11 | X-H torsion

> <Gold.Protein.ActiveResidues>
 VAL166  LYS551  ARG553  GLY616  TRP617  ASP618  TYR619  PRO620  LYS621  CYS622 
 ASP623  PHE694  ASN695  SER759  ASP760  ASP761  ALA762  ILE779  LEU786  VAL792 
 PHE793  MET794  SER795  GLU796  ALA797  LYS798  CYS799  TRP800  GLU811  SER814 

> <Gold.Protein.RotatedAtoms>
  152.4210  134.5955  159.9985 H   0  0  0  0  0  0  0  0  0  0  0  0  # atno 6907 bound_to 6896
  151.6105  133.3342  159.3074 H   0  0  0  0  0  0  0  0  0  0  0  0  # atno 6908 bound_to 6896
  150.8098  134.7284  159.6743 H   0  0  0  0  0  0  0  0  0  0  0  0  # atno 6909 bound_to 6896
  146.0734  139.5292  142.9583 H   0  0  0  0  0  0  0  0  0  0  0  0  # atno 7974 bound_to 7965
  155.7531  140.3488  155.5160 H   0  0  0  0  0  0  0  0  0  0  0  0  # atno 8008 bound_to 7997
  155.8986  140.1030  157.1388 H   0  0  0  0  0  0  0  0  0  0  0  0  # atno 8009 bound_to 7997
  154.4041  140.1290  156.4394 H   0  0  0  0  0  0  0  0  0  0  0  0  # atno 8010 bound_to 7997
  139.8961  143.6664  152.2603 H   0  0  0  0  0  0  0  0  0  0  0  0  # atno 10167 bound_to 10162
  157.0658  131.0352  151.2630 H   0  0  0  0  0  0  0  0  0  0  0  0  # atno 10718 bound_to 10713
  154.7030  135.2991  154.9313 H   0  0  0  0  0  0  0  0  0  0  0  0  # atno 10763 bound_to 10752
  154.0239  135.6679  153.4779 H   0  0  0  0  0  0  0  0  0  0  0  0  # atno 10764 bound_to 10752
  153.0695  135.5069  154.8185 H   0  0  0  0  0  0  0  0  0  0  0  0  # atno 10765 bound_to 10752
  141.1579  133.7650  156.9641 H   0  0  0  0  0  0  0  0  0  0  0  0  # atno 11005 bound_to 11000
  145.6350  141.0296  143.1842 LP  0  0  0  0  0  0  0  0  0  0  0  0  # atno 17320 bound_to 7965
  144.7246  139.7918  143.7369 LP  0  0  0  0  0  0  0  0  0  0  0  0  # atno 17321 bound_to 7965
  139.7066  144.7627  151.1182 LP  0  0  0  0  0  0  0  0  0  0  0  0  # atno 17342 bound_to 10162
  140.7716  143.5386  150.9339 LP  0  0  0  0  0  0  0  0  0  0  0  0  # atno 17343 bound_to 10162
  157.4918  130.7826  149.7515 LP  0  0  0  0  0  0  0  0  0  0  0  0  # atno 17370 bound_to 10713
  155.9965  130.3905  150.2778 LP  0  0  0  0  0  0  0  0  0  0  0  0  # atno 17371 bound_to 10713
  140.1173  134.9439  157.2153 LP  0  0  0  0  0  0  0  0  0  0  0  0  # atno 17394 bound_to 11000
  140.3117  134.3016  155.7265 LP  0  0  0  0  0  0  0  0  0  0  0  0  # atno 17395 bound_to 11000

$$$$
