AV-unprocessed.smi:2062|AV-procd|sdf|8402|dock2
  -GOLD-   2272011 83D 1   1.00000     0.00000
 Structure written by MMmdl.
 42 43  0  0  0  0  0  0  0  0  3 V2000
  152.7321  144.6930  158.0268 C   0  0  0  0  0  0  0  0  0  0  0  0
  151.5059  144.3701  158.8934 C   0  0  0  0  0  0  0  0  0  0  0  0
  151.5137  145.2221  160.1738 C   0  0  0  0  0  0  0  0  0  0  0  0
  151.4474  142.8590  159.2059 C   0  0  0  0  0  0  0  0  0  0  0  0
  150.7157  142.0743  158.1784 N   0  3  1  0  0  0  0  0  0  0  0  0
  151.2227  142.2819  156.7992 C   0  0  0  0  0  0  0  0  0  0  0  0
  150.4044  141.4541  155.7958 C   0  0  0  0  0  0  0  0  0  0  0  0
  150.4438  140.0859  156.1736 O   0  0  0  0  0  0  0  0  0  0  0  0
  149.8531  139.8567  157.4487 C   0  0  1  0  0  0  0  0  0  0  0  0
  149.8375  138.3441  157.7313 C   0  0  0  0  0  0  0  0  0  0  0  0
  149.2720  138.0503  159.0437 N   0  0  0  0  0  0  0  0  0  0  0  0
  148.2604  137.2074  159.2942 C   0  0  0  0  0  0  0  0  0  0  0  0
  147.7417  136.5751  158.3713 O   0  0  0  0  0  0  0  0  0  0  0  0
  147.9098  137.1547  160.5986 N   0  5  0  0  0  0  0  0  0  0  0  0
  147.7133  135.9665  161.1931 C   0  0  0  0  0  0  0  0  0  0  0  0
  147.7283  134.8066  160.5261 N   0  0  0  0  0  0  0  0  0  0  0  0
  147.4977  133.6956  161.3394 C   0  0  0  0  0  0  0  0  0  0  0  0
  147.2948  134.0176  162.6552 C   0  0  0  0  0  0  0  0  0  0  0  0
  147.3863  135.7366  162.9132 S   0  0  0  0  0  0  0  0  0  0  0  0
  150.6720  140.6280  158.5018 C   0  0  0  0  0  0  0  0  0  0  0  0
  153.6607  144.4496  158.5444 H   0  0  0  0  0  0  0  0  0  0  0  0
  152.7633  145.7518  157.7678 H   0  0  0  0  0  0  0  0  0  0  0  0
  152.7143  144.1289  157.0937 H   0  0  0  0  0  0  0  0  0  0  0  0
  150.6301  144.6505  158.3095 H   0  0  0  0  0  0  0  0  0  0  0  0
  152.3730  144.9862  160.8024 H   0  0  0  0  0  0  0  0  0  0  0  0
  150.6127  145.0620  160.7664 H   0  0  0  0  0  0  0  0  0  0  0  0
  151.5596  146.2852  159.9359 H   0  0  0  0  0  0  0  0  0  0  0  0
  152.4530  142.4504  159.3161 H   0  0  0  0  0  0  0  0  0  0  0  0
  150.9607  142.7295  160.1740 H   0  0  0  0  0  0  0  0  0  0  0  0
  151.1666  143.3339  156.5226 H   0  0  0  0  0  0  0  0  0  0  0  0
  152.2734  141.9922  156.7474 H   0  0  0  0  0  0  0  0  0  0  0  0
  149.3719  141.8038  155.7471 H   0  0  0  0  0  0  0  0  0  0  0  0
  150.8234  141.5561  154.7947 H   0  0  0  0  0  0  0  0  0  0  0  0
  148.8251  140.2251  157.4463 H   0  0  0  0  0  0  0  0  0  0  0  0
  149.3042  137.8061  156.9459 H   0  0  0  0  0  0  0  0  0  0  0  0
  150.8578  137.9598  157.7276 H   0  0  0  0  0  0  0  0  0  0  0  0
  149.6689  138.5397  159.8324 H   0  0  0  0  0  0  0  0  0  0  0  0
  147.4946  132.7109  160.8965 H   0  0  0  0  0  0  0  0  0  0  0  0
  147.0968  133.3543  163.4835 H   0  0  0  0  0  0  0  0  0  0  0  0
  151.6889  140.2347  158.5518 H   0  0  0  0  0  0  0  0  0  0  0  0
  150.2246  140.4872  159.4867 H   0  0  0  0  0  0  0  0  0  0  0  0
  149.7582  142.3958  158.1946 H   0  0  0  0  0  0  0  0  0  0  0  0
  1  2  1  0  0  0  0
  1 21  1  0  0  0  0
  1 22  1  0  0  0  0
  1 23  1  0  0  0  0
  2  3  1  0  0  0  0
  2  4  1  0  0  0  0
  2 24  1  0  0  0  0
  3 25  1  0  0  0  0
  3 26  1  0  0  0  0
  3 27  1  0  0  0  0
  4  5  1  0  0  0  0
  4 28  1  0  0  0  0
  4 29  1  0  0  0  0
  5 20  1  0  0  0  0
  5  6  1  0  0  0  0
  5 42  1  0  0  0  0
  6  7  1  0  0  0  0
  6 30  1  0  0  0  0
  6 31  1  0  0  0  0
  7  8  1  0  0  0  0
  7 32  1  0  0  0  0
  7 33  1  0  0  0  0
  8  9  1  0  0  0  0
  9 10  1  0  0  0  0
  9 20  1  0  0  0  0
  9 34  1  0  0  0  0
 10 11  1  0  0  0  0
 10 35  1  0  0  0  0
 10 36  1  0  0  0  0
 11 12  1  0  0  0  0
 11 37  1  0  0  0  0
 12 13  2  0  0  0  0
 12 14  1  0  0  0  0
 14 15  1  0  0  0  0
 15 19  1  0  0  0  0
 15 16  2  0  0  0  0
 16 17  1  0  0  0  0
 17 18  2  0  0  0  0
 17 38  1  0  0  0  0
 18 19  1  0  0  0  0
 18 39  1  0  0  0  0
 20 40  1  0  0  0  0
 20 41  1  0  0  0  0
M  CHG  1   5   1
M  CHG  1  14  -1
M  END
> <s_m_source_file>
AV-unprocessed.smi

> <i_m_source_file_index>
2062

> <i_lp_mmshare_version>
43012

> <i_f3d_flags>
0

> <s_epik_input>
W0NIM11bQ0hdKFtDSDNdKVtDSDJdTjFbQ0gyXVtDSDJdT1tDQEhdKFtDSDJdMSlbQ0gyXVtOSF1DKD1PKVtOSF1jMm5bY0hdW2NIXXMy

> <s_epik_cmdline>
J2VwaWtfcHl0aG9uJywgJy1waCcsICc3LjAnLCAnLXRuJywgJzgnLCAnLW1hJywgJzIwMCcsICctbWV0YWxfYmluZGluZycsICctaW1hZScsICc8aW5maWxlLm1hZT4nLCAnLW9tYWUnLCAnPG91dGZpbGUubWFlPic=

> <r_lp_tautomer_probability>
0.999

> <r_epik_Ionization_Penalty>
6.35835

> <r_epik_Ionization_Penalty_Charging>
5.49938

> <r_epik_Ionization_Penalty_Neutral>
0.858963

> <r_epik_State_Penalty>
5.49328

> <r_epik_Charging_Adjusted_Penalty>
10.9927

> <i_epik_Tot_Q>
0

> <i_epik_Tot_abs_Q>
2

> <r_epik_Metal_State_Penalty>
1.51523

> <b_epik_Metal_Only>
1

> <s_lp_Force_Field>
OPLS_2005

> <r_lp_Energy>
7.56536

> <b_lp_Chiralities_Consistent>
1

> <s_lp_Variant>
AV-unprocessed.smi:2062-7

> <Gold.Version>
5.8.1

> <Gold.Id.Protein>
6NUR|6NUR_protein|mol2

> <Gold.PLP.Fitness>
48.7637

> <Gold.PLP.PLP>
-40.5256

> <Gold.PLP.part.hbond>
-2.0000

> <Gold.PLP.part.metal>
0.0000

> <Gold.PLP.part.buried>
-6.7090

> <Gold.PLP.part.nonpolar>
-34.3332

> <Gold.PLP.part.repulsive>
0.3087

> <Gold.PLP.ligand.clash>
0.0000

> <Gold.PLP.ligand.torsion>
0.8056

> <Gold.PLP.Chemscore.Hbond>
3.2320

> <Gold.PLP.Chemscore.CHOScore>
0.0000

> <Gold.PLP.Chemscore.Metal>
0.0000

> <Gold.Chemscore.Hbonds>
donor molecule, donor type, donor heavy atom, donor atom, acceptor molecule, acceptor atom, score
      P1  H  6931  6943       L1    14  1.59
      P1  H  6934  6947       L1    14  1.63

> <Gold.PLP.Chemscore.Internal.Correction>
0.1534

> <Gold.Rescore>
     Score         DG    S(hbond)    S(metal)    S(lipo)     H(rot)  DE(clash)    DE(int)     intcor
     13.46     -15.75       0.92        0.00      99.12       1.72       0.07       2.22       ----

> <Gold.Chemscore.Fitness>
13.4634

> <Gold.Chemscore.DG>
-15.7497

> <Gold.Chemscore.ZeroCoef>
-5.4800

> <Gold.Chemscore.Hbond>
0.9204

> <Gold.Chemscore.Metal>
0.0000

> <Gold.Chemscore.Lipo>
99.1232

> <Gold.Chemscore.Internal_Hbond>
0.0000

> <Gold.Chemscore.DEClash>
0.0697

> <Gold.Chemscore.DEInternal>
2.2166

> <Gold.Chemscore.Rot>
1.7194

> <Gold.Chemscore.Internal.Correction>
   9.000000E+99

> <Gold.Chemscore.Hbonds>
donor molecule, donor type, donor heavy atom, donor atom, acceptor molecule, acceptor atom, score
      P1  H  6931  6943       L1    14  0.38
      P1  H  6934  6947       L1    14  0.26

> <Gold.Chemscore.Hbond.Weighted>
-3.0740

> <Gold.Chemscore.Metal.Weighted>
-0.0000

> <Gold.Chemscore.Lipo.Weighted>
-11.5974

> <Gold.Chemscore.Internal_Hbond.Weighted>
0.0000

> <Gold.Chemscore.DEClash.Weighted>
0.0697

> <Gold.Chemscore.DEInternal.Weighted>
2.2166

> <Gold.Chemscore.Rot.Weighted>
4.4017

> <Gold.Chemscore.Internal.Correction.Weighted>
   9.000000E+99

> <Gold.Protein.RotatedTorsions>
[ 6907 6896 6895 6894 ] final  133.75 input  -60.11 | X-H torsion
[ 7974 7965 7964 7962 ] final  -98.86 input  175.53 | X-H torsion
[ 8008 7997 7996 7995 ] final -157.76 input   59.86 | X-H torsion
[ 10167 10162 10161 10158 ] final   68.82 input  -65.29 | X-H torsion
[ 10718 10713 10712 10709 ] final -166.69 input   66.30 | X-H torsion
[ 10763 10752 10751 10750 ] final  154.40 input  -60.55 | X-H torsion
[ 11005 11000 10999 10996 ] final -157.00 input  -57.11 | X-H torsion

> <Gold.Protein.ActiveResidues>
 VAL166  LYS551  ARG553  GLY616  TRP617  ASP618  TYR619  PRO620  LYS621  CYS622 
 ASP623  PHE694  ASN695  SER759  ASP760  ASP761  ALA762  ILE779  LEU786  VAL792 
 PHE793  MET794  SER795  GLU796  ALA797  LYS798  CYS799  TRP800  GLU811  SER814 

> <Gold.Protein.RotatedAtoms>
  152.3187  133.5830  159.5729 H   0  0  0  0  0  0  0  0  0  0  0  0  # atno 6907 bound_to 6896
  150.7360  134.0044  159.3658 H   0  0  0  0  0  0  0  0  0  0  0  0  # atno 6908 bound_to 6896
  151.7930  135.0731  160.0441 H   0  0  0  0  0  0  0  0  0  0  0  0  # atno 6909 bound_to 6896
  145.3151  140.9409  143.2747 H   0  0  0  0  0  0  0  0  0  0  0  0  # atno 7974 bound_to 7965
  155.7373  140.0809  157.2262 H   0  0  0  0  0  0  0  0  0  0  0  0  # atno 8008 bound_to 7997
  154.4026  140.1584  156.2631 H   0  0  0  0  0  0  0  0  0  0  0  0  # atno 8009 bound_to 7997
  155.9053  140.3407  155.6060 H   0  0  0  0  0  0  0  0  0  0  0  0  # atno 8010 bound_to 7997
  140.0745  144.5124  150.7204 H   0  0  0  0  0  0  0  0  0  0  0  0  # atno 10167 bound_to 10162
  156.6715  130.9086  151.3044 H   0  0  0  0  0  0  0  0  0  0  0  0  # atno 10718 bound_to 10713
  154.1517  135.2815  155.3133 H   0  0  0  0  0  0  0  0  0  0  0  0  # atno 10763 bound_to 10752
  154.6212  135.5466  153.7581 H   0  0  0  0  0  0  0  0  0  0  0  0  # atno 10764 bound_to 10752
  153.0219  135.6439  154.1661 H   0  0  0  0  0  0  0  0  0  0  0  0  # atno 10765 bound_to 10752
  140.6694  134.4264  157.5232 H   0  0  0  0  0  0  0  0  0  0  0  0  # atno 11005 bound_to 11000
  144.8984  139.4681  143.6644 LP  0  0  0  0  0  0  0  0  0  0  0  0  # atno 17320 bound_to 7965
  146.3103  139.7724  142.9024 LP  0  0  0  0  0  0  0  0  0  0  0  0  # atno 17321 bound_to 7965
  140.7109  143.2504  151.4584 LP  0  0  0  0  0  0  0  0  0  0  0  0  # atno 17342 bound_to 10162
  139.5816  144.1696  152.1976 LP  0  0  0  0  0  0  0  0  0  0  0  0  # atno 17343 bound_to 10162
  157.7075  130.9402  150.0980 LP  0  0  0  0  0  0  0  0  0  0  0  0  # atno 17370 bound_to 10713
  156.1935  130.3656  149.8879 LP  0  0  0  0  0  0  0  0  0  0  0  0  # atno 17371 bound_to 10713
  139.8986  134.8609  156.1993 LP  0  0  0  0  0  0  0  0  0  0  0  0  # atno 17394 bound_to 11000
  141.0404  133.6941  156.1587 LP  0  0  0  0  0  0  0  0  0  0  0  0  # atno 17395 bound_to 11000

$$$$
