#       Name:                AV-unprocessed.smi:1680
#       Creating user name   scv26
#       Creation time:       Fri Mar 27 07:49:00 2020


#       File generated by GOLD software.
#

@<TRIPOS>MOLECULE
AV-unprocessed.smi:1680
    45    46     1
SMALL
NO_CHARGES


@<TRIPOS>ATOM
      1 ****        -3.9338   1.2558   2.5714 C.3            1 S1                 0.0000
      2 ****        -3.8717   0.7268   1.1370 C.2            1 S1                 0.0000
      3 ****        -4.9335   0.4739   0.5672 O.2            1 S1                 0.0000
      4 ****        -2.6651   0.5559   0.5468 N.am           1 S1                 0.0000
      5 ****        -2.4984   0.0048  -0.8006 C.3            1 S1                 0.0000
      6 ****        -1.7563  -1.3421  -0.7000 C.3            1 S1                 0.0000
      7 ****        -0.4509  -1.1554  -0.0603 N.3            1 S1                 0.0000
      8 ****         0.2515  -2.4377  -0.0073 C.3            1 S1                 0.0000
      9 ****         1.7518  -2.3012   0.3255 C.3            1 S1                 0.0000
     10 ****         2.4867  -1.6230  -0.7391 N.am           1 S1                 0.0000
     11 ****         2.8076  -0.3214  -0.7762 C.2            1 S1                 0.0000
     12 ****         2.4831   0.4220   0.1528 O.2            1 S1                 0.0000
     13 ****         3.4879   0.0392  -1.8884 N.pl3          1 S1                -1.0000
     14 ****         3.8613   1.3178  -2.0617 C.2            1 S1                 0.0000
     15 ****         3.1626   2.1725  -2.8262 N.2            1 S1                 0.0000
     16 ****         3.7210   3.4427  -2.8755 N.2            1 S1                 0.0000
     17 ****         4.8364   3.5115  -2.1491 C.2            1 S1                 0.0000
     18 ****         5.3086   2.0306  -1.3429 S.3            1 S1                 0.0000
     19 ****        -0.6245  -0.5770   1.2776 C.3            1 S1                 0.0000
     20 ****        -1.3595   0.7732   1.1776 C.3            1 S1                 0.0000
     21 ****        -3.4144   0.5831   3.2545 H              1 S1                 0.0000
     22 ****        -4.9683   1.3371   2.9068 H              1 S1                 0.0000
     23 ****        -3.4836   2.2466   2.6370 H              1 S1                 0.0000
     24 ****        -3.4481  -0.1402  -1.3169 H              1 S1                 0.0000
     25 ****        -1.9289   0.7067  -1.4117 H              1 S1                 0.0000
     26 ****        -2.3521  -2.0611  -0.1354 H              1 S1                 0.0000
     27 ****        -1.6171  -1.7534  -1.7004 H              1 S1                 0.0000
     28 ****        -0.2365  -3.0919   0.7167 H              1 S1                 0.0000
     29 ****         0.1660  -2.9334  -0.9755 H              1 S1                 0.0000
     30 ****         1.9200  -1.8294   1.2935 H              1 S1                 0.0000
     31 ****         2.1783  -3.3002   0.4150 H              1 S1                 0.0000
     32 ****         2.7722  -2.1888  -1.5246 H              1 S1                 0.0000
     33 ****         5.3869   4.4386  -2.0911 H              1 S1                 0.0000
     34 ****        -1.1814  -1.2644   1.9162 H              1 S1                 0.0000
     35 ****         0.3430  -0.4135   1.7494 H              1 S1                 0.0000
     36 ****        -0.7789   1.4717   0.5727 H              1 S1                 0.0000
     37 ****        -1.4221   1.2243   2.1665 H              1 S1                 0.0000
     38 ****        -5.8020   0.6157   1.0422 LP             1 S1                 0.0000
     39 ****        -4.9274   0.1267  -0.3706 LP             1 S1                 0.0000
     40 ****         0.1026  -0.5172  -0.5954 LP             1 S1                 0.0000
     41 ****         1.9801   0.0544   0.9350 LP             1 S1                 0.0000
     42 ****         2.7230   1.3923   0.1238 LP             1 S1                 0.0000
     43 ****         3.7128  -0.6459  -2.5814 LP             1 S1                 0.0000
     44 ****         2.3252   1.9198  -3.3108 LP             1 S1                 0.0000
     45 ****         3.3355   4.2084  -3.3904 LP             1 S1                 0.0000
@<TRIPOS>BOND
    1    1    2 1     
    2    1   21 1     
    3    1   22 1     
    4    1   23 1     
    5    2    3 2     
    6    2    4 am    
    7    4   20 1     
    8    4    5 1     
    9    5    6 1     
   10    5   24 1     
   11    5   25 1     
   12    6    7 1     
   13    6   26 1     
   14    6   27 1     
   15    7    8 1     
   16    7   19 1     
   17    8    9 1     
   18    8   28 1     
   19    8   29 1     
   20    9   10 1     
   21    9   30 1     
   22    9   31 1     
   23   10   11 am    
   24   10   32 1     
   25   11   12 2     
   26   11   13 1     
   27   13   14 1     
   28   14   18 1     
   29   14   15 2     
   30   15   16 1     
   31   16   17 2     
   32   17   18 1     
   33   17   33 1     
   34   19   20 1     
   35   19   34 1     
   36   19   35 1     
   37   20   36 1     
   38   20   37 1     
   39    3   38 1     
   40    3   39 1     
   41    7   40 1     
   42   12   41 1     
   43   12   42 1     
   44   13   43 1     
   45   15   44 1     
   46   16   45 1     
@<TRIPOS>SUBSTRUCTURE
      1 S1             1
@<TRIPOS>SET
LONE_PAIRS      STATIC     ATOMS    <user>   **** ""
8 38 39 40 41 42 43 44 45
DONOR_HYDROGENS      STATIC     ATOMS    <user>   **** ""
1 32
ATOM$BLUE        STATIC     ATOMS    COLORGROUP SYSTEM
8 38 39 40 41 42 43 44 45
ATOM$RED        STATIC     ATOMS    COLORGROUP SYSTEM
1 32
