AV-unprocessed.smi:2124|AV-procd|sdf|8672|dock10
  -GOLD-   2272011423D 1   1.00000     0.00000
 Structure written by MMmdl.
 46 48  0  0  0  0  0  0  0  0  2 V2000
  148.5767  140.8710  153.6721 C   0  0  0  0  0  0  0  0  0  0  0  0
  149.4761  140.2524  154.7207 C   0  0  0  0  0  0  0  0  0  0  0  0
  148.9505  139.7590  155.7761 N   0  0  0  0  0  0  0  0  0  0  0  0
  149.7749  139.1695  156.7490 C   0  0  0  0  0  0  0  0  0  0  0  0
  149.0613  138.5875  157.9567 C   0  0  0  0  0  0  0  0  0  0  0  0
  151.1288  139.1179  156.5901 C   0  0  0  0  0  0  0  0  0  0  0  0
  152.0643  138.4454  157.5969 C   0  0  0  0  0  0  0  0  0  0  0  0
  152.9288  139.4156  158.4029 C   0  0  0  0  0  0  0  0  0  0  0  0
  154.1306  139.1980  158.5560 O   0  0  0  0  0  0  0  0  0  0  0  0
  152.3030  140.5049  158.8726 N   0  0  0  0  0  0  0  0  0  0  0  0
  152.9481  141.6951  159.4143 C   0  0  2  0  0  0  0  0  0  0  0  0
  153.7999  141.3143  160.6352 C   0  0  0  0  0  0  0  0  0  0  0  0
  151.8641  142.7449  159.7565 C   0  0  1  0  0  0  0  0  0  0  0  0
  152.3983  144.0388  160.4098 C   0  0  0  0  0  0  0  0  0  0  0  0
  151.7500  145.1485  159.5596 C   0  0  1  0  0  0  0  0  0  0  0  0
  152.4470  145.2064  158.1876 C   0  0  0  0  0  0  0  0  0  0  0  0
  151.9290  143.9350  157.4908 C   0  0  0  0  0  0  0  0  0  0  0  0
  151.0308  143.2978  158.5704 C   0  0  2  0  0  0  0  0  0  0  0  0
  150.4014  144.5349  159.2010 C   0  0  0  0  0  0  0  0  0  0  0  0
  151.6951  139.7002  155.3600 C   0  0  0  0  0  0  0  0  0  0  0  0
  152.9085  139.6676  155.1595 O   0  0  0  0  0  0  0  0  0  0  0  0
  150.8288  140.2526  154.4641 N   0  5  0  0  0  0  0  0  0  0  0  0
  147.6709  141.2729  154.1274 H   0  0  0  0  0  0  0  0  0  0  0  0
  148.2892  140.1201  152.9362 H   0  0  0  0  0  0  0  0  0  0  0  0
  149.0850  141.6856  153.1546 H   0  0  0  0  0  0  0  0  0  0  0  0
  149.2617  137.5197  158.0444 H   0  0  0  0  0  0  0  0  0  0  0  0
  147.9813  138.7178  157.8779 H   0  0  0  0  0  0  0  0  0  0  0  0
  149.3919  139.0803  158.8710 H   0  0  0  0  0  0  0  0  0  0  0  0
  151.5085  137.8139  158.2906 H   0  0  0  0  0  0  0  0  0  0  0  0
  152.7201  137.7595  157.0601 H   0  0  0  0  0  0  0  0  0  0  0  0
  151.3078  140.5708  158.7104 H   0  0  0  0  0  0  0  0  0  0  0  0
  153.6135  142.1182  158.6601 H   0  0  0  0  0  0  0  0  0  0  0  0
  154.3083  142.1853  161.0491 H   0  0  0  0  0  0  0  0  0  0  0  0
  154.5655  140.5856  160.3671 H   0  0  0  0  0  0  0  0  0  0  0  0
  153.1886  140.8787  161.4263 H   0  0  0  0  0  0  0  0  0  0  0  0
  151.1602  142.2797  160.4495 H   0  0  0  0  0  0  0  0  0  0  0  0
  152.0744  144.1020  161.4493 H   0  0  0  0  0  0  0  0  0  0  0  0
  153.4868  144.1062  160.3989 H   0  0  0  0  0  0  0  0  0  0  0  0
  151.6997  146.1136  160.0647 H   0  0  0  0  0  0  0  0  0  0  0  0
  152.1456  146.0959  157.6333 H   0  0  0  0  0  0  0  0  0  0  0  0
  153.5340  145.2186  158.2755 H   0  0  0  0  0  0  0  0  0  0  0  0
  151.3378  144.1964  156.6122 H   0  0  0  0  0  0  0  0  0  0  0  0
  152.7319  143.2804  157.1544 H   0  0  0  0  0  0  0  0  0  0  0  0
  150.3104  142.5837  158.1696 H   0  0  0  0  0  0  0  0  0  0  0  0
  149.7807  144.3119  160.0706 H   0  0  0  0  0  0  0  0  0  0  0  0
  149.8247  145.1353  158.4949 H   0  0  0  0  0  0  0  0  0  0  0  0
  1  2  1  0  0  0  0
  1 23  1  0  0  0  0
  1 24  1  0  0  0  0
  1 25  1  0  0  0  0
  2 22  1  0  0  0  0
  2  3  2  0  0  0  0
  3  4  1  0  0  0  0
  4  5  1  0  0  0  0
  4  6  2  0  0  0  0
  5 26  1  0  0  0  0
  5 27  1  0  0  0  0
  5 28  1  0  0  0  0
  6  7  1  0  0  0  0
  6 20  1  0  0  0  0
  7  8  1  0  0  0  0
  7 29  1  0  0  0  0
  7 30  1  0  0  0  0
  8  9  2  0  0  0  0
  8 10  1  0  0  0  0
 10 11  1  0  0  0  0
 10 31  1  0  0  0  0
 11 12  1  0  0  0  0
 11 13  1  0  0  0  0
 11 32  1  0  0  0  0
 12 33  1  0  0  0  0
 12 34  1  0  0  0  0
 12 35  1  0  0  0  0
 13 18  1  0  0  0  0
 13 14  1  0  0  0  0
 13 36  1  0  0  0  0
 14 15  1  0  0  0  0
 14 37  1  0  0  0  0
 14 38  1  0  0  0  0
 15 19  1  0  0  0  0
 15 16  1  0  0  0  0
 15 39  1  0  0  0  0
 16 17  1  0  0  0  0
 16 40  1  0  0  0  0
 16 41  1  0  0  0  0
 17 18  1  0  0  0  0
 17 42  1  0  0  0  0
 17 43  1  0  0  0  0
 18 19  1  0  0  0  0
 18 44  1  0  0  0  0
 19 45  1  0  0  0  0
 19 46  1  0  0  0  0
 20 21  2  0  0  0  0
 20 22  1  0  0  0  0
M  CHG  1  22  -1
M  END
> <s_m_source_file>
AV-unprocessed.smi

> <i_m_source_file_index>
2124

> <i_lp_mmshare_version>
43012

> <i_f3d_flags>
0

> <s_epik_input>
W0NIM11jMW5jKFtDSDNdKWMoYyg9TylbbkhdMSlbQ0gyXUMoPU8pW05IXVtDQEhdKFtDSDNdKVtDQEhdKFtDSDJdW0NASF0yMylbQ0BIXShbQ0gyXTMpW0NIMl1bQ0gyXTI=

> <s_epik_cmdline>
J2VwaWtfcHl0aG9uJywgJy1waCcsICc3LjAnLCAnLXRuJywgJzgnLCAnLW1hJywgJzIwMCcsICctbWV0YWxfYmluZGluZycsICctaW1hZScsICc8aW5maWxlLm1hZT4nLCAnLW9tYWUnLCAnPG91dGZpbGUubWFlPic=

> <r_lp_tautomer_probability>
0.839158

> <r_epik_Ionization_Penalty>
6.63797

> <r_epik_Ionization_Penalty_Charging>
7.48558e-08

> <r_epik_Ionization_Penalty_Neutral>
6.63797

> <r_epik_State_Penalty>
4.49496

> <r_epik_Charging_Adjusted_Penalty>
4.49496

> <i_epik_Tot_Q>
-1

> <i_epik_Tot_abs_Q>
1

> <r_epik_Metal_State_Penalty>
0.841241

> <b_epik_Metal_Only>
1

> <s_lp_Force_Field>
OPLS_2005

> <r_lp_Energy>
53.1649

> <b_lp_Chiralities_Consistent>
1

> <s_lp_Variant>
AV-unprocessed.smi:2124-23

> <Gold.Version>
5.8.1

> <Gold.Id.Protein>
6NUR|6NUR_protein|mol2

> <Gold.PLP.Fitness>
54.4631

> <Gold.PLP.PLP>
-46.1406

> <Gold.PLP.part.hbond>
-3.7840

> <Gold.PLP.part.metal>
0.0000

> <Gold.PLP.part.buried>
-4.9206

> <Gold.PLP.part.nonpolar>
-35.8793

> <Gold.PLP.part.repulsive>
0.2217

> <Gold.PLP.ligand.clash>
0.0000

> <Gold.PLP.ligand.torsion>
0.3487

> <Gold.PLP.Chemscore.Hbond>
3.0000

> <Gold.PLP.Chemscore.CHOScore>
0.0000

> <Gold.PLP.Chemscore.Metal>
0.0000

> <Gold.Chemscore.Hbonds>
donor molecule, donor type, donor heavy atom, donor atom, acceptor molecule, acceptor atom, score
      P1  H  7989  7998       L1    22  0.67
      P1  H  7997  8008       L1     9  0.99
      P1  H  7997  8009       L1    21  1.00

> <Gold.PLP.Chemscore.Internal.Correction>
0.0200

> <Gold.Rescore>
     Score         DG    S(hbond)    S(metal)    S(lipo)     H(rot)  DE(clash)    DE(int)     intcor
     21.56     -23.85       2.71        0.00     114.77       1.61       0.65       1.65       ----

> <Gold.Chemscore.Fitness>
21.5561

> <Gold.Chemscore.DG>
-23.8477

> <Gold.Chemscore.ZeroCoef>
-5.4800

> <Gold.Chemscore.Hbond>
2.7091

> <Gold.Chemscore.Metal>
0.0000

> <Gold.Chemscore.Lipo>
114.7704

> <Gold.Chemscore.Internal_Hbond>
0.0000

> <Gold.Chemscore.DEClash>
0.6452

> <Gold.Chemscore.DEInternal>
1.6463

> <Gold.Chemscore.Rot>
1.6051

> <Gold.Chemscore.Internal.Correction>
   9.000000E+99

> <Gold.Chemscore.Hbonds>
donor molecule, donor type, donor heavy atom, donor atom, acceptor molecule, acceptor atom, score
      P1  H  7989  7998       L1    22  0.37
      P1  H  7997  8008       L1     9  0.83
      P1  H  7997  8009       L1    21  1.00

> <Gold.Chemscore.Hbond.Weighted>
-9.0485

> <Gold.Chemscore.Metal.Weighted>
-0.0000

> <Gold.Chemscore.Lipo.Weighted>
-13.4281

> <Gold.Chemscore.Internal_Hbond.Weighted>
0.0000

> <Gold.Chemscore.DEClash.Weighted>
0.6452

> <Gold.Chemscore.DEInternal.Weighted>
1.6463

> <Gold.Chemscore.Rot.Weighted>
4.1090

> <Gold.Chemscore.Internal.Correction.Weighted>
   9.000000E+99

> <Gold.Protein.RotatedTorsions>
[ 6907 6896 6895 6894 ] final  -22.33 input  -60.11 | X-H torsion
[ 7974 7965 7964 7962 ] final   68.34 input  175.53 | X-H torsion
[ 8008 7997 7996 7995 ] final -126.13 input   59.86 | X-H torsion
[ 10167 10162 10161 10158 ] final -104.82 input  -65.29 | X-H torsion
[ 10718 10713 10712 10709 ] final  105.32 input   66.30 | X-H torsion
[ 10763 10752 10751 10750 ] final    5.32 input  -60.55 | X-H torsion
[ 11005 11000 10999 10996 ] final   22.64 input  -57.11 | X-H torsion

> <Gold.Protein.ActiveResidues>
 VAL166  LYS551  ARG553  GLY616  TRP617  ASP618  TYR619  PRO620  LYS621  CYS622 
 ASP623  PHE694  ASN695  SER759  ASP760  ASP761  ALA762  ILE779  LEU786  VAL792 
 PHE793  MET794  SER795  GLU796  ALA797  LYS798  CYS799  TRP800  GLU811  SER814 

> <Gold.Protein.RotatedAtoms>
  151.2202  135.0515  159.8946 H   0  0  0  0  0  0  0  0  0  0  0  0  # atno 6907 bound_to 6896
  152.5416  134.0648  159.8178 H   0  0  0  0  0  0  0  0  0  0  0  0  # atno 6908 bound_to 6896
  151.0814  133.5339  159.2652 H   0  0  0  0  0  0  0  0  0  0  0  0  # atno 6909 bound_to 6896
  145.8038  139.2996  143.1139 H   0  0  0  0  0  0  0  0  0  0  0  0  # atno 7974 bound_to 7965
  155.2247  140.0423  157.2953 H   0  0  0  0  0  0  0  0  0  0  0  0  # atno 8008 bound_to 7997
  154.5927  140.2431  155.7870 H   0  0  0  0  0  0  0  0  0  0  0  0  # atno 8009 bound_to 7997
  156.2269  140.2951  156.0099 H   0  0  0  0  0  0  0  0  0  0  0  0  # atno 8010 bound_to 7997
  140.2052  143.3788  152.1097 H   0  0  0  0  0  0  0  0  0  0  0  0  # atno 10167 bound_to 10162
  157.6709  131.0825  150.5839 H   0  0  0  0  0  0  0  0  0  0  0  0  # atno 10718 bound_to 10713
  153.2608  135.6923  153.7581 H   0  0  0  0  0  0  0  0  0  0  0  0  # atno 10763 bound_to 10752
  153.6641  135.3355  155.3136 H   0  0  0  0  0  0  0  0  0  0  0  0  # atno 10764 bound_to 10752
  154.8429  135.4484  154.1597 H   0  0  0  0  0  0  0  0  0  0  0  0  # atno 10765 bound_to 10752
  140.3784  134.1947  155.7664 H   0  0  0  0  0  0  0  0  0  0  0  0  # atno 11005 bound_to 11000
  145.9850  140.8651  143.0095 LP  0  0  0  0  0  0  0  0  0  0  0  0  # atno 17320 bound_to 7965
  144.6765  140.2134  143.7374 LP  0  0  0  0  0  0  0  0  0  0  0  0  # atno 17321 bound_to 7965
  139.5201  144.7029  151.5441 LP  0  0  0  0  0  0  0  0  0  0  0  0  # atno 17342 bound_to 10162
  140.6363  143.8978  150.6650 LP  0  0  0  0  0  0  0  0  0  0  0  0  # atno 17343 bound_to 10162
  156.6139  130.4387  149.5848 LP  0  0  0  0  0  0  0  0  0  0  0  0  # atno 17370 bound_to 10713
  156.2408  130.6850  151.1554 LP  0  0  0  0  0  0  0  0  0  0  0  0  # atno 17371 bound_to 10713
  141.1932  133.8157  157.0810 LP  0  0  0  0  0  0  0  0  0  0  0  0  # atno 17394 bound_to 11000
  140.0498  134.9811  157.1115 LP  0  0  0  0  0  0  0  0  0  0  0  0  # atno 17395 bound_to 11000

$$$$
