AV-unprocessed.smi:258|AV-procd|sdf|1965|dock1
  -GOLD-   2262021113D 1   1.00000     0.00000
 Structure written by MMmdl.
 57 60  0  0  0  0  0  0  0  0  1 V2000
  150.0403  144.6291  158.4437 O   0  0  0  0  0  0  0  0  0  0  0  0
  151.3976  144.9340  158.6851 C   0  0  0  0  0  0  0  0  0  0  0  0
  152.1881  143.6487  158.9580 C   0  0  0  0  0  0  0  0  0  0  0  0
  151.3963  142.7773  159.7527 O   0  0  0  0  0  0  0  0  0  0  0  0
  151.9000  141.4517  159.8543 C   0  0  2  0  0  0  0  0  0  0  0  0
  153.3731  141.4484  160.3134 C   0  0  0  0  0  0  0  0  0  0  0  0
  153.9460  140.0230  160.2608 C   0  0  0  0  0  0  0  0  0  0  0  0
  153.7637  139.4102  158.8631 C   0  0  0  0  0  0  0  0  0  0  0  0
  152.3627  139.4674  158.4565 N   0  0  0  0  0  0  0  0  0  0  0  0
  152.0989  138.7715  157.3315 C   0  0  0  0  0  0  0  0  0  0  0  0
  152.6866  139.1985  156.1872 N   0  0  0  0  0  0  0  0  0  0  0  0
  152.4648  138.5483  155.0405 C   0  0  0  0  0  0  0  0  0  0  0  0
  151.7055  137.4717  154.8236 N   0  0  0  0  0  0  0  0  0  0  0  0
  151.1131  137.0430  155.9750 C   0  0  0  0  0  0  0  0  0  0  0  0
  151.2530  137.6288  157.2641 C   0  0  0  0  0  0  0  0  0  0  0  0
  150.5007  136.9188  158.1924 N   0  0  0  0  0  0  0  0  0  0  0  0
  149.9471  135.9668  157.4916 C   0  0  0  0  0  0  0  0  0  0  0  0
  150.2586  135.9700  156.1503 N   0  0  0  0  0  0  0  0  0  0  0  0
  149.7905  135.0339  155.1435 C   0  0  0  0  0  0  0  0  0  0  0  0
  149.5482  133.6078  155.6976 C   0  0  2  0  0  0  0  0  0  0  0  0
  150.7498  133.0706  156.5126 C   0  0  0  0  0  0  0  0  0  0  0  0
  150.3406  132.5721  157.7698 O   0  0  0  0  0  0  0  0  0  0  0  0
  149.1105  132.6292  154.5786 C   0  0  2  0  0  0  0  0  0  0  0  0
  148.2956  133.2616  153.4639 C   0  0  0  0  0  0  0  0  0  0  0  0
  147.6384  132.0487  152.8139 C   0  0  0  0  0  0  0  0  0  0  0  0
  147.4537  131.1017  153.8604 O   0  0  0  0  0  0  0  0  0  0  0  0
  148.1477  131.5260  155.0294 C   0  0  0  0  0  0  0  0  0  0  0  0
  151.7774  140.8055  158.4630 C   0  0  0  0  0  0  0  0  0  0  0  0
  149.8612  144.7616  157.5253 H   0  0  0  0  0  0  0  0  0  0  0  0
  151.7885  145.4248  157.7935 H   0  0  0  0  0  0  0  0  0  0  0  0
  151.4900  145.6410  159.5101 H   0  0  0  0  0  0  0  0  0  0  0  0
  152.5058  143.1831  158.0247 H   0  0  0  0  0  0  0  0  0  0  0  0
  153.0906  143.9013  159.5163 H   0  0  0  0  0  0  0  0  0  0  0  0
  151.2934  140.8737  160.5541 H   0  0  0  0  0  0  0  0  0  0  0  0
  153.9606  142.1019  159.6672 H   0  0  0  0  0  0  0  0  0  0  0  0
  153.4693  141.8409  161.3251 H   0  0  0  0  0  0  0  0  0  0  0  0
  155.0023  140.0319  160.5305 H   0  0  0  0  0  0  0  0  0  0  0  0
  153.4411  139.4001  161.0003 H   0  0  0  0  0  0  0  0  0  0  0  0
  154.3776  139.9516  158.1422 H   0  0  0  0  0  0  0  0  0  0  0  0
  154.1073  138.3747  158.8639 H   0  0  0  0  0  0  0  0  0  0  0  0
  152.9668  138.9484  154.1720 H   0  0  0  0  0  0  0  0  0  0  0  0
  149.2872  135.2351  157.9349 H   0  0  0  0  0  0  0  0  0  0  0  0
  148.8733  135.4414  154.7179 H   0  0  0  0  0  0  0  0  0  0  0  0
  150.5197  135.0057  154.3329 H   0  0  0  0  0  0  0  0  0  0  0  0
  148.7159  133.6807  156.3992 H   0  0  0  0  0  0  0  0  0  0  0  0
  151.2643  132.2758  155.9725 H   0  0  0  0  0  0  0  0  0  0  0  0
  151.4931  133.8517  156.6711 H   0  0  0  0  0  0  0  0  0  0  0  0
  149.3970  132.6024  157.8121 H   0  0  0  0  0  0  0  0  0  0  0  0
  149.9911  132.1615  154.1353 H   0  0  0  0  0  0  0  0  0  0  0  0
  147.5321  133.9228  153.8765 H   0  0  0  0  0  0  0  0  0  0  0  0
  148.8986  133.8346  152.7590 H   0  0  0  0  0  0  0  0  0  0  0  0
  146.6947  132.2973  152.3280 H   0  0  0  0  0  0  0  0  0  0  0  0
  148.3008  131.6129  152.0649 H   0  0  0  0  0  0  0  0  0  0  0  0
  148.6623  130.6895  155.5030 H   0  0  0  0  0  0  0  0  0  0  0  0
  147.4157  131.9162  155.7380 H   0  0  0  0  0  0  0  0  0  0  0  0
  150.7275  140.7507  158.1717 H   0  0  0  0  0  0  0  0  0  0  0  0
  152.2823  141.4274  157.7226 H   0  0  0  0  0  0  0  0  0  0  0  0
  1  2  1  0  0  0  0
  1 29  1  0  0  0  0
  2  3  1  0  0  0  0
  2 30  1  0  0  0  0
  2 31  1  0  0  0  0
  3  4  1  0  0  0  0
  3 32  1  0  0  0  0
  3 33  1  0  0  0  0
  4  5  1  0  0  0  0
  5 28  1  0  0  0  0
  5  6  1  0  0  0  0
  5 34  1  0  0  0  0
  6  7  1  0  0  0  0
  6 35  1  0  0  0  0
  6 36  1  0  0  0  0
  7  8  1  0  0  0  0
  7 37  1  0  0  0  0
  7 38  1  0  0  0  0
  8  9  1  0  0  0  0
  8 39  1  0  0  0  0
  8 40  1  0  0  0  0
  9 10  1  0  0  0  0
  9 28  1  0  0  0  0
 10 15  1  0  0  0  0
 10 11  2  0  0  0  0
 11 12  1  0  0  0  0
 12 13  2  0  0  0  0
 12 41  1  0  0  0  0
 13 14  1  0  0  0  0
 14 18  1  0  0  0  0
 14 15  2  0  0  0  0
 15 16  1  0  0  0  0
 16 17  2  0  0  0  0
 17 18  1  0  0  0  0
 17 42  1  0  0  0  0
 18 19  1  0  0  0  0
 19 20  1  0  0  0  0
 19 43  1  0  0  0  0
 19 44  1  0  0  0  0
 20 21  1  0  0  0  0
 20 23  1  0  0  0  0
 20 45  1  0  0  0  0
 21 22  1  0  0  0  0
 21 46  1  0  0  0  0
 21 47  1  0  0  0  0
 22 48  1  0  0  0  0
 23 27  1  0  0  0  0
 23 24  1  0  0  0  0
 23 49  1  0  0  0  0
 24 25  1  0  0  0  0
 24 50  1  0  0  0  0
 24 51  1  0  0  0  0
 25 26  1  0  0  0  0
 25 52  1  0  0  0  0
 25 53  1  0  0  0  0
 26 27  1  0  0  0  0
 27 54  1  0  0  0  0
 27 55  1  0  0  0  0
 28 56  1  0  0  0  0
 28 57  1  0  0  0  0
M  END
> <s_m_source_file>
AV-unprocessed.smi

> <i_m_source_file_index>
258

> <i_lp_mmshare_version>
43012

> <i_f3d_flags>
0

> <s_epik_input>
W09IXVtDSDJdW0NIMl1PW0NAQEhdMVtDSDJdW0NIMl1bQ0gyXU4oW0NIMl0xKWMobltjSF1uMiljKGMyMyluW2NIXW4zW0NIMl1bQ0BIXShbQ0gyXVtPSF0pW0NAQEhdNFtDSDJdW0NIMl1PW0NIMl00

> <s_epik_cmdline>
J2VwaWtfcHl0aG9uJywgJy1waCcsICc3LjAnLCAnLXRuJywgJzgnLCAnLW1hJywgJzIwMCcsICctbWV0YWxfYmluZGluZycsICctaW1hZScsICc8aW5maWxlLm1hZT4nLCAnLW9tYWUnLCAnPG91dGZpbGUubWFlPic=

> <r_lp_tautomer_probability>
1

> <r_epik_Ionization_Penalty>
0.00349036

> <r_epik_Ionization_Penalty_Charging>
0

> <r_epik_Ionization_Penalty_Neutral>
0.00349036

> <r_epik_State_Penalty>
0.00229798

> <r_epik_Charging_Adjusted_Penalty>
0.00229798

> <i_epik_Tot_Q>
0

> <i_epik_Tot_abs_Q>
0

> <r_epik_Metal_State_Penalty>
-0

> <b_epik_Metal_Only>
0

> <s_lp_Force_Field>
OPLS_2005

> <r_lp_Energy>
47.3811

> <b_lp_Chiralities_Consistent>
1

> <s_lp_Variant>
AV-unprocessed.smi:258-1

> <Gold.Version>
5.8.1

> <Gold.Id.Protein>
6NUR|6NUR_protein|mol2

> <Gold.PLP.Fitness>
53.4071

> <Gold.PLP.PLP>
-45.4796

> <Gold.PLP.part.hbond>
-5.0000

> <Gold.PLP.part.metal>
0.0000

> <Gold.PLP.part.buried>
-3.1081

> <Gold.PLP.part.nonpolar>
-38.2344

> <Gold.PLP.part.repulsive>
0.1780

> <Gold.PLP.ligand.clash>
0.0000

> <Gold.PLP.ligand.torsion>
1.9258

> <Gold.PLP.Chemscore.Hbond>
3.6868

> <Gold.PLP.Chemscore.CHOScore>
0.0000

> <Gold.PLP.Chemscore.Metal>
0.0000

> <Gold.Chemscore.Hbonds>
donor molecule, donor type, donor heavy atom, donor atom, acceptor molecule, acceptor atom, score
      L1  H     1    29       P1  8028  0.56
      P1  H  6896  6908       L1    22  0.99
      P1  H  7997  8008       L1    11  1.00
      P1  H 10752 10763       L1    13  0.44

> <Gold.PLP.Chemscore.Internal.Correction>
0.7186

> <Gold.Rescore>
     Score         DG    S(hbond)    S(metal)    S(lipo)     H(rot)  DE(clash)    DE(int)     intcor
     13.49     -15.64       2.68        0.00     102.84       4.22       0.21       1.93       ----

> <Gold.Chemscore.Fitness>
13.4896

> <Gold.Chemscore.DG>
-15.6374

> <Gold.Chemscore.ZeroCoef>
-5.4800

> <Gold.Chemscore.Hbond>
2.6765

> <Gold.Chemscore.Metal>
0.0000

> <Gold.Chemscore.Lipo>
102.8430

> <Gold.Chemscore.Internal_Hbond>
0.0000

> <Gold.Chemscore.DEClash>
0.2144

> <Gold.Chemscore.DEInternal>
1.9334

> <Gold.Chemscore.Rot>
4.2246

> <Gold.Chemscore.Internal.Correction>
   9.000000E+99

> <Gold.Chemscore.Hbonds>
donor molecule, donor type, donor heavy atom, donor atom, acceptor molecule, acceptor atom, score
      L1  H     1    29       P1  8028  0.04
      P1  H  6896  6908       L1    22  0.28
      P1  H  7997  8008       L1    11  0.85
      P1  H 10752 10763       L1    13  0.08

> <Gold.Chemscore.Hbond.Weighted>
-8.9396

> <Gold.Chemscore.Metal.Weighted>
-0.0000

> <Gold.Chemscore.Lipo.Weighted>
-12.0326

> <Gold.Chemscore.Internal_Hbond.Weighted>
0.0000

> <Gold.Chemscore.DEClash.Weighted>
0.2144

> <Gold.Chemscore.DEInternal.Weighted>
1.9334

> <Gold.Chemscore.Rot.Weighted>
10.8149

> <Gold.Chemscore.Internal.Correction.Weighted>
   9.000000E+99

> <Gold.Protein.RotatedTorsions>
[ 6907 6896 6895 6894 ] final  117.56 input  -60.11 | X-H torsion
[ 7974 7965 7964 7962 ] final  -59.91 input  175.53 | X-H torsion
[ 8008 7997 7996 7995 ] final  -49.70 input   59.86 | X-H torsion
[ 10167 10162 10161 10158 ] final   11.24 input  -65.29 | X-H torsion
[ 10718 10713 10712 10709 ] final   86.20 input   66.30 | X-H torsion
[ 10763 10752 10751 10750 ] final   47.49 input  -60.55 | X-H torsion
[ 11005 11000 10999 10996 ] final   24.01 input  -57.11 | X-H torsion

> <Gold.Protein.ActiveResidues>
 VAL166  LYS551  ARG553  GLY616  TRP617  ASP618  TYR619  PRO620  LYS621  CYS622 
 ASP623  PHE694  ASN695  SER759  ASP760  ASP761  ALA762  ILE779  LEU786  VAL792 
 PHE793  MET794  SER795  GLU796  ALA797  LYS798  CYS799  TRP800  GLU811  SER814 

> <Gold.Protein.RotatedAtoms>
  152.4603  133.7809  159.6849 H   0  0  0  0  0  0  0  0  0  0  0  0  # atno 6907 bound_to 6896
  150.8545  133.7727  159.3020 H   0  0  0  0  0  0  0  0  0  0  0  0  # atno 6908 bound_to 6896
  151.5312  135.1071  159.9955 H   0  0  0  0  0  0  0  0  0  0  0  0  # atno 6909 bound_to 6896
  145.8218  140.8535  143.0128 H   0  0  0  0  0  0  0  0  0  0  0  0  # atno 7974 bound_to 7965
  154.4048  140.1290  156.4546 H   0  0  0  0  0  0  0  0  0  0  0  0  # atno 8008 bound_to 7997
  155.7333  140.3491  155.5049 H   0  0  0  0  0  0  0  0  0  0  0  0  # atno 8009 bound_to 7997
  155.9107  140.1035  157.1271 H   0  0  0  0  0  0  0  0  0  0  0  0  # atno 8010 bound_to 7997
  140.6144  143.8339  150.7101 H   0  0  0  0  0  0  0  0  0  0  0  0  # atno 10167 bound_to 10162
  157.6925  131.0206  150.2937 H   0  0  0  0  0  0  0  0  0  0  0  0  # atno 10718 bound_to 10713
  152.9799  135.5974  154.3771 H   0  0  0  0  0  0  0  0  0  0  0  0  # atno 10763 bound_to 10752
  154.3439  135.2767  155.2410 H   0  0  0  0  0  0  0  0  0  0  0  0  # atno 10764 bound_to 10752
  154.4479  135.5997  153.6227 H   0  0  0  0  0  0  0  0  0  0  0  0  # atno 10765 bound_to 10752
  140.3634  134.2101  155.7671 H   0  0  0  0  0  0  0  0  0  0  0  0  # atno 11005 bound_to 11000
  144.6747  140.0545  143.7478 LP  0  0  0  0  0  0  0  0  0  0  0  0  # atno 17320 bound_to 7965
  145.9666  139.2839  143.1124 LP  0  0  0  0  0  0  0  0  0  0  0  0  # atno 17321 bound_to 7965
  140.1915  143.4032  152.1859 LP  0  0  0  0  0  0  0  0  0  0  0  0  # atno 17342 bound_to 10162
  139.5387  144.7235  151.4807 LP  0  0  0  0  0  0  0  0  0  0  0  0  # atno 17343 bound_to 10162
  156.3464  130.3824  149.7365 LP  0  0  0  0  0  0  0  0  0  0  0  0  # atno 17370 bound_to 10713
  156.4857  130.8062  151.3074 LP  0  0  0  0  0  0  0  0  0  0  0  0  # atno 17371 bound_to 10713
  141.1977  133.8053  157.0615 LP  0  0  0  0  0  0  0  0  0  0  0  0  # atno 17394 bound_to 11000
  140.0609  134.9755  157.1302 LP  0  0  0  0  0  0  0  0  0  0  0  0  # atno 17395 bound_to 11000

$$$$
