AV-unprocessed.smi:35|AV-procd|sdf|268|dock9
  -GOLD-   2262016 33D 1   1.00000     0.00000
 Structure written by MMmdl.
 28 29  0  0  0  0  0  0  0  0  2 V2000
  153.1767  142.8151  159.7732 O   0  0  0  0  0  0  0  0  0  0  0  0
  152.3675  142.1963  159.0843 C   0  0  0  0  0  0  0  0  0  0  0  0
  152.3200  140.8331  159.0421 N   0  5  0  0  0  0  0  0  0  0  0  0
  151.4177  140.1500  158.2775 C   0  0  0  0  0  0  0  0  0  0  0  0
  151.3881  138.9214  158.2077 O   0  0  0  0  0  0  0  0  0  0  0  0
  150.4744  140.8849  157.5089 N   0  0  0  0  0  0  0  0  0  0  0  0
  149.4682  140.1464  156.6527 C   0  0  1  0  0  0  0  0  0  0  0  0
  148.5375  141.0625  156.1668 O   0  0  0  0  0  0  0  0  0  0  0  0
  148.0776  140.6127  154.9020 C   0  0  1  0  0  0  0  0  0  0  0  0
  147.4528  141.7811  154.1239 C   0  0  0  0  0  0  0  0  0  0  0  0
  148.3775  142.8420  154.0105 O   0  0  0  0  0  0  0  0  0  0  0  0
  149.3572  140.0659  154.2608 C   0  0  2  0  0  0  0  0  0  0  0  0
  149.0445  139.0897  153.2873 O   0  0  0  0  0  0  0  0  0  0  0  0
  150.1013  139.4362  155.4343 C   0  0  1  0  0  0  0  0  0  0  0  0
  151.4975  139.6322  155.2964 O   0  0  0  0  0  0  0  0  0  0  0  0
  150.5105  142.2687  157.5151 C   0  0  0  0  0  0  0  0  0  0  0  0
  151.4102  142.9362  158.2654 C   0  0  0  0  0  0  0  0  0  0  0  0
  151.3516  144.9149  158.1752 Br  0  0  0  0  0  0  0  0  0  0  0  0
  148.9374  139.4592  157.3137 H   0  0  0  0  0  0  0  0  0  0  0  0
  147.3594  139.8030  155.0499 H   0  0  0  0  0  0  0  0  0  0  0  0
  147.1128  141.4642  153.1374 H   0  0  0  0  0  0  0  0  0  0  0  0
  146.5828  142.1636  154.6583 H   0  0  0  0  0  0  0  0  0  0  0  0
  148.8471  142.9203  154.8267 H   0  0  0  0  0  0  0  0  0  0  0  0
  149.9367  140.8796  153.8210 H   0  0  0  0  0  0  0  0  0  0  0  0
  149.1953  139.4649  152.4330 H   0  0  0  0  0  0  0  0  0  0  0  0
  149.8885  138.3699  155.5261 H   0  0  0  0  0  0  0  0  0  0  0  0
  151.8134  140.0663  156.0748 H   0  0  0  0  0  0  0  0  0  0  0  0
  149.8161  142.8285  156.9061 H   0  0  0  0  0  0  0  0  0  0  0  0
  1  2  2  0  0  0  0
  2 17  1  0  0  0  0
  2  3  1  0  0  0  0
  3  4  1  0  0  0  0
  4  5  2  0  0  0  0
  4  6  1  0  0  0  0
  6  7  1  0  0  0  0
  6 16  1  0  0  0  0
  7 14  1  0  0  0  0
  7  8  1  0  0  0  0
  7 19  1  0  0  0  0
  8  9  1  0  0  0  0
  9 10  1  0  0  0  0
  9 12  1  0  0  0  0
  9 20  1  0  0  0  0
 10 11  1  0  0  0  0
 10 21  1  0  0  0  0
 10 22  1  0  0  0  0
 11 23  1  0  0  0  0
 12 13  1  0  0  0  0
 12 14  1  0  0  0  0
 12 24  1  0  0  0  0
 13 25  1  0  0  0  0
 14 15  1  0  0  0  0
 14 26  1  0  0  0  0
 15 27  1  0  0  0  0
 16 17  2  0  0  0  0
 16 28  1  0  0  0  0
 17 18  1  0  0  0  0
M  CHG  1   3  -1
M  END
> <s_m_source_file>
AV-unprocessed.smi

> <i_m_source_file_index>
35

> <i_lp_mmshare_version>
43012

> <i_f3d_flags>
0

> <s_epik_input>
Tz1jMVtuSF1jKD1PKW4oW2NIXWMxQnIpW0NAQEhdMk9bQ0BASF0oW0NIMl1bT0hdKVtDQEBIXShbT0hdKVtDQEhdMltPSF0=

> <s_epik_cmdline>
J2VwaWtfcHl0aG9uJywgJy1waCcsICc3LjAnLCAnLXRuJywgJzgnLCAnLW1hJywgJzIwMCcsICctbWV0YWxfYmluZGluZycsICctaW1hZScsICc8aW5maWxlLm1hZT4nLCAnLW9tYWUnLCAnPG91dGZpbGUubWFlPic=

> <r_epik_Ionization_Penalty>
1.06112

> <r_epik_Ionization_Penalty_Charging>
2.1796e-09

> <r_epik_Ionization_Penalty_Neutral>
1.06112

> <r_epik_State_Penalty>
1.11484

> <r_epik_Charging_Adjusted_Penalty>
1.11484

> <i_epik_Tot_Q>
-1

> <i_epik_Tot_abs_Q>
1

> <r_epik_Metal_State_Penalty>
0.0032876

> <b_epik_Metal_Only>
0

> <s_epik_Chemistry_Notes>
This compound contains an acetal/aminal-like group ( X-CH(R)-Y where X, Y are N, S, or O) that may be acid/base labile, releasing an aldehyde.

> <s_lp_Force_Field>
OPLS_2005

> <r_lp_Energy>
42.419

> <b_lp_Chiralities_Consistent>
1

> <s_lp_Variant>
AV-unprocessed.smi:35-22

> <Gold.Version>
5.8.1

> <Gold.Id.Protein>
6NUR|6NUR_protein|mol2

> <Gold.PLP.Fitness>
41.7654

> <Gold.PLP.PLP>
-30.2760

> <Gold.PLP.part.hbond>
-4.5484

> <Gold.PLP.part.metal>
0.0000

> <Gold.PLP.part.buried>
-4.6486

> <Gold.PLP.part.nonpolar>
-20.4950

> <Gold.PLP.part.repulsive>
0.0679

> <Gold.PLP.ligand.clash>
0.0000

> <Gold.PLP.ligand.torsion>
0.2025

> <Gold.PLP.Chemscore.Hbond>
2.8673

> <Gold.PLP.Chemscore.CHOScore>
1.0000

> <Gold.PLP.Chemscore.Metal>
0.0000

> <Gold.Chemscore.Hbonds>
donor molecule, donor type, donor heavy atom, donor atom, acceptor molecule, acceptor atom, score
      L1  H    11    23       P1  8028  0.30
      L1  H    13    25       P1  7957  0.80
      P1  H  7989  7998       L1    15  0.62
      P1  H  8022  8030       L1    11  0.65
      L1  C    16    28       P1  8028  1.00

> <Gold.PLP.Chemscore.Internal.Correction>
0.2927

> <Gold.Rescore>
     Score         DG    S(hbond)    S(metal)    S(lipo)     H(rot)  DE(clash)    DE(int)     intcor
      9.13      -9.98       2.33        0.00      51.30       3.63       0.38       0.48       ----

> <Gold.Chemscore.Fitness>
9.1257

> <Gold.Chemscore.DG>
-9.9844

> <Gold.Chemscore.ZeroCoef>
-5.4800

> <Gold.Chemscore.Hbond>
2.3310

> <Gold.Chemscore.Metal>
0.0000

> <Gold.Chemscore.Lipo>
51.2969

> <Gold.Chemscore.Internal_Hbond>
0.0000

> <Gold.Chemscore.DEClash>
0.3802

> <Gold.Chemscore.DEInternal>
0.4785

> <Gold.Chemscore.Rot>
3.6261

> <Gold.Chemscore.Internal.Correction>
   9.000000E+99

> <Gold.Chemscore.Hbonds>
donor molecule, donor type, donor heavy atom, donor atom, acceptor molecule, acceptor atom, score
      L1  H    11    23       P1  8028  0.30
      L1  H    13    25       P1  7957  0.79
      P1  H  7989  7998       L1    15  0.21
      P1  H  8011  8017       L1    11  0.01
      P1  H  8022  8030       L1    11  0.05

> <Gold.Chemscore.Hbond.Weighted>
-7.7854

> <Gold.Chemscore.Metal.Weighted>
-0.0000

> <Gold.Chemscore.Lipo.Weighted>
-6.0017

> <Gold.Chemscore.Internal_Hbond.Weighted>
0.0000

> <Gold.Chemscore.DEClash.Weighted>
0.3802

> <Gold.Chemscore.DEInternal.Weighted>
0.4785

> <Gold.Chemscore.Rot.Weighted>
9.2828

> <Gold.Chemscore.Internal.Correction.Weighted>
   9.000000E+99

> <Gold.Protein.RotatedTorsions>
[ 6907 6896 6895 6894 ] final  -94.54 input  -60.11 | X-H torsion
[ 7974 7965 7964 7962 ] final -124.53 input  175.53 | X-H torsion
[ 8008 7997 7996 7995 ] final   95.36 input   59.86 | X-H torsion
[ 10167 10162 10161 10158 ] final  118.67 input  -65.29 | X-H torsion
[ 10718 10713 10712 10709 ] final  -68.46 input   66.30 | X-H torsion
[ 10763 10752 10751 10750 ] final  130.75 input  -60.55 | X-H torsion
[ 11005 11000 10999 10996 ] final  -87.99 input  -57.11 | X-H torsion

> <Gold.Protein.ActiveResidues>
 VAL166  LYS551  ARG553  GLY616  TRP617  ASP618  TYR619  PRO620  LYS621  CYS622 
 ASP623  PHE694  ASN695  SER759  ASP760  ASP761  ALA762  ILE779  LEU786  VAL792 
 PHE793  MET794  SER795  GLU796  ALA797  LYS798  CYS799  TRP800  GLU811  SER814 

> <Gold.Protein.RotatedAtoms>
  150.6944  134.1797  159.4243 H   0  0  0  0  0  0  0  0  0  0  0  0  # atno 6907 bound_to 6896
  151.9772  135.0045  160.0565 H   0  0  0  0  0  0  0  0  0  0  0  0  # atno 6908 bound_to 6896
  152.1788  133.4658  159.4984 H   0  0  0  0  0  0  0  0  0  0  0  0  # atno 6909 bound_to 6896
  145.0071  140.7873  143.4461 H   0  0  0  0  0  0  0  0  0  0  0  0  # atno 7974 bound_to 7965
  156.0681  140.3287  155.7542 H   0  0  0  0  0  0  0  0  0  0  0  0  # atno 8008 bound_to 7997
  155.5349  140.0596  157.2899 H   0  0  0  0  0  0  0  0  0  0  0  0  # atno 8009 bound_to 7997
  154.4515  140.1921  156.0521 H   0  0  0  0  0  0  0  0  0  0  0  0  # atno 8010 bound_to 7997
  139.6096  144.7078  151.2874 H   0  0  0  0  0  0  0  0  0  0  0  0  # atno 10167 bound_to 10162
  156.0504  130.4295  150.2004 H   0  0  0  0  0  0  0  0  0  0  0  0  # atno 10718 bound_to 10713
  153.7631  135.3193  155.3340 H   0  0  0  0  0  0  0  0  0  0  0  0  # atno 10763 bound_to 10752
  154.8223  135.4594  154.0818 H   0  0  0  0  0  0  0  0  0  0  0  0  # atno 10764 bound_to 10752
  153.2055  135.6928  153.8262 H   0  0  0  0  0  0  0  0  0  0  0  0  # atno 10765 bound_to 10752
  141.1608  133.7544  156.9387 H   0  0  0  0  0  0  0  0  0  0  0  0  # atno 11005 bound_to 11000
  145.2073  139.2222  143.5161 LP  0  0  0  0  0  0  0  0  0  0  0  0  # atno 17320 bound_to 7965
  146.3463  140.1903  142.8589 LP  0  0  0  0  0  0  0  0  0  0  0  0  # atno 17321 bound_to 7965
  140.7310  143.6865  150.7957 LP  0  0  0  0  0  0  0  0  0  0  0  0  # atno 17342 bound_to 10162
  140.0457  143.5301  152.2697 LP  0  0  0  0  0  0  0  0  0  0  0  0  # atno 17343 bound_to 10162
  157.0088  130.9944  151.3371 LP  0  0  0  0  0  0  0  0  0  0  0  0  # atno 17370 bound_to 10713
  157.5424  130.8129  149.8045 LP  0  0  0  0  0  0  0  0  0  0  0  0  # atno 17371 bound_to 10713
  140.1336  134.9339  157.2371 LP  0  0  0  0  0  0  0  0  0  0  0  0  # atno 17394 bound_to 11000
  140.2922  134.3227  155.7312 LP  0  0  0  0  0  0  0  0  0  0  0  0  # atno 17395 bound_to 11000

$$$$
