AV-unprocessed.smi:1738|AV-procd|sdf|7003|dock5
  -GOLD-   22720 8213D 1   1.00000     0.00000
 Structure written by MMmdl.
 46 48  0  0  0  0  0  0  0  0  2 V2000
  151.0564  141.5413  156.5407 C   0  0  0  0  0  0  0  0  0  0  0  0
  151.1225  139.8146  155.9117 S   0  0  0  0  0  0  0  0  0  0  0  0
  152.1700  139.7372  154.8815 O   0  0  0  0  0  0  0  0  0  0  0  0
  151.1779  138.9127  157.0731 O   0  0  0  0  0  0  0  0  0  0  0  0
  149.5396  139.5977  155.1067 C   0  0  0  0  0  0  0  0  0  0  0  0
  148.9071  140.6868  154.4743 C   0  0  0  0  0  0  0  0  0  0  0  0
  147.6873  140.4523  153.8116 C   0  0  0  0  0  0  0  0  0  0  0  0
  147.1597  139.1377  153.7921 C   0  0  0  0  0  0  0  0  0  0  0  0
  145.9306  138.7801  153.1751 N   0  0  0  0  0  0  0  0  0  0  0  0
  145.3297  137.5783  153.1486 C   0  0  0  0  0  0  0  0  0  0  0  0
  145.7405  136.5633  153.7103 O   0  0  0  0  0  0  0  0  0  0  0  0
  144.1884  137.6181  152.4462 N   0  0  0  0  0  0  0  0  0  0  0  0
  143.3062  136.4728  152.2372 C   0  0  2  0  0  0  0  0  0  0  0  0
  142.9972  135.7001  153.5130 C   0  0  0  0  0  0  0  0  0  0  0  0
  142.4851  134.3560  152.9842 C   0  0  0  0  0  0  0  0  0  0  0  0
  143.1023  134.1552  151.6496 N   0  3  2  0  0  0  0  0  0  0  0  0
  143.8516  132.8770  151.5148 C   0  0  0  0  0  0  0  0  0  0  0  0
  144.7876  132.9136  150.2976 C   0  0  0  0  0  0  0  0  0  0  0  0
  145.8494  134.0209  150.4360 C   0  0  0  0  0  0  0  0  0  0  0  0
  145.3964  135.1584  151.3713 C   0  0  0  0  0  0  0  0  0  0  0  0
  143.8665  135.3866  151.2994 C   0  0  2  0  0  0  0  0  0  0  0  0
  147.8829  138.1262  154.4605 C   0  0  0  0  0  0  0  0  0  0  0  0
  149.0552  138.3377  155.0946 N   0  0  0  0  0  0  0  0  0  0  0  0
  151.9924  141.7807  157.0447 H   0  0  0  0  0  0  0  0  0  0  0  0
  150.2298  141.6403  157.2438 H   0  0  0  0  0  0  0  0  0  0  0  0
  150.9076  142.2268  155.7065 H   0  0  0  0  0  0  0  0  0  0  0  0
  149.3376  141.6769  154.4966 H   0  0  0  0  0  0  0  0  0  0  0  0
  147.1799  141.2820  153.3448 H   0  0  0  0  0  0  0  0  0  0  0  0
  145.4252  139.5416  152.7460 H   0  0  0  0  0  0  0  0  0  0  0  0
  143.9171  138.4930  152.0215 H   0  0  0  0  0  0  0  0  0  0  0  0
  142.3575  136.8305  151.8308 H   0  0  0  0  0  0  0  0  0  0  0  0
  143.9083  135.5460  154.0930 H   0  0  0  0  0  0  0  0  0  0  0  0
  142.2727  136.2056  154.1524 H   0  0  0  0  0  0  0  0  0  0  0  0
  142.6957  133.5447  153.6823 H   0  0  0  0  0  0  0  0  0  0  0  0
  141.4035  134.3941  152.8494 H   0  0  0  0  0  0  0  0  0  0  0  0
  144.4420  132.6889  152.4133 H   0  0  0  0  0  0  0  0  0  0  0  0
  143.1397  132.0557  151.4279 H   0  0  0  0  0  0  0  0  0  0  0  0
  145.2727  131.9471  150.1577 H   0  0  0  0  0  0  0  0  0  0  0  0
  144.1933  133.0881  149.3994 H   0  0  0  0  0  0  0  0  0  0  0  0
  146.7814  133.6013  150.8163 H   0  0  0  0  0  0  0  0  0  0  0  0
  146.0783  134.4185  149.4465 H   0  0  0  0  0  0  0  0  0  0  0  0
  145.6767  134.9140  152.3969 H   0  0  0  0  0  0  0  0  0  0  0  0
  145.9445  136.0656  151.1162 H   0  0  0  0  0  0  0  0  0  0  0  0
  143.6231  135.6526  150.2697 H   0  0  0  0  0  0  0  0  0  0  0  0
  147.5142  137.1110  154.4801 H   0  0  0  0  0  0  0  0  0  0  0  0
  142.3385  134.1118  150.9899 H   0  0  0  0  0  0  0  0  0  0  0  0
  1  2  1  0  0  0  0
  1 24  1  0  0  0  0
  1 25  1  0  0  0  0
  1 26  1  0  0  0  0
  2  3  2  0  0  0  0
  2  4  2  0  0  0  0
  2  5  1  0  0  0  0
  5 23  1  0  0  0  0
  5  6  2  0  0  0  0
  6  7  1  0  0  0  0
  6 27  1  0  0  0  0
  7  8  2  0  0  0  0
  7 28  1  0  0  0  0
  8  9  1  0  0  0  0
  8 22  1  0  0  0  0
  9 10  1  0  0  0  0
  9 29  1  0  0  0  0
 10 11  2  0  0  0  0
 10 12  1  0  0  0  0
 12 13  1  0  0  0  0
 12 30  1  0  0  0  0
 13 21  1  0  0  0  0
 13 14  1  0  0  0  0
 13 31  1  0  0  0  0
 14 15  1  0  0  0  0
 14 32  1  0  0  0  0
 14 33  1  0  0  0  0
 15 16  1  0  0  0  0
 15 34  1  0  0  0  0
 15 35  1  0  0  0  0
 16 21  1  0  0  0  0
 16 17  1  0  0  0  0
 16 46  1  0  0  0  0
 17 18  1  0  0  0  0
 17 36  1  0  0  0  0
 17 37  1  0  0  0  0
 18 19  1  0  0  0  0
 18 38  1  0  0  0  0
 18 39  1  0  0  0  0
 19 20  1  0  0  0  0
 19 40  1  0  0  0  0
 19 41  1  0  0  0  0
 20 21  1  0  0  0  0
 20 42  1  0  0  0  0
 20 43  1  0  0  0  0
 21 44  1  0  0  0  0
 22 23  2  0  0  0  0
 22 45  1  0  0  0  0
M  CHG  1  16   1
M  END
> <s_m_source_file>
AV-unprocessed.smi

> <i_m_source_file_index>
1738

> <i_lp_mmshare_version>
43012

> <i_f3d_flags>
0

> <s_epik_input>
W0NIM11TKD1PKSg9TyljMVtjSF1bY0hdYyhbY0hdbjEpW05IXUMoPU8pW05IXVtDQEhdKFtDSDJdW0NIMl0yKVtDQEBIXShOMjMpW0NIMl1bQ0gyXVtDSDJdW0NIMl0z

> <s_epik_cmdline>
J2VwaWtfcHl0aG9uJywgJy1waCcsICc3LjAnLCAnLXRuJywgJzgnLCAnLW1hJywgJzIwMCcsICctbWV0YWxfYmluZGluZycsICctaW1hZScsICc8aW5maWxlLm1hZT4nLCAnLW9tYWUnLCAnPG91dGZpbGUubWFlPic=

> <r_epik_Ionization_Penalty>
0.00100042

> <r_epik_Ionization_Penalty_Charging>
0.000974069

> <r_epik_Ionization_Penalty_Neutral>
2.63543e-05

> <r_epik_State_Penalty>
0.000633842

> <r_epik_Charging_Adjusted_Penalty>
0.00160791

> <i_epik_Tot_Q>
1

> <i_epik_Tot_abs_Q>
1

> <r_epik_Metal_State_Penalty>
-0

> <b_epik_Metal_Only>
0

> <s_lp_Force_Field>
OPLS_2005

> <r_lp_Energy>
44.1137

> <b_lp_Chiralities_Consistent>
1

> <s_lp_Variant>
AV-unprocessed.smi:1738-7

> <Gold.Version>
5.8.1

> <Gold.Id.Protein>
6NUR|6NUR_protein|mol2

> <Gold.PLP.Fitness>
48.0002

> <Gold.PLP.PLP>
-34.8541

> <Gold.PLP.part.hbond>
-5.0000

> <Gold.PLP.part.metal>
0.0000

> <Gold.PLP.part.buried>
-4.1495

> <Gold.PLP.part.nonpolar>
-27.5733

> <Gold.PLP.part.repulsive>
0.2910

> <Gold.PLP.ligand.clash>
0.0000

> <Gold.PLP.ligand.torsion>
1.3025

> <Gold.PLP.Chemscore.Hbond>
4.5760

> <Gold.PLP.Chemscore.CHOScore>
0.0000

> <Gold.PLP.Chemscore.Metal>
0.0000

> <Gold.Chemscore.Hbonds>
donor molecule, donor type, donor heavy atom, donor atom, acceptor molecule, acceptor atom, score
      L1  H     9    29       P1 10175  0.96
      L1  H    12    30       P1 10175  0.85
      L1  H    16    46       P1 10186  2.00
      P1  H  7989  7998       L1     3  0.80

> <Gold.PLP.Chemscore.Internal.Correction>
2.0231

> <Gold.Rescore>
     Score         DG    S(hbond)    S(metal)    S(lipo)     H(rot)  DE(clash)    DE(int)     intcor
     15.19     -22.30       3.26        0.00      72.65       1.00       0.38       6.73       ----

> <Gold.Chemscore.Fitness>
15.1911

> <Gold.Chemscore.DG>
-22.2955

> <Gold.Chemscore.ZeroCoef>
-5.4800

> <Gold.Chemscore.Hbond>
3.2562

> <Gold.Chemscore.Metal>
0.0000

> <Gold.Chemscore.Lipo>
72.6464

> <Gold.Chemscore.Internal_Hbond>
0.0000

> <Gold.Chemscore.DEClash>
0.3784

> <Gold.Chemscore.DEInternal>
6.7259

> <Gold.Chemscore.Rot>
1.0000

> <Gold.Chemscore.Internal.Correction>
   9.000000E+99

> <Gold.Chemscore.Hbonds>
donor molecule, donor type, donor heavy atom, donor atom, acceptor molecule, acceptor atom, score
      L1  H     9    29       P1 10175  0.89
      L1  H    12    30       P1 10175  0.80
      L1  H    16    46       P1 10186  0.25
      P1  H  7989  7998       L1     3  0.52

> <Gold.Chemscore.Hbond.Weighted>
-10.8758

> <Gold.Chemscore.Metal.Weighted>
-0.0000

> <Gold.Chemscore.Lipo.Weighted>
-8.4996

> <Gold.Chemscore.Internal_Hbond.Weighted>
0.0000

> <Gold.Chemscore.DEClash.Weighted>
0.3784

> <Gold.Chemscore.DEInternal.Weighted>
6.7259

> <Gold.Chemscore.Rot.Weighted>
2.5600

> <Gold.Chemscore.Internal.Correction.Weighted>
   9.000000E+99

> <Gold.Protein.RotatedTorsions>
[ 6907 6896 6895 6894 ] final   55.62 input  -60.11 | X-H torsion
[ 7974 7965 7964 7962 ] final  173.60 input  175.53 | X-H torsion
[ 8008 7997 7996 7995 ] final   14.32 input   59.86 | X-H torsion
[ 10167 10162 10161 10158 ] final -130.09 input  -65.29 | X-H torsion
[ 10718 10713 10712 10709 ] final   52.61 input   66.30 | X-H torsion
[ 10763 10752 10751 10750 ] final   39.39 input  -60.55 | X-H torsion
[ 11005 11000 10999 10996 ] final -141.52 input  -57.11 | X-H torsion

> <Gold.Protein.ActiveResidues>
 VAL166  LYS551  ARG553  GLY616  TRP617  ASP618  TYR619  PRO620  LYS621  CYS622 
 ASP623  PHE694  ASN695  SER759  ASP760  ASP761  ALA762  ILE779  LEU786  VAL792 
 PHE793  MET794  SER795  GLU796  ALA797  LYS798  CYS799  TRP800  GLU811  SER814 

> <Gold.Protein.RotatedAtoms>
  152.3557  134.6943  160.0222 H   0  0  0  0  0  0  0  0  0  0  0  0  # atno 6907 bound_to 6896
  151.7283  133.3311  159.3341 H   0  0  0  0  0  0  0  0  0  0  0  0  # atno 6908 bound_to 6896
  150.7570  134.6320  159.6236 H   0  0  0  0  0  0  0  0  0  0  0  0  # atno 6909 bound_to 6896
  144.7240  139.9672  143.6436 H   0  0  0  0  0  0  0  0  0  0  0  0  # atno 7974 bound_to 7965
  154.8468  140.2923  155.5624 H   0  0  0  0  0  0  0  0  0  0  0  0  # atno 8008 bound_to 7997
  156.3014  140.2503  156.3352 H   0  0  0  0  0  0  0  0  0  0  0  0  # atno 8009 bound_to 7997
  154.9065  140.0390  157.1911 H   0  0  0  0  0  0  0  0  0  0  0  0  # atno 8010 bound_to 7997
  139.9329  143.6251  152.2525 H   0  0  0  0  0  0  0  0  0  0  0  0  # atno 10167 bound_to 10162
  157.5091  130.8488  149.8412 H   0  0  0  0  0  0  0  0  0  0  0  0  # atno 10718 bound_to 10713
  152.9969  135.6222  154.2458 H   0  0  0  0  0  0  0  0  0  0  0  0  # atno 10763 bound_to 10752
  154.2197  135.2796  155.2930 H   0  0  0  0  0  0  0  0  0  0  0  0  # atno 10764 bound_to 10752
  154.5538  135.5725  153.7004 H   0  0  0  0  0  0  0  0  0  0  0  0  # atno 10765 bound_to 10752
  140.8316  134.2510  157.4854 H   0  0  0  0  0  0  0  0  0  0  0  0  # atno 11005 bound_to 11000
  146.0591  139.3586  143.0592 LP  0  0  0  0  0  0  0  0  0  0  0  0  # atno 17320 bound_to 7965
  145.8115  140.9723  143.0946 LP  0  0  0  0  0  0  0  0  0  0  0  0  # atno 17321 bound_to 7965
  139.6767  144.7658  151.1683 LP  0  0  0  0  0  0  0  0  0  0  0  0  # atno 17342 bound_to 10162
  140.7632  143.5784  150.8920 LP  0  0  0  0  0  0  0  0  0  0  0  0  # atno 17343 bound_to 10162
  156.0277  130.3774  150.1775 LP  0  0  0  0  0  0  0  0  0  0  0  0  # atno 17370 bound_to 10713
  156.9965  130.9909  151.3402 LP  0  0  0  0  0  0  0  0  0  0  0  0  # atno 17371 bound_to 10713
  139.8705  134.9589  156.4314 LP  0  0  0  0  0  0  0  0  0  0  0  0  # atno 17394 bound_to 11000
  140.8992  133.7792  155.9661 LP  0  0  0  0  0  0  0  0  0  0  0  0  # atno 17395 bound_to 11000

$$$$
