#       Name:                AV-unprocessed.smi:2776
#       Creating user name   scv26
#       Creation time:       Fri Mar 27 15:14:13 2020


#       File generated by GOLD software.
#

@<TRIPOS>MOLECULE
AV-unprocessed.smi:2776
    28    29     1
SMALL
NO_CHARGES


@<TRIPOS>ATOM
      1 ****        -2.1309  -0.2250  -0.8564 O.3            1 S1                 0.0000
      2 ****        -1.5528  -1.5138  -0.9439 C.3            1 S1                 0.0000
      3 ****        -0.0159  -1.3949  -0.9087 C.3            1 S1                 0.0000
      4 ****         0.4651  -0.7573   0.3041 N.pl3          1 S1                 0.0000
      5 ****         0.6994  -1.3489   1.4911 C.2            1 S1                 0.0000
      6 ****         1.1414  -0.5772   2.4800 N.2            1 S1                 0.0000
      7 ****         1.2031   0.6604   1.8628 C.ar           1 S1                 0.0000
      8 ****         1.5975   1.9193   2.3693 C.ar           1 S1                 0.0000
      9 ****         1.5764   3.0615   1.5418 C.ar           1 S1                 0.0000
     10 ****         1.9567   4.2603   2.0437 F              1 S1                 0.0000
     11 ****         1.1609   2.9619   0.1972 C.ar           1 S1                 0.0000
     12 ****         1.1430   4.0631  -0.5904 F              1 S1                 0.0000
     13 ****         0.7626   1.7183  -0.3294 C.ar           1 S1                 0.0000
     14 ****         0.7862   0.5817   0.4997 C.ar           1 S1                 0.0000
     15 ****        -2.0702  -2.2173  -2.2134 C.3            1 S1                 0.0000
     16 ****        -3.3995  -2.3126  -2.1764 F              1 S1                 0.0000
     17 ****        -1.6999  -1.5566  -3.3109 F              1 S1                 0.0000
     18 ****        -1.5708  -3.4519  -2.2709 F              1 S1                 0.0000
     19 ****        -1.8460   0.1776  -0.0505 H              1 S1                 0.0000
     20 ****        -1.8837  -2.0800  -0.0722 H              1 S1                 0.0000
     21 ****         0.4400  -2.3833  -0.9762 H              1 S1                 0.0000
     22 ****         0.3452  -0.8273  -1.7671 H              1 S1                 0.0000
     23 ****         0.5348  -2.4064   1.6375 H              1 S1                 0.0000
     24 ****         1.9164   2.0072   3.3971 H              1 S1                 0.0000
     25 ****         0.4409   1.6403  -1.3574 H              1 S1                 0.0000
     26 ****        -3.1279  -0.3016  -0.8611 LP             1 S1                 0.0000
     27 ****        -1.8356   0.3306  -1.6337 LP             1 S1                 0.0000
     28 ****         1.3692  -0.8255   3.4215 LP             1 S1                 0.0000
@<TRIPOS>BOND
    1    1    2 1     
    2    1   19 1     
    3    2    3 1     
    4    2   15 1     
    5    2   20 1     
    6    3    4 1     
    7    3   21 1     
    8    3   22 1     
    9    4   14 1     
   10    4    5 1     
   11    5    6 2     
   12    5   23 1     
   13    6    7 1     
   14    7   14 ar    
   15    7    8 ar    
   16    8    9 ar    
   17    8   24 1     
   18    9   10 1     
   19    9   11 ar    
   20   11   12 1     
   21   11   13 ar    
   22   13   14 ar    
   23   13   25 1     
   24   15   16 1     
   25   15   17 1     
   26   15   18 1     
   27    1   26 1     
   28    1   27 1     
   29    6   28 1     
@<TRIPOS>SUBSTRUCTURE
      1 S1             1
@<TRIPOS>SET
LONE_PAIRS      STATIC     ATOMS    <user>   **** ""
3 26 27 28
DONOR_HYDROGENS      STATIC     ATOMS    <user>   **** ""
1 19
ATOM$BLUE        STATIC     ATOMS    COLORGROUP SYSTEM
3 26 27 28
ATOM$RED        STATIC     ATOMS    COLORGROUP SYSTEM
1 19
