AV-unprocessed.smi:35|AV-procd|sdf|270|dock10
  -GOLD-   2262016 43D 1   1.00000     0.00000
 Structure written by MMmdl.
 28 29  0  0  0  0  0  0  0  0  2 V2000
  152.0974  136.9668  159.8767 O   0  0  0  0  0  0  0  0  0  0  0  0
  151.8057  137.5284  158.8223 C   0  0  0  0  0  0  0  0  0  0  0  0
  152.7431  137.9977  157.9491 N   0  5  0  0  0  0  0  0  0  0  0  0
  152.4139  138.6208  156.7797 C   0  0  0  0  0  0  0  0  0  0  0  0
  153.2515  139.0611  155.9921 O   0  0  0  0  0  0  0  0  0  0  0  0
  151.0406  138.7863  156.4490 N   0  0  0  0  0  0  0  0  0  0  0  0
  150.6818  139.4705  155.1420 C   0  0  1  0  0  0  0  0  0  0  0  0
  149.6775  138.7462  154.4896 O   0  0  0  0  0  0  0  0  0  0  0  0
  148.4465  139.4574  154.5552 C   0  0  2  0  0  0  0  0  0  0  0  0
  147.4660  138.9780  153.4701 C   0  0  0  0  0  0  0  0  0  0  0  0
  147.2662  137.5837  153.5686 O   0  0  0  0  0  0  0  0  0  0  0  0
  148.8846  140.9259  154.5019 C   0  0  2  0  0  0  0  0  0  0  0  0
  149.1625  141.3307  153.1737 O   0  0  0  0  0  0  0  0  0  0  0  0
  150.1625  140.9192  155.3309 C   0  0  1  0  0  0  0  0  0  0  0  0
  149.8578  141.2498  156.6750 O   0  0  0  0  0  0  0  0  0  0  0  0
  150.0665  138.3216  157.3178 C   0  0  0  0  0  0  0  0  0  0  0  0
  150.3996  137.7106  158.4727 C   0  0  0  0  0  0  0  0  0  0  0  0
  148.9036  137.0982  159.6191 Br  0  0  0  0  0  0  0  0  0  0  0  0
  151.5805  139.4108  154.5256 H   0  0  0  0  0  0  0  0  0  0  0  0
  148.0086  139.2624  155.5356 H   0  0  0  0  0  0  0  0  0  0  0  0
  146.5076  139.4937  153.5336 H   0  0  0  0  0  0  0  0  0  0  0  0
  147.8752  139.1931  152.4828 H   0  0  0  0  0  0  0  0  0  0  0  0
  147.9662  137.1467  153.1080 H   0  0  0  0  0  0  0  0  0  0  0  0
  148.1226  141.5941  154.9056 H   0  0  0  0  0  0  0  0  0  0  0  0
  149.3248  140.5574  152.6553 H   0  0  0  0  0  0  0  0  0  0  0  0
  150.9052  141.6287  154.9633 H   0  0  0  0  0  0  0  0  0  0  0  0
  149.9396  140.4662  157.1980 H   0  0  0  0  0  0  0  0  0  0  0  0
  149.0207  138.4422  157.0826 H   0  0  0  0  0  0  0  0  0  0  0  0
  1  2  2  0  0  0  0
  2 17  1  0  0  0  0
  2  3  1  0  0  0  0
  3  4  1  0  0  0  0
  4  5  2  0  0  0  0
  4  6  1  0  0  0  0
  6  7  1  0  0  0  0
  6 16  1  0  0  0  0
  7 14  1  0  0  0  0
  7  8  1  0  0  0  0
  7 19  1  0  0  0  0
  8  9  1  0  0  0  0
  9 10  1  0  0  0  0
  9 12  1  0  0  0  0
  9 20  1  0  0  0  0
 10 11  1  0  0  0  0
 10 21  1  0  0  0  0
 10 22  1  0  0  0  0
 11 23  1  0  0  0  0
 12 13  1  0  0  0  0
 12 14  1  0  0  0  0
 12 24  1  0  0  0  0
 13 25  1  0  0  0  0
 14 15  1  0  0  0  0
 14 26  1  0  0  0  0
 15 27  1  0  0  0  0
 16 17  2  0  0  0  0
 16 28  1  0  0  0  0
 17 18  1  0  0  0  0
M  CHG  1   3  -1
M  END
> <s_m_source_file>
AV-unprocessed.smi

> <i_m_source_file_index>
35

> <i_lp_mmshare_version>
43012

> <i_f3d_flags>
0

> <s_epik_input>
Tz1jMVtuSF1jKD1PKW4oW2NIXWMxQnIpW0NAQEhdMk9bQ0BASF0oW0NIMl1bT0hdKVtDQEBIXShbT0hdKVtDQEhdMltPSF0=

> <s_epik_cmdline>
J2VwaWtfcHl0aG9uJywgJy1waCcsICc3LjAnLCAnLXRuJywgJzgnLCAnLW1hJywgJzIwMCcsICctbWV0YWxfYmluZGluZycsICctaW1hZScsICc8aW5maWxlLm1hZT4nLCAnLW9tYWUnLCAnPG91dGZpbGUubWFlPic=

> <r_epik_Ionization_Penalty>
1.06112

> <r_epik_Ionization_Penalty_Charging>
2.1796e-09

> <r_epik_Ionization_Penalty_Neutral>
1.06112

> <r_epik_State_Penalty>
1.11484

> <r_epik_Charging_Adjusted_Penalty>
1.11484

> <i_epik_Tot_Q>
-1

> <i_epik_Tot_abs_Q>
1

> <r_epik_Metal_State_Penalty>
0.0032876

> <b_epik_Metal_Only>
0

> <s_epik_Chemistry_Notes>
This compound contains an acetal/aminal-like group ( X-CH(R)-Y where X, Y are N, S, or O) that may be acid/base labile, releasing an aldehyde.

> <s_lp_Force_Field>
OPLS_2005

> <r_lp_Energy>
42.6041

> <b_lp_Chiralities_Consistent>
1

> <s_lp_Variant>
AV-unprocessed.smi:35-24

> <Gold.Version>
5.8.1

> <Gold.Id.Protein>
6NUR|6NUR_protein|mol2

> <Gold.PLP.Fitness>
38.3262

> <Gold.PLP.PLP>
-24.4233

> <Gold.PLP.part.hbond>
-5.3421

> <Gold.PLP.part.metal>
0.0000

> <Gold.PLP.part.buried>
-3.3777

> <Gold.PLP.part.nonpolar>
-16.2453

> <Gold.PLP.part.repulsive>
0.1824

> <Gold.PLP.ligand.clash>
0.0000

> <Gold.PLP.ligand.torsion>
0.3759

> <Gold.PLP.Chemscore.Hbond>
4.8712

> <Gold.PLP.Chemscore.CHOScore>
0.0000

> <Gold.PLP.Chemscore.Metal>
0.0000

> <Gold.Chemscore.Hbonds>
donor molecule, donor type, donor heavy atom, donor atom, acceptor molecule, acceptor atom, score
      L1  H    11    23       P1  7948  1.00
      L1  H    13    25       P1  7957  0.85
      P1  H  6896  6909       L1     1  1.00
      P1  H  7997  8008       L1     5  1.00
      P1  H  8011  8017       L1    13  0.94

> <Gold.PLP.Chemscore.Internal.Correction>
0.0411

> <Gold.Rescore>
     Score         DG    S(hbond)    S(metal)    S(lipo)     H(rot)  DE(clash)    DE(int)     intcor
     13.96     -14.65       4.32        0.00      34.37       3.63       0.00       0.69       ----

> <Gold.Chemscore.Fitness>
13.9615

> <Gold.Chemscore.DG>
-14.6538

> <Gold.Chemscore.ZeroCoef>
-5.4800

> <Gold.Chemscore.Hbond>
4.3219

> <Gold.Chemscore.Metal>
0.0000

> <Gold.Chemscore.Lipo>
34.3712

> <Gold.Chemscore.Internal_Hbond>
0.0000

> <Gold.Chemscore.DEClash>
0.0013

> <Gold.Chemscore.DEInternal>
0.6909

> <Gold.Chemscore.Rot>
3.6261

> <Gold.Chemscore.Internal.Correction>
   9.000000E+99

> <Gold.Chemscore.Hbonds>
donor molecule, donor type, donor heavy atom, donor atom, acceptor molecule, acceptor atom, score
      L1  H    11    23       P1  7948  1.00
      L1  H    13    25       P1  7957  0.84
      P1  H  6896  6909       L1     1  0.94
      P1  H  7997  8008       L1     5  0.93
      P1  H  8011  8017       L1    13  0.30

> <Gold.Chemscore.Hbond.Weighted>
-14.4351

> <Gold.Chemscore.Metal.Weighted>
-0.0000

> <Gold.Chemscore.Lipo.Weighted>
-4.0214

> <Gold.Chemscore.Internal_Hbond.Weighted>
0.0000

> <Gold.Chemscore.DEClash.Weighted>
0.0013

> <Gold.Chemscore.DEInternal.Weighted>
0.6909

> <Gold.Chemscore.Rot.Weighted>
9.2828

> <Gold.Chemscore.Internal.Correction.Weighted>
   9.000000E+99

> <Gold.Protein.RotatedTorsions>
[ 6907 6896 6895 6894 ] final  149.35 input  -60.11 | X-H torsion
[ 7974 7965 7964 7962 ] final -137.52 input  175.53 | X-H torsion
[ 8008 7997 7996 7995 ] final  -45.40 input   59.86 | X-H torsion
[ 10167 10162 10161 10158 ] final  -91.48 input  -65.29 | X-H torsion
[ 10718 10713 10712 10709 ] final -105.07 input   66.30 | X-H torsion
[ 10763 10752 10751 10750 ] final  -53.97 input  -60.55 | X-H torsion
[ 11005 11000 10999 10996 ] final  -86.82 input  -57.11 | X-H torsion

> <Gold.Protein.ActiveResidues>
 VAL166  LYS551  ARG553  GLY616  TRP617  ASP618  TYR619  PRO620  LYS621  CYS622 
 ASP623  PHE694  ASN695  SER759  ASP760  ASP761  ALA762  ILE779  LEU786  VAL792 
 PHE793  MET794  SER795  GLU796  ALA797  LYS798  CYS799  TRP800  GLU811  SER814 

> <Gold.Protein.RotatedAtoms>
  152.1292  133.4398  159.4712 H   0  0  0  0  0  0  0  0  0  0  0  0  # atno 6907 bound_to 6896
  150.6877  134.2441  159.4493 H   0  0  0  0  0  0  0  0  0  0  0  0  # atno 6908 bound_to 6896
  152.0324  134.9759  160.0623 H   0  0  0  0  0  0  0  0  0  0  0  0  # atno 6909 bound_to 6896
  144.8835  140.6541  143.5191 H   0  0  0  0  0  0  0  0  0  0  0  0  # atno 7974 bound_to 7965
  154.4001  140.1398  156.3840 H   0  0  0  0  0  0  0  0  0  0  0  0  # atno 8008 bound_to 7997
  155.7976  140.3477  155.5364 H   0  0  0  0  0  0  0  0  0  0  0  0  # atno 8009 bound_to 7997
  155.8516  140.0942  157.1661 H   0  0  0  0  0  0  0  0  0  0  0  0  # atno 8010 bound_to 7997
  140.3444  143.2924  151.9798 H   0  0  0  0  0  0  0  0  0  0  0  0  # atno 10167 bound_to 10162
  156.0331  130.5546  150.7487 H   0  0  0  0  0  0  0  0  0  0  0  0  # atno 10718 bound_to 10713
  154.1673  135.6465  153.5000 H   0  0  0  0  0  0  0  0  0  0  0  0  # atno 10763 bound_to 10752
  153.0094  135.5375  154.6649 H   0  0  0  0  0  0  0  0  0  0  0  0  # atno 10764 bound_to 10752
  154.5979  135.2940  155.0539 H   0  0  0  0  0  0  0  0  0  0  0  0  # atno 10765 bound_to 10752
  141.1625  133.7476  156.9217 H   0  0  0  0  0  0  0  0  0  0  0  0  # atno 11005 bound_to 11000
  145.3911  139.1616  143.4228 LP  0  0  0  0  0  0  0  0  0  0  0  0  # atno 17320 bound_to 7965
  146.3009  140.4001  142.8704 LP  0  0  0  0  0  0  0  0  0  0  0  0  # atno 17321 bound_to 7965
  139.4835  144.6129  151.7400 LP  0  0  0  0  0  0  0  0  0  0  0  0  # atno 17342 bound_to 10162
  140.5278  144.0778  150.6043 LP  0  0  0  0  0  0  0  0  0  0  0  0  # atno 17343 bound_to 10162
  157.5037  131.0920  151.0283 LP  0  0  0  0  0  0  0  0  0  0  0  0  # atno 17370 bound_to 10713
  157.0657  130.5843  149.5393 LP  0  0  0  0  0  0  0  0  0  0  0  0  # atno 17371 bound_to 10713
  140.1446  134.9270  157.2513 LP  0  0  0  0  0  0  0  0  0  0  0  0  # atno 17394 bound_to 11000
  140.2795  134.3367  155.7347 LP  0  0  0  0  0  0  0  0  0  0  0  0  # atno 17395 bound_to 11000

$$$$
