AV-unprocessed.smi:2710|AV-procd|sdf|10469|dock2
  -GOLD-   2272014503D 1   1.00000     0.00000
 Structure written by MMmdl.
 53 54  0  0  0  0  0  0  0  0  2 V2000
  148.8506  142.2930  157.9449 C   0  0  0  0  0  0  0  0  0  0  0  0
  147.4580  142.2863  157.2929 C   0  0  0  0  0  0  0  0  0  0  0  0
  147.4947  142.1621  155.8060 N   0  3  1  0  0  0  0  0  0  0  0  0
  148.3695  141.0377  155.3646 C   0  0  0  0  0  0  0  0  0  0  0  0
  148.5182  140.9833  153.8361 C   0  0  0  0  0  0  0  0  0  0  0  0
  147.1588  140.8836  153.1359 C   0  0  1  0  0  0  0  0  0  0  0  0
  146.5439  139.5756  153.3689 N   0  0  0  0  0  0  0  0  0  0  0  0
  146.4739  138.5707  152.4835 C   0  0  0  0  0  0  0  0  0  0  0  0
  146.9197  138.6371  151.3387 O   0  0  0  0  0  0  0  0  0  0  0  0
  145.8788  137.4925  153.0209 N   0  0  0  0  0  0  0  0  0  0  0  0
  145.6070  136.2425  152.4032 C   0  0  0  0  0  0  0  0  0  0  0  0
  145.5922  136.1613  150.9963 C   0  0  0  0  0  0  0  0  0  0  0  0
  145.3563  135.0011  150.3490 N   0  0  0  0  0  0  0  0  0  0  0  0
  145.1409  133.9089  151.0940 C   0  0  0  0  0  0  0  0  0  0  0  0
  144.8895  132.5976  150.3278 C   0  0  0  0  0  0  0  0  0  0  0  0
  143.7606  132.7410  149.2773 C   0  0  0  0  0  0  0  0  0  0  0  0
  144.4630  131.4913  151.3137 C   0  0  0  0  0  0  0  0  0  0  0  0
  146.1671  132.1833  149.5689 C   0  0  0  0  0  0  0  0  0  0  0  0
  145.1510  133.8712  152.4329 N   0  0  0  0  0  0  0  0  0  0  0  0
  145.3812  135.0266  153.0920 C   0  0  0  0  0  0  0  0  0  0  0  0
  146.2497  142.0170  153.6299 C   0  0  0  0  0  0  0  0  0  0  0  0
  146.1377  142.0846  155.1710 C   0  0  2  0  0  0  0  0  0  0  0  0
  145.2237  143.2711  155.5412 C   0  0  0  0  0  0  0  0  0  0  0  0
  148.7735  142.5554  159.0004 H   0  0  0  0  0  0  0  0  0  0  0  0
  149.5064  143.0251  157.4728 H   0  0  0  0  0  0  0  0  0  0  0  0
  149.3362  141.3187  157.8999 H   0  0  0  0  0  0  0  0  0  0  0  0
  146.8425  141.4923  157.7182 H   0  0  0  0  0  0  0  0  0  0  0  0
  146.9941  143.2267  157.5817 H   0  0  0  0  0  0  0  0  0  0  0  0
  149.3687  141.1402  155.7838 H   0  0  0  0  0  0  0  0  0  0  0  0
  147.9690  140.0949  155.7406 H   0  0  0  0  0  0  0  0  0  0  0  0
  149.0336  141.8825  153.4956 H   0  0  0  0  0  0  0  0  0  0  0  0
  149.1527  140.1435  153.5497 H   0  0  0  0  0  0  0  0  0  0  0  0
  147.3203  141.0281  152.0663 H   0  0  0  0  0  0  0  0  0  0  0  0
  146.1490  139.4180  154.2844 H   0  0  0  0  0  0  0  0  0  0  0  0
  145.6381  137.5538  153.9996 H   0  0  0  0  0  0  0  0  0  0  0  0
  145.7670  137.0332  150.3830 H   0  0  0  0  0  0  0  0  0  0  0  0
  143.5981  131.8061  148.7397 H   0  0  0  0  0  0  0  0  0  0  0  0
  143.9973  133.5019  148.5325 H   0  0  0  0  0  0  0  0  0  0  0  0
  142.8107  133.0116  149.7405 H   0  0  0  0  0  0  0  0  0  0  0  0
  143.5595  131.7726  151.8559 H   0  0  0  0  0  0  0  0  0  0  0  0
  145.2393  131.2886  152.0520 H   0  0  0  0  0  0  0  0  0  0  0  0
  144.2582  130.5537  150.7960 H   0  0  0  0  0  0  0  0  0  0  0  0
  146.0117  131.2674  148.9978 H   0  0  0  0  0  0  0  0  0  0  0  0
  146.9997  132.0003  150.2489 H   0  0  0  0  0  0  0  0  0  0  0  0
  146.4793  132.9591  148.8687 H   0  0  0  0  0  0  0  0  0  0  0  0
  145.4026  134.9520  154.1681 H   0  0  0  0  0  0  0  0  0  0  0  0
  146.6414  142.9657  153.2595 H   0  0  0  0  0  0  0  0  0  0  0  0
  145.2599  141.9088  153.1838 H   0  0  0  0  0  0  0  0  0  0  0  0
  145.6562  141.1704  155.5219 H   0  0  0  0  0  0  0  0  0  0  0  0
  144.3159  143.2667  154.9368 H   0  0  0  0  0  0  0  0  0  0  0  0
  145.7227  144.2263  155.3739 H   0  0  0  0  0  0  0  0  0  0  0  0
  144.8918  143.2339  156.5782 H   0  0  0  0  0  0  0  0  0  0  0  0
  147.9189  143.0115  155.4610 H   0  0  0  0  0  0  0  0  0  0  0  0
  1  2  1  0  0  0  0
  1 24  1  0  0  0  0
  1 25  1  0  0  0  0
  1 26  1  0  0  0  0
  2  3  1  0  0  0  0
  2 27  1  0  0  0  0
  2 28  1  0  0  0  0
  3 22  1  0  0  0  0
  3  4  1  0  0  0  0
  3 53  1  0  0  0  0
  4  5  1  0  0  0  0
  4 29  1  0  0  0  0
  4 30  1  0  0  0  0
  5  6  1  0  0  0  0
  5 31  1  0  0  0  0
  5 32  1  0  0  0  0
  6  7  1  0  0  0  0
  6 21  1  0  0  0  0
  6 33  1  0  0  0  0
  7  8  1  0  0  0  0
  7 34  1  0  0  0  0
  8  9  2  0  0  0  0
  8 10  1  0  0  0  0
 10 11  1  0  0  0  0
 10 35  1  0  0  0  0
 11 20  1  0  0  0  0
 11 12  2  0  0  0  0
 12 13  1  0  0  0  0
 12 36  1  0  0  0  0
 13 14  2  0  0  0  0
 14 15  1  0  0  0  0
 14 19  1  0  0  0  0
 15 16  1  0  0  0  0
 15 17  1  0  0  0  0
 15 18  1  0  0  0  0
 16 37  1  0  0  0  0
 16 38  1  0  0  0  0
 16 39  1  0  0  0  0
 17 40  1  0  0  0  0
 17 41  1  0  0  0  0
 17 42  1  0  0  0  0
 18 43  1  0  0  0  0
 18 44  1  0  0  0  0
 18 45  1  0  0  0  0
 19 20  2  0  0  0  0
 20 46  1  0  0  0  0
 21 22  1  0  0  0  0
 21 47  1  0  0  0  0
 21 48  1  0  0  0  0
 22 23  1  0  0  0  0
 22 49  1  0  0  0  0
 23 50  1  0  0  0  0
 23 51  1  0  0  0  0
 23 52  1  0  0  0  0
M  CHG  1   3   1
M  END
> <s_m_source_file>
AV-unprocessed.smi

> <i_m_source_file_index>
2710

> <i_lp_mmshare_version>
43012

> <i_f3d_flags>
0

> <s_epik_input>
W0NIM11bQ0gyXU4xW0NIMl1bQ0gyXVtDQEhdKFtDSDJdW0NASF0xW0NIM10pW05IXUMoPU8pW05IXWMyW2NIXW5jKEMoW0NIM10pKFtDSDNdKVtDSDNdKW5bY0hdMg==

> <s_epik_cmdline>
J2VwaWtfcHl0aG9uJywgJy1waCcsICc3LjAnLCAnLXRuJywgJzgnLCAnLW1hJywgJzIwMCcsICctbWV0YWxfYmluZGluZycsICctaW1hZScsICc8aW5maWxlLm1hZT4nLCAnLW9tYWUnLCAnPG91dGZpbGUubWFlPic=

> <r_lp_tautomer_probability>
1

> <r_epik_Ionization_Penalty>
0.00396003

> <r_epik_Ionization_Penalty_Charging>
0.0039379

> <r_epik_Ionization_Penalty_Neutral>
2.21316e-05

> <r_epik_State_Penalty>
0.00281651

> <r_epik_Charging_Adjusted_Penalty>
0.00675441

> <i_epik_Tot_Q>
1

> <i_epik_Tot_abs_Q>
1

> <r_epik_Metal_State_Penalty>
-0

> <b_epik_Metal_Only>
0

> <s_lp_Force_Field>
OPLS_2005

> <r_lp_Energy>
19.7949

> <b_lp_Chiralities_Consistent>
1

> <s_lp_Variant>
AV-unprocessed.smi:2710-6

> <Gold.Version>
5.8.1

> <Gold.Id.Protein>
6NUR|6NUR_protein|mol2

> <Gold.PLP.Fitness>
48.0074

> <Gold.PLP.PLP>
-37.5956

> <Gold.PLP.part.hbond>
-2.6970

> <Gold.PLP.part.metal>
0.0000

> <Gold.PLP.part.buried>
-4.2880

> <Gold.PLP.part.nonpolar>
-34.1291

> <Gold.PLP.part.repulsive>
3.6267

> <Gold.PLP.ligand.clash>
0.0000

> <Gold.PLP.ligand.torsion>
0.4827

> <Gold.PLP.Chemscore.Hbond>
2.9913

> <Gold.PLP.Chemscore.CHOScore>
0.7880

> <Gold.PLP.Chemscore.Metal>
0.0000

> <Gold.Chemscore.Hbonds>
donor molecule, donor type, donor heavy atom, donor atom, acceptor molecule, acceptor atom, score
      L1  H     3    53       P1  8028  2.00
      P1  H  7954  7966       L1     9  0.94
      L1  C    12    36       P1 10171  0.82

> <Gold.PLP.Chemscore.Internal.Correction>
0.0392

> <Gold.Rescore>
     Score         DG    S(hbond)    S(metal)    S(lipo)     H(rot)  DE(clash)    DE(int)     intcor
     15.98     -19.28       1.74        0.00      96.82       1.31       1.60       1.69       ----

> <Gold.Chemscore.Fitness>
15.9811

> <Gold.Chemscore.DG>
-19.2756

> <Gold.Chemscore.ZeroCoef>
-5.4800

> <Gold.Chemscore.Hbond>
1.7414

> <Gold.Chemscore.Metal>
0.0000

> <Gold.Chemscore.Lipo>
96.8217

> <Gold.Chemscore.Internal_Hbond>
0.0000

> <Gold.Chemscore.DEClash>
1.6038

> <Gold.Chemscore.DEInternal>
1.6907

> <Gold.Chemscore.Rot>
1.3081

> <Gold.Chemscore.Internal.Correction>
   9.000000E+99

> <Gold.Chemscore.Hbonds>
donor molecule, donor type, donor heavy atom, donor atom, acceptor molecule, acceptor atom, score
      L1  H     3    53       P1  8028  0.72
      P1  H  7954  7966       L1     9  0.87

> <Gold.Chemscore.Hbond.Weighted>
-5.8162

> <Gold.Chemscore.Metal.Weighted>
-0.0000

> <Gold.Chemscore.Lipo.Weighted>
-11.3281

> <Gold.Chemscore.Internal_Hbond.Weighted>
0.0000

> <Gold.Chemscore.DEClash.Weighted>
1.6038

> <Gold.Chemscore.DEInternal.Weighted>
1.6907

> <Gold.Chemscore.Rot.Weighted>
3.3488

> <Gold.Chemscore.Internal.Correction.Weighted>
   9.000000E+99

> <Gold.Protein.RotatedTorsions>
[ 6907 6896 6895 6894 ] final  -40.02 input  -60.11 | X-H torsion
[ 7974 7965 7964 7962 ] final  -99.36 input  175.53 | X-H torsion
[ 8008 7997 7996 7995 ] final  -36.77 input   59.86 | X-H torsion
[ 10167 10162 10161 10158 ] final -134.83 input  -65.29 | X-H torsion
[ 10718 10713 10712 10709 ] final   70.14 input   66.30 | X-H torsion
[ 10763 10752 10751 10750 ] final  -44.88 input  -60.55 | X-H torsion
[ 11005 11000 10999 10996 ] final  -66.48 input  -57.11 | X-H torsion

> <Gold.Protein.ActiveResidues>
 VAL166  LYS551  ARG553  GLY616  TRP617  ASP618  TYR619  PRO620  LYS621  CYS622 
 ASP623  PHE694  ASN695  SER759  ASP760  ASP761  ALA762  ILE779  LEU786  VAL792 
 PHE793  MET794  SER795  GLU796  ALA797  LYS798  CYS799  TRP800  GLU811  SER814 

> <Gold.Protein.RotatedAtoms>
  150.9834  134.9184  159.7857 H   0  0  0  0  0  0  0  0  0  0  0  0  # atno 6907 bound_to 6896
  152.5229  134.3380  159.9217 H   0  0  0  0  0  0  0  0  0  0  0  0  # atno 6908 bound_to 6896
  151.3387  133.3930  159.2703 H   0  0  0  0  0  0  0  0  0  0  0  0  # atno 6909 bound_to 6896
  145.3085  140.9395  143.2783 H   0  0  0  0  0  0  0  0  0  0  0  0  # atno 7974 bound_to 7965
  154.4066  140.1622  156.2428 H   0  0  0  0  0  0  0  0  0  0  0  0  # atno 8008 bound_to 7997
  155.9186  140.3422  155.6132 H   0  0  0  0  0  0  0  0  0  0  0  0  # atno 8009 bound_to 7997
  155.7249  140.0773  157.2305 H   0  0  0  0  0  0  0  0  0  0  0  0  # atno 8010 bound_to 7997
  139.8840  143.6804  152.2623 H   0  0  0  0  0  0  0  0  0  0  0  0  # atno 10167 bound_to 10162
  157.6384  130.9462  150.0610 H   0  0  0  0  0  0  0  0  0  0  0  0  # atno 10718 bound_to 10713
  154.0193  135.6671  153.4771 H   0  0  0  0  0  0  0  0  0  0  0  0  # atno 10763 bound_to 10752
  153.0587  135.5041  154.8038 H   0  0  0  0  0  0  0  0  0  0  0  0  # atno 10764 bound_to 10752
  154.6947  135.3068  154.9393 H   0  0  0  0  0  0  0  0  0  0  0  0  # atno 10765 bound_to 10752
  141.1483  133.6700  156.6146 H   0  0  0  0  0  0  0  0  0  0  0  0  # atno 11005 bound_to 11000
  144.9035  139.4619  143.6621 LP  0  0  0  0  0  0  0  0  0  0  0  0  # atno 17320 bound_to 7965
  146.3126  139.7802  142.9008 LP  0  0  0  0  0  0  0  0  0  0  0  0  # atno 17321 bound_to 7965
  139.7170  144.7610  151.1018 LP  0  0  0  0  0  0  0  0  0  0  0  0  # atno 17342 bound_to 10162
  140.7739  143.5257  150.9483 LP  0  0  0  0  0  0  0  0  0  0  0  0  # atno 17343 bound_to 10162
  156.1643  130.3644  149.9255 LP  0  0  0  0  0  0  0  0  0  0  0  0  # atno 17370 bound_to 10713
  156.7246  130.9020  151.3621 LP  0  0  0  0  0  0  0  0  0  0  0  0  # atno 17371 bound_to 10713
  140.3588  134.7706  157.4519 LP  0  0  0  0  0  0  0  0  0  0  0  0  # atno 17394 bound_to 11000
  140.0802  134.5742  155.8549 LP  0  0  0  0  0  0  0  0  0  0  0  0  # atno 17395 bound_to 11000

$$$$
