AV-unprocessed.smi:33|AV-procd|sdf|208|dock8
  -GOLD-   2262015503D 1   1.00000     0.00000
 Structure written by MMmdl.
 67 72  0  0  0  0  0  0  0  0  1 V2000
  153.1856  140.2871  159.6405 O   0  0  0  0  0  0  0  0  0  0  0  0
  152.6044  140.9138  158.7522 C   0  0  0  0  0  0  0  0  0  0  0  0
  152.2493  140.3776  157.5677 O   0  0  0  0  0  0  0  0  0  0  0  0
  152.3196  138.9744  157.3672 C   0  0  0  0  0  0  0  0  0  0  0  0
  152.2365  138.6794  155.8608 C   0  0  1  0  0  0  0  0  0  0  0  0
  152.1558  137.2627  155.6722 O   0  0  0  0  0  0  0  0  0  0  0  0
  150.9133  136.8959  155.1472 C   0  0  1  0  0  0  0  0  0  0  0  0
  150.4204  135.6502  155.8189 N   0  0  0  0  0  0  0  0  0  0  0  0
  150.4069  135.3861  157.1707 C   0  0  0  0  0  0  0  0  0  0  0  0
  149.9219  134.2228  157.5119 N   0  0  0  0  0  0  0  0  0  0  0  0
  149.5719  133.6387  156.3019 C   0  0  0  0  0  0  0  0  0  0  0  0
  148.9959  132.3920  155.9368 C   0  0  0  0  0  0  0  0  0  0  0  0
  148.6386  131.4525  156.8431 N   0  0  0  0  0  0  0  0  0  0  0  0
  149.3340  130.1588  156.7729 C   0  0  0  0  0  0  0  0  0  0  0  0
  148.7956  129.1521  157.2371 O   0  0  0  0  0  0  0  0  0  0  0  0
  150.6742  130.0484  156.1031 C   0  0  0  0  0  0  0  0  0  0  0  0
  150.9825  128.9129  155.3222 C   0  0  0  0  0  0  0  0  0  0  0  0
  152.2424  128.7980  154.7030 C   0  0  0  0  0  0  0  0  0  0  0  0
  153.2083  129.8073  154.8772 C   0  0  0  0  0  0  0  0  0  0  0  0
  152.9175  130.9281  155.6782 C   0  0  0  0  0  0  0  0  0  0  0  0
  151.6573  131.0449  156.2961 C   0  0  0  0  0  0  0  0  0  0  0  0
  147.6009  131.8184  157.8185 C   0  0  0  0  0  0  0  0  0  0  0  0
  146.7832  132.6956  157.5339 O   0  0  0  0  0  0  0  0  0  0  0  0
  147.4952  131.0931  159.1304 C   0  0  0  0  0  0  0  0  0  0  0  0
  146.2699  131.0774  159.8325 C   0  0  0  0  0  0  0  0  0  0  0  0
  146.1678  130.4084  161.0677 C   0  0  0  0  0  0  0  0  0  0  0  0
  147.2944  129.7678  161.6179 C   0  0  0  0  0  0  0  0  0  0  0  0
  148.5262  129.8049  160.9377 C   0  0  0  0  0  0  0  0  0  0  0  0
  148.6290  130.4729  159.7022 C   0  0  0  0  0  0  0  0  0  0  0  0
  148.7947  132.1426  154.6171 N   0  0  0  0  0  0  0  0  0  0  0  0
  149.1344  133.0625  153.7101 C   0  0  0  0  0  0  0  0  0  0  0  0
  149.6749  134.2667  153.9069 N   0  0  0  0  0  0  0  0  0  0  0  0
  149.8818  134.5217  155.2309 C   0  0  0  0  0  0  0  0  0  0  0  0
  149.9687  138.0918  155.3165 C   0  0  1  0  0  0  0  0  0  0  0  0
  149.2836  138.0983  156.5571 O   0  0  0  0  0  0  0  0  0  0  0  0
  150.9691  139.2254  155.1932 C   0  0  1  0  0  0  0  0  0  0  0  0
  150.5286  140.3882  155.6772 F   0  0  0  0  0  0  0  0  0  0  0  0
  152.2329  142.3531  158.8714 C   0  0  0  0  0  0  0  0  0  0  0  0
  151.7213  143.0322  157.7409 C   0  0  0  0  0  0  0  0  0  0  0  0
  151.3571  144.3902  157.8239 C   0  0  0  0  0  0  0  0  0  0  0  0
  151.5012  145.0863  159.0381 C   0  0  0  0  0  0  0  0  0  0  0  0
  152.0099  144.4224  160.1695 C   0  0  0  0  0  0  0  0  0  0  0  0
  152.3732  143.0639  160.0889 C   0  0  0  0  0  0  0  0  0  0  0  0
  153.2368  138.5616  157.7865 H   0  0  0  0  0  0  0  0  0  0  0  0
  151.4857  138.5077  157.8921 H   0  0  0  0  0  0  0  0  0  0  0  0
  153.1231  139.0737  155.3629 H   0  0  0  0  0  0  0  0  0  0  0  0
  151.0450  136.6155  154.1010 H   0  0  0  0  0  0  0  0  0  0  0  0
  150.7723  136.0911  157.9033 H   0  0  0  0  0  0  0  0  0  0  0  0
  150.2485  128.1324  155.1816 H   0  0  0  0  0  0  0  0  0  0  0  0
  152.4679  127.9343  154.0952 H   0  0  0  0  0  0  0  0  0  0  0  0
  154.1742  129.7180  154.4025 H   0  0  0  0  0  0  0  0  0  0  0  0
  153.6614  131.6979  155.8204 H   0  0  0  0  0  0  0  0  0  0  0  0
  151.4471  131.9068  156.9129 H   0  0  0  0  0  0  0  0  0  0  0  0
  145.3986  131.5652  159.4197 H   0  0  0  0  0  0  0  0  0  0  0  0
  145.2246  130.3875  161.5933 H   0  0  0  0  0  0  0  0  0  0  0  0
  147.2150  129.2543  162.5648 H   0  0  0  0  0  0  0  0  0  0  0  0
  149.3934  129.3218  161.3632 H   0  0  0  0  0  0  0  0  0  0  0  0
  149.5810  130.4981  159.1913 H   0  0  0  0  0  0  0  0  0  0  0  0
  148.9456  132.7977  152.6801 H   0  0  0  0  0  0  0  0  0  0  0  0
  149.2334  138.0997  154.5113 H   0  0  0  0  0  0  0  0  0  0  0  0
  148.4704  138.5674  156.4481 H   0  0  0  0  0  0  0  0  0  0  0  0
  151.1764  139.3967  154.1358 H   0  0  0  0  0  0  0  0  0  0  0  0
  151.5998  142.5182  156.7983 H   0  0  0  0  0  0  0  0  0  0  0  0
  150.9656  144.8978  156.9548 H   0  0  0  0  0  0  0  0  0  0  0  0
  151.2218  146.1276  159.1015 H   0  0  0  0  0  0  0  0  0  0  0  0
  152.1208  144.9558  161.1020 H   0  0  0  0  0  0  0  0  0  0  0  0
  152.7597  142.5845  160.9765 H   0  0  0  0  0  0  0  0  0  0  0  0
  1  2  2  0  0  0  0
  2  3  1  0  0  0  0
  2 38  1  0  0  0  0
  3  4  1  0  0  0  0
  4  5  1  0  0  0  0
  4 44  1  0  0  0  0
  4 45  1  0  0  0  0
  5 36  1  0  0  0  0
  5  6  1  0  0  0  0
  5 46  1  0  0  0  0
  6  7  1  0  0  0  0
  7  8  1  0  0  0  0
  7 34  1  0  0  0  0
  7 47  1  0  0  0  0
  8 33  1  0  0  0  0
  8  9  1  0  0  0  0
  9 10  2  0  0  0  0
  9 48  1  0  0  0  0
 10 11  1  0  0  0  0
 11 33  2  0  0  0  0
 11 12  1  0  0  0  0
 12 13  1  0  0  0  0
 12 30  2  0  0  0  0
 13 14  1  0  0  0  0
 13 22  1  0  0  0  0
 14 15  2  0  0  0  0
 14 16  1  0  0  0  0
 16 21  1  0  0  0  0
 16 17  2  0  0  0  0
 17 18  1  0  0  0  0
 17 49  1  0  0  0  0
 18 19  2  0  0  0  0
 18 50  1  0  0  0  0
 19 20  1  0  0  0  0
 19 51  1  0  0  0  0
 20 21  2  0  0  0  0
 20 52  1  0  0  0  0
 21 53  1  0  0  0  0
 22 23  2  0  0  0  0
 22 24  1  0  0  0  0
 24 29  1  0  0  0  0
 24 25  2  0  0  0  0
 25 26  1  0  0  0  0
 25 54  1  0  0  0  0
 26 27  2  0  0  0  0
 26 55  1  0  0  0  0
 27 28  1  0  0  0  0
 27 56  1  0  0  0  0
 28 29  2  0  0  0  0
 28 57  1  0  0  0  0
 29 58  1  0  0  0  0
 30 31  1  0  0  0  0
 31 32  2  0  0  0  0
 31 59  1  0  0  0  0
 32 33  1  0  0  0  0
 34 35  1  0  0  0  0
 34 36  1  0  0  0  0
 34 60  1  0  0  0  0
 35 61  1  0  0  0  0
 36 37  1  0  0  0  0
 36 62  1  0  0  0  0
 38 43  1  0  0  0  0
 38 39  2  0  0  0  0
 39 40  1  0  0  0  0
 39 63  1  0  0  0  0
 40 41  2  0  0  0  0
 40 64  1  0  0  0  0
 41 42  1  0  0  0  0
 41 65  1  0  0  0  0
 42 43  2  0  0  0  0
 42 66  1  0  0  0  0
 43 67  1  0  0  0  0
M  END
> <s_m_source_file>
AV-unprocessed.smi

> <i_m_source_file_index>
33

> <i_lp_mmshare_version>
43012

> <i_f3d_flags>
0

> <s_epik_input>
W2NIXTFbY0hdW2NIXVtjSF1bY0hdYzFDKD1PKU9bQ0gyXVtDQEBIXTJPW0NASF0oW0NAQEhdKFtPSF0pW0NAQEhdMkYpbihbY0hdbjMpYyhjMzQpbltjSF1uYzROKEMoPU8pYzVbY0hdW2NIXVtjSF1bY0hdW2NIXTUpQyg9TyljNltjSF1bY0hdW2NIXVtjSF1bY0hdNg==

> <s_epik_cmdline>
J2VwaWtfcHl0aG9uJywgJy1waCcsICc3LjAnLCAnLXRuJywgJzgnLCAnLW1hJywgJzIwMCcsICctbWV0YWxfYmluZGluZycsICctaW1hZScsICc8aW5maWxlLm1hZT4nLCAnLW9tYWUnLCAnPG91dGZpbGUubWFlPic=

> <r_lp_tautomer_probability>
1

> <r_epik_Ionization_Penalty>
0.00067664

> <r_epik_Ionization_Penalty_Charging>
0

> <r_epik_Ionization_Penalty_Neutral>
0.00067664

> <r_epik_State_Penalty>
0.000428095

> <r_epik_Charging_Adjusted_Penalty>
0.000428095

> <i_epik_Tot_Q>
0

> <i_epik_Tot_abs_Q>
0

> <r_epik_Metal_State_Penalty>
-0

> <b_epik_Metal_Only>
0

> <s_epik_Chemistry_Notes>
This compound has an ester and may undergo hydrolysis at high or low pH. This compound contains an acetal/aminal-like group ( X-CH(R)-Y where X, Y are N, S, or O) that may be acid/base labile, releasing an aldehyde.

> <s_lp_Force_Field>
OPLS_2005

> <r_lp_Energy>
79.915

> <b_lp_Chiralities_Consistent>
1

> <s_lp_Variant>
AV-unprocessed.smi:33-10

> <Gold.Version>
5.8.1

> <Gold.Id.Protein>
6NUR|6NUR_protein|mol2

> <Gold.PLP.Fitness>
59.0560

> <Gold.PLP.PLP>
-56.5745

> <Gold.PLP.part.hbond>
-2.8895

> <Gold.PLP.part.metal>
0.0000

> <Gold.PLP.part.buried>
-4.7087

> <Gold.PLP.part.nonpolar>
-51.4404

> <Gold.PLP.part.repulsive>
1.6733

> <Gold.PLP.ligand.clash>
0.0323

> <Gold.PLP.ligand.torsion>
3.0087

> <Gold.PLP.Chemscore.Hbond>
1.3809

> <Gold.PLP.Chemscore.CHOScore>
0.0000

> <Gold.PLP.Chemscore.Metal>
0.0000

> <Gold.Chemscore.Hbonds>
donor molecule, donor type, donor heavy atom, donor atom, acceptor molecule, acceptor atom, score
      P1  H  6896  6907       L1    10  0.86
      P1  H 10752 10765       L1     6  0.48

> <Gold.PLP.Chemscore.Internal.Correction>
4.3886

> <Gold.Rescore>
     Score         DG    S(hbond)    S(metal)    S(lipo)     H(rot)  DE(clash)    DE(int)     intcor
     10.24     -19.27       0.97        0.00     145.43       2.52       0.29       8.75       ----

> <Gold.Chemscore.Fitness>
10.2405

> <Gold.Chemscore.DG>
-19.2747

> <Gold.Chemscore.ZeroCoef>
-5.4800

> <Gold.Chemscore.Hbond>
0.9708

> <Gold.Chemscore.Metal>
0.0000

> <Gold.Chemscore.Lipo>
145.4319

> <Gold.Chemscore.Internal_Hbond>
0.0000

> <Gold.Chemscore.DEClash>
0.2859

> <Gold.Chemscore.DEInternal>
8.7482

> <Gold.Chemscore.Rot>
2.5247

> <Gold.Chemscore.Internal.Correction>
   9.000000E+99

> <Gold.Chemscore.Hbonds>
donor molecule, donor type, donor heavy atom, donor atom, acceptor molecule, acceptor atom, score
      P1  H  6896  6907       L1    10  0.42
      P1  H 10752 10765       L1     6  0.07

> <Gold.Chemscore.Hbond.Weighted>
-3.2424

> <Gold.Chemscore.Metal.Weighted>
-0.0000

> <Gold.Chemscore.Lipo.Weighted>
-17.0155

> <Gold.Chemscore.Internal_Hbond.Weighted>
0.0000

> <Gold.Chemscore.DEClash.Weighted>
0.2859

> <Gold.Chemscore.DEInternal.Weighted>
8.7482

> <Gold.Chemscore.Rot.Weighted>
6.4633

> <Gold.Chemscore.Internal.Correction.Weighted>
   9.000000E+99

> <Gold.Protein.RotatedTorsions>
[ 6907 6896 6895 6894 ] final -122.59 input  -60.11 | X-H torsion
[ 7974 7965 7964 7962 ] final -166.12 input  175.53 | X-H torsion
[ 8008 7997 7996 7995 ] final   14.34 input   59.86 | X-H torsion
[ 10167 10162 10161 10158 ] final   11.99 input  -65.29 | X-H torsion
[ 10718 10713 10712 10709 ] final -145.19 input   66.30 | X-H torsion
[ 10763 10752 10751 10750 ] final -148.82 input  -60.55 | X-H torsion
[ 11005 11000 10999 10996 ] final   74.97 input  -57.11 | X-H torsion

> <Gold.Protein.ActiveResidues>
 VAL166  LYS551  ARG553  GLY616  TRP617  ASP618  TYR619  PRO620  LYS621  CYS622 
 ASP623  PHE694  ASN695  SER759  ASP760  ASP761  ALA762  ILE779  LEU786  VAL792 
 PHE793  MET794  SER795  GLU796  ALA797  LYS798  CYS799  TRP800  GLU811  SER814 

> <Gold.Protein.RotatedAtoms>
  150.8590  133.7672  159.2998 H   0  0  0  0  0  0  0  0  0  0  0  0  # atno 6907 bound_to 6896
  151.5320  135.1067  159.9914 H   0  0  0  0  0  0  0  0  0  0  0  0  # atno 6908 bound_to 6896
  152.4612  133.7782  159.6892 H   0  0  0  0  0  0  0  0  0  0  0  0  # atno 6909 bound_to 6896
  144.7253  140.2714  143.6250 H   0  0  0  0  0  0  0  0  0  0  0  0  # atno 7974 bound_to 7965
  154.8471  140.2924  155.5622 H   0  0  0  0  0  0  0  0  0  0  0  0  # atno 8008 bound_to 7997
  156.3015  140.2503  156.3355 H   0  0  0  0  0  0  0  0  0  0  0  0  # atno 8009 bound_to 7997
  154.9061  140.0390  157.1910 H   0  0  0  0  0  0  0  0  0  0  0  0  # atno 8010 bound_to 7997
  140.6096  143.8435  150.7051 H   0  0  0  0  0  0  0  0  0  0  0  0  # atno 10167 bound_to 10162
  156.3794  130.7829  151.2020 H   0  0  0  0  0  0  0  0  0  0  0  0  # atno 10718 bound_to 10713
  154.8212  135.3325  154.7033 H   0  0  0  0  0  0  0  0  0  0  0  0  # atno 10763 bound_to 10752
  153.7666  135.6928  153.4919 H   0  0  0  0  0  0  0  0  0  0  0  0  # atno 10764 bound_to 10752
  153.2074  135.4494  155.0288 H   0  0  0  0  0  0  0  0  0  0  0  0  # atno 10765 bound_to 10752
  139.9366  134.7478  156.1213 H   0  0  0  0  0  0  0  0  0  0  0  0  # atno 11005 bound_to 11000
  145.8039  139.1975  143.2032 LP  0  0  0  0  0  0  0  0  0  0  0  0  # atno 17320 bound_to 7965
  146.0653  140.7927  142.9715 LP  0  0  0  0  0  0  0  0  0  0  0  0  # atno 17321 bound_to 7965
  140.2000  143.3967  152.1798 LP  0  0  0  0  0  0  0  0  0  0  0  0  # atno 17342 bound_to 10162
  139.5351  144.7201  151.4921 LP  0  0  0  0  0  0  0  0  0  0  0  0  # atno 17343 bound_to 10162
  157.7491  131.0348  150.4336 LP  0  0  0  0  0  0  0  0  0  0  0  0  # atno 17370 bound_to 10713
  156.4577  130.4025  149.6596 LP  0  0  0  0  0  0  0  0  0  0  0  0  # atno 17371 bound_to 10713
  141.0982  133.6687  156.2693 LP  0  0  0  0  0  0  0  0  0  0  0  0  # atno 17394 bound_to 11000
  140.6060  134.5506  157.5526 LP  0  0  0  0  0  0  0  0  0  0  0  0  # atno 17395 bound_to 11000

$$$$
