#       Name:                AV-unprocessed.smi:36
#       Creating user name   scv26
#       Creation time:       Thu Mar 26 16:10:09 2020


#       File generated by GOLD software.
#

@<TRIPOS>MOLECULE
AV-unprocessed.smi:36
    73    76     1
SMALL
NO_CHARGES


@<TRIPOS>ATOM
      1 ****        -3.5377   2.6446   2.9638 C.3            1 S1                 0.0000
      2 ****        -2.9076   2.6271   1.5614 C.3            1 S1                 0.0000
      3 ****        -2.6721   1.1729   1.1194 C.3            1 S1                 0.0000
      4 ****        -3.8371   3.3339   0.5611 C.3            1 S1                 0.0000
      5 ****        -1.2287   3.5372   1.6186 Si             1 S1                 0.0000
      6 ****        -0.3995   3.5302  -0.0931 C.3            1 S1                 0.0000
      7 ****        -1.4393   5.3297   2.2105 C.3            1 S1                 0.0000
      8 ****        -0.2401   2.7316   2.7346 O.3            1 S1                 0.0000
      9 ****         1.1534   2.9353   2.8651 C.3            1 S1                 0.0000
     10 ****         1.8945   1.8829   2.0265 C.3            1 S1                 0.0000
     11 ****         1.8298   0.5963   2.6264 O.3            1 S1                 0.0000
     12 ****         2.7634  -0.2327   2.0046 C.3            1 S1                 0.0000
     13 ****         2.0940  -0.9251   0.8539 N.pl3          1 S1                 0.0000
     14 ****         0.8082  -0.8537   0.4464 C.2            1 S1                 0.0000
     15 ****         0.4519  -1.5957  -0.5999 N.2            1 S1                 0.0000
     16 ****         1.6396  -2.2471  -0.8972 C.ar           1 S1                 0.0000
     17 ****         1.9853  -3.2041  -1.8901 C.ar           1 S1                 0.0000
     18 ****         1.1059  -3.6590  -2.7955 N.pl3          1 S1                -1.0000
     19 ****         0.2937  -4.7005  -2.4824 C.2            1 S1                 0.0000
     20 ****         0.2609  -5.3466  -1.4328 O.2            1 S1                 0.0000
     21 ****        -0.6059  -5.1139  -3.6159 C.ar           1 S1                 0.0000
     22 ****        -0.8695  -6.4853  -3.8352 C.ar           1 S1                 0.0000
     23 ****        -1.7266  -6.8924  -4.8761 C.ar           1 S1                 0.0000
     24 ****        -2.3377  -5.9312  -5.7026 C.ar           1 S1                 0.0000
     25 ****        -2.0947  -4.5621  -5.4845 C.ar           1 S1                 0.0000
     26 ****        -1.2366  -4.1542  -4.4445 C.ar           1 S1                 0.0000
     27 ****         3.2707  -3.6415  -1.9013 N.ar           1 S1                 0.0000
     28 ****         4.1466  -3.1901  -0.9955 C.ar           1 S1                 0.0000
     29 ****         3.9575  -2.3071  -0.0099 N.ar           1 S1                 0.0000
     30 ****         2.6718  -1.8494   0.0011 C.ar           1 S1                 0.0000
     31 ****         3.8967   0.6832   1.5038 C.3            1 S1                 0.0000
     32 ****         3.4010   2.0848   1.8407 C.3            1 S1                 0.0000
     33 ****         4.0169   2.5628   3.0219 O.3            1 S1                 0.0000
     34 ****        -4.4915   2.1160   2.9766 H              1 S1                 0.0000
     35 ****        -3.7228   3.6632   3.3052 H              1 S1                 0.0000
     36 ****        -2.8864   2.1656   3.6957 H              1 S1                 0.0000
     37 ****        -2.0101   0.6524   1.8121 H              1 S1                 0.0000
     38 ****        -2.2167   1.1236   0.1300 H              1 S1                 0.0000
     39 ****        -3.6075   0.6138   1.0769 H              1 S1                 0.0000
     40 ****        -4.8068   2.8383   0.5032 H              1 S1                 0.0000
     41 ****        -3.4110   3.3390  -0.4426 H              1 S1                 0.0000
     42 ****        -4.0154   4.3704   0.8485 H              1 S1                 0.0000
     43 ****        -0.9935   4.0757  -0.8259 H              1 S1                 0.0000
     44 ****        -0.2685   2.5179  -0.4752 H              1 S1                 0.0000
     45 ****         0.5842   3.9979  -0.0642 H              1 S1                 0.0000
     46 ****        -2.0830   5.8998   1.5410 H              1 S1                 0.0000
     47 ****        -0.4824   5.8490   2.2600 H              1 S1                 0.0000
     48 ****        -1.8829   5.3740   3.2048 H              1 S1                 0.0000
     49 ****         1.4041   3.9401   2.5230 H              1 S1                 0.0000
     50 ****         1.4330   2.8712   3.9169 H              1 S1                 0.0000
     51 ****         1.4426   1.8264   1.0369 H              1 S1                 0.0000
     52 ****         3.0907  -1.0415   2.6587 H              1 S1                 0.0000
     53 ****         0.0880  -0.2198   0.9417 H              1 S1                 0.0000
     54 ****        -0.4091  -7.2353  -3.2082 H              1 S1                 0.0000
     55 ****        -1.9153  -7.9432  -5.0388 H              1 S1                 0.0000
     56 ****        -2.9953  -6.2433  -6.5002 H              1 S1                 0.0000
     57 ****        -2.5686  -3.8227  -6.1132 H              1 S1                 0.0000
     58 ****        -1.0708  -3.0981  -4.2866 H              1 S1                 0.0000
     59 ****         5.1449  -3.5944  -1.0729 H              1 S1                 0.0000
     60 ****         4.8354   0.4323   1.9996 H              1 S1                 0.0000
     61 ****         4.0368   0.5679   0.4283 H              1 S1                 0.0000
     62 ****         3.6113   2.7907   1.0366 H              1 S1                 0.0000
     63 ****         3.6548   3.4107   3.2291 H              1 S1                 0.0000
     64 ****         0.9121   0.2164   2.5104 LP             1 S1                 0.0000
     65 ****         2.0400   0.6684   3.6014 LP             1 S1                 0.0000
     66 ****        -0.4373  -1.6650  -1.0521 LP             1 S1                 0.0000
     67 ****         1.0490  -3.2321  -3.6980 LP             1 S1                 0.0000
     68 ****         0.8865  -5.1198  -0.6863 LP             1 S1                 0.0000
     69 ****        -0.3912  -6.0974  -1.3280 LP             1 S1                 0.0000
     70 ****         3.5645  -4.3044  -2.5900 LP             1 S1                 0.0000
     71 ****         4.6656  -2.0195   0.6350 LP             1 S1                 0.0000
     72 ****         5.0033   2.6437   2.8784 LP             1 S1                 0.0000
     73 ****         3.8405   1.9282   3.7743 LP             1 S1                 0.0000
@<TRIPOS>BOND
    1    1    2 1     
    2    1   34 1     
    3    1   35 1     
    4    1   36 1     
    5    2    3 1     
    6    2    4 1     
    7    2    5 1     
    8    3   37 1     
    9    3   38 1     
   10    3   39 1     
   11    4   40 1     
   12    4   41 1     
   13    4   42 1     
   14    5    6 1     
   15    5    7 1     
   16    5    8 1     
   17    6   43 1     
   18    6   44 1     
   19    6   45 1     
   20    7   46 1     
   21    7   47 1     
   22    7   48 1     
   23    8    9 1     
   24    9   10 1     
   25    9   49 1     
   26    9   50 1     
   27   10   32 1     
   28   10   11 1     
   29   10   51 1     
   30   11   12 1     
   31   12   13 1     
   32   12   31 1     
   33   12   52 1     
   34   13   30 1     
   35   13   14 1     
   36   14   15 2     
   37   14   53 1     
   38   15   16 1     
   39   16   30 ar    
   40   16   17 ar    
   41   17   18 1     
   42   17   27 ar    
   43   18   19 1     
   44   19   20 2     
   45   19   21 1     
   46   21   26 ar    
   47   21   22 ar    
   48   22   23 ar    
   49   22   54 1     
   50   23   24 ar    
   51   23   55 1     
   52   24   25 ar    
   53   24   56 1     
   54   25   26 ar    
   55   25   57 1     
   56   26   58 1     
   57   27   28 ar    
   58   28   29 ar    
   59   28   59 1     
   60   29   30 ar    
   61   31   32 1     
   62   31   60 1     
   63   31   61 1     
   64   32   33 1     
   65   32   62 1     
   66   33   63 1     
   67   11   64 1     
   68   11   65 1     
   69   15   66 1     
   70   18   67 1     
   71   20   68 1     
   72   20   69 1     
   73   27   70 1     
   74   29   71 1     
   75   33   72 1     
   76   33   73 1     
@<TRIPOS>SUBSTRUCTURE
      1 S1             1
@<TRIPOS>SET
LONE_PAIRS      STATIC     ATOMS    <user>   **** ""
10 64 65 66 67 68 69 70 71 72 73
DONOR_HYDROGENS      STATIC     ATOMS    <user>   **** ""
1 63
ATOM$BLUE        STATIC     ATOMS    COLORGROUP SYSTEM
10 64 65 66 67 68 69 70 71 72 73
ATOM$RED        STATIC     ATOMS    COLORGROUP SYSTEM
1 63
