AV-unprocessed.smi:1721|AV-procd|sdf|6935|dock3
  -GOLD-   22720 8143D 1   1.00000     0.00000
 Structure written by MMmdl.
 44 46  0  0  0  0  0  0  0  0  2 V2000
  151.5865  138.2491  154.2844 C   0  0  0  0  0  0  0  0  0  0  0  0
  150.2281  138.2073  153.8611 O   0  0  0  0  0  0  0  0  0  0  0  0
  149.4583  139.3474  153.9965 C   0  0  0  0  0  0  0  0  0  0  0  0
  150.0290  140.4464  154.5504 N   0  0  0  0  0  0  0  0  0  0  0  0
  149.2812  141.5599  154.6860 C   0  0  0  0  0  0  0  0  0  0  0  0
  147.9365  141.6369  154.2815 C   0  0  0  0  0  0  0  0  0  0  0  0
  147.3417  140.4989  153.7062 C   0  0  0  0  0  0  0  0  0  0  0  0
  148.1142  139.3200  153.5542 C   0  0  0  0  0  0  0  0  0  0  0  0
  147.6320  138.1039  152.9895 N   0  0  0  0  0  0  0  0  0  0  0  0
  146.3704  137.6946  152.7705 C   0  0  0  0  0  0  0  0  0  0  0  0
  145.3511  138.3303  153.0342 O   0  0  0  0  0  0  0  0  0  0  0  0
  146.3519  136.4771  152.2099 N   0  0  0  0  0  0  0  0  0  0  0  0
  145.1470  135.7365  151.8459 C   0  0  2  0  0  0  0  0  0  0  0  0
  144.0250  135.8805  152.8672 C   0  0  0  0  0  0  0  0  0  0  0  0
  143.1309  134.6845  152.5353 C   0  0  0  0  0  0  0  0  0  0  0  0
  144.0406  133.6085  152.0783 N   0  3  1  0  0  0  0  0  0  0  0  0
  143.4884  132.7531  150.9995 C   0  0  0  0  0  0  0  0  0  0  0  0
  144.4909  131.6510  150.6086 C   0  0  0  0  0  0  0  0  0  0  0  0
  145.9136  132.1899  150.3506 C   0  0  0  0  0  0  0  0  0  0  0  0
  145.9906  133.7200  150.4677 C   0  0  0  0  0  0  0  0  0  0  0  0
  145.3725  134.2157  151.7954 C   0  0  1  0  0  0  0  0  0  0  0  0
  152.0466  137.2756  154.1155 H   0  0  0  0  0  0  0  0  0  0  0  0
  151.6668  138.4717  155.3495 H   0  0  0  0  0  0  0  0  0  0  0  0
  152.1577  138.9872  153.7197 H   0  0  0  0  0  0  0  0  0  0  0  0
  149.7688  142.4145  155.1311 H   0  0  0  0  0  0  0  0  0  0  0  0
  147.3730  142.5491  154.4101 H   0  0  0  0  0  0  0  0  0  0  0  0
  146.3103  140.5649  153.4015 H   0  0  0  0  0  0  0  0  0  0  0  0
  148.3555  137.4585  152.7069 H   0  0  0  0  0  0  0  0  0  0  0  0
  147.2369  136.0264  152.0281 H   0  0  0  0  0  0  0  0  0  0  0  0
  144.7658  136.0853  150.8834 H   0  0  0  0  0  0  0  0  0  0  0  0
  144.4152  135.7845  153.8817 H   0  0  0  0  0  0  0  0  0  0  0  0
  143.5008  136.8340  152.7929 H   0  0  0  0  0  0  0  0  0  0  0  0
  142.5300  134.3636  153.3865 H   0  0  0  0  0  0  0  0  0  0  0  0
  142.4472  134.9615  151.7310 H   0  0  0  0  0  0  0  0  0  0  0  0
  142.5523  132.3043  151.3335 H   0  0  0  0  0  0  0  0  0  0  0  0
  143.2486  133.3675  150.1302 H   0  0  0  0  0  0  0  0  0  0  0  0
  144.5326  130.9035  151.4018 H   0  0  0  0  0  0  0  0  0  0  0  0
  144.1256  131.1275  149.7244 H   0  0  0  0  0  0  0  0  0  0  0  0
  146.6005  131.7433  151.0707 H   0  0  0  0  0  0  0  0  0  0  0  0
  146.2623  131.8752  149.3663 H   0  0  0  0  0  0  0  0  0  0  0  0
  147.0289  134.0436  150.3923 H   0  0  0  0  0  0  0  0  0  0  0  0
  145.4727  134.1717  149.6205 H   0  0  0  0  0  0  0  0  0  0  0  0
  146.0200  133.9181  152.6220 H   0  0  0  0  0  0  0  0  0  0  0  0
  144.1868  133.0001  152.8712 H   0  0  0  0  0  0  0  0  0  0  0  0
  1  2  1  0  0  0  0
  1 22  1  0  0  0  0
  1 23  1  0  0  0  0
  1 24  1  0  0  0  0
  2  3  1  0  0  0  0
  3  8  1  0  0  0  0
  3  4  2  0  0  0  0
  4  5  1  0  0  0  0
  5  6  2  0  0  0  0
  5 25  1  0  0  0  0
  6  7  1  0  0  0  0
  6 26  1  0  0  0  0
  7  8  2  0  0  0  0
  7 27  1  0  0  0  0
  8  9  1  0  0  0  0
  9 10  1  0  0  0  0
  9 28  1  0  0  0  0
 10 11  2  0  0  0  0
 10 12  1  0  0  0  0
 12 13  1  0  0  0  0
 12 29  1  0  0  0  0
 13 21  1  0  0  0  0
 13 14  1  0  0  0  0
 13 30  1  0  0  0  0
 14 15  1  0  0  0  0
 14 31  1  0  0  0  0
 14 32  1  0  0  0  0
 15 16  1  0  0  0  0
 15 33  1  0  0  0  0
 15 34  1  0  0  0  0
 16 21  1  0  0  0  0
 16 17  1  0  0  0  0
 16 44  1  0  0  0  0
 17 18  1  0  0  0  0
 17 35  1  0  0  0  0
 17 36  1  0  0  0  0
 18 19  1  0  0  0  0
 18 37  1  0  0  0  0
 18 38  1  0  0  0  0
 19 20  1  0  0  0  0
 19 39  1  0  0  0  0
 19 40  1  0  0  0  0
 20 21  1  0  0  0  0
 20 41  1  0  0  0  0
 20 42  1  0  0  0  0
 21 43  1  0  0  0  0
M  CHG  1  16   1
M  END
> <s_m_source_file>
AV-unprocessed.smi

> <i_m_source_file_index>
1721

> <i_lp_mmshare_version>
43012

> <i_f3d_flags>
0

> <s_epik_input>
W0NIM11PYzFuW2NIXVtjSF1bY0hdYzFbTkhdQyg9TylbTkhdW0NASF0oW0NIMl1bQ0gyXTIpW0NAQEhdKE4yMylbQ0gyXVtDSDJdW0NIMl1bQ0gyXTM=

> <s_epik_cmdline>
J2VwaWtfcHl0aG9uJywgJy1waCcsICc3LjAnLCAnLXRuJywgJzgnLCAnLW1hJywgJzIwMCcsICctbWV0YWxfYmluZGluZycsICctaW1hZScsICc8aW5maWxlLm1hZT4nLCAnLW9tYWUnLCAnPG91dGZpbGUubWFlPic=

> <r_lp_tautomer_probability>
1

> <r_epik_Ionization_Penalty>
0.00104793

> <r_epik_Ionization_Penalty_Charging>
0.000974069

> <r_epik_Ionization_Penalty_Neutral>
7.38649e-05

> <r_epik_State_Penalty>
0.000633842

> <r_epik_Charging_Adjusted_Penalty>
0.00160791

> <i_epik_Tot_Q>
1

> <i_epik_Tot_abs_Q>
1

> <r_epik_Metal_State_Penalty>
-0

> <b_epik_Metal_Only>
0

> <s_lp_Force_Field>
OPLS_2005

> <r_lp_Energy>
42.7216

> <b_lp_Chiralities_Consistent>
1

> <s_lp_Variant>
AV-unprocessed.smi:1721-1

> <Gold.Version>
5.8.1

> <Gold.Id.Protein>
6NUR|6NUR_protein|mol2

> <Gold.PLP.Fitness>
47.2457

> <Gold.PLP.PLP>
-36.5695

> <Gold.PLP.part.hbond>
-3.0000

> <Gold.PLP.part.metal>
0.0000

> <Gold.PLP.part.buried>
-3.2869

> <Gold.PLP.part.nonpolar>
-33.6865

> <Gold.PLP.part.repulsive>
3.0262

> <Gold.PLP.ligand.clash>
0.0000

> <Gold.PLP.ligand.torsion>
0.3795

> <Gold.PLP.Chemscore.Hbond>
2.8080

> <Gold.PLP.Chemscore.CHOScore>
1.0000

> <Gold.PLP.Chemscore.Metal>
0.0000

> <Gold.Chemscore.Hbonds>
donor molecule, donor type, donor heavy atom, donor atom, acceptor molecule, acceptor atom, score
      L1  H     9    28       P1  7948  1.00
      L1  H    12    29       P1  7948  0.94
      P1  H  7989  7998       L1     4  0.91
      L1  C     5    25       P1  8028  1.00

> <Gold.PLP.Chemscore.Internal.Correction>
0.0112

> <Gold.Rescore>
     Score         DG    S(hbond)    S(metal)    S(lipo)     H(rot)  DE(clash)    DE(int)     intcor
     16.29     -19.92       2.25        0.00      86.50       1.25       1.04       2.60       ----

> <Gold.Chemscore.Fitness>
16.2865

> <Gold.Chemscore.DG>
-19.9189

> <Gold.Chemscore.ZeroCoef>
-5.4800

> <Gold.Chemscore.Hbond>
2.2492

> <Gold.Chemscore.Metal>
0.0000

> <Gold.Chemscore.Lipo>
86.4971

> <Gold.Chemscore.Internal_Hbond>
0.0000

> <Gold.Chemscore.DEClash>
1.0363

> <Gold.Chemscore.DEInternal>
2.5961

> <Gold.Chemscore.Rot>
1.2474

> <Gold.Chemscore.Internal.Correction>
   9.000000E+99

> <Gold.Chemscore.Hbonds>
donor molecule, donor type, donor heavy atom, donor atom, acceptor molecule, acceptor atom, score
      L1  H     9    28       P1  7948  0.96
      L1  H    12    29       P1  7948  0.91
      P1  H  7989  7998       L1     4  0.34

> <Gold.Chemscore.Hbond.Weighted>
-7.5122

> <Gold.Chemscore.Metal.Weighted>
-0.0000

> <Gold.Chemscore.Lipo.Weighted>
-10.1202

> <Gold.Chemscore.Internal_Hbond.Weighted>
0.0000

> <Gold.Chemscore.DEClash.Weighted>
1.0363

> <Gold.Chemscore.DEInternal.Weighted>
2.5961

> <Gold.Chemscore.Rot.Weighted>
3.1934

> <Gold.Chemscore.Internal.Correction.Weighted>
   9.000000E+99

> <Gold.Protein.RotatedTorsions>
[ 6907 6896 6895 6894 ] final   38.46 input  -60.11 | X-H torsion
[ 7974 7965 7964 7962 ] final  146.20 input  175.53 | X-H torsion
[ 8008 7997 7996 7995 ] final  -84.64 input   59.86 | X-H torsion
[ 10167 10162 10161 10158 ] final  117.73 input  -65.29 | X-H torsion
[ 10718 10713 10712 10709 ] final  179.77 input   66.30 | X-H torsion
[ 10763 10752 10751 10750 ] final   46.49 input  -60.55 | X-H torsion
[ 11005 11000 10999 10996 ] final -113.30 input  -57.11 | X-H torsion

> <Gold.Protein.ActiveResidues>
 VAL166  LYS551  ARG553  GLY616  TRP617  ASP618  TYR619  PRO620  LYS621  CYS622 
 ASP623  PHE694  ASN695  SER759  ASP760  ASP761  ALA762  ILE779  LEU786  VAL792 
 PHE793  MET794  SER795  GLU796  ALA797  LYS798  CYS799  TRP800  GLU811  SER814 

> <Gold.Protein.RotatedAtoms>
  152.1567  134.8945  160.0544 H   0  0  0  0  0  0  0  0  0  0  0  0  # atno 6907 bound_to 6896
  151.9957  133.3802  159.4170 H   0  0  0  0  0  0  0  0  0  0  0  0  # atno 6908 bound_to 6896
  150.6882  134.3811  159.5078 H   0  0  0  0  0  0  0  0  0  0  0  0  # atno 6909 bound_to 6896
  144.8690  139.5876  143.5896 H   0  0  0  0  0  0  0  0  0  0  0  0  # atno 7974 bound_to 7965
  154.6320  140.0602  156.9743 H   0  0  0  0  0  0  0  0  0  0  0  0  # atno 8008 bound_to 7997
  155.1651  140.3286  155.4385 H   0  0  0  0  0  0  0  0  0  0  0  0  # atno 8009 bound_to 7997
  156.2487  140.1924  156.6756 H   0  0  0  0  0  0  0  0  0  0  0  0  # atno 8010 bound_to 7997
  139.6159  144.7092  151.2740 H   0  0  0  0  0  0  0  0  0  0  0  0  # atno 10167 bound_to 10162
  156.8708  130.9783  151.3073 H   0  0  0  0  0  0  0  0  0  0  0  0  # atno 10718 bound_to 10713
  152.9810  135.6006  154.3608 H   0  0  0  0  0  0  0  0  0  0  0  0  # atno 10763 bound_to 10752
  154.3289  135.2769  155.2483 H   0  0  0  0  0  0  0  0  0  0  0  0  # atno 10764 bound_to 10752
  154.4616  135.5964  153.6315 H   0  0  0  0  0  0  0  0  0  0  0  0  # atno 10765 bound_to 10752
  141.0622  133.9516  157.2645 H   0  0  0  0  0  0  0  0  0  0  0  0  # atno 11005 bound_to 11000
  146.2916  139.7157  142.9156 LP  0  0  0  0  0  0  0  0  0  0  0  0  # atno 17320 bound_to 7965
  145.4167  141.0402  143.2987 LP  0  0  0  0  0  0  0  0  0  0  0  0  # atno 17321 bound_to 7965
  140.7350  143.6748  150.8051 LP  0  0  0  0  0  0  0  0  0  0  0  0  # atno 17342 bound_to 10162
  140.0351  143.5404  152.2743 LP  0  0  0  0  0  0  0  0  0  0  0  0  # atno 17343 bound_to 10162
  157.6196  130.8645  149.9087 LP  0  0  0  0  0  0  0  0  0  0  0  0  # atno 17370 bound_to 10713
  156.0727  130.3683  150.0742 LP  0  0  0  0  0  0  0  0  0  0  0  0  # atno 17371 bound_to 10713
  139.9443  135.0186  156.8806 LP  0  0  0  0  0  0  0  0  0  0  0  0  # atno 17394 bound_to 11000
  140.5845  134.0321  155.7476 LP  0  0  0  0  0  0  0  0  0  0  0  0  # atno 17395 bound_to 11000

$$$$
