#       Name:                AV-unprocessed.smi:260
#       Creating user name   scv26
#       Creation time:       Thu Mar 26 21:15:46 2020


#       File generated by GOLD software.
#

@<TRIPOS>MOLECULE
AV-unprocessed.smi:260
    62    65     1
SMALL
NO_CHARGES


@<TRIPOS>ATOM
      1 ****        -6.2084   0.8803   1.5400 C.3            1 S1                 0.0000
      2 ****        -5.6007   0.7929   0.2213 N.am           1 S1                 0.0000
      3 ****        -5.1526   1.8466  -0.4800 C.2            1 S1                 0.0000
      4 ****        -5.2360   2.9984  -0.0511 O.2            1 S1                 0.0000
      5 ****        -4.5145   1.5956  -1.8718 C.3            1 S1                 0.0000
      6 ****        -5.3278   2.3518  -2.9405 C.3            1 S1                 0.0000
      7 ****        -4.3383   0.1014  -2.2299 C.3            1 S1                 0.0000
      8 ****        -3.0309  -0.3187  -1.5449 C.3            1 S1                 0.0000
      9 ****        -2.2916   0.9172  -1.3342 N.pl3          1 S1                 0.0000
     10 ****        -0.9372   0.9324  -1.2412 C.ar           1 S1                 0.0000
     11 ****        -0.2734   2.0702  -1.5773 N.ar           1 S1                 0.0000
     12 ****         1.0586   2.1293  -1.4949 C.ar           1 S1                 0.0000
     13 ****         1.9125   1.1835  -1.1013 N.ar           1 S1                 0.0000
     14 ****         1.2551   0.0417  -0.7513 C.ar           1 S1                 0.0000
     15 ****        -0.1533  -0.1705  -0.7898 C.ar           1 S1                 0.0000
     16 ****        -0.4422  -1.4574  -0.3465 N.2            1 S1                 0.0000
     17 ****         0.7233  -1.9742  -0.0691 C.2            1 S1                 0.0000
     18 ****         1.7966  -1.1407  -0.2812 N.pl3          1 S1                 0.0000
     19 ****         3.1971  -1.4463  -0.0503 C.3            1 S1                 0.0000
     20 ****         3.7147  -0.8509   1.2736 C.3            1 S1                 0.0000
     21 ****         2.9674  -1.3456   2.3688 O.3            1 S1                 0.0000
     22 ****         5.2210  -1.0972   1.4918 C.3            1 S1                 0.0000
     23 ****         5.8118  -0.5862   2.8084 C.3            1 S1                 0.0000
     24 ****         7.0390  -1.4604   2.9382 C.3            1 S1                 0.0000
     25 ****         6.5266  -2.7984   2.4101 C.3            1 S1                 0.0000
     26 ****         5.5506  -2.4825   1.4203 O.3            1 S1                 0.0000
     27 ****        -3.0429   2.0509  -1.8581 C.3            1 S1                 0.0000
     28 ****        -6.4754  -0.1159   1.8928 H              1 S1                 0.0000
     29 ****        -7.1147   1.4867   1.5108 H              1 S1                 0.0000
     30 ****        -5.5158   1.3223   2.2576 H              1 S1                 0.0000
     31 ****        -5.5031  -0.1273  -0.1825 H              1 S1                 0.0000
     32 ****        -4.8887   2.2330  -3.9315 H              1 S1                 0.0000
     33 ****        -5.3696   3.4222  -2.7342 H              1 S1                 0.0000
     34 ****        -6.3529   1.9827  -2.9921 H              1 S1                 0.0000
     35 ****        -5.1807  -0.5361  -1.9603 H              1 S1                 0.0000
     36 ****        -4.2130   0.0000  -3.3090 H              1 S1                 0.0000
     37 ****        -3.2311  -0.7814  -0.5780 H              1 S1                 0.0000
     38 ****        -2.4780  -1.0300  -2.1597 H              1 S1                 0.0000
     39 ****         1.5031   3.0700  -1.7845 H              1 S1                 0.0000
     40 ****         0.8322  -2.9811   0.3069 H              1 S1                 0.0000
     41 ****         3.3224  -2.5297  -0.0607 H              1 S1                 0.0000
     42 ****         3.7739  -1.0571  -0.8902 H              1 S1                 0.0000
     43 ****         3.5545   0.2279   1.2526 H              1 S1                 0.0000
     44 ****         3.1221  -2.2754   2.4380 H              1 S1                 0.0000
     45 ****         5.7674  -0.6192   0.6767 H              1 S1                 0.0000
     46 ****         6.0444   0.4788   2.7852 H              1 S1                 0.0000
     47 ****         5.1430  -0.7708   3.6496 H              1 S1                 0.0000
     48 ****         7.8375  -1.0835   2.2975 H              1 S1                 0.0000
     49 ****         7.4177  -1.5214   3.9589 H              1 S1                 0.0000
     50 ****         7.3245  -3.4182   2.0005 H              1 S1                 0.0000
     51 ****         6.0387  -3.3590   3.2086 H              1 S1                 0.0000
     52 ****        -2.6969   2.2787  -2.8676 H              1 S1                 0.0000
     53 ****        -2.8857   2.9401  -1.2454 H              1 S1                 0.0000
     54 ****        -5.6471   3.1700   0.8442 LP             1 S1                 0.0000
     55 ****        -4.8926   3.7618  -0.5982 LP             1 S1                 0.0000
     56 ****        -0.7867   2.8698  -1.8889 LP             1 S1                 0.0000
     57 ****         2.9054   1.2971  -1.0673 LP             1 S1                 0.0000
     58 ****        -1.3402  -1.8887  -0.2600 LP             1 S1                 0.0000
     59 ****         1.9936  -1.1751   2.2182 LP             1 S1                 0.0000
     60 ****         3.2592  -0.8907   3.2102 LP             1 S1                 0.0000
     61 ****         5.9180  -2.6900   0.5137 LP             1 S1                 0.0000
     62 ****         4.7278  -3.0281   1.5794 LP             1 S1                 0.0000
@<TRIPOS>BOND
    1    1    2 1     
    2    1   28 1     
    3    1   29 1     
    4    1   30 1     
    5    2    3 am    
    6    2   31 1     
    7    3    4 2     
    8    3    5 1     
    9    5   27 1     
   10    5    6 1     
   11    5    7 1     
   12    6   32 1     
   13    6   33 1     
   14    6   34 1     
   15    7    8 1     
   16    7   35 1     
   17    7   36 1     
   18    8    9 1     
   19    8   37 1     
   20    8   38 1     
   21    9   10 1     
   22    9   27 1     
   23   10   15 ar    
   24   10   11 ar    
   25   11   12 ar    
   26   12   13 ar    
   27   12   39 1     
   28   13   14 ar    
   29   14   18 1     
   30   14   15 ar    
   31   15   16 1     
   32   16   17 2     
   33   17   18 1     
   34   17   40 1     
   35   18   19 1     
   36   19   20 1     
   37   19   41 1     
   38   19   42 1     
   39   20   21 1     
   40   20   22 1     
   41   20   43 1     
   42   21   44 1     
   43   22   26 1     
   44   22   23 1     
   45   22   45 1     
   46   23   24 1     
   47   23   46 1     
   48   23   47 1     
   49   24   25 1     
   50   24   48 1     
   51   24   49 1     
   52   25   26 1     
   53   25   50 1     
   54   25   51 1     
   55   27   52 1     
   56   27   53 1     
   57    4   54 1     
   58    4   55 1     
   59   11   56 1     
   60   13   57 1     
   61   16   58 1     
   62   21   59 1     
   63   21   60 1     
   64   26   61 1     
   65   26   62 1     
@<TRIPOS>SUBSTRUCTURE
      1 S1             1
@<TRIPOS>SET
LONE_PAIRS      STATIC     ATOMS    <user>   **** ""
9 54 55 56 57 58 59 60 61 62
DONOR_HYDROGENS      STATIC     ATOMS    <user>   **** ""
2 31 44
ATOM$BLUE        STATIC     ATOMS    COLORGROUP SYSTEM
9 54 55 56 57 58 59 60 61 62
ATOM$RED        STATIC     ATOMS    COLORGROUP SYSTEM
2 31 44
