AV-unprocessed.smi:2047|AV-procd|sdf|8320|dock2
  -GOLD-   2272010583D 1   1.00000     0.00000
 Structure written by MMmdl.
 42 44  0  0  0  0  0  0  0  0  3 V2000
  150.3377  136.9223  159.5360 O   0  0  0  0  0  0  0  0  0  0  0  0
  149.1455  137.1825  159.3366 C   0  0  0  0  0  0  0  0  0  0  0  0
  148.7204  137.4946  158.1008 N   0  0  0  0  0  0  0  0  0  0  0  0
  149.4783  137.5678  156.8994 C   0  0  0  0  0  0  0  0  0  0  0  0
  150.8062  138.0619  156.8747 C   0  0  0  0  0  0  0  0  0  0  0  0
  151.5200  138.0819  155.6600 C   0  0  0  0  0  0  0  0  0  0  0  0
  150.8988  137.5985  154.4932 C   0  0  0  0  0  0  0  0  0  0  0  0
  149.6384  137.1194  154.5542 N   0  3  0  0  0  0  0  0  0  0  0  0
  148.9094  137.0784  155.6971 C   0  0  0  0  0  0  0  0  0  0  0  0
  147.6034  136.5609  155.6561 N   0  0  0  0  0  0  0  0  0  0  0  0
  146.6693  137.2888  154.8140 C   0  0  0  0  0  0  0  0  0  0  0  0
  145.4742  136.3506  154.6256 C   0  0  0  0  0  0  0  0  0  0  0  0
  146.0205  134.9493  154.9273 C   0  0  0  0  0  0  0  0  0  0  0  0
  147.4982  135.1664  155.2632 C   0  0  0  0  0  0  0  0  0  0  0  0
  148.1374  137.2171  160.2484 N   0  5  0  0  0  0  0  0  0  0  0  0
  147.5287  136.0374  160.8705 C   0  0  1  0  0  0  0  0  0  0  0  0
  147.7339  136.0591  162.3982 C   0  0  0  0  0  0  0  0  0  0  0  0
  146.8040  135.0160  163.0336 C   0  0  0  0  0  0  0  0  0  0  0  0
  145.3093  134.9700  161.9711 S   0  0  0  0  0  0  0  0  0  0  0  0
  145.0923  133.5895  161.5101 O   0  0  0  0  0  0  0  0  0  0  0  0
  144.2247  135.7267  162.6158 O   0  0  0  0  0  0  0  0  0  0  0  0
  146.0150  135.9767  160.6071 C   0  0  0  0  0  0  0  0  0  0  0  0
  147.7628  137.8080  158.0380 H   0  0  0  0  0  0  0  0  0  0  0  0
  151.2897  138.4127  157.7740 H   0  0  0  0  0  0  0  0  0  0  0  0
  152.5319  138.4583  155.6272 H   0  0  0  0  0  0  0  0  0  0  0  0
  151.3699  137.5748  153.5213 H   0  0  0  0  0  0  0  0  0  0  0  0
  146.3723  138.2291  155.2792 H   0  0  0  0  0  0  0  0  0  0  0  0
  147.1208  137.5183  153.8477 H   0  0  0  0  0  0  0  0  0  0  0  0
  144.6814  136.6000  155.3320 H   0  0  0  0  0  0  0  0  0  0  0  0
  145.0591  136.4272  153.6203 H   0  0  0  0  0  0  0  0  0  0  0  0
  145.4962  134.5241  155.7841 H   0  0  0  0  0  0  0  0  0  0  0  0
  145.8958  134.2645  154.0881 H   0  0  0  0  0  0  0  0  0  0  0  0
  148.1162  134.9681  154.3862 H   0  0  0  0  0  0  0  0  0  0  0  0
  147.8289  134.5066  156.0659 H   0  0  0  0  0  0  0  0  0  0  0  0
  147.9713  135.1117  160.4993 H   0  0  0  0  0  0  0  0  0  0  0  0
  148.7749  135.8815  162.6698 H   0  0  0  0  0  0  0  0  0  0  0  0
  147.4674  137.0436  162.7865 H   0  0  0  0  0  0  0  0  0  0  0  0
  147.2576  134.0236  163.0277 H   0  0  0  0  0  0  0  0  0  0  0  0
  146.5290  135.2641  164.0587 H   0  0  0  0  0  0  0  0  0  0  0  0
  145.5618  136.9673  160.6570 H   0  0  0  0  0  0  0  0  0  0  0  0
  145.7702  135.5293  159.6438 H   0  0  0  0  0  0  0  0  0  0  0  0
  149.2121  136.7704  153.6960 H   0  0  0  0  0  0  0  0  0  0  0  0
  1  2  2  0  0  0  0
  2  3  1  0  0  0  0
  2 15  1  0  0  0  0
  3  4  1  0  0  0  0
  3 23  1  0  0  0  0
  4  9  1  0  0  0  0
  4  5  2  0  0  0  0
  5  6  1  0  0  0  0
  5 24  1  0  0  0  0
  6  7  2  0  0  0  0
  6 25  1  0  0  0  0
  7  8  1  0  0  0  0
  7 26  1  0  0  0  0
  8  9  2  0  0  0  0
  8 42  1  0  0  0  0
  9 10  1  0  0  0  0
 10 14  1  0  0  0  0
 10 11  1  0  0  0  0
 11 12  1  0  0  0  0
 11 27  1  0  0  0  0
 11 28  1  0  0  0  0
 12 13  1  0  0  0  0
 12 29  1  0  0  0  0
 12 30  1  0  0  0  0
 13 14  1  0  0  0  0
 13 31  1  0  0  0  0
 13 32  1  0  0  0  0
 14 33  1  0  0  0  0
 14 34  1  0  0  0  0
 15 16  1  0  0  0  0
 16 22  1  0  0  0  0
 16 17  1  0  0  0  0
 16 35  1  0  0  0  0
 17 18  1  0  0  0  0
 17 36  1  0  0  0  0
 17 37  1  0  0  0  0
 18 19  1  0  0  0  0
 18 38  1  0  0  0  0
 18 39  1  0  0  0  0
 19 20  2  0  0  0  0
 19 21  2  0  0  0  0
 19 22  1  0  0  0  0
 22 40  1  0  0  0  0
 22 41  1  0  0  0  0
M  CHG  1   8   1
M  CHG  1  15  -1
M  END
> <s_m_source_file>
AV-unprocessed.smi

> <i_m_source_file_index>
2047

> <i_lp_mmshare_version>
43012

> <i_f3d_flags>
0

> <s_epik_input>
Tz1TMSg9TylbQ0gyXVtDSDJdW0NASF0oW0NIMl0xKVtOSF1DKD1PKVtOSF1jMltjSF1bY0hdW2NIXW5jMk4zW0NIMl1bQ0gyXVtDSDJdW0NIMl0z

> <s_epik_cmdline>
J2VwaWtfcHl0aG9uJywgJy1waCcsICc3LjAnLCAnLXRuJywgJzgnLCAnLW1hJywgJzIwMCcsICctbWV0YWxfYmluZGluZycsICctaW1hZScsICc8aW5maWxlLm1hZT4nLCAnLW9tYWUnLCAnPG91dGZpbGUubWFlPic=

> <r_lp_tautomer_probability>
0.999994

> <r_epik_Ionization_Penalty>
8.27033

> <r_epik_Ionization_Penalty_Charging>
8.27033

> <r_epik_Ionization_Penalty_Neutral>
3.23223e-06

> <r_epik_State_Penalty>
7.90314

> <r_epik_Charging_Adjusted_Penalty>
16.1735

> <i_epik_Tot_Q>
0

> <i_epik_Tot_abs_Q>
2

> <r_epik_Metal_State_Penalty>
3.89381

> <b_epik_Metal_Only>
1

> <s_lp_Force_Field>
OPLS_2005

> <r_lp_Energy>
40.3449

> <b_lp_Chiralities_Consistent>
1

> <s_lp_Variant>
AV-unprocessed.smi:2047-6

> <Gold.Version>
5.8.1

> <Gold.Id.Protein>
6NUR|6NUR_protein|mol2

> <Gold.PLP.Fitness>
37.3036

> <Gold.PLP.PLP>
-23.7440

> <Gold.PLP.part.hbond>
-3.9691

> <Gold.PLP.part.metal>
0.0000

> <Gold.PLP.part.buried>
-4.7665

> <Gold.PLP.part.nonpolar>
-17.3784

> <Gold.PLP.part.repulsive>
0.2473

> <Gold.PLP.ligand.clash>
0.0000

> <Gold.PLP.ligand.torsion>
0.9886

> <Gold.PLP.Chemscore.Hbond>
5.1611

> <Gold.PLP.Chemscore.CHOScore>
0.0000

> <Gold.PLP.Chemscore.Metal>
0.0000

> <Gold.Chemscore.Hbonds>
donor molecule, donor type, donor heavy atom, donor atom, acceptor molecule, acceptor atom, score
      L1  H     8    42       P1  7948  2.00
      P1  H  6896  6907       L1     1  1.00
      P1  H  6931  6943       L1    15  0.96
      P1  H  6934  6947       L1    15  0.98

> <Gold.PLP.Chemscore.Internal.Correction>
0.0535

> <Gold.Rescore>
     Score         DG    S(hbond)    S(metal)    S(lipo)     H(rot)  DE(clash)    DE(int)     intcor
     14.39     -16.64       2.45        0.00      52.75       1.25       0.00       2.24       ----

> <Gold.Chemscore.Fitness>
14.3903

> <Gold.Chemscore.DG>
-16.6352

> <Gold.Chemscore.ZeroCoef>
-5.4800

> <Gold.Chemscore.Hbond>
2.4485

> <Gold.Chemscore.Metal>
0.0000

> <Gold.Chemscore.Lipo>
52.7539

> <Gold.Chemscore.Internal_Hbond>
0.0000

> <Gold.Chemscore.DEClash>
0.0000

> <Gold.Chemscore.DEInternal>
2.2450

> <Gold.Chemscore.Rot>
1.2480

> <Gold.Chemscore.Internal.Correction>
   9.000000E+99

> <Gold.Chemscore.Hbonds>
donor molecule, donor type, donor heavy atom, donor atom, acceptor molecule, acceptor atom, score
      L1  H     8    42       P1  7948  0.98
      P1  H  6896  6907       L1     1  0.93
      P1  H  6931  6943       L1    15  0.07
      P1  H  6934  6947       L1    15  0.39

> <Gold.Chemscore.Hbond.Weighted>
-8.1779

> <Gold.Chemscore.Metal.Weighted>
-0.0000

> <Gold.Chemscore.Lipo.Weighted>
-6.1722

> <Gold.Chemscore.Internal_Hbond.Weighted>
0.0000

> <Gold.Chemscore.DEClash.Weighted>
0.0000

> <Gold.Chemscore.DEInternal.Weighted>
2.2450

> <Gold.Chemscore.Rot.Weighted>
3.1948

> <Gold.Chemscore.Internal.Correction.Weighted>
   9.000000E+99

> <Gold.Protein.RotatedTorsions>
[ 6907 6896 6895 6894 ] final  -26.78 input  -60.11 | X-H torsion
[ 7974 7965 7964 7962 ] final  -89.00 input  175.53 | X-H torsion
[ 8008 7997 7996 7995 ] final   -7.92 input   59.86 | X-H torsion
[ 10167 10162 10161 10158 ] final  173.25 input  -65.29 | X-H torsion
[ 10718 10713 10712 10709 ] final  -44.67 input   66.30 | X-H torsion
[ 10763 10752 10751 10750 ] final  -42.57 input  -60.55 | X-H torsion
[ 11005 11000 10999 10996 ] final  127.64 input  -57.11 | X-H torsion

> <Gold.Protein.ActiveResidues>
 VAL166  LYS551  ARG553  GLY616  TRP617  ASP618  TYR619  PRO620  LYS621  CYS622 
 ASP623  PHE694  ASN695  SER759  ASP760  ASP761  ALA762  ILE779  LEU786  VAL792 
 PHE793  MET794  SER795  GLU796  ALA797  LYS798  CYS799  TRP800  GLU811  SER814 

> <Gold.Protein.RotatedAtoms>
  151.1562  135.0251  159.8689 H   0  0  0  0  0  0  0  0  0  0  0  0  # atno 6907 bound_to 6896
  152.5452  134.1332  159.8458 H   0  0  0  0  0  0  0  0  0  0  0  0  # atno 6908 bound_to 6896
  151.1422  133.4918  159.2629 H   0  0  0  0  0  0  0  0  0  0  0  0  # atno 6909 bound_to 6896
  145.4457  140.9560  143.2050 H   0  0  0  0  0  0  0  0  0  0  0  0  # atno 7974 bound_to 7965
  154.5791  140.2394  155.8079 H   0  0  0  0  0  0  0  0  0  0  0  0  # atno 8008 bound_to 7997
  156.2166  140.3010  155.9810 H   0  0  0  0  0  0  0  0  0  0  0  0  # atno 8009 bound_to 7997
  155.2573  140.0413  157.2984 H   0  0  0  0  0  0  0  0  0  0  0  0  # atno 8010 bound_to 7997
  139.5102  144.3282  152.0137 H   0  0  0  0  0  0  0  0  0  0  0  0  # atno 10167 bound_to 10162
  156.2362  130.4176  149.8815 H   0  0  0  0  0  0  0  0  0  0  0  0  # atno 10718 bound_to 10713
  153.9811  135.6717  153.4750 H   0  0  0  0  0  0  0  0  0  0  0  0  # atno 10763 bound_to 10752
  153.0748  135.4955  154.8377 H   0  0  0  0  0  0  0  0  0  0  0  0  # atno 10764 bound_to 10752
  154.7164  135.3108  154.9079 H   0  0  0  0  0  0  0  0  0  0  0  0  # atno 10765 bound_to 10752
  139.9518  134.9620  156.8884 H   0  0  0  0  0  0  0  0  0  0  0  0  # atno 11005 bound_to 11000
  144.8093  139.5992  143.7036 LP  0  0  0  0  0  0  0  0  0  0  0  0  # atno 17320 bound_to 7965
  146.2532  139.6245  142.9413 LP  0  0  0  0  0  0  0  0  0  0  0  0  # atno 17321 bound_to 7965
  140.2722  144.3951  150.6147 LP  0  0  0  0  0  0  0  0  0  0  0  0  # atno 17342 bound_to 10162
  140.6080  143.2168  151.6943 LP  0  0  0  0  0  0  0  0  0  0  0  0  # atno 17343 bound_to 10162
  156.6412  130.8706  151.3514 LP  0  0  0  0  0  0  0  0  0  0  0  0  # atno 17370 bound_to 10713
  157.7155  130.9492  150.1241 LP  0  0  0  0  0  0  0  0  0  0  0  0  # atno 17371 bound_to 10713
  140.5702  134.0451  155.7428 LP  0  0  0  0  0  0  0  0  0  0  0  0  # atno 17394 bound_to 11000
  141.1182  133.9505  157.2781 LP  0  0  0  0  0  0  0  0  0  0  0  0  # atno 17395 bound_to 11000

$$$$
