AV-unprocessed.smi:115|AV-procd|sdf|1126|dock4
  -GOLD-   2262018253D 1   1.00000     0.00000
 Structure written by MMmdl.
 55 57  0  0  0  0  0  0  0  0  1 V2000
  159.2202  136.8354  165.7715 C   0  0  0  0  0  0  0  0  0  0  0  0
  158.2546  137.8376  165.5052 O   0  0  0  0  0  0  0  0  0  0  0  0
  156.9686  137.3004  165.2389 C   0  0  0  0  0  0  0  0  0  0  0  0
  156.0073  138.4525  164.8820 C   0  0  1  0  0  0  0  0  0  0  0  0
  156.0689  139.6401  165.8580 C   0  0  0  0  0  0  0  0  0  0  0  0
  156.1061  138.8899  163.4795 N   0  0  0  0  0  0  0  0  0  0  0  0
  157.1125  139.7257  162.9965 C   0  0  0  0  0  0  0  0  0  0  0  0
  158.2122  140.2758  163.8490 C   0  0  0  0  0  0  0  0  0  0  0  0
  156.8897  139.9277  161.6683 C   0  0  0  0  0  0  0  0  0  0  0  0
  155.7335  139.1976  161.2863 C   0  0  0  0  0  0  0  0  0  0  0  0
  155.0952  139.1435  159.9460 C   0  0  0  0  0  0  0  0  0  0  0  0
  155.7276  139.2182  158.8916 O   0  0  0  0  0  0  0  0  0  0  0  0
  153.5649  138.9688  159.9411 C   0  0  0  0  0  0  0  0  0  0  0  0
  152.8651  140.0950  159.3356 N   0  0  0  0  0  0  0  0  0  0  0  0
  152.0931  139.8513  158.1721 C   0  0  0  0  0  0  0  0  0  0  0  0
  151.9943  138.7285  157.6742 O   0  0  0  0  0  0  0  0  0  0  0  0
  151.4488  141.0354  157.6143 C   0  0  0  0  0  0  0  0  0  0  0  0
  150.6934  140.9219  156.5087 F   0  0  0  0  0  0  0  0  0  0  0  0
  151.6034  142.2491  158.1859 C   0  0  0  0  0  0  0  0  0  0  0  0
  152.3671  142.4577  159.3224 N   0  0  0  0  0  0  0  0  0  0  0  0
  152.5331  143.8375  159.9204 C   0  0  1  0  0  0  0  0  0  0  0  0
  152.6751  144.8828  158.8084 C   0  0  0  0  0  0  0  0  0  0  0  0
  151.2429  145.3335  158.6226 C   0  0  0  0  0  0  0  0  0  0  0  0
  150.7110  145.2608  160.0495 C   0  0  0  0  0  0  0  0  0  0  0  0
  151.3873  144.1610  160.6546 O   0  0  0  0  0  0  0  0  0  0  0  0
  153.0357  141.3706  159.9254 C   0  0  0  0  0  0  0  0  0  0  0  0
  153.7507  141.5392  160.9160 O   0  0  0  0  0  0  0  0  0  0  0  0
  155.2772  138.5338  162.4037 C   0  0  0  0  0  0  0  0  0  0  0  0
  154.1164  137.5888  162.5528 C   0  0  0  0  0  0  0  0  0  0  0  0
  160.1850  137.3013  165.9717 H   0  0  0  0  0  0  0  0  0  0  0  0
  159.3403  136.1666  164.9184 H   0  0  0  0  0  0  0  0  0  0  0  0
  158.9446  136.2437  166.6453 H   0  0  0  0  0  0  0  0  0  0  0  0
  157.0467  136.5711  164.4343 H   0  0  0  0  0  0  0  0  0  0  0  0
  156.6096  136.7778  166.1271 H   0  0  0  0  0  0  0  0  0  0  0  0
  155.0176  138.0183  165.0101 H   0  0  0  0  0  0  0  0  0  0  0  0
  155.8852  139.3110  166.8809 H   0  0  0  0  0  0  0  0  0  0  0  0
  155.3074  140.3813  165.6136 H   0  0  0  0  0  0  0  0  0  0  0  0
  157.0321  140.1460  165.8479 H   0  0  0  0  0  0  0  0  0  0  0  0
  158.9363  140.8205  163.2429 H   0  0  0  0  0  0  0  0  0  0  0  0
  158.7477  139.4776  164.3634 H   0  0  0  0  0  0  0  0  0  0  0  0
  157.8195  140.9669  164.5953 H   0  0  0  0  0  0  0  0  0  0  0  0
  157.5019  140.5504  161.0326 H   0  0  0  0  0  0  0  0  0  0  0  0
  153.2785  138.0615  159.4074 H   0  0  0  0  0  0  0  0  0  0  0  0
  153.1802  138.8419  160.9543 H   0  0  0  0  0  0  0  0  0  0  0  0
  151.1080  143.0870  157.7192 H   0  0  0  0  0  0  0  0  0  0  0  0
  153.3943  143.7772  160.5878 H   0  0  0  0  0  0  0  0  0  0  0  0
  153.2892  145.7041  159.1795 H   0  0  0  0  0  0  0  0  0  0  0  0
  153.1350  144.4758  157.9071 H   0  0  0  0  0  0  0  0  0  0  0  0
  151.1597  146.3290  158.1859 H   0  0  0  0  0  0  0  0  0  0  0  0
  150.7066  144.6333  157.9811 H   0  0  0  0  0  0  0  0  0  0  0  0
  150.9673  146.1696  160.5953 H   0  0  0  0  0  0  0  0  0  0  0  0
  149.6289  145.1348  160.0881 H   0  0  0  0  0  0  0  0  0  0  0  0
  153.9313  137.0332  161.6354 H   0  0  0  0  0  0  0  0  0  0  0  0
  153.2057  138.1313  162.8065 H   0  0  0  0  0  0  0  0  0  0  0  0
  154.2879  136.8322  163.3124 H   0  0  0  0  0  0  0  0  0  0  0  0
  1  2  1  0  0  0  0
  1 30  1  0  0  0  0
  1 31  1  0  0  0  0
  1 32  1  0  0  0  0
  2  3  1  0  0  0  0
  3  4  1  0  0  0  0
  3 33  1  0  0  0  0
  3 34  1  0  0  0  0
  4  5  1  0  0  0  0
  4  6  1  0  0  0  0
  4 35  1  0  0  0  0
  5 36  1  0  0  0  0
  5 37  1  0  0  0  0
  5 38  1  0  0  0  0
  6 28  1  0  0  0  0
  6  7  1  0  0  0  0
  7  8  1  0  0  0  0
  7  9  2  0  0  0  0
  8 39  1  0  0  0  0
  8 40  1  0  0  0  0
  8 41  1  0  0  0  0
  9 10  1  0  0  0  0
  9 42  1  0  0  0  0
 10 11  1  0  0  0  0
 10 28  2  0  0  0  0
 11 12  2  0  0  0  0
 11 13  1  0  0  0  0
 13 14  1  0  0  0  0
 13 43  1  0  0  0  0
 13 44  1  0  0  0  0
 14 26  1  0  0  0  0
 14 15  1  0  0  0  0
 15 16  2  0  0  0  0
 15 17  1  0  0  0  0
 17 18  1  0  0  0  0
 17 19  2  0  0  0  0
 19 20  1  0  0  0  0
 19 45  1  0  0  0  0
 20 21  1  0  0  0  0
 20 26  1  0  0  0  0
 21 25  1  0  0  0  0
 21 22  1  0  0  0  0
 21 46  1  0  0  0  0
 22 23  1  0  0  0  0
 22 47  1  0  0  0  0
 22 48  1  0  0  0  0
 23 24  1  0  0  0  0
 23 49  1  0  0  0  0
 23 50  1  0  0  0  0
 24 25  1  0  0  0  0
 24 51  1  0  0  0  0
 24 52  1  0  0  0  0
 26 27  2  0  0  0  0
 28 29  1  0  0  0  0
 29 53  1  0  0  0  0
 29 54  1  0  0  0  0
 29 55  1  0  0  0  0
M  END
> <s_m_source_file>
AV-unprocessed.smi

> <i_m_source_file_index>
115

> <i_lp_mmshare_version>
43012

> <i_f3d_flags>
0

> <s_epik_input>
W0NIM11PW0NIMl1bQ0BIXShbQ0gzXSluMWMoW0NIM10pW2NIXWMoYzFbQ0gzXSlDKD1PKVtDSDJdbjJjKD1PKWMoRilbY0hdbihjMj1PKVtDQEBIXTNbQ0gyXVtDSDJdW0NIMl1PMw==

> <s_epik_cmdline>
J2VwaWtfcHl0aG9uJywgJy1waCcsICc3LjAnLCAnLXRuJywgJzgnLCAnLW1hJywgJzIwMCcsICctbWV0YWxfYmluZGluZycsICctaW1hZScsICc8aW5maWxlLm1hZT4nLCAnLW9tYWUnLCAnPG91dGZpbGUubWFlPic=

> <r_lp_tautomer_probability>
1

> <r_epik_Ionization_Penalty>
5.02611e-09

> <r_epik_Ionization_Penalty_Charging>
5.01743e-09

> <r_epik_Ionization_Penalty_Neutral>
8.68114e-12

> <r_epik_State_Penalty>
-0

> <r_epik_Charging_Adjusted_Penalty>
5.01743e-09

> <i_epik_Tot_Q>
0

> <i_epik_Tot_abs_Q>
0

> <r_epik_Metal_State_Penalty>
-0

> <b_epik_Metal_Only>
0

> <s_epik_Chemistry_Notes>
This compound contains an acetal/aminal-like group ( X-CH(R)-Y where X, Y are N, S, or O) that may be acid/base labile, releasing an aldehyde.

> <s_lp_Force_Field>
OPLS_2005

> <r_lp_Energy>
46.6669

> <b_lp_Chiralities_Consistent>
1

> <s_lp_Variant>
AV-unprocessed.smi:115-4

> <Gold.Version>
5.8.1

> <Gold.Id.Protein>
6NUR|6NUR_protein|mol2

> <Gold.PLP.Fitness>
49.2091

> <Gold.PLP.PLP>
-48.8327

> <Gold.PLP.part.hbond>
-1.3505

> <Gold.PLP.part.metal>
0.0000

> <Gold.PLP.part.buried>
-6.9528

> <Gold.PLP.part.nonpolar>
-39.9001

> <Gold.PLP.part.repulsive>
0.1730

> <Gold.PLP.ligand.clash>
0.0000

> <Gold.PLP.ligand.torsion>
1.4838

> <Gold.PLP.Chemscore.Hbond>
1.0000

> <Gold.PLP.Chemscore.CHOScore>
0.0000

> <Gold.PLP.Chemscore.Metal>
0.0000

> <Gold.Chemscore.Hbonds>
donor molecule, donor type, donor heavy atom, donor atom, acceptor molecule, acceptor atom, score
      P1  H  7997  8010       L1    12  1.00

> <Gold.PLP.Chemscore.Internal.Correction>
0.3439

> <Gold.Rescore>
     Score         DG    S(hbond)    S(metal)    S(lipo)     H(rot)  DE(clash)    DE(int)     intcor
     10.27     -15.38       1.00        0.00     104.06       2.19       0.21       4.90       ----

> <Gold.Chemscore.Fitness>
10.2654

> <Gold.Chemscore.DG>
-15.3781

> <Gold.Chemscore.ZeroCoef>
-5.4800

> <Gold.Chemscore.Hbond>
0.9998

> <Gold.Chemscore.Metal>
0.0000

> <Gold.Chemscore.Lipo>
104.0566

> <Gold.Chemscore.Internal_Hbond>
0.0000

> <Gold.Chemscore.DEClash>
0.2098

> <Gold.Chemscore.DEInternal>
4.9029

> <Gold.Chemscore.Rot>
2.1938

> <Gold.Chemscore.Internal.Correction>
   9.000000E+99

> <Gold.Chemscore.Hbonds>
donor molecule, donor type, donor heavy atom, donor atom, acceptor molecule, acceptor atom, score
      P1  H  7997  8010       L1    12  1.00

> <Gold.Chemscore.Hbond.Weighted>
-3.3395

> <Gold.Chemscore.Metal.Weighted>
-0.0000

> <Gold.Chemscore.Lipo.Weighted>
-12.1746

> <Gold.Chemscore.Internal_Hbond.Weighted>
0.0000

> <Gold.Chemscore.DEClash.Weighted>
0.2098

> <Gold.Chemscore.DEInternal.Weighted>
4.9029

> <Gold.Chemscore.Rot.Weighted>
5.6160

> <Gold.Chemscore.Internal.Correction.Weighted>
   9.000000E+99

> <Gold.Protein.RotatedTorsions>
[ 6907 6896 6895 6894 ] final  138.10 input  -60.11 | X-H torsion
[ 7974 7965 7964 7962 ] final  -67.19 input  175.53 | X-H torsion
[ 8008 7997 7996 7995 ] final  -26.00 input   59.86 | X-H torsion
[ 10167 10162 10161 10158 ] final -138.13 input  -65.29 | X-H torsion
[ 10718 10713 10712 10709 ] final -110.13 input   66.30 | X-H torsion
[ 10763 10752 10751 10750 ] final -126.20 input  -60.55 | X-H torsion
[ 11005 11000 10999 10996 ] final   97.46 input  -57.11 | X-H torsion

> <Gold.Protein.ActiveResidues>
 VAL166  LYS551  ARG553  GLY616  TRP617  ASP618  TYR619  PRO620  LYS621  CYS622 
 ASP623  PHE694  ASN695  SER759  ASP760  ASP761  ALA762  ILE779  LEU786  VAL792 
 PHE793  MET794  SER795  GLU796  ALA797  LYS798  CYS799  TRP800  GLU811  SER814 

> <Gold.Protein.RotatedAtoms>
  152.2705  133.5378  159.5435 H   0  0  0  0  0  0  0  0  0  0  0  0  # atno 6907 bound_to 6896
  150.7157  134.0705  159.3871 H   0  0  0  0  0  0  0  0  0  0  0  0  # atno 6908 bound_to 6896
  151.8619  135.0521  160.0521 H   0  0  0  0  0  0  0  0  0  0  0  0  # atno 6909 bound_to 6896
  145.7323  140.8991  143.0573 H   0  0  0  0  0  0  0  0  0  0  0  0  # atno 7974 bound_to 7965
  154.4447  140.1911  156.0706 H   0  0  0  0  0  0  0  0  0  0  0  0  # atno 8008 bound_to 7997
  156.0514  140.3308  155.7328 H   0  0  0  0  0  0  0  0  0  0  0  0  # atno 8009 bound_to 7997
  155.5552  140.0598  157.2832 H   0  0  0  0  0  0  0  0  0  0  0  0  # atno 8010 bound_to 7997
  139.8509  143.7200  152.2658 H   0  0  0  0  0  0  0  0  0  0  0  0  # atno 10167 bound_to 10162
  156.0574  130.5800  150.8195 H   0  0  0  0  0  0  0  0  0  0  0  0  # atno 10718 bound_to 10713
  154.8743  135.4004  154.3392 H   0  0  0  0  0  0  0  0  0  0  0  0  # atno 10763 bound_to 10752
  153.4193  135.7022  153.6310 H   0  0  0  0  0  0  0  0  0  0  0  0  # atno 10764 bound_to 10752
  153.4979  135.3734  155.2495 H   0  0  0  0  0  0  0  0  0  0  0  0  # atno 10765 bound_to 10752
  139.8776  134.9001  156.4310 H   0  0  0  0  0  0  0  0  0  0  0  0  # atno 11005 bound_to 11000
  144.6890  139.9348  143.7473 LP  0  0  0  0  0  0  0  0  0  0  0  0  # atno 17320 bound_to 7965
  146.0525  139.3525  143.0630 LP  0  0  0  0  0  0  0  0  0  0  0  0  # atno 17321 bound_to 7965
  139.7466  144.7545  151.0570 LP  0  0  0  0  0  0  0  0  0  0  0  0  # atno 17342 bound_to 10162
  140.7787  143.4909  150.9895 LP  0  0  0  0  0  0  0  0  0  0  0  0  # atno 17343 bound_to 10162
  157.5556  131.0945  150.9634 LP  0  0  0  0  0  0  0  0  0  0  0  0  # atno 17370 bound_to 10713
  156.9883  130.5553  149.5301 LP  0  0  0  0  0  0  0  0  0  0  0  0  # atno 17371 bound_to 10713
  140.9067  133.7741  155.9743 LP  0  0  0  0  0  0  0  0  0  0  0  0  # atno 17394 bound_to 11000
  140.8592  134.2861  157.5242 LP  0  0  0  0  0  0  0  0  0  0  0  0  # atno 17395 bound_to 11000

$$$$
