#       Name:                AV-unprocessed.smi:1362
#       Creating user name   scv26
#       Creation time:       Fri Mar 27 05:15:13 2020


#       File generated by GOLD software.
#

@<TRIPOS>MOLECULE
AV-unprocessed.smi:1362
    44    44     1
SMALL
NO_CHARGES


@<TRIPOS>ATOM
      1 ****        -4.4366   3.9207   2.0232 C.3            1 S1                 0.0000
      2 ****        -3.6061   2.7940   1.4457 C.2            1 S1                 0.0000
      3 ****        -2.9205   1.9642   2.1610 N.2            1 S1                 0.0000
      4 ****        -2.1861   0.9621   1.5119 C.2            1 S1                 0.0000
      5 ****        -1.4011   0.0316   2.4208 C.3            1 S1                 0.0000
      6 ****        -2.1831   0.8438   0.1516 C.2            1 S1                 0.0000
      7 ****        -1.3888  -0.2349  -0.5830 C.3            1 S1                 0.0000
      8 ****         0.1059   0.0475  -0.7500 C.2            1 S1                 0.0000
      9 ****         0.4948   1.1853  -1.0142 O.2            1 S1                 0.0000
     10 ****         0.9323  -0.9961  -0.5793 N.am           1 S1                 0.0000
     11 ****         2.3916  -0.9493  -0.6594 C.3            1 S1                 0.0000
     12 ****         2.9496  -0.5686   0.7253 C.3            1 S1                 0.0000
     13 ****         2.9422  -2.2983  -1.1936 C.3            1 S1                 0.0000
     14 ****         4.4763  -2.2964  -1.3239 C.3            1 S1                 0.0000
     15 ****         2.3130  -2.6911  -2.5449 C.3            1 S1                 0.0000
     16 ****        -2.9710   1.7960  -0.6553 C.2            1 S1                 0.0000
     17 ****        -3.0364   1.7836  -1.8835 O.2            1 S1                 0.0000
     18 ****        -3.6451   2.7287   0.0539 N.am           1 S1                 0.0000
     19 ****        -4.1975   3.4045  -0.4532 H              1 S1                 0.0000
     20 ****        -3.8040   4.5945   2.6017 H              1 S1                 0.0000
     21 ****        -5.2048   3.5195   2.6848 H              1 S1                 0.0000
     22 ****        -4.9280   4.5014   1.2411 H              1 S1                 0.0000
     23 ****        -1.7488  -0.9958   2.3117 H              1 S1                 0.0000
     24 ****        -1.5150   0.3126   3.4685 H              1 S1                 0.0000
     25 ****        -0.3382   0.0667   2.1820 H              1 S1                 0.0000
     26 ****        -1.5170  -1.1776  -0.0497 H              1 S1                 0.0000
     27 ****        -1.8103  -0.4184  -1.5717 H              1 S1                 0.0000
     28 ****         0.5200  -1.8928  -0.3655 H              1 S1                 0.0000
     29 ****         2.6793  -0.1694  -1.3671 H              1 S1                 0.0000
     30 ****         4.0243  -0.3925   0.6941 H              1 S1                 0.0000
     31 ****         2.7577  -1.3518   1.4595 H              1 S1                 0.0000
     32 ****         2.4928   0.3499   1.0957 H              1 S1                 0.0000
     33 ****         2.6787  -3.0781  -0.4775 H              1 S1                 0.0000
     34 ****         4.8180  -1.4913  -1.9753 H              1 S1                 0.0000
     35 ****         4.8355  -3.2363  -1.7440 H              1 S1                 0.0000
     36 ****         4.9659  -2.1780  -0.3578 H              1 S1                 0.0000
     37 ****         2.5021  -1.9314  -3.3040 H              1 S1                 0.0000
     38 ****         1.2338  -2.8249  -2.4698 H              1 S1                 0.0000
     39 ****         2.7235  -3.6329  -2.9102 H              1 S1                 0.0000
     40 ****        -2.9140   2.0356   3.1584 LP             1 S1                 0.0000
     41 ****        -0.1666   1.9278  -1.1202 LP             1 S1                 0.0000
     42 ****         1.4722   1.3670  -1.1228 LP             1 S1                 0.0000
     43 ****        -2.5331   1.0938  -2.4041 LP             1 S1                 0.0000
     44 ****        -3.5928   2.4633  -2.3615 LP             1 S1                 0.0000
@<TRIPOS>BOND
    1    1    2 1     
    2    1   20 1     
    3    1   21 1     
    4    1   22 1     
    5    2   18 1     
    6    2    3 2     
    7    3    4 1     
    8    4    5 1     
    9    4    6 2     
   10    5   23 1     
   11    5   24 1     
   12    5   25 1     
   13    6    7 1     
   14    6   16 1     
   15    7    8 1     
   16    7   26 1     
   17    7   27 1     
   18    8    9 2     
   19    8   10 am    
   20   10   11 1     
   21   10   28 1     
   22   11   12 1     
   23   11   13 1     
   24   11   29 1     
   25   12   30 1     
   26   12   31 1     
   27   12   32 1     
   28   13   14 1     
   29   13   15 1     
   30   13   33 1     
   31   14   34 1     
   32   14   35 1     
   33   14   36 1     
   34   15   37 1     
   35   15   38 1     
   36   15   39 1     
   37   16   17 2     
   38   16   18 am    
   39   18   19 1     
   40    3   40 1     
   41    9   41 1     
   42    9   42 1     
   43   17   43 1     
   44   17   44 1     
@<TRIPOS>SUBSTRUCTURE
      1 S1             1
@<TRIPOS>SET
LONE_PAIRS      STATIC     ATOMS    <user>   **** ""
5 40 41 42 43 44
DONOR_HYDROGENS      STATIC     ATOMS    <user>   **** ""
2 28 19
ATOM$BLUE        STATIC     ATOMS    COLORGROUP SYSTEM
5 40 41 42 43 44
ATOM$RED        STATIC     ATOMS    COLORGROUP SYSTEM
2 28 19
