AV-unprocessed.smi:1961|AV-procd|sdf|7918|dock8
  -GOLD-   2272010 83D 1   1.00000     0.00000
 Structure written by MMmdl.
 36 37  0  0  0  0  0  0  0  0  1 V2000
  146.7906  139.5923  151.6911 C   0  0  0  0  0  0  0  0  0  0  0  0
  147.2321  138.9044  152.9912 C   0  0  0  0  0  0  0  0  0  0  0  0
  146.0525  138.4785  153.8781 C   0  0  0  0  0  0  0  0  0  0  0  0
  148.2413  139.7142  153.7447 C   0  0  0  0  0  0  0  0  0  0  0  0
  149.4914  139.2906  153.9758 N   0  0  0  0  0  0  0  0  0  0  0  0
  150.2393  140.2156  154.6905 N   0  0  0  0  0  0  0  0  0  0  0  0
  149.5305  141.3154  154.9792 C   0  0  0  0  0  0  0  0  0  0  0  0
  150.0506  142.4235  155.6991 N   0  0  0  0  0  0  0  0  0  0  0  0
  151.0575  142.4403  156.5902 C   0  0  0  0  0  0  0  0  0  0  0  0
  151.7073  141.4583  156.9502 O   0  0  0  0  0  0  0  0  0  0  0  0
  151.2761  143.6799  157.0517 N   0  0  0  0  0  0  0  0  0  0  0  0
  152.3014  144.0415  158.0250 C   0  0  0  0  0  0  0  0  0  0  0  0
  152.1270  143.2907  159.3566 C   0  0  2  0  0  0  0  0  0  0  0  0
  152.1604  144.1775  160.6036 C   0  0  0  0  0  0  0  0  0  0  0  0
  152.7168  143.2651  161.6882 C   0  0  0  0  0  0  0  0  0  0  0  0
  153.1550  142.0071  160.9348 C   0  0  0  0  0  0  0  0  0  0  0  0
  153.2138  142.4058  159.5737 O   0  0  0  0  0  0  0  0  0  0  0  0
  147.8742  141.3073  154.3986 S   0  0  0  0  0  0  0  0  0  0  0  0
  147.6464  139.8052  151.0497 H   0  0  0  0  0  0  0  0  0  0  0  0
  146.2827  140.5359  151.8937 H   0  0  0  0  0  0  0  0  0  0  0  0
  146.1041  138.9606  151.1267 H   0  0  0  0  0  0  0  0  0  0  0  0
  147.7374  137.9849  152.6931 H   0  0  0  0  0  0  0  0  0  0  0  0
  146.3980  137.9186  154.7479 H   0  0  0  0  0  0  0  0  0  0  0  0
  145.3584  137.8409  153.3300 H   0  0  0  0  0  0  0  0  0  0  0  0
  145.4944  139.3435  154.2382 H   0  0  0  0  0  0  0  0  0  0  0  0
  149.6104  143.3107  155.5046 H   0  0  0  0  0  0  0  0  0  0  0  0
  150.6956  144.4289  156.7039 H   0  0  0  0  0  0  0  0  0  0  0  0
  153.2930  143.8500  157.6114 H   0  0  0  0  0  0  0  0  0  0  0  0
  152.2422  145.1169  158.1942 H   0  0  0  0  0  0  0  0  0  0  0  0
  151.2057  142.7048  159.3440 H   0  0  0  0  0  0  0  0  0  0  0  0
  152.8371  145.0201  160.4549 H   0  0  0  0  0  0  0  0  0  0  0  0
  151.1768  144.5779  160.8511 H   0  0  0  0  0  0  0  0  0  0  0  0
  153.5633  143.7397  162.1856 H   0  0  0  0  0  0  0  0  0  0  0  0
  151.9709  143.0283  162.4478 H   0  0  0  0  0  0  0  0  0  0  0  0
  154.1149  141.6223  161.2799 H   0  0  0  0  0  0  0  0  0  0  0  0
  152.4114  141.2159  161.0435 H   0  0  0  0  0  0  0  0  0  0  0  0
  1  2  1  0  0  0  0
  1 19  1  0  0  0  0
  1 20  1  0  0  0  0
  1 21  1  0  0  0  0
  2  3  1  0  0  0  0
  2  4  1  0  0  0  0
  2 22  1  0  0  0  0
  3 23  1  0  0  0  0
  3 24  1  0  0  0  0
  3 25  1  0  0  0  0
  4 18  1  0  0  0  0
  4  5  2  0  0  0  0
  5  6  1  0  0  0  0
  6  7  2  0  0  0  0
  7  8  1  0  0  0  0
  7 18  1  0  0  0  0
  8  9  1  0  0  0  0
  8 26  1  0  0  0  0
  9 10  2  0  0  0  0
  9 11  1  0  0  0  0
 11 12  1  0  0  0  0
 11 27  1  0  0  0  0
 12 13  1  0  0  0  0
 12 28  1  0  0  0  0
 12 29  1  0  0  0  0
 13 17  1  0  0  0  0
 13 14  1  0  0  0  0
 13 30  1  0  0  0  0
 14 15  1  0  0  0  0
 14 31  1  0  0  0  0
 14 32  1  0  0  0  0
 15 16  1  0  0  0  0
 15 33  1  0  0  0  0
 15 34  1  0  0  0  0
 16 17  1  0  0  0  0
 16 35  1  0  0  0  0
 16 36  1  0  0  0  0
M  END
> <s_m_source_file>
AV-unprocessed.smi

> <i_m_source_file_index>
1961

> <i_lp_mmshare_version>
43012

> <i_f3d_flags>
0

> <s_epik_input>
W0NIM11bQ0hdKFtDSDNdKWMxbm5jKHMxKVtOSF1DKD1PKVtOSF1bQ0gyXVtDQEBIXTJbQ0gyXVtDSDJdW0NIMl1PMg==

> <s_epik_cmdline>
J2VwaWtfcHl0aG9uJywgJy1waCcsICc3LjAnLCAnLXRuJywgJzgnLCAnLW1hJywgJzIwMCcsICctbWV0YWxfYmluZGluZycsICctaW1hZScsICc8aW5maWxlLm1hZT4nLCAnLW9tYWUnLCAnPG91dGZpbGUubWFlPic=

> <r_lp_tautomer_probability>
1

> <r_epik_Ionization_Penalty>
0.000505257

> <r_epik_Ionization_Penalty_Charging>
0

> <r_epik_Ionization_Penalty_Neutral>
0.000505257

> <r_epik_State_Penalty>
-0

> <r_epik_Charging_Adjusted_Penalty>
0

> <i_epik_Tot_Q>
0

> <i_epik_Tot_abs_Q>
0

> <r_epik_Metal_State_Penalty>
0.219912

> <b_epik_Metal_Only>
0

> <s_lp_Force_Field>
OPLS_2005

> <r_lp_Energy>
10.186

> <b_lp_Chiralities_Consistent>
1

> <s_lp_Variant>
AV-unprocessed.smi:1961-1

> <Gold.Version>
5.8.1

> <Gold.Id.Protein>
6NUR|6NUR_protein|mol2

> <Gold.PLP.Fitness>
46.2544

> <Gold.PLP.PLP>
-39.5375

> <Gold.PLP.part.hbond>
-2.9161

> <Gold.PLP.part.metal>
0.0000

> <Gold.PLP.part.buried>
-0.6510

> <Gold.PLP.part.nonpolar>
-36.3584

> <Gold.PLP.part.repulsive>
1.1071

> <Gold.PLP.ligand.clash>
0.0000

> <Gold.PLP.ligand.torsion>
0.8929

> <Gold.PLP.Chemscore.Hbond>
2.8073

> <Gold.PLP.Chemscore.CHOScore>
0.0000

> <Gold.PLP.Chemscore.Metal>
0.0000

> <Gold.Chemscore.Hbonds>
donor molecule, donor type, donor heavy atom, donor atom, acceptor molecule, acceptor atom, score
      L1  H     8    26       P1  8028  1.00
      L1  H    11    27       P1  8028  0.73
      P1  H  7989  7998       L1     6  1.00

> <Gold.PLP.Chemscore.Internal.Correction>
0.0810

> <Gold.Rescore>
     Score         DG    S(hbond)    S(metal)    S(lipo)     H(rot)  DE(clash)    DE(int)     intcor
     16.01     -19.54       2.13        0.00      90.96       1.45       0.32       3.21       ----

> <Gold.Chemscore.Fitness>
16.0071

> <Gold.Chemscore.DG>
-19.5381

> <Gold.Chemscore.ZeroCoef>
-5.4800

> <Gold.Chemscore.Hbond>
2.1312

> <Gold.Chemscore.Metal>
0.0000

> <Gold.Chemscore.Lipo>
90.9563

> <Gold.Chemscore.Internal_Hbond>
0.0000

> <Gold.Chemscore.DEClash>
0.3180

> <Gold.Chemscore.DEInternal>
3.2129

> <Gold.Chemscore.Rot>
1.4461

> <Gold.Chemscore.Internal.Correction>
   9.000000E+99

> <Gold.Chemscore.Hbonds>
donor molecule, donor type, donor heavy atom, donor atom, acceptor molecule, acceptor atom, score
      L1  H     8    26       P1  8028  0.98
      L1  H    11    27       P1  8028  0.70
      P1  H  7989  7998       L1     6  0.23

> <Gold.Chemscore.Hbond.Weighted>
-7.1181

> <Gold.Chemscore.Metal.Weighted>
-0.0000

> <Gold.Chemscore.Lipo.Weighted>
-10.6419

> <Gold.Chemscore.Internal_Hbond.Weighted>
0.0000

> <Gold.Chemscore.DEClash.Weighted>
0.3180

> <Gold.Chemscore.DEInternal.Weighted>
3.2129

> <Gold.Chemscore.Rot.Weighted>
3.7019

> <Gold.Chemscore.Internal.Correction.Weighted>
   9.000000E+99

> <Gold.Protein.RotatedTorsions>
[ 6907 6896 6895 6894 ] final  -38.72 input  -60.11 | X-H torsion
[ 7974 7965 7964 7962 ] final -113.74 input  175.53 | X-H torsion
[ 8008 7997 7996 7995 ] final  -13.35 input   59.86 | X-H torsion
[ 10167 10162 10161 10158 ] final   92.19 input  -65.29 | X-H torsion
[ 10718 10713 10712 10709 ] final   61.66 input   66.30 | X-H torsion
[ 10763 10752 10751 10750 ] final   -9.19 input  -60.55 | X-H torsion
[ 11005 11000 10999 10996 ] final   70.32 input  -57.11 | X-H torsion

> <Gold.Protein.ActiveResidues>
 VAL166  LYS551  ARG553  GLY616  TRP617  ASP618  TYR619  PRO620  LYS621  CYS622 
 ASP623  PHE694  ASN695  SER759  ASP760  ASP761  ALA762  ILE779  LEU786  VAL792 
 PHE793  MET794  SER795  GLU796  ALA797  LYS798  CYS799  TRP800  GLU811  SER814 

> <Gold.Protein.RotatedAtoms>
  150.9990  134.9307  159.7942 H   0  0  0  0  0  0  0  0  0  0  0  0  # atno 6907 bound_to 6896
  152.5272  134.3179  159.9147 H   0  0  0  0  0  0  0  0  0  0  0  0  # atno 6908 bound_to 6896
  151.3185  133.4008  159.2687 H   0  0  0  0  0  0  0  0  0  0  0  0  # atno 6909 bound_to 6896
  145.1284  140.8710  143.3772 H   0  0  0  0  0  0  0  0  0  0  0  0  # atno 7974 bound_to 7965
  154.5300  140.2252  155.8821 H   0  0  0  0  0  0  0  0  0  0  0  0  # atno 8008 bound_to 7997
  156.1753  140.3112  155.9012 H   0  0  0  0  0  0  0  0  0  0  0  0  # atno 8009 bound_to 7997
  155.3471  140.0453  157.3036 H   0  0  0  0  0  0  0  0  0  0  0  0  # atno 8010 bound_to 7997
  139.8301  144.6691  150.9410 H   0  0  0  0  0  0  0  0  0  0  0  0  # atno 10167 bound_to 10162
  157.5844  130.9007  149.9489 H   0  0  0  0  0  0  0  0  0  0  0  0  # atno 10718 bound_to 10713
  153.4512  135.7015  153.6108 H   0  0  0  0  0  0  0  0  0  0  0  0  # atno 10763 bound_to 10752
  153.4442  135.3773  155.2246 H   0  0  0  0  0  0  0  0  0  0  0  0  # atno 10764 bound_to 10752
  154.8728  135.3981  154.3925 H   0  0  0  0  0  0  0  0  0  0  0  0  # atno 10765 bound_to 10752
  139.9604  134.7071  156.0659 H   0  0  0  0  0  0  0  0  0  0  0  0  # atno 11005 bound_to 11000
  145.0662  139.3067  143.5855 LP  0  0  0  0  0  0  0  0  0  0  0  0  # atno 17320 bound_to 7965
  146.3516  140.0121  142.8666 LP  0  0  0  0  0  0  0  0  0  0  0  0  # atno 17321 bound_to 7965
  140.7807  143.4009  151.1151 LP  0  0  0  0  0  0  0  0  0  0  0  0  # atno 17342 bound_to 10162
  139.7663  143.8560  152.3111 LP  0  0  0  0  0  0  0  0  0  0  0  0  # atno 17343 bound_to 10162
  156.0892  130.3665  150.0427 LP  0  0  0  0  0  0  0  0  0  0  0  0  # atno 17370 bound_to 10713
  156.8561  130.9475  151.3622 LP  0  0  0  0  0  0  0  0  0  0  0  0  # atno 17371 bound_to 10713
  141.1280  133.6594  156.3389 LP  0  0  0  0  0  0  0  0  0  0  0  0  # atno 17394 bound_to 11000
  140.5513  134.6024  157.5408 LP  0  0  0  0  0  0  0  0  0  0  0  0  # atno 17395 bound_to 11000

$$$$
