AV-unprocessed.smi:497|AV-procd|sdf|2726|dock5
  -GOLD-   2262023173D 1   1.00000     0.00000
 Structure written by MMmdl.
 38 40  0  0  0  0  0  0  0  0  2 V2000
  151.5361  138.6368  154.7357 C   0  0  0  0  0  0  0  0  0  0  0  0
  151.5701  140.0223  155.0288 O   0  0  0  0  0  0  0  0  0  0  0  0
  150.2751  140.5658  155.2176 C   0  0  0  0  0  0  0  0  0  0  0  0
  149.6368  139.9185  156.4547 C   0  0  0  0  0  0  0  0  0  0  0  0
  150.5204  139.9960  157.6203 N   0  0  0  0  0  0  0  0  0  0  0  0
  150.9220  139.0282  158.5030 C   0  0  0  0  0  0  0  0  0  0  0  0
  150.5090  137.5735  158.4353 C   0  0  0  0  0  0  0  0  0  0  0  0
  149.3775  137.2843  159.3155 N   0  5  0  0  0  0  0  0  0  0  0  0
  148.8663  136.0380  159.5228 C   0  0  0  0  0  0  0  0  0  0  0  0
  148.9812  135.0123  158.8434 O   0  0  0  0  0  0  0  0  0  0  0  0
  148.0054  135.9860  160.7263 C   0  0  0  0  0  0  0  0  0  0  0  0
  147.5255  134.9363  161.4679 C   0  0  0  0  0  0  0  0  0  0  0  0
  146.7385  135.4961  162.5118 C   0  0  0  0  0  0  0  0  0  0  0  0
  146.7835  136.8481  162.3301 C   0  0  0  0  0  0  0  0  0  0  0  0
  147.5441  137.1615  161.2468 O   0  0  0  0  0  0  0  0  0  0  0  0
  151.7387  139.4495  159.4730 N   0  0  0  0  0  0  0  0  0  0  0  0
  151.8767  140.7965  159.2083 C   0  0  0  0  0  0  0  0  0  0  0  0
  152.6158  141.7938  159.8843 C   0  0  0  0  0  0  0  0  0  0  0  0
  152.6045  143.1265  159.4234 C   0  0  0  0  0  0  0  0  0  0  0  0
  151.8556  143.4797  158.2823 C   0  0  0  0  0  0  0  0  0  0  0  0
  151.1132  142.5004  157.5948 C   0  0  0  0  0  0  0  0  0  0  0  0
  151.1286  141.1706  158.0582 C   0  0  0  0  0  0  0  0  0  0  0  0
  152.5515  138.2683  154.5899 H   0  0  0  0  0  0  0  0  0  0  0  0
  150.9710  138.4406  153.8238 H   0  0  0  0  0  0  0  0  0  0  0  0
  151.0884  138.0716  155.5545 H   0  0  0  0  0  0  0  0  0  0  0  0
  150.3370  141.6475  155.3439 H   0  0  0  0  0  0  0  0  0  0  0  0
  149.6628  140.3797  154.3350 H   0  0  0  0  0  0  0  0  0  0  0  0
  148.6750  140.3806  156.6755 H   0  0  0  0  0  0  0  0  0  0  0  0
  149.4175  138.8698  156.2530 H   0  0  0  0  0  0  0  0  0  0  0  0
  150.3053  137.3422  157.3888 H   0  0  0  0  0  0  0  0  0  0  0  0
  151.3699  136.9563  158.6957 H   0  0  0  0  0  0  0  0  0  0  0  0
  147.7221  133.8902  161.2831 H   0  0  0  0  0  0  0  0  0  0  0  0
  146.2057  134.9755  163.2937 H   0  0  0  0  0  0  0  0  0  0  0  0
  146.3530  137.6908  162.8505 H   0  0  0  0  0  0  0  0  0  0  0  0
  153.1913  141.5321  160.7597 H   0  0  0  0  0  0  0  0  0  0  0  0
  153.1721  143.8807  159.9481 H   0  0  0  0  0  0  0  0  0  0  0  0
  151.8506  144.5027  157.9358 H   0  0  0  0  0  0  0  0  0  0  0  0
  150.5369  142.7681  156.7218 H   0  0  0  0  0  0  0  0  0  0  0  0
  1  2  1  0  0  0  0
  1 23  1  0  0  0  0
  1 24  1  0  0  0  0
  1 25  1  0  0  0  0
  2  3  1  0  0  0  0
  3  4  1  0  0  0  0
  3 26  1  0  0  0  0
  3 27  1  0  0  0  0
  4  5  1  0  0  0  0
  4 28  1  0  0  0  0
  4 29  1  0  0  0  0
  5 22  1  0  0  0  0
  5  6  1  0  0  0  0
  6  7  1  0  0  0  0
  6 16  2  0  0  0  0
  7  8  1  0  0  0  0
  7 30  1  0  0  0  0
  7 31  1  0  0  0  0
  8  9  1  0  0  0  0
  9 10  2  0  0  0  0
  9 11  1  0  0  0  0
 11 15  1  0  0  0  0
 11 12  2  0  0  0  0
 12 13  1  0  0  0  0
 12 32  1  0  0  0  0
 13 14  2  0  0  0  0
 13 33  1  0  0  0  0
 14 15  1  0  0  0  0
 14 34  1  0  0  0  0
 16 17  1  0  0  0  0
 17 22  2  0  0  0  0
 17 18  1  0  0  0  0
 18 19  2  0  0  0  0
 18 35  1  0  0  0  0
 19 20  1  0  0  0  0
 19 36  1  0  0  0  0
 20 21  2  0  0  0  0
 20 37  1  0  0  0  0
 21 22  1  0  0  0  0
 21 38  1  0  0  0  0
M  CHG  1   8  -1
M  END
> <s_m_source_file>
AV-unprocessed.smi

> <i_m_source_file_index>
497

> <i_lp_mmshare_version>
43012

> <i_f3d_flags>
0

> <s_epik_input>
W2NIXTFbY0hdW2NIXVtjSF1jKGMxMiluKFtDSDJdW0NIMl1PW0NIM10pYyhuMilbQ0gyXVtOSF1DKD1PKWMzW2NIXVtjSF1bY0hdbzM=

> <s_epik_cmdline>
J2VwaWtfcHl0aG9uJywgJy1waCcsICc3LjAnLCAnLXRuJywgJzgnLCAnLW1hJywgJzIwMCcsICctbWV0YWxfYmluZGluZycsICctaW1hZScsICc8aW5maWxlLm1hZT4nLCAnLW9tYWUnLCAnPG91dGZpbGUubWFlPic=

> <r_epik_Ionization_Penalty>
7.1745

> <r_epik_Ionization_Penalty_Charging>
6.27046

> <r_epik_Ionization_Penalty_Neutral>
0.90404

> <r_epik_State_Penalty>
6.33612

> <r_epik_Charging_Adjusted_Penalty>
12.6066

> <i_epik_Tot_Q>
-1

> <i_epik_Tot_abs_Q>
1

> <r_epik_Metal_State_Penalty>
2.33688

> <b_epik_Metal_Only>
1

> <s_lp_Force_Field>
OPLS_2005

> <r_lp_Energy>
18.2002

> <b_lp_Chiralities_Consistent>
1

> <s_lp_Variant>
AV-unprocessed.smi:497-3

> <Gold.Version>
5.8.1

> <Gold.Id.Protein>
6NUR|6NUR_protein|mol2

> <Gold.PLP.Fitness>
57.2589

> <Gold.PLP.PLP>
-47.1987

> <Gold.PLP.part.hbond>
-4.5693

> <Gold.PLP.part.metal>
0.0000

> <Gold.PLP.part.buried>
-6.1391

> <Gold.PLP.part.nonpolar>
-37.8365

> <Gold.PLP.part.repulsive>
0.0489

> <Gold.PLP.ligand.clash>
0.0000

> <Gold.PLP.ligand.torsion>
0.6658

> <Gold.PLP.Chemscore.Hbond>
3.7680

> <Gold.PLP.Chemscore.CHOScore>
0.0000

> <Gold.PLP.Chemscore.Metal>
0.0000

> <Gold.Chemscore.Hbonds>
donor molecule, donor type, donor heavy atom, donor atom, acceptor molecule, acceptor atom, score
      P1  H  6896  6908       L1    10  1.00
      P1  H  6931  6943       L1    15  0.93
      P1  H  6934  6947       L1    15  0.91
      P1  H  7989  7998       L1     2  0.45

> <Gold.PLP.Chemscore.Internal.Correction>
0.0877

> <Gold.Rescore>
     Score         DG    S(hbond)    S(metal)    S(lipo)     H(rot)  DE(clash)    DE(int)     intcor
     22.34     -22.92       2.86        0.00     107.52       1.83       0.02       0.56       ----

> <Gold.Chemscore.Fitness>
22.3388

> <Gold.Chemscore.DG>
-22.9225

> <Gold.Chemscore.ZeroCoef>
-5.4800

> <Gold.Chemscore.Hbond>
2.8616

> <Gold.Chemscore.Metal>
0.0000

> <Gold.Chemscore.Lipo>
107.5169

> <Gold.Chemscore.Internal_Hbond>
0.0000

> <Gold.Chemscore.DEClash>
0.0204

> <Gold.Chemscore.DEInternal>
0.5633

> <Gold.Chemscore.Rot>
1.8339

> <Gold.Chemscore.Internal.Correction>
   9.000000E+99

> <Gold.Chemscore.Hbonds>
donor molecule, donor type, donor heavy atom, donor atom, acceptor molecule, acceptor atom, score
      P1  H  6896  6908       L1    10  0.35
      P1  H  6931  6943       L1    15  0.42
      P1  H  6934  6947       L1    15  0.40
      P1  H  7989  7998       L1     2  0.01

> <Gold.Chemscore.Hbond.Weighted>
-9.5579

> <Gold.Chemscore.Metal.Weighted>
-0.0000

> <Gold.Chemscore.Lipo.Weighted>
-12.5795

> <Gold.Chemscore.Internal_Hbond.Weighted>
0.0000

> <Gold.Chemscore.DEClash.Weighted>
0.0204

> <Gold.Chemscore.DEInternal.Weighted>
0.5633

> <Gold.Chemscore.Rot.Weighted>
4.6948

> <Gold.Chemscore.Internal.Correction.Weighted>
   9.000000E+99

> <Gold.Protein.RotatedTorsions>
[ 6907 6896 6895 6894 ] final  151.92 input  -60.11 | X-H torsion
[ 7974 7965 7964 7962 ] final  -11.23 input  175.53 | X-H torsion
[ 8008 7997 7996 7995 ] final  141.52 input   59.86 | X-H torsion
[ 10167 10162 10161 10158 ] final  -42.20 input  -65.29 | X-H torsion
[ 10718 10713 10712 10709 ] final   97.99 input   66.30 | X-H torsion
[ 10763 10752 10751 10750 ] final -147.86 input  -60.55 | X-H torsion
[ 11005 11000 10999 10996 ] final  126.74 input  -57.11 | X-H torsion

> <Gold.Protein.ActiveResidues>
 VAL166  LYS551  ARG553  GLY616  TRP617  ASP618  TYR619  PRO620  LYS621  CYS622 
 ASP623  PHE694  ASN695  SER759  ASP760  ASP761  ALA762  ILE779  LEU786  VAL792 
 PHE793  MET794  SER795  GLU796  ALA797  LYS798  CYS799  TRP800  GLU811  SER814 

> <Gold.Protein.RotatedAtoms>
  152.0939  133.4215  159.4556 H   0  0  0  0  0  0  0  0  0  0  0  0  # atno 6907 bound_to 6896
  150.6863  134.2839  159.4648 H   0  0  0  0  0  0  0  0  0  0  0  0  # atno 6908 bound_to 6896
  152.0693  134.9543  160.0625 H   0  0  0  0  0  0  0  0  0  0  0  0  # atno 6909 bound_to 6896
  146.2194  140.2881  142.8366 H   0  0  0  0  0  0  0  0  0  0  0  0  # atno 7974 bound_to 7965
  156.2964  140.2313  156.4578 H   0  0  0  0  0  0  0  0  0  0  0  0  # atno 8008 bound_to 7997
  154.8045  140.0446  157.1318 H   0  0  0  0  0  0  0  0  0  0  0  0  # atno 8009 bound_to 7997
  154.9495  140.3040  155.5085 H   0  0  0  0  0  0  0  0  0  0  0  0  # atno 8010 bound_to 7997
  140.6977  143.3051  151.3175 H   0  0  0  0  0  0  0  0  0  0  0  0  # atno 10167 bound_to 10162
  157.6903  131.0626  150.4728 H   0  0  0  0  0  0  0  0  0  0  0  0  # atno 10718 bound_to 10713
  154.8264  135.3349  154.6884 H   0  0  0  0  0  0  0  0  0  0  0  0  # atno 10763 bound_to 10752
  153.7509  135.6939  153.4950 H   0  0  0  0  0  0  0  0  0  0  0  0  # atno 10764 bound_to 10752
  153.2177  135.4460  155.0403 H   0  0  0  0  0  0  0  0  0  0  0  0  # atno 10765 bound_to 10752
  139.9471  134.9628  156.8751 H   0  0  0  0  0  0  0  0  0  0  0  0  # atno 11005 bound_to 11000
  144.9147  140.7798  143.5785 LP  0  0  0  0  0  0  0  0  0  0  0  0  # atno 17320 bound_to 7965
  145.2814  139.1917  143.4789 LP  0  0  0  0  0  0  0  0  0  0  0  0  # atno 17321 bound_to 7965
  139.6454  144.0461  152.2586 LP  0  0  0  0  0  0  0  0  0  0  0  0  # atno 17342 bound_to 10162
  139.9980  144.6314  150.7755 LP  0  0  0  0  0  0  0  0  0  0  0  0  # atno 17343 bound_to 10162
  156.5065  130.4129  149.6324 LP  0  0  0  0  0  0  0  0  0  0  0  0  # atno 17370 bound_to 10713
  156.3280  130.7316  151.2240 LP  0  0  0  0  0  0  0  0  0  0  0  0  # atno 17371 bound_to 10713
  140.5807  134.0354  155.7463 LP  0  0  0  0  0  0  0  0  0  0  0  0  # atno 17394 bound_to 11000
  141.1125  133.9594  157.2884 LP  0  0  0  0  0  0  0  0  0  0  0  0  # atno 17395 bound_to 11000

$$$$
