#       Name:                AV-unprocessed.smi:942
#       Creating user name   scv26
#       Creation time:       Fri Mar 27 02:13:15 2020


#       File generated by GOLD software.
#

@<TRIPOS>MOLECULE
AV-unprocessed.smi:942
    45    47     1
SMALL
NO_CHARGES


@<TRIPOS>ATOM
      1 ****         0.4284   1.8290   0.6517 O.2            1 S1                 0.0000
      2 ****         0.0235   0.6782   0.8190 C.2            1 S1                 0.0000
      3 ****         0.8348  -0.3917   0.8335 N.am           1 S1                 0.0000
      4 ****         2.2895  -0.3604   0.6665 C.3            1 S1                 0.0000
      5 ****         2.9319  -1.5196   1.4586 C.3            1 S1                 0.0000
      6 ****         3.6440  -2.4215   0.4396 C.3            1 S1                 0.0000
      7 ****         3.0164  -2.0819  -0.9107 C.3            1 S1                 0.0000
      8 ****         2.7473  -0.5778  -0.7957 C.3            1 S1                 0.0000
      9 ****         1.8837   0.0052  -1.8410 N.pl3          1 S1                 0.0000
     10 ****         1.9834   1.2747  -2.3522 C.2            1 S1                 0.0000
     11 ****         0.9648   1.4185  -3.2580 C.2            1 S1                 0.0000
     12 ****         0.2776   0.2357  -3.2575 N.pl3          1 S1                 1.0000
     13 ****         0.8315  -0.6198  -2.3926 C.2            1 S1                 0.0000
     14 ****        -1.4750   0.4020   0.9945 C.3            1 S1                 0.0000
     15 ****        -2.2574   0.8012  -0.2754 C.3            1 S1                 0.0000
     16 ****        -3.7641   0.5457  -0.1085 C.3            1 S1                 0.0000
     17 ****        -4.3190   1.2746   1.1255 C.3            1 S1                 0.0000
     18 ****        -3.5432   0.8879   2.3947 C.3            1 S1                 0.0000
     19 ****        -2.0365   1.1440   2.2263 C.3            1 S1                 0.0000
     20 ****         0.4149  -1.2982   0.9816 H              1 S1                 0.0000
     21 ****         2.6772   0.5910   1.0352 H              1 S1                 0.0000
     22 ****         3.6372  -1.1488   2.2033 H              1 S1                 0.0000
     23 ****         2.1788  -2.0947   1.9999 H              1 S1                 0.0000
     24 ****         4.7067  -2.1765   0.4172 H              1 S1                 0.0000
     25 ****         3.5567  -3.4802   0.6857 H              1 S1                 0.0000
     26 ****         3.6676  -2.3313  -1.7491 H              1 S1                 0.0000
     27 ****         2.0908  -2.6467  -1.0209 H              1 S1                 0.0000
     28 ****         3.7141  -0.0822  -0.9043 H              1 S1                 0.0000
     29 ****         2.7505   1.9672  -2.0369 H              1 S1                 0.0000
     30 ****         0.6813   2.2541  -3.8813 H              1 S1                 0.0000
     31 ****         0.4811  -1.6132  -2.1789 H              1 S1                 0.0000
     32 ****        -1.6106  -0.6695   1.1538 H              1 S1                 0.0000
     33 ****        -2.0958   1.8564  -0.5024 H              1 S1                 0.0000
     34 ****        -1.8887   0.2412  -1.1355 H              1 S1                 0.0000
     35 ****        -4.2975   0.8710  -1.0021 H              1 S1                 0.0000
     36 ****        -3.9453  -0.5257  -0.0128 H              1 S1                 0.0000
     37 ****        -4.2546   2.3529   0.9731 H              1 S1                 0.0000
     38 ****        -5.3770   1.0425   1.2505 H              1 S1                 0.0000
     39 ****        -3.9230   1.4507   3.2479 H              1 S1                 0.0000
     40 ****        -3.7119  -0.1661   2.6199 H              1 S1                 0.0000
     41 ****        -1.5109   0.8269   3.1280 H              1 S1                 0.0000
     42 ****        -1.8652   2.2176   2.1315 H              1 S1                 0.0000
     43 ****        -0.5387   0.0375  -3.8226 H              1 S1                 0.0000
     44 ****         1.4044   2.0012   0.5180 LP             1 S1                 0.0000
     45 ****        -0.2187   2.5914   0.6496 LP             1 S1                 0.0000
@<TRIPOS>BOND
    1    1    2 2     
    2    2    3 am    
    3    2   14 1     
    4    3    4 1     
    5    3   20 1     
    6    4    8 1     
    7    4    5 1     
    8    4   21 1     
    9    5    6 1     
   10    5   22 1     
   11    5   23 1     
   12    6    7 1     
   13    6   24 1     
   14    6   25 1     
   15    7    8 1     
   16    7   26 1     
   17    7   27 1     
   18    8    9 1     
   19    8   28 1     
   20    9   13 1     
   21    9   10 1     
   22   10   11 2     
   23   10   29 1     
   24   11   12 1     
   25   11   30 1     
   26   12   13 2     
   27   12   43 1     
   28   13   31 1     
   29   14   19 1     
   30   14   15 1     
   31   14   32 1     
   32   15   16 1     
   33   15   33 1     
   34   15   34 1     
   35   16   17 1     
   36   16   35 1     
   37   16   36 1     
   38   17   18 1     
   39   17   37 1     
   40   17   38 1     
   41   18   19 1     
   42   18   39 1     
   43   18   40 1     
   44   19   41 1     
   45   19   42 1     
   46    1   44 1     
   47    1   45 1     
@<TRIPOS>SUBSTRUCTURE
      1 S1             1
@<TRIPOS>SET
LONE_PAIRS      STATIC     ATOMS    <user>   **** ""
2 44 45
DONOR_HYDROGENS      STATIC     ATOMS    <user>   **** ""
2 20 43
ATOM$BLUE        STATIC     ATOMS    COLORGROUP SYSTEM
2 44 45
ATOM$RED        STATIC     ATOMS    COLORGROUP SYSTEM
2 20 43
