AV-unprocessed.smi:822|AV-procd|sdf|3842|dock7
  -GOLD-   22720 1283D 1   1.00000     0.00000
 Structure written by MMmdl.
 39 40  0  0  0  0  0  0  0  0  2 V2000
  152.6660  139.6685  155.9988 O   0  0  0  0  0  0  0  0  0  0  0  0
  151.8501  140.0522  156.8370 C   0  0  0  0  0  0  0  0  0  0  0  0
  152.2906  140.3125  158.2815 C   0  0  0  0  0  0  0  0  0  0  0  0
  152.5858  141.7987  158.5860 C   0  0  0  0  0  0  0  0  0  0  0  0
  152.6056  142.0463  160.1088 C   0  0  0  0  0  0  0  0  0  0  0  0
  152.8993  143.5168  160.4471 C   0  0  0  0  0  0  0  0  0  0  0  0
  151.8934  144.4556  159.7651 C   0  0  0  0  0  0  0  0  0  0  0  0
  151.8717  144.2279  158.2467 C   0  0  0  0  0  0  0  0  0  0  0  0
  151.5800  142.7573  157.9061 C   0  0  0  0  0  0  0  0  0  0  0  0
  150.5535  140.2593  156.5605 N   0  0  0  0  0  0  0  0  0  0  0  0
  149.9397  140.0729  155.2517 C   0  0  0  0  0  0  0  0  0  0  0  0
  149.5924  141.4200  154.5971 C   0  0  0  0  0  0  0  0  0  0  0  0
  148.1519  141.5619  154.3811 N   0  0  0  0  0  0  0  0  0  0  0  0
  147.3018  142.4487  154.9902 C   0  0  0  0  0  0  0  0  0  0  0  0
  146.0552  142.2147  154.4692 C   0  0  0  0  0  0  0  0  0  0  0  0
  146.1975  141.1955  153.5657 N   0  3  0  0  0  0  0  0  0  0  0  0
  147.4739  140.8005  153.5128 C   0  0  0  0  0  0  0  0  0  0  0  0
  151.5358  139.9366  158.9740 H   0  0  0  0  0  0  0  0  0  0  0  0
  153.1874  139.7175  158.4580 H   0  0  0  0  0  0  0  0  0  0  0  0
  153.5820  142.0334  158.2067 H   0  0  0  0  0  0  0  0  0  0  0  0
  151.6455  141.7607  160.5410 H   0  0  0  0  0  0  0  0  0  0  0  0
  153.3558  141.4105  160.5801 H   0  0  0  0  0  0  0  0  0  0  0  0
  152.8701  143.6626  161.5272 H   0  0  0  0  0  0  0  0  0  0  0  0
  153.9108  143.7703  160.1276 H   0  0  0  0  0  0  0  0  0  0  0  0
  150.8970  144.2860  160.1749 H   0  0  0  0  0  0  0  0  0  0  0  0
  152.1457  145.4938  159.9828 H   0  0  0  0  0  0  0  0  0  0  0  0
  151.1216  144.8712  157.7859 H   0  0  0  0  0  0  0  0  0  0  0  0
  152.8325  144.5183  157.8199 H   0  0  0  0  0  0  0  0  0  0  0  0
  151.6050  142.6347  156.8231 H   0  0  0  0  0  0  0  0  0  0  0  0
  150.5656  142.5075  158.2194 H   0  0  0  0  0  0  0  0  0  0  0  0
  149.9531  140.5760  157.3084 H   0  0  0  0  0  0  0  0  0  0  0  0
  150.6401  139.5223  154.6229 H   0  0  0  0  0  0  0  0  0  0  0  0
  149.0490  139.4486  155.3435 H   0  0  0  0  0  0  0  0  0  0  0  0
  149.9251  142.2555  155.2151 H   0  0  0  0  0  0  0  0  0  0  0  0
  150.0882  141.5184  153.6304 H   0  0  0  0  0  0  0  0  0  0  0  0
  147.6378  143.1618  155.7291 H   0  0  0  0  0  0  0  0  0  0  0  0
  145.1028  142.6843  154.6682 H   0  0  0  0  0  0  0  0  0  0  0  0
  147.8774  140.0212  152.8908 H   0  0  0  0  0  0  0  0  0  0  0  0
  145.4470  140.7964  153.0158 H   0  0  0  0  0  0  0  0  0  0  0  0
  1  2  2  0  0  0  0
  2  3  1  0  0  0  0
  2 10  1  0  0  0  0
  3  4  1  0  0  0  0
  3 18  1  0  0  0  0
  3 19  1  0  0  0  0
  4  9  1  0  0  0  0
  4  5  1  0  0  0  0
  4 20  1  0  0  0  0
  5  6  1  0  0  0  0
  5 21  1  0  0  0  0
  5 22  1  0  0  0  0
  6  7  1  0  0  0  0
  6 23  1  0  0  0  0
  6 24  1  0  0  0  0
  7  8  1  0  0  0  0
  7 25  1  0  0  0  0
  7 26  1  0  0  0  0
  8  9  1  0  0  0  0
  8 27  1  0  0  0  0
  8 28  1  0  0  0  0
  9 29  1  0  0  0  0
  9 30  1  0  0  0  0
 10 11  1  0  0  0  0
 10 31  1  0  0  0  0
 11 12  1  0  0  0  0
 11 32  1  0  0  0  0
 11 33  1  0  0  0  0
 12 13  1  0  0  0  0
 12 34  1  0  0  0  0
 12 35  1  0  0  0  0
 13 17  1  0  0  0  0
 13 14  1  0  0  0  0
 14 15  2  0  0  0  0
 14 36  1  0  0  0  0
 15 16  1  0  0  0  0
 15 37  1  0  0  0  0
 16 17  2  0  0  0  0
 16 39  1  0  0  0  0
 17 38  1  0  0  0  0
M  CHG  1  16   1
M  END
> <s_m_source_file>
AV-unprocessed.smi

> <i_m_source_file_index>
822

> <i_lp_mmshare_version>
43012

> <i_f3d_flags>
0

> <s_epik_input>
W0NIMl0xW0NIMl1bQ0gyXVtDSDJdW0NIMl1bQ0hdMVtDSDJdQyg9TylbTkhdW0NIMl1bQ0gyXW4yW2NIXVtjSF1uW2NIXTI=

> <s_epik_cmdline>
J2VwaWtfcHl0aG9uJywgJy1waCcsICc3LjAnLCAnLXRuJywgJzgnLCAnLW1hJywgJzIwMCcsICctbWV0YWxfYmluZGluZycsICctaW1hZScsICc8aW5maWxlLm1hZT4nLCAnLW9tYWUnLCAnPG91dGZpbGUubWFlPic=

> <r_lp_tautomer_probability>
1

> <r_epik_Ionization_Penalty>
0.267085

> <r_epik_Ionization_Penalty_Charging>
0

> <r_epik_Ionization_Penalty_Neutral>
0.267085

> <r_epik_State_Penalty>
0.259064

> <r_epik_Charging_Adjusted_Penalty>
0.259064

> <i_epik_Tot_Q>
1

> <i_epik_Tot_abs_Q>
1

> <r_epik_Metal_State_Penalty>
0.544959

> <b_epik_Metal_Only>
0

> <s_lp_Force_Field>
OPLS_2005

> <r_lp_Energy>
11.7187

> <b_lp_Chiralities_Consistent>
1

> <s_lp_Variant>
AV-unprocessed.smi:822-1

> <Gold.Version>
5.8.1

> <Gold.Id.Protein>
6NUR|6NUR_protein|mol2

> <Gold.PLP.Fitness>
51.9488

> <Gold.PLP.PLP>
-38.8885

> <Gold.PLP.part.hbond>
-2.0000

> <Gold.PLP.part.metal>
0.0000

> <Gold.PLP.part.buried>
-0.8658

> <Gold.PLP.part.nonpolar>
-35.8535

> <Gold.PLP.part.repulsive>
0.0649

> <Gold.PLP.ligand.clash>
0.0000

> <Gold.PLP.ligand.torsion>
0.9775

> <Gold.PLP.Chemscore.Hbond>
3.0000

> <Gold.PLP.Chemscore.CHOScore>
1.9972

> <Gold.PLP.Chemscore.Metal>
0.0000

> <Gold.Chemscore.Hbonds>
donor molecule, donor type, donor heavy atom, donor atom, acceptor molecule, acceptor atom, score
      L1  H    16    39       P1 10175  2.00
      P1  H  7997  8008       L1     1  1.00
      L1  C    14    36       P1  8028  0.80
      L1  C    17    38       P1  7957  1.00

> <Gold.PLP.Chemscore.Internal.Correction>
0.0239

> <Gold.Rescore>
     Score         DG    S(hbond)    S(metal)    S(lipo)     H(rot)  DE(clash)    DE(int)     intcor
     16.82     -17.77       1.88        0.00      96.40       2.05       0.04       0.90       ----

> <Gold.Chemscore.Fitness>
16.8229

> <Gold.Chemscore.DG>
-17.7685

> <Gold.Chemscore.ZeroCoef>
-5.4800

> <Gold.Chemscore.Hbond>
1.8772

> <Gold.Chemscore.Metal>
0.0000

> <Gold.Chemscore.Lipo>
96.3961

> <Gold.Chemscore.Internal_Hbond>
0.0000

> <Gold.Chemscore.DEClash>
0.0431

> <Gold.Chemscore.DEInternal>
0.9025

> <Gold.Chemscore.Rot>
2.0546

> <Gold.Chemscore.Internal.Correction>
   9.000000E+99

> <Gold.Chemscore.Hbonds>
donor molecule, donor type, donor heavy atom, donor atom, acceptor molecule, acceptor atom, score
      L1  H    16    39       P1 10175  0.55
      P1  H  7997  8008       L1     1  0.97

> <Gold.Chemscore.Hbond.Weighted>
-6.2699

> <Gold.Chemscore.Metal.Weighted>
-0.0000

> <Gold.Chemscore.Lipo.Weighted>
-11.2783

> <Gold.Chemscore.Internal_Hbond.Weighted>
0.0000

> <Gold.Chemscore.DEClash.Weighted>
0.0431

> <Gold.Chemscore.DEInternal.Weighted>
0.9025

> <Gold.Chemscore.Rot.Weighted>
5.2598

> <Gold.Chemscore.Internal.Correction.Weighted>
   9.000000E+99

> <Gold.Protein.RotatedTorsions>
[ 6907 6896 6895 6894 ] final  -53.01 input  -60.11 | X-H torsion
[ 7974 7965 7964 7962 ] final   83.33 input  175.53 | X-H torsion
[ 8008 7997 7996 7995 ] final  -32.56 input   59.86 | X-H torsion
[ 10167 10162 10161 10158 ] final -131.24 input  -65.29 | X-H torsion
[ 10718 10713 10712 10709 ] final  -77.91 input   66.30 | X-H torsion
[ 10763 10752 10751 10750 ] final -125.88 input  -60.55 | X-H torsion
[ 11005 11000 10999 10996 ] final  -63.24 input  -57.11 | X-H torsion

> <Gold.Protein.ActiveResidues>
 VAL166  LYS551  ARG553  GLY616  TRP617  ASP618  TYR619  PRO620  LYS621  CYS622 
 ASP623  PHE694  ASN695  SER759  ASP760  ASP761  ALA762  ILE779  LEU786  VAL792 
 PHE793  MET794  SER795  GLU796  ALA797  LYS798  CYS799  TRP800  GLU811  SER814 

> <Gold.Protein.RotatedAtoms>
  150.8466  134.7776  159.6974 H   0  0  0  0  0  0  0  0  0  0  0  0  # atno 6907 bound_to 6896
  152.4541  134.5327  159.9825 H   0  0  0  0  0  0  0  0  0  0  0  0  # atno 6908 bound_to 6896
  151.5456  133.3387  159.2979 H   0  0  0  0  0  0  0  0  0  0  0  0  # atno 6909 bound_to 6896
  145.6133  139.2372  143.2180 H   0  0  0  0  0  0  0  0  0  0  0  0  # atno 7974 bound_to 7965
  154.4176  140.1734  156.1747 H   0  0  0  0  0  0  0  0  0  0  0  0  # atno 8008 bound_to 7997
  155.9732  140.3384  155.6570 H   0  0  0  0  0  0  0  0  0  0  0  0  # atno 8009 bound_to 7997
  155.6598  140.0699  157.2548 H   0  0  0  0  0  0  0  0  0  0  0  0  # atno 8010 bound_to 7997
  139.9210  143.6383  152.2553 H   0  0  0  0  0  0  0  0  0  0  0  0  # atno 10167 bound_to 10162
  156.0132  130.4504  150.3417 H   0  0  0  0  0  0  0  0  0  0  0  0  # atno 10718 bound_to 10713
  154.8740  135.4014  154.3340 H   0  0  0  0  0  0  0  0  0  0  0  0  # atno 10763 bound_to 10752
  153.4149  135.7021  153.6339 H   0  0  0  0  0  0  0  0  0  0  0  0  # atno 10764 bound_to 10752
  153.5026  135.3724  155.2517 H   0  0  0  0  0  0  0  0  0  0  0  0  # atno 10765 bound_to 10752
  141.1386  133.6649  156.5650 H   0  0  0  0  0  0  0  0  0  0  0  0  # atno 11005 bound_to 11000
  146.1487  140.6955  142.9332 LP  0  0  0  0  0  0  0  0  0  0  0  0  # atno 17320 bound_to 7965
  144.7261  140.4528  143.6972 LP  0  0  0  0  0  0  0  0  0  0  0  0  # atno 17321 bound_to 7965
  139.6862  144.7651  151.1520 LP  0  0  0  0  0  0  0  0  0  0  0  0  # atno 17342 bound_to 10162
  140.7662  143.5654  150.9053 LP  0  0  0  0  0  0  0  0  0  0  0  0  # atno 17343 bound_to 10162
  157.1512  131.0321  151.2884 LP  0  0  0  0  0  0  0  0  0  0  0  0  # atno 17370 bound_to 10713
  157.4390  130.7533  149.7053 LP  0  0  0  0  0  0  0  0  0  0  0  0  # atno 17371 bound_to 10713
  140.3958  134.7400  157.4749 LP  0  0  0  0  0  0  0  0  0  0  0  0  # atno 17394 bound_to 11000
  140.0532  134.6100  155.8836 LP  0  0  0  0  0  0  0  0  0  0  0  0  # atno 17395 bound_to 11000

$$$$
