AV-unprocessed.smi:3181|AV-procd|sdf|12148|dock9
  -GOLD-   2272017583D 1   1.00000     0.00000
 Structure written by MMmdl.
 42 43  0  0  0  0  0  0  0  0  2 V2000
  147.6505  145.5976  161.3116 C   0  0  0  0  0  0  0  0  0  0  0  0
  147.2858  144.3420  160.5028 C   0  0  1  0  0  0  0  0  0  0  0  0
  145.8395  144.3915  159.9633 C   0  0  0  0  0  0  0  0  0  0  0  0
  144.8552  143.9888  160.9504 N   0  0  0  0  0  0  0  0  0  0  0  0
  145.0074  143.5118  162.1871 C   0  0  0  0  0  0  0  0  0  0  0  0
  143.8633  143.2574  162.8064 N   0  0  0  0  0  0  0  0  0  0  0  0
  142.9852  143.6347  161.8296 C   0  0  0  0  0  0  0  0  0  0  0  0
  143.5287  144.0843  160.6981 N   0  0  0  0  0  0  0  0  0  0  0  0
  148.2431  144.1792  159.3848 N   0  3  0  0  0  0  0  0  0  0  0  0
  149.6624  143.9815  159.7614 C   0  0  2  0  0  0  0  0  0  0  0  0
  150.4165  145.3184  159.6485 C   0  0  0  0  0  0  0  0  0  0  0  0
  151.9052  145.1619  160.0007 C   0  0  0  0  0  0  0  0  0  0  0  0
  152.6005  144.0898  159.1373 C   0  0  2  0  0  0  0  0  0  0  0  0
  152.8110  144.5734  157.6883 C   0  0  0  0  0  0  0  0  0  0  0  0
  151.8407  142.7440  159.2529 C   0  0  2  0  0  0  0  0  0  0  0  0
  152.5004  141.6033  158.4605 C   0  0  0  0  0  0  0  0  0  0  0  0
  150.3467  142.8971  158.9009 C   0  0  0  0  0  0  0  0  0  0  0  0
  147.0108  145.7101  162.1873 H   0  0  0  0  0  0  0  0  0  0  0  0
  147.5513  146.5014  160.7093 H   0  0  0  0  0  0  0  0  0  0  0  0
  148.6794  145.5475  161.6694 H   0  0  0  0  0  0  0  0  0  0  0  0
  147.3808  143.4887  161.1763 H   0  0  0  0  0  0  0  0  0  0  0  0
  145.5970  145.4017  159.6302 H   0  0  0  0  0  0  0  0  0  0  0  0
  145.7246  143.7448  159.0933 H   0  0  0  0  0  0  0  0  0  0  0  0
  145.9726  143.3431  162.6422 H   0  0  0  0  0  0  0  0  0  0  0  0
  141.9141  143.5765  161.9559 H   0  0  0  0  0  0  0  0  0  0  0  0
  147.9423  143.4149  158.7971 H   0  0  0  0  0  0  0  0  0  0  0  0
  149.6912  143.6714  160.8075 H   0  0  0  0  0  0  0  0  0  0  0  0
  150.3174  145.7185  158.6387 H   0  0  0  0  0  0  0  0  0  0  0  0
  149.9644  146.0563  160.3125 H   0  0  0  0  0  0  0  0  0  0  0  0
  152.4154  146.1202  159.8968 H   0  0  0  0  0  0  0  0  0  0  0  0
  151.9939  144.8876  161.0528 H   0  0  0  0  0  0  0  0  0  0  0  0
  153.5962  143.9411  159.5578 H   0  0  0  0  0  0  0  0  0  0  0  0
  151.8706  144.6910  157.1511 H   0  0  0  0  0  0  0  0  0  0  0  0
  153.4308  143.8786  157.1219 H   0  0  0  0  0  0  0  0  0  0  0  0
  153.3209  145.5369  157.6707 H   0  0  0  0  0  0  0  0  0  0  0  0
  151.8882  142.4485  160.3024 H   0  0  0  0  0  0  0  0  0  0  0  0
  152.4222  141.7598  157.3845 H   0  0  0  0  0  0  0  0  0  0  0  0
  152.0260  140.6478  158.6857 H   0  0  0  0  0  0  0  0  0  0  0  0
  153.5576  141.5109  158.7107 H   0  0  0  0  0  0  0  0  0  0  0  0
  149.8536  141.9370  159.0540 H   0  0  0  0  0  0  0  0  0  0  0  0
  150.2329  143.1333  157.8422 H   0  0  0  0  0  0  0  0  0  0  0  0
  148.2040  145.0286  158.8397 H   0  0  0  0  0  0  0  0  0  0  0  0
  1  2  1  0  0  0  0
  1 18  1  0  0  0  0
  1 19  1  0  0  0  0
  1 20  1  0  0  0  0
  2  3  1  0  0  0  0
  2  9  1  0  0  0  0
  2 21  1  0  0  0  0
  3  4  1  0  0  0  0
  3 22  1  0  0  0  0
  3 23  1  0  0  0  0
  4  8  1  0  0  0  0
  4  5  1  0  0  0  0
  5  6  2  0  0  0  0
  5 24  1  0  0  0  0
  6  7  1  0  0  0  0
  7  8  2  0  0  0  0
  7 25  1  0  0  0  0
  9 10  1  0  0  0  0
  9 26  1  0  0  0  0
  9 42  1  0  0  0  0
 10 17  1  0  0  0  0
 10 11  1  0  0  0  0
 10 27  1  0  0  0  0
 11 12  1  0  0  0  0
 11 28  1  0  0  0  0
 11 29  1  0  0  0  0
 12 13  1  0  0  0  0
 12 30  1  0  0  0  0
 12 31  1  0  0  0  0
 13 14  1  0  0  0  0
 13 15  1  0  0  0  0
 13 32  1  0  0  0  0
 14 33  1  0  0  0  0
 14 34  1  0  0  0  0
 14 35  1  0  0  0  0
 15 16  1  0  0  0  0
 15 17  1  0  0  0  0
 15 36  1  0  0  0  0
 16 37  1  0  0  0  0
 16 38  1  0  0  0  0
 16 39  1  0  0  0  0
 17 40  1  0  0  0  0
 17 41  1  0  0  0  0
M  CHG  1   9   1
M  END
> <s_m_source_file>
AV-unprocessed.smi

> <i_m_source_file_index>
3181

> <i_lp_mmshare_version>
43012

> <i_f3d_flags>
0

> <s_epik_input>
bjFbY0hdbltjSF1uMVtDSDJdW0NAQEhdKFtDSDNdKVtOSF1bQ0BASF0yW0NIMl1bQ0gyXVtDQEBIXShbQ0gzXSlbQ0BASF0oW0NIM10pW0NIMl0y

> <s_epik_cmdline>
J2VwaWtfcHl0aG9uJywgJy1waCcsICc3LjAnLCAnLXRuJywgJzgnLCAnLW1hJywgJzIwMCcsICctbWV0YWxfYmluZGluZycsICctaW1hZScsICc8aW5maWxlLm1hZT4nLCAnLW9tYWUnLCAnPG91dGZpbGUubWFlPic=

> <r_lp_tautomer_probability>
1

> <r_epik_Ionization_Penalty>
0.000617007

> <r_epik_Ionization_Penalty_Charging>
0.000616215

> <r_epik_Ionization_Penalty_Neutral>
7.92544e-07

> <r_epik_State_Penalty>
0.000388807

> <r_epik_Charging_Adjusted_Penalty>
0.00100502

> <i_epik_Tot_Q>
1

> <i_epik_Tot_abs_Q>
1

> <r_epik_Metal_State_Penalty>
-0

> <b_epik_Metal_Only>
0

> <s_lp_Force_Field>
OPLS_2005

> <r_lp_Energy>
20.8152

> <b_lp_Chiralities_Consistent>
1

> <s_lp_Variant>
AV-unprocessed.smi:3181-14

> <Gold.Version>
5.8.1

> <Gold.Id.Protein>
6NUR|6NUR_protein|mol2

> <Gold.PLP.Fitness>
42.1931

> <Gold.PLP.PLP>
-37.8754

> <Gold.PLP.part.hbond>
-1.8429

> <Gold.PLP.part.metal>
0.0000

> <Gold.PLP.part.buried>
-6.3040

> <Gold.PLP.part.nonpolar>
-30.1325

> <Gold.PLP.part.repulsive>
0.2623

> <Gold.PLP.ligand.clash>
0.0000

> <Gold.PLP.ligand.torsion>
0.8528

> <Gold.PLP.Chemscore.Hbond>
2.0000

> <Gold.PLP.Chemscore.CHOScore>
0.0000

> <Gold.PLP.Chemscore.Metal>
0.0000

> <Gold.Chemscore.Hbonds>
donor molecule, donor type, donor heavy atom, donor atom, acceptor molecule, acceptor atom, score
      L1  H     9    42       P1  8029  2.00

> <Gold.PLP.Chemscore.Internal.Correction>
0.0234

> <Gold.Rescore>
     Score         DG    S(hbond)    S(metal)    S(lipo)     H(rot)  DE(clash)    DE(int)     intcor
     13.81     -14.64       0.90        0.00      98.93       2.11       0.13       0.71       ----

> <Gold.Chemscore.Fitness>
13.8090

> <Gold.Chemscore.DG>
-14.6449

> <Gold.Chemscore.ZeroCoef>
-5.4800

> <Gold.Chemscore.Hbond>
0.8953

> <Gold.Chemscore.Metal>
0.0000

> <Gold.Chemscore.Lipo>
98.9292

> <Gold.Chemscore.Internal_Hbond>
0.0000

> <Gold.Chemscore.DEClash>
0.1296

> <Gold.Chemscore.DEInternal>
0.7062

> <Gold.Chemscore.Rot>
2.1095

> <Gold.Chemscore.Internal.Correction>
   9.000000E+99

> <Gold.Chemscore.Hbonds>
donor molecule, donor type, donor heavy atom, donor atom, acceptor molecule, acceptor atom, score
      L1  H     9    42       P1  8029  0.96

> <Gold.Chemscore.Hbond.Weighted>
-2.9905

> <Gold.Chemscore.Metal.Weighted>
-0.0000

> <Gold.Chemscore.Lipo.Weighted>
-11.5747

> <Gold.Chemscore.Internal_Hbond.Weighted>
0.0000

> <Gold.Chemscore.DEClash.Weighted>
0.1296

> <Gold.Chemscore.DEInternal.Weighted>
0.7062

> <Gold.Chemscore.Rot.Weighted>
5.4003

> <Gold.Chemscore.Internal.Correction.Weighted>
   9.000000E+99

> <Gold.Protein.RotatedTorsions>
[ 6907 6896 6895 6894 ] final   10.81 input  -60.11 | X-H torsion
[ 7974 7965 7964 7962 ] final  -64.75 input  175.53 | X-H torsion
[ 8008 7997 7996 7995 ] final  133.41 input   59.86 | X-H torsion
[ 10167 10162 10161 10158 ] final -158.51 input  -65.29 | X-H torsion
[ 10718 10713 10712 10709 ] final   57.69 input   66.30 | X-H torsion
[ 10763 10752 10751 10750 ] final -114.42 input  -60.55 | X-H torsion
[ 11005 11000 10999 10996 ] final  174.13 input  -57.11 | X-H torsion

> <Gold.Protein.ActiveResidues>
 VAL166  LYS551  ARG553  GLY616  TRP617  ASP618  TYR619  PRO620  LYS621  CYS622 
 ASP623  PHE694  ASN695  SER759  ASP760  ASP761  ALA762  ILE779  LEU786  VAL792 
 PHE793  MET794  SER795  GLU796  ALA797  LYS798  CYS799  TRP800  GLU811  SER814 

> <Gold.Protein.RotatedAtoms>
  151.7443  135.0847  160.0320 H   0  0  0  0  0  0  0  0  0  0  0  0  # atno 6907 bound_to 6896
  152.3459  133.6117  159.5918 H   0  0  0  0  0  0  0  0  0  0  0  0  # atno 6908 bound_to 6896
  150.7508  133.9566  159.3544 H   0  0  0  0  0  0  0  0  0  0  0  0  # atno 6909 bound_to 6896
  145.7628  140.8853  143.0421 H   0  0  0  0  0  0  0  0  0  0  0  0  # atno 7974 bound_to 7965
  156.2992  140.2522  156.3248 H   0  0  0  0  0  0  0  0  0  0  0  0  # atno 8008 bound_to 7997
  154.9201  140.0401  157.2012 H   0  0  0  0  0  0  0  0  0  0  0  0  # atno 8009 bound_to 7997
  154.8320  140.2877  155.5720 H   0  0  0  0  0  0  0  0  0  0  0  0  # atno 8010 bound_to 7997
  139.6686  143.9784  152.2270 H   0  0  0  0  0  0  0  0  0  0  0  0  # atno 10167 bound_to 10162
  157.5535  130.8783  149.9000 H   0  0  0  0  0  0  0  0  0  0  0  0  # atno 10718 bound_to 10713
  154.8439  135.4418  154.1503 H   0  0  0  0  0  0  0  0  0  0  0  0  # atno 10763 bound_to 10752
  153.2665  135.6941  153.7530 H   0  0  0  0  0  0  0  0  0  0  0  0  # atno 10764 bound_to 10752
  153.6787  135.3406  155.3148 H   0  0  0  0  0  0  0  0  0  0  0  0  # atno 10765 bound_to 10752
  140.3480  134.7219  157.4248 H   0  0  0  0  0  0  0  0  0  0  0  0  # atno 11005 bound_to 11000
  144.6827  139.9747  143.7482 LP  0  0  0  0  0  0  0  0  0  0  0  0  # atno 17320 bound_to 7965
  146.0247  139.3282  143.0791 LP  0  0  0  0  0  0  0  0  0  0  0  0  # atno 17321 bound_to 7965
  139.9543  144.6600  150.8141 LP  0  0  0  0  0  0  0  0  0  0  0  0  # atno 17342 bound_to 10162
  140.7609  143.3162  151.2727 LP  0  0  0  0  0  0  0  0  0  0  0  0  # atno 17343 bound_to 10162
  156.0598  130.3702  150.1008 LP  0  0  0  0  0  0  0  0  0  0  0  0  # atno 17370 bound_to 10713
  156.9179  130.9673  151.3553 LP  0  0  0  0  0  0  0  0  0  0  0  0  # atno 17371 bound_to 10713
  140.0726  134.5841  155.8625 LP  0  0  0  0  0  0  0  0  0  0  0  0  # atno 17394 bound_to 11000
  141.2020  133.6622  156.5982 LP  0  0  0  0  0  0  0  0  0  0  0  0  # atno 17395 bound_to 11000

$$$$
