AV-unprocessed.smi:1211|AV-procd|sdf|5079|dock9
  -GOLD-   22720 4133D 1   1.00000     0.00000
 Structure written by MMmdl.
 47 49  0  0  0  0  0  0  0  0  1 V2000
  145.5870  135.8657  150.5670 C   0  0  0  0  0  0  0  0  0  0  0  0
  145.3341  134.3699  150.6625 C   0  0  0  0  0  0  0  0  0  0  0  0
  144.4008  133.7703  149.7904 C   0  0  0  0  0  0  0  0  0  0  0  0
  144.1670  132.3876  149.8812 C   0  0  0  0  0  0  0  0  0  0  0  0
  144.8821  131.6582  150.8462 C   0  0  0  0  0  0  0  0  0  0  0  0
  145.7763  132.2228  151.6832 N   0  0  0  0  0  0  0  0  0  0  0  0
  146.0129  133.5568  151.6096 C   0  0  0  0  0  0  0  0  0  0  0  0
  146.9428  134.2197  152.4590 N   0  0  0  0  0  0  0  0  0  0  0  0
  147.0773  134.1191  153.7932 C   0  0  0  0  0  0  0  0  0  0  0  0
  146.3882  133.4111  154.5281 O   0  0  0  0  0  0  0  0  0  0  0  0
  148.0741  134.8982  154.2367 N   0  0  0  0  0  0  0  0  0  0  0  0
  148.4986  135.0343  155.6297 C   0  0  0  0  0  0  0  0  0  0  0  0
  148.4644  136.5156  156.1343 C   0  0  2  0  0  0  0  0  0  0  0  0
  149.2662  137.3934  155.2262 N   0  0  0  0  0  0  0  0  0  0  0  0
  150.7211  137.1823  155.2416 C   0  0  0  0  0  0  0  0  0  0  0  0
  151.4543  138.0708  154.2218 C   0  0  0  0  0  0  0  0  0  0  0  0
  151.1475  139.4370  154.4633 O   0  0  0  0  0  0  0  0  0  0  0  0
  149.7531  139.6958  154.3768 C   0  0  0  0  0  0  0  0  0  0  0  0
  149.0020  138.8282  155.4005 C   0  0  0  0  0  0  0  0  0  0  0  0
  148.9616  136.5345  157.6092 C   0  0  0  0  0  0  0  0  0  0  0  0
  147.9066  135.8788  158.5067 C   0  0  0  0  0  0  0  0  0  0  0  0
  146.2882  136.2433  157.7868 S   0  0  0  0  0  0  0  0  0  0  0  0
  146.9809  136.9463  156.2640 C   0  0  0  0  0  0  0  0  0  0  0  0
  144.9703  136.3241  149.7935 H   0  0  0  0  0  0  0  0  0  0  0  0
  146.6318  136.0613  150.3234 H   0  0  0  0  0  0  0  0  0  0  0  0
  145.3540  136.3534  151.5139 H   0  0  0  0  0  0  0  0  0  0  0  0
  143.8681  134.3603  149.0592 H   0  0  0  0  0  0  0  0  0  0  0  0
  143.4583  131.8993  149.2288 H   0  0  0  0  0  0  0  0  0  0  0  0
  144.7333  130.5937  150.9497 H   0  0  0  0  0  0  0  0  0  0  0  0
  147.5783  134.8500  151.9931 H   0  0  0  0  0  0  0  0  0  0  0  0
  148.5918  135.4355  153.5570 H   0  0  0  0  0  0  0  0  0  0  0  0
  147.8472  134.4027  156.2319 H   0  0  0  0  0  0  0  0  0  0  0  0
  149.4799  134.5812  155.7684 H   0  0  0  0  0  0  0  0  0  0  0  0
  151.1283  137.3797  156.2326 H   0  0  0  0  0  0  0  0  0  0  0  0
  150.9710  136.1546  154.9893 H   0  0  0  0  0  0  0  0  0  0  0  0
  152.5320  137.9293  154.3035 H   0  0  0  0  0  0  0  0  0  0  0  0
  151.1731  137.8011  153.2027 H   0  0  0  0  0  0  0  0  0  0  0  0
  149.5751  140.7529  154.5742 H   0  0  0  0  0  0  0  0  0  0  0  0
  149.3985  139.4943  153.3647 H   0  0  0  0  0  0  0  0  0  0  0  0
  147.9425  139.0487  155.2923 H   0  0  0  0  0  0  0  0  0  0  0  0
  149.2875  139.1399  156.4057 H   0  0  0  0  0  0  0  0  0  0  0  0
  149.9416  136.0747  157.7348 H   0  0  0  0  0  0  0  0  0  0  0  0
  149.0537  137.5525  157.9806 H   0  0  0  0  0  0  0  0  0  0  0  0
  148.0425  134.7979  158.5412 H   0  0  0  0  0  0  0  0  0  0  0  0
  147.9636  136.2442  159.5322 H   0  0  0  0  0  0  0  0  0  0  0  0
  146.8848  138.0267  156.3570 H   0  0  0  0  0  0  0  0  0  0  0  0
  146.3805  136.6488  155.4038 H   0  0  0  0  0  0  0  0  0  0  0  0
  1  2  1  0  0  0  0
  1 24  1  0  0  0  0
  1 25  1  0  0  0  0
  1 26  1  0  0  0  0
  2  7  1  0  0  0  0
  2  3  2  0  0  0  0
  3  4  1  0  0  0  0
  3 27  1  0  0  0  0
  4  5  2  0  0  0  0
  4 28  1  0  0  0  0
  5  6  1  0  0  0  0
  5 29  1  0  0  0  0
  6  7  2  0  0  0  0
  7  8  1  0  0  0  0
  8  9  1  0  0  0  0
  8 30  1  0  0  0  0
  9 10  2  0  0  0  0
  9 11  1  0  0  0  0
 11 12  1  0  0  0  0
 11 31  1  0  0  0  0
 12 13  1  0  0  0  0
 12 32  1  0  0  0  0
 12 33  1  0  0  0  0
 13 23  1  0  0  0  0
 13 14  1  0  0  0  0
 13 20  1  0  0  0  0
 14 19  1  0  0  0  0
 14 15  1  0  0  0  0
 15 16  1  0  0  0  0
 15 34  1  0  0  0  0
 15 35  1  0  0  0  0
 16 17  1  0  0  0  0
 16 36  1  0  0  0  0
 16 37  1  0  0  0  0
 17 18  1  0  0  0  0
 18 19  1  0  0  0  0
 18 38  1  0  0  0  0
 18 39  1  0  0  0  0
 19 40  1  0  0  0  0
 19 41  1  0  0  0  0
 20 21  1  0  0  0  0
 20 42  1  0  0  0  0
 20 43  1  0  0  0  0
 21 22  1  0  0  0  0
 21 44  1  0  0  0  0
 21 45  1  0  0  0  0
 22 23  1  0  0  0  0
 23 46  1  0  0  0  0
 23 47  1  0  0  0  0
M  END
> <s_m_source_file>
AV-unprocessed.smi

> <i_m_source_file_index>
1211

> <i_lp_mmshare_version>
43012

> <i_f3d_flags>
0

> <s_epik_input>
W0NIM11jMVtjSF1bY0hdW2NIXW5jMVtOSF1DKD1PKVtOSF1bQ0gyXVtDQF0yKFtDSDJdW0NIMl1TW0NIMl0yKU4zW0NIMl1bQ0gyXU9bQ0gyXVtDSDJdMw==

> <s_epik_cmdline>
J2VwaWtfcHl0aG9uJywgJy1waCcsICc3LjAnLCAnLXRuJywgJzgnLCAnLW1hJywgJzIwMCcsICctbWV0YWxfYmluZGluZycsICctaW1hZScsICc8aW5maWxlLm1hZT4nLCAnLW9tYWUnLCAnPG91dGZpbGUubWFlPic=

> <r_epik_Ionization_Penalty>
0.0195636

> <r_epik_Ionization_Penalty_Charging>
0

> <r_epik_Ionization_Penalty_Neutral>
0.0195636

> <r_epik_State_Penalty>
0.0155843

> <r_epik_Charging_Adjusted_Penalty>
0.0155843

> <i_epik_Tot_Q>
0

> <i_epik_Tot_abs_Q>
0

> <r_epik_Metal_State_Penalty>
0.0155842

> <b_epik_Metal_Only>
0

> <s_lp_Force_Field>
OPLS_2005

> <r_lp_Energy>
55.6776

> <b_lp_Chiralities_Consistent>
1

> <s_lp_Variant>
AV-unprocessed.smi:1211-2

> <Gold.Version>
5.8.1

> <Gold.Id.Protein>
6NUR|6NUR_protein|mol2

> <Gold.PLP.Fitness>
40.0837

> <Gold.PLP.PLP>
-32.3786

> <Gold.PLP.part.hbond>
-3.0000

> <Gold.PLP.part.metal>
0.0000

> <Gold.PLP.part.buried>
-6.1452

> <Gold.PLP.part.nonpolar>
-23.8292

> <Gold.PLP.part.repulsive>
0.4029

> <Gold.PLP.ligand.clash>
0.0000

> <Gold.PLP.ligand.torsion>
0.6875

> <Gold.PLP.Chemscore.Hbond>
3.0000

> <Gold.PLP.Chemscore.CHOScore>
0.0000

> <Gold.PLP.Chemscore.Metal>
0.0000

> <Gold.Chemscore.Hbonds>
donor molecule, donor type, donor heavy atom, donor atom, acceptor molecule, acceptor atom, score
      L1  H     8    30       P1  7948  1.00
      L1  H    11    31       P1  7948  1.00
      P1  H  7989  7998       L1    17  0.75

> <Gold.PLP.Chemscore.Internal.Correction>
0.0800

> <Gold.Rescore>
     Score         DG    S(hbond)    S(metal)    S(lipo)     H(rot)  DE(clash)    DE(int)     intcor
     18.18     -19.07       2.47        0.00      77.13       1.44       0.23       0.66       ----

> <Gold.Chemscore.Fitness>
18.1834

> <Gold.Chemscore.DG>
-19.0711

> <Gold.Chemscore.ZeroCoef>
-5.4800

> <Gold.Chemscore.Hbond>
2.4713

> <Gold.Chemscore.Metal>
0.0000

> <Gold.Chemscore.Lipo>
77.1330

> <Gold.Chemscore.Internal_Hbond>
0.0000

> <Gold.Chemscore.DEClash>
0.2261

> <Gold.Chemscore.DEInternal>
0.6616

> <Gold.Chemscore.Rot>
1.4405

> <Gold.Chemscore.Internal.Correction>
   9.000000E+99

> <Gold.Chemscore.Hbonds>
donor molecule, donor type, donor heavy atom, donor atom, acceptor molecule, acceptor atom, score
      L1  H     8    30       P1  7948  0.78
      L1  H    11    31       P1  7948  0.96
      P1  H  7989  7998       L1    17  0.09

> <Gold.Chemscore.Hbond.Weighted>
-8.2542

> <Gold.Chemscore.Metal.Weighted>
-0.0000

> <Gold.Chemscore.Lipo.Weighted>
-9.0246

> <Gold.Chemscore.Internal_Hbond.Weighted>
0.0000

> <Gold.Chemscore.DEClash.Weighted>
0.2261

> <Gold.Chemscore.DEInternal.Weighted>
0.6616

> <Gold.Chemscore.Rot.Weighted>
3.6876

> <Gold.Chemscore.Internal.Correction.Weighted>
   9.000000E+99

> <Gold.Protein.RotatedTorsions>
[ 6907 6896 6895 6894 ] final  115.82 input  -60.11 | X-H torsion
[ 7974 7965 7964 7962 ] final  103.40 input  175.53 | X-H torsion
[ 8008 7997 7996 7995 ] final -143.77 input   59.86 | X-H torsion
[ 10167 10162 10161 10158 ] final  -72.80 input  -65.29 | X-H torsion
[ 10718 10713 10712 10709 ] final -159.62 input   66.30 | X-H torsion
[ 10763 10752 10751 10750 ] final  -22.07 input  -60.55 | X-H torsion
[ 11005 11000 10999 10996 ] final   -3.76 input  -57.11 | X-H torsion

> <Gold.Protein.ActiveResidues>
 VAL166  LYS551  ARG553  GLY616  TRP617  ASP618  TYR619  PRO620  LYS621  CYS622 
 ASP623  PHE694  ASN695  SER759  ASP760  ASP761  ALA762  ILE779  LEU786  VAL792 
 PHE793  MET794  SER795  GLU796  ALA797  LYS798  CYS799  TRP800  GLU811  SER814 

> <Gold.Protein.RotatedAtoms>
  152.4717  133.8045  159.6970 H   0  0  0  0  0  0  0  0  0  0  0  0  # atno 6907 bound_to 6896
  150.8710  133.7496  159.2968 H   0  0  0  0  0  0  0  0  0  0  0  0  # atno 6908 bound_to 6896
  151.5031  135.1066  159.9886 H   0  0  0  0  0  0  0  0  0  0  0  0  # atno 6909 bound_to 6896
  145.3464  139.2449  143.3581 H   0  0  0  0  0  0  0  0  0  0  0  0  # atno 7974 bound_to 7965
  155.5160  140.0587  157.2915 H   0  0  0  0  0  0  0  0  0  0  0  0  # atno 8008 bound_to 7997
  154.4535  140.1961  156.0397 H   0  0  0  0  0  0  0  0  0  0  0  0  # atno 8009 bound_to 7997
  156.0751  140.3254  155.7628 H   0  0  0  0  0  0  0  0  0  0  0  0  # atno 8010 bound_to 7997
  140.5162  143.2337  151.7508 H   0  0  0  0  0  0  0  0  0  0  0  0  # atno 10167 bound_to 10162
  156.5706  130.8687  151.2836 H   0  0  0  0  0  0  0  0  0  0  0  0  # atno 10718 bound_to 10713
  153.6460  135.6983  153.5225 H   0  0  0  0  0  0  0  0  0  0  0  0  # atno 10763 bound_to 10752
  153.2744  135.4205  155.1018 H   0  0  0  0  0  0  0  0  0  0  0  0  # atno 10764 bound_to 10752
  154.8488  135.3586  154.6005 H   0  0  0  0  0  0  0  0  0  0  0  0  # atno 10765 bound_to 10752
  140.6729  133.9221  155.8506 H   0  0  0  0  0  0  0  0  0  0  0  0  # atno 11005 bound_to 11000
  146.2986  140.4072  142.8712 LP  0  0  0  0  0  0  0  0  0  0  0  0  # atno 17320 bound_to 7965
  144.8751  140.7325  143.6022 LP  0  0  0  0  0  0  0  0  0  0  0  0  # atno 17321 bound_to 7965
  139.4910  144.4320  151.9862 LP  0  0  0  0  0  0  0  0  0  0  0  0  # atno 17342 bound_to 10162
  140.3414  144.3198  150.5966 LP  0  0  0  0  0  0  0  0  0  0  0  0  # atno 17343 bound_to 10162
  157.7349  130.9753  150.2052 LP  0  0  0  0  0  0  0  0  0  0  0  0  # atno 17370 bound_to 10713
  156.2718  130.3722  149.8024 LP  0  0  0  0  0  0  0  0  0  0  0  0  # atno 17371 bound_to 10713
  141.0378  134.0665  157.3938 LP  0  0  0  0  0  0  0  0  0  0  0  0  # atno 17394 bound_to 11000
  139.8976  135.0151  156.7107 LP  0  0  0  0  0  0  0  0  0  0  0  0  # atno 17395 bound_to 11000

$$$$
