AV-unprocessed.smi:232|AV-procd|sdf|1773|dock3
  -GOLD-   2262020313D 1   1.00000     0.00000
 Structure written by MMmdl.
 52 55  0  0  0  0  0  0  0  0  1 V2000
  152.2875  145.2842  158.2191 C   0  0  0  0  0  0  0  0  0  0  0  0
  151.7443  144.1003  157.4098 C   0  0  0  0  0  0  0  0  0  0  0  0
  151.4727  142.8500  158.2716 C   0  0  2  0  0  0  0  0  0  0  0  0
  152.5688  142.5527  159.3045 C   0  0  0  0  0  0  0  0  0  0  0  0
  152.5774  141.0249  159.4374 C   0  0  0  0  0  0  0  0  0  0  0  0
  151.5133  140.5401  158.4445 C   0  0  2  0  0  0  0  0  0  0  0  0
  151.8549  139.1894  157.7925 C   0  0  0  0  0  0  0  0  0  0  0  0
  151.3810  141.6267  157.4822 N   0  0  0  0  0  0  0  0  0  0  0  0
  150.3152  141.5263  156.6535 C   0  0  0  0  0  0  0  0  0  0  0  0
  150.4864  141.2293  155.3376 N   0  0  0  0  0  0  0  0  0  0  0  0
  149.4238  141.1325  154.5322 C   0  0  0  0  0  0  0  0  0  0  0  0
  148.1319  141.2907  154.8304 N   0  0  0  0  0  0  0  0  0  0  0  0
  147.9619  141.5923  156.1501 C   0  0  0  0  0  0  0  0  0  0  0  0
  148.9915  141.7306  157.1215 C   0  0  0  0  0  0  0  0  0  0  0  0
  148.4446  142.0454  158.3588 N   0  0  0  0  0  0  0  0  0  0  0  0
  147.1598  142.0908  158.1319 C   0  0  0  0  0  0  0  0  0  0  0  0
  146.7828  141.8283  156.8342 N   0  0  0  0  0  0  0  0  0  0  0  0
  145.4276  141.8094  156.3133 C   0  0  0  0  0  0  0  0  0  0  0  0
  145.2221  142.8189  155.1668 C   0  0  1  0  0  0  0  0  0  0  0  0
  143.9830  142.5604  154.5343 O   0  0  0  0  0  0  0  0  0  0  0  0
  145.2343  144.2765  155.6641 C   0  0  2  0  0  0  0  0  0  0  0  0
  144.4031  144.5209  156.9251 C   0  0  0  0  0  0  0  0  0  0  0  0
  144.1051  145.9980  156.8135 C   0  0  0  0  0  0  0  0  0  0  0  0
  143.8729  146.1538  155.3143 C   0  0  0  0  0  0  0  0  0  0  0  0
  144.6580  145.1423  154.6875 O   0  0  0  0  0  0  0  0  0  0  0  0
  152.4356  146.1538  157.5783 H   0  0  0  0  0  0  0  0  0  0  0  0
  153.2466  145.0472  158.6796 H   0  0  0  0  0  0  0  0  0  0  0  0
  151.5947  145.5686  159.0117 H   0  0  0  0  0  0  0  0  0  0  0  0
  150.8224  144.4172  156.9209 H   0  0  0  0  0  0  0  0  0  0  0  0
  152.4425  143.8534  156.6088 H   0  0  0  0  0  0  0  0  0  0  0  0
  150.5326  142.9884  158.8086 H   0  0  0  0  0  0  0  0  0  0  0  0
  153.5424  142.8912  158.9471 H   0  0  0  0  0  0  0  0  0  0  0  0
  152.3735  143.0511  160.2545 H   0  0  0  0  0  0  0  0  0  0  0  0
  153.5645  140.6414  159.1753 H   0  0  0  0  0  0  0  0  0  0  0  0
  152.3538  140.6965  160.4529 H   0  0  0  0  0  0  0  0  0  0  0  0
  150.5681  140.4399  158.9810 H   0  0  0  0  0  0  0  0  0  0  0  0
  151.9896  138.4162  158.5491 H   0  0  0  0  0  0  0  0  0  0  0  0
  152.7754  139.2514  157.2110 H   0  0  0  0  0  0  0  0  0  0  0  0
  151.0605  138.8568  157.1238 H   0  0  0  0  0  0  0  0  0  0  0  0
  149.6393  140.8939  153.5011 H   0  0  0  0  0  0  0  0  0  0  0  0
  146.4457  142.3185  158.9098 H   0  0  0  0  0  0  0  0  0  0  0  0
  145.1926  140.7975  155.9804 H   0  0  0  0  0  0  0  0  0  0  0  0
  144.7480  142.0294  157.1373 H   0  0  0  0  0  0  0  0  0  0  0  0
  146.0110  142.6860  154.4252 H   0  0  0  0  0  0  0  0  0  0  0  0
  144.0842  141.8068  153.9731 H   0  0  0  0  0  0  0  0  0  0  0  0
  146.2589  144.6099  155.8395 H   0  0  0  0  0  0  0  0  0  0  0  0
  143.4737  143.9501  156.8920 H   0  0  0  0  0  0  0  0  0  0  0  0
  144.9326  144.2603  157.8419 H   0  0  0  0  0  0  0  0  0  0  0  0
  143.2509  146.3122  157.4134 H   0  0  0  0  0  0  0  0  0  0  0  0
  144.9749  146.5794  157.1228 H   0  0  0  0  0  0  0  0  0  0  0  0
  142.8250  145.9766  155.0703 H   0  0  0  0  0  0  0  0  0  0  0  0
  144.1416  147.1471  154.9543 H   0  0  0  0  0  0  0  0  0  0  0  0
  1  2  1  0  0  0  0
  1 26  1  0  0  0  0
  1 27  1  0  0  0  0
  1 28  1  0  0  0  0
  2  3  1  0  0  0  0
  2 29  1  0  0  0  0
  2 30  1  0  0  0  0
  3  8  1  0  0  0  0
  3  4  1  0  0  0  0
  3 31  1  0  0  0  0
  4  5  1  0  0  0  0
  4 32  1  0  0  0  0
  4 33  1  0  0  0  0
  5  6  1  0  0  0  0
  5 34  1  0  0  0  0
  5 35  1  0  0  0  0
  6  7  1  0  0  0  0
  6  8  1  0  0  0  0
  6 36  1  0  0  0  0
  7 37  1  0  0  0  0
  7 38  1  0  0  0  0
  7 39  1  0  0  0  0
  8  9  1  0  0  0  0
  9 14  1  0  0  0  0
  9 10  2  0  0  0  0
 10 11  1  0  0  0  0
 11 12  2  0  0  0  0
 11 40  1  0  0  0  0
 12 13  1  0  0  0  0
 13 17  1  0  0  0  0
 13 14  2  0  0  0  0
 14 15  1  0  0  0  0
 15 16  2  0  0  0  0
 16 17  1  0  0  0  0
 16 41  1  0  0  0  0
 17 18  1  0  0  0  0
 18 19  1  0  0  0  0
 18 42  1  0  0  0  0
 18 43  1  0  0  0  0
 19 20  1  0  0  0  0
 19 21  1  0  0  0  0
 19 44  1  0  0  0  0
 20 45  1  0  0  0  0
 21 25  1  0  0  0  0
 21 22  1  0  0  0  0
 21 46  1  0  0  0  0
 22 23  1  0  0  0  0
 22 47  1  0  0  0  0
 22 48  1  0  0  0  0
 23 24  1  0  0  0  0
 23 49  1  0  0  0  0
 23 50  1  0  0  0  0
 24 25  1  0  0  0  0
 24 51  1  0  0  0  0
 24 52  1  0  0  0  0
M  END
> <s_m_source_file>
AV-unprocessed.smi

> <i_m_source_file_index>
232

> <i_lp_mmshare_version>
43012

> <i_f3d_flags>
0

> <s_epik_input>
W0NIM11bQ0gyXVtDQEBIXTFbQ0gyXVtDSDJdW0NAQEhdKFtDSDNdKU4xYyhuW2NIXW4yKWMoYzIzKW5bY0hdbjNbQ0gyXVtDQEhdKFtPSF0pW0NAQEhdNFtDSDJdW0NIMl1bQ0gyXU80

> <s_epik_cmdline>
J2VwaWtfcHl0aG9uJywgJy1waCcsICc3LjAnLCAnLXRuJywgJzgnLCAnLW1hJywgJzIwMCcsICctbWV0YWxfYmluZGluZycsICctaW1hZScsICc8aW5maWxlLm1hZT4nLCAnLW9tYWUnLCAnPG91dGZpbGUubWFlPic=

> <r_lp_tautomer_probability>
1

> <r_epik_Ionization_Penalty>
0.00258048

> <r_epik_Ionization_Penalty_Charging>
0

> <r_epik_Ionization_Penalty_Neutral>
0.00258048

> <r_epik_State_Penalty>
0.00168551

> <r_epik_Charging_Adjusted_Penalty>
0.00168551

> <i_epik_Tot_Q>
0

> <i_epik_Tot_abs_Q>
0

> <r_epik_Metal_State_Penalty>
-0

> <b_epik_Metal_Only>
0

> <s_lp_Force_Field>
OPLS_2005

> <r_lp_Energy>
51.2688

> <b_lp_Chiralities_Consistent>
1

> <s_lp_Variant>
AV-unprocessed.smi:232-7

> <Gold.Version>
5.8.1

> <Gold.Id.Protein>
6NUR|6NUR_protein|mol2

> <Gold.PLP.Fitness>
41.6272

> <Gold.PLP.PLP>
-36.6170

> <Gold.PLP.part.hbond>
-3.4411

> <Gold.PLP.part.metal>
0.0000

> <Gold.PLP.part.buried>
-3.0389

> <Gold.PLP.part.nonpolar>
-30.4867

> <Gold.PLP.part.repulsive>
0.4177

> <Gold.PLP.ligand.clash>
0.0000

> <Gold.PLP.ligand.torsion>
0.6677

> <Gold.PLP.Chemscore.Hbond>
1.0811

> <Gold.PLP.Chemscore.CHOScore>
1.0000

> <Gold.PLP.Chemscore.Metal>
0.0000

> <Gold.Chemscore.Hbonds>
donor molecule, donor type, donor heavy atom, donor atom, acceptor molecule, acceptor atom, score
      L1  H    20    45       P1 10175  0.45
      P1  H  7989  7998       L1    10  0.08
      L1  C    11    40       P1  7957  1.00

> <Gold.PLP.Chemscore.Internal.Correction>
0.1021

> <Gold.Rescore>
     Score         DG    S(hbond)    S(metal)    S(lipo)     H(rot)  DE(clash)    DE(int)     intcor
     10.27     -11.28       0.50        0.00      88.51       2.43       0.46       0.55       ----

> <Gold.Chemscore.Fitness>
10.2709

> <Gold.Chemscore.DG>
-11.2843

> <Gold.Chemscore.ZeroCoef>
-5.4800

> <Gold.Chemscore.Hbond>
0.4969

> <Gold.Chemscore.Metal>
0.0000

> <Gold.Chemscore.Lipo>
88.5062

> <Gold.Chemscore.Internal_Hbond>
0.0000

> <Gold.Chemscore.DEClash>
0.4638

> <Gold.Chemscore.DEInternal>
0.5496

> <Gold.Chemscore.Rot>
2.4260

> <Gold.Chemscore.Internal.Correction>
   9.000000E+99

> <Gold.Chemscore.Hbonds>
donor molecule, donor type, donor heavy atom, donor atom, acceptor molecule, acceptor atom, score
      L1  H    20    45       P1 10175  0.02

> <Gold.Chemscore.Hbond.Weighted>
-1.6598

> <Gold.Chemscore.Metal.Weighted>
-0.0000

> <Gold.Chemscore.Lipo.Weighted>
-10.3552

> <Gold.Chemscore.Internal_Hbond.Weighted>
0.0000

> <Gold.Chemscore.DEClash.Weighted>
0.4638

> <Gold.Chemscore.DEInternal.Weighted>
0.5496

> <Gold.Chemscore.Rot.Weighted>
6.2107

> <Gold.Chemscore.Internal.Correction.Weighted>
   9.000000E+99

> <Gold.Protein.RotatedTorsions>
[ 6907 6896 6895 6894 ] final  -33.53 input  -60.11 | X-H torsion
[ 7974 7965 7964 7962 ] final  -59.55 input  175.53 | X-H torsion
[ 8008 7997 7996 7995 ] final    4.88 input   59.86 | X-H torsion
[ 10167 10162 10161 10158 ] final  -45.76 input  -65.29 | X-H torsion
[ 10718 10713 10712 10709 ] final  -88.82 input   66.30 | X-H torsion
[ 10763 10752 10751 10750 ] final -114.51 input  -60.55 | X-H torsion
[ 11005 11000 10999 10996 ] final -141.34 input  -57.11 | X-H torsion

> <Gold.Protein.ActiveResidues>
 VAL166  LYS551  ARG553  GLY616  TRP617  ASP618  TYR619  PRO620  LYS621  CYS622 
 ASP623  PHE694  ASN695  SER759  ASP760  ASP761  ALA762  ILE779  LEU786  VAL792 
 PHE793  MET794  SER795  GLU796  ALA797  LYS798  CYS799  TRP800  GLU811  SER814 

> <Gold.Protein.RotatedAtoms>
  151.0644  134.9758  159.8276 H   0  0  0  0  0  0  0  0  0  0  0  0  # atno 6907 bound_to 6896
  152.5400  134.2377  159.8859 H   0  0  0  0  0  0  0  0  0  0  0  0  # atno 6908 bound_to 6896
  151.2398  133.4362  159.2640 H   0  0  0  0  0  0  0  0  0  0  0  0  # atno 6909 bound_to 6896
  145.8261  140.8509  143.0107 H   0  0  0  0  0  0  0  0  0  0  0  0  # atno 7974 bound_to 7965
  154.7214  140.2712  155.6538 H   0  0  0  0  0  0  0  0  0  0  0  0  # atno 8008 bound_to 7997
  156.2824  140.2734  156.1811 H   0  0  0  0  0  0  0  0  0  0  0  0  # atno 8009 bound_to 7997
  155.0502  140.0371  157.2531 H   0  0  0  0  0  0  0  0  0  0  0  0  # atno 8010 bound_to 7997
  140.6845  143.2863  151.3686 H   0  0  0  0  0  0  0  0  0  0  0  0  # atno 10167 bound_to 10162
  155.9983  130.4850  150.5078 H   0  0  0  0  0  0  0  0  0  0  0  0  # atno 10718 bound_to 10713
  154.8443  135.4415  154.1517 H   0  0  0  0  0  0  0  0  0  0  0  0  # atno 10763 bound_to 10752
  153.2676  135.6942  153.7520 H   0  0  0  0  0  0  0  0  0  0  0  0  # atno 10764 bound_to 10752
  153.6772  135.3409  155.3144 H   0  0  0  0  0  0  0  0  0  0  0  0  # atno 10765 bound_to 10752
  140.8334  134.2489  157.4846 H   0  0  0  0  0  0  0  0  0  0  0  0  # atno 11005 bound_to 11000
  144.6743  140.0604  143.7476 LP  0  0  0  0  0  0  0  0  0  0  0  0  # atno 17320 bound_to 7965
  145.9622  139.2809  143.1149 LP  0  0  0  0  0  0  0  0  0  0  0  0  # atno 17321 bound_to 7965
  139.6192  144.0941  152.2375 LP  0  0  0  0  0  0  0  0  0  0  0  0  # atno 17342 bound_to 10162
  140.0380  144.6030  150.7434 LP  0  0  0  0  0  0  0  0  0  0  0  0  # atno 17343 bound_to 10162
  157.3054  131.0653  151.2038 LP  0  0  0  0  0  0  0  0  0  0  0  0  # atno 17370 bound_to 10713
  157.3003  130.6839  149.6160 LP  0  0  0  0  0  0  0  0  0  0  0  0  # atno 17371 bound_to 10713
  139.8704  134.9598  156.4343 LP  0  0  0  0  0  0  0  0  0  0  0  0  # atno 17394 bound_to 11000
  140.8974  133.7804  155.9640 LP  0  0  0  0  0  0  0  0  0  0  0  0  # atno 17395 bound_to 11000

$$$$
