AV-unprocessed.smi:157|AV-procd|sdf|1313|dock7
  -GOLD-   2262019 03D 1   1.00000     0.00000
 Structure written by MMmdl.
 36 38  0  0  0  0  0  0  0  0  2 V2000
  153.1796  137.1964  161.1502 O   0  0  0  0  0  0  0  0  0  0  0  0
  153.7070  137.9944  160.1121 C   0  0  0  0  0  0  0  0  0  0  0  0
  152.5611  138.6587  159.3349 C   0  0  1  0  0  0  0  0  0  0  0  0
  153.0897  139.4490  158.2746 O   0  0  0  0  0  0  0  0  0  0  0  0
  152.1274  139.6074  157.2742 C   0  0  2  0  0  0  0  0  0  0  0  0
  151.5616  140.9916  157.3614 N   0  0  0  0  0  0  0  0  0  0  0  0
  150.6076  141.5335  156.5732 C   0  0  0  0  0  0  0  0  0  0  0  0
  150.2925  142.7810  156.8776 N   0  3  0  0  0  0  0  0  0  0  0  0
  151.0810  143.1326  157.9526 C   0  0  0  0  0  0  0  0  0  0  0  0
  151.8553  142.0063  158.2428 C   0  0  0  0  0  0  0  0  0  0  0  0
  152.8223  141.8130  159.2411 N   0  0  0  0  0  0  0  0  0  0  0  0
  152.9297  142.5870  160.2717 C   0  0  0  0  0  0  0  0  0  0  0  0
  152.2382  143.7508  160.5637 N   0  0  0  0  0  0  0  0  0  0  0  0
  152.0466  144.8183  159.5979 C   0  0  0  0  0  0  0  0  0  0  0  0
  150.9827  144.5078  158.5364 C   0  0  2  0  0  0  0  0  0  0  0  0
  149.7083  144.7736  159.0855 O   0  0  0  0  0  0  0  0  0  0  0  0
  151.0257  138.5731  157.5381 C   0  0  0  0  0  0  0  0  0  0  0  0
  151.6741  137.6730  158.5734 C   0  0  2  0  0  0  0  0  0  0  0  0
  150.7004  137.0738  159.4034 O   0  0  0  0  0  0  0  0  0  0  0  0
  151.9455  139.2793  159.9896 H   0  0  0  0  0  0  0  0  0  0  0  0
  152.5795  139.5435  156.2838 H   0  0  0  0  0  0  0  0  0  0  0  0
  151.1117  145.2214  157.7218 H   0  0  0  0  0  0  0  0  0  0  0  0
  152.2792  136.9081  158.0841 H   0  0  0  0  0  0  0  0  0  0  0  0
  153.8833  136.9626  161.7364 H   0  0  0  0  0  0  0  0  0  0  0  0
  154.3987  138.7353  160.5144 H   0  0  0  0  0  0  0  0  0  0  0  0
  154.2785  137.3403  159.4532 H   0  0  0  0  0  0  0  0  0  0  0  0
  150.1425  140.9957  155.7664 H   0  0  0  0  0  0  0  0  0  0  0  0
  153.6565  142.3378  161.0462 H   0  0  0  0  0  0  0  0  0  0  0  0
  152.2733  144.1094  161.5074 H   0  0  0  0  0  0  0  0  0  0  0  0
  151.8151  145.7480  160.1190 H   0  0  0  0  0  0  0  0  0  0  0  0
  153.0040  144.9817  159.1006 H   0  0  0  0  0  0  0  0  0  0  0  0
  149.1286  145.0440  158.3903 H   0  0  0  0  0  0  0  0  0  0  0  0
  150.1406  139.0671  157.9445 H   0  0  0  0  0  0  0  0  0  0  0  0
  150.7490  138.0509  156.6219 H   0  0  0  0  0  0  0  0  0  0  0  0
  150.4585  137.6898  160.0782 H   0  0  0  0  0  0  0  0  0  0  0  0
  149.6089  143.3599  156.4064 H   0  0  0  0  0  0  0  0  0  0  0  0
  1  2  1  0  0  0  0
  1 24  1  0  0  0  0
  2  3  1  0  0  0  0
  2 25  1  0  0  0  0
  2 26  1  0  0  0  0
  3 20  1  0  0  0  0
  3 18  1  0  0  0  0
  3  4  1  0  0  0  0
  4  5  1  0  0  0  0
  5 21  1  0  0  0  0
  5  6  1  0  0  0  0
  5 17  1  0  0  0  0
  6 10  1  0  0  0  0
  6  7  1  0  0  0  0
  7  8  2  0  0  0  0
  7 27  1  0  0  0  0
  8  9  1  0  0  0  0
  8 36  1  0  0  0  0
  9 15  1  0  0  0  0
  9 10  2  0  0  0  0
 10 11  1  0  0  0  0
 11 12  2  0  0  0  0
 12 13  1  0  0  0  0
 12 28  1  0  0  0  0
 13 14  1  0  0  0  0
 13 29  1  0  0  0  0
 14 15  1  0  0  0  0
 14 30  1  0  0  0  0
 14 31  1  0  0  0  0
 15 22  1  0  0  0  0
 15 16  1  0  0  0  0
 16 32  1  0  0  0  0
 17 18  1  0  0  0  0
 17 33  1  0  0  0  0
 17 34  1  0  0  0  0
 18 23  1  0  0  0  0
 18 19  1  0  0  0  0
 19 35  1  0  0  0  0
M  CHG  1   8   1
M  END
> <s_m_source_file>
AV-unprocessed.smi

> <i_m_source_file_index>
157

> <i_lp_mmshare_version>
43012

> <i_f3d_flags>
0

> <s_epik_input>
W09IXVtDSDJdW0NASF0xT1tDQEhdKFtDSDJdW0NAQEhdMVtPSF0pbihbY0hdbjIpYyhjMjMpTj1bQ0hdW05IXVtDSDJdW0NASF0zW09IXQ==

> <s_epik_cmdline>
J2VwaWtfcHl0aG9uJywgJy1waCcsICc3LjAnLCAnLXRuJywgJzgnLCAnLW1hJywgJzIwMCcsICctbWV0YWxfYmluZGluZycsICctaW1hZScsICc8aW5maWxlLm1hZT4nLCAnLW9tYWUnLCAnPG91dGZpbGUubWFlPic=

> <r_epik_Ionization_Penalty>
1.68594

> <r_epik_Ionization_Penalty_Charging>
0

> <r_epik_Ionization_Penalty_Neutral>
1.68594

> <r_epik_State_Penalty>
1.79006

> <r_epik_Charging_Adjusted_Penalty>
1.79006

> <i_epik_Tot_Q>
1

> <i_epik_Tot_abs_Q>
1

> <r_epik_Metal_State_Penalty>
5.85324

> <b_epik_Metal_Only>
0

> <s_epik_Chemistry_Notes>
This compound has an imine and may undergo hydrolysis. This compound contains an acetal/aminal-like group ( X-CH(R)-Y where X, Y are N, S, or O) that may be acid/base labile, releasing an aldehyde.

> <s_lp_Force_Field>
OPLS_2005

> <r_lp_Energy>
52.2724

> <b_lp_Chiralities_Consistent>
1

> <s_lp_Variant>
AV-unprocessed.smi:157-23

> <Gold.Version>
5.8.1

> <Gold.Id.Protein>
6NUR|6NUR_protein|mol2

> <Gold.PLP.Fitness>
48.9377

> <Gold.PLP.PLP>
-33.9836

> <Gold.PLP.part.hbond>
-3.9561

> <Gold.PLP.part.metal>
0.0000

> <Gold.PLP.part.buried>
-7.4848

> <Gold.PLP.part.nonpolar>
-22.9726

> <Gold.PLP.part.repulsive>
0.0582

> <Gold.PLP.ligand.clash>
0.0000

> <Gold.PLP.ligand.torsion>
0.0201

> <Gold.PLP.Chemscore.Hbond>
4.9913

> <Gold.PLP.Chemscore.CHOScore>
0.0000

> <Gold.PLP.Chemscore.Metal>
0.0000

> <Gold.Chemscore.Hbonds>
donor molecule, donor type, donor heavy atom, donor atom, acceptor molecule, acceptor atom, score
      L1  H     8    36       P1  8028  2.00
      L1  H    16    32       P1  8029  1.00
      P1  H  6896  6908       L1    19  0.86
      P1  H  7997  8010       L1     4  0.81

> <Gold.PLP.Chemscore.Internal.Correction>
0.0205

> <Gold.Rescore>
     Score         DG    S(hbond)    S(metal)    S(lipo)     H(rot)  DE(clash)    DE(int)     intcor
     11.79     -13.64       3.48        0.00      50.70       3.67       0.00       1.85       ----

> <Gold.Chemscore.Fitness>
11.7893

> <Gold.Chemscore.DG>
-13.6387

> <Gold.Chemscore.ZeroCoef>
-5.4800

> <Gold.Chemscore.Hbond>
3.4765

> <Gold.Chemscore.Metal>
0.0000

> <Gold.Chemscore.Lipo>
50.6993

> <Gold.Chemscore.Internal_Hbond>
0.0000

> <Gold.Chemscore.DEClash>
0.0000

> <Gold.Chemscore.DEInternal>
1.8494

> <Gold.Chemscore.Rot>
3.6659

> <Gold.Chemscore.Internal.Correction>
   9.000000E+99

> <Gold.Chemscore.Hbonds>
donor molecule, donor type, donor heavy atom, donor atom, acceptor molecule, acceptor atom, score
      L1  H     8    36       P1  8028  1.00
      L1  H    16    32       P1  8029  0.74
      P1  H  6896  6908       L1    19  0.61
      P1  H  7997  8010       L1     4  0.19

> <Gold.Chemscore.Hbond.Weighted>
-11.6117

> <Gold.Chemscore.Metal.Weighted>
-0.0000

> <Gold.Chemscore.Lipo.Weighted>
-5.9318

> <Gold.Chemscore.Internal_Hbond.Weighted>
0.0000

> <Gold.Chemscore.DEClash.Weighted>
0.0000

> <Gold.Chemscore.DEInternal.Weighted>
1.8494

> <Gold.Chemscore.Rot.Weighted>
9.3848

> <Gold.Chemscore.Internal.Correction.Weighted>
   9.000000E+99

> <Gold.Protein.RotatedTorsions>
[ 6907 6896 6895 6894 ] final -135.74 input  -60.11 | X-H torsion
[ 7974 7965 7964 7962 ] final -127.32 input  175.53 | X-H torsion
[ 8008 7997 7996 7995 ] final   16.68 input   59.86 | X-H torsion
[ 10167 10162 10161 10158 ] final  -40.00 input  -65.29 | X-H torsion
[ 10718 10713 10712 10709 ] final  -68.91 input   66.30 | X-H torsion
[ 10763 10752 10751 10750 ] final   31.42 input  -60.55 | X-H torsion
[ 11005 11000 10999 10996 ] final -145.20 input  -57.11 | X-H torsion

> <Gold.Protein.ActiveResidues>
 VAL166  LYS551  ARG553  GLY616  TRP617  ASP618  TYR619  PRO620  LYS621  CYS622 
 ASP623  PHE694  ASN695  SER759  ASP760  ASP761  ALA762  ILE779  LEU786  VAL792 
 PHE793  MET794  SER795  GLU796  ALA797  LYS798  CYS799  TRP800  GLU811  SER814 

> <Gold.Protein.RotatedAtoms>
  151.0015  133.6051  159.2694 H   0  0  0  0  0  0  0  0  0  0  0  0  # atno 6907 bound_to 6896
  151.3236  135.0823  159.9324 H   0  0  0  0  0  0  0  0  0  0  0  0  # atno 6908 bound_to 6896
  152.5275  133.9658  159.7793 H   0  0  0  0  0  0  0  0  0  0  0  0  # atno 6909 bound_to 6896
  144.9782  140.7614  143.4628 H   0  0  0  0  0  0  0  0  0  0  0  0  # atno 7974 bound_to 7965
  154.8804  140.2972  155.5428 H   0  0  0  0  0  0  0  0  0  0  0  0  # atno 8008 bound_to 7997
  156.3022  140.2443  156.3740 H   0  0  0  0  0  0  0  0  0  0  0  0  # atno 8009 bound_to 7997
  154.8723  140.0401  157.1721 H   0  0  0  0  0  0  0  0  0  0  0  0  # atno 8010 bound_to 7997
  140.7047  143.3180  151.2862 H   0  0  0  0  0  0  0  0  0  0  0  0  # atno 10167 bound_to 10162
  156.0481  130.4303  150.2070 H   0  0  0  0  0  0  0  0  0  0  0  0  # atno 10718 bound_to 10713
  153.0317  135.6439  154.1197 H   0  0  0  0  0  0  0  0  0  0  0  0  # atno 10763 bound_to 10752
  154.0918  135.2866  155.3271 H   0  0  0  0  0  0  0  0  0  0  0  0  # atno 10764 bound_to 10752
  154.6460  135.5443  153.7908 H   0  0  0  0  0  0  0  0  0  0  0  0  # atno 10765 bound_to 10752
  140.7947  134.2927  157.5001 H   0  0  0  0  0  0  0  0  0  0  0  0  # atno 11005 bound_to 11000
  145.2459  139.2052  143.4968 LP  0  0  0  0  0  0  0  0  0  0  0  0  # atno 17320 bound_to 7965
  146.3401  140.2363  142.8594 LP  0  0  0  0  0  0  0  0  0  0  0  0  # atno 17321 bound_to 7965
  139.6624  144.0165  152.2701 LP  0  0  0  0  0  0  0  0  0  0  0  0  # atno 17342 bound_to 10162
  139.9736  144.6476  150.7965 LP  0  0  0  0  0  0  0  0  0  0  0  0  # atno 17343 bound_to 10162
  157.0156  130.9964  151.3354 LP  0  0  0  0  0  0  0  0  0  0  0  0  # atno 17370 bound_to 10713
  157.5379  130.8101  149.7994 LP  0  0  0  0  0  0  0  0  0  0  0  0  # atno 17371 bound_to 10713
  139.8727  134.9395  156.3743 LP  0  0  0  0  0  0  0  0  0  0  0  0  # atno 17394 bound_to 11000
  140.9354  133.7550  156.0078 LP  0  0  0  0  0  0  0  0  0  0  0  0  # atno 17395 bound_to 11000

$$$$
