AV-unprocessed.smi:3158|AV-procd|sdf|12042|dock3
  -GOLD-   2272017463D 1   1.00000     0.00000
 Structure written by MMmdl.
 40 40  0  0  0  0  0  0  0  0  2 V2000
  144.0905  133.0524  150.2316 C   0  0  0  0  0  0  0  0  0  0  0  0
  144.5448  134.4365  150.7180 C   0  0  0  0  0  0  0  0  0  0  0  0
  145.7958  134.3945  151.6149 C   0  0  1  0  0  0  0  0  0  0  0  0
  146.9427  133.6108  150.9596 C   0  0  0  0  0  0  0  0  0  0  0  0
  146.2400  135.7523  151.9219 N   0  0  0  0  0  0  0  0  0  0  0  0
  145.5559  136.6547  152.6418 C   0  0  0  0  0  0  0  0  0  0  0  0
  144.4600  136.4262  153.1550 O   0  0  0  0  0  0  0  0  0  0  0  0
  146.2153  138.0291  152.8165 C   0  0  2  0  0  0  0  0  0  0  0  0
  146.3341  138.7313  151.4555 C   0  0  0  0  0  0  0  0  0  0  0  0
  147.5534  137.9052  153.4353 N   0  3  0  0  0  0  0  0  0  0  0  0
  148.2634  139.1854  153.6504 C   0  0  0  0  0  0  0  0  0  0  0  0
  149.7677  138.9598  153.8795 C   0  0  0  0  0  0  0  0  0  0  0  0
  150.3807  140.0051  154.6831 N   0  0  0  0  0  0  0  0  0  0  0  0
  151.6688  140.0611  155.1734 C   0  0  0  0  0  0  0  0  0  0  0  0
  151.7959  141.2399  155.8508 C   0  0  0  0  0  0  0  0  0  0  0  0
  150.5200  141.8527  155.7067 C   0  0  0  0  0  0  0  0  0  0  0  0
  149.6787  141.1154  155.0002 N   0  0  0  0  0  0  0  0  0  0  0  0
  143.2333  133.1400  149.5638 H   0  0  0  0  0  0  0  0  0  0  0  0
  143.7957  132.4100  151.0618 H   0  0  0  0  0  0  0  0  0  0  0  0
  144.8872  132.5479  149.6841 H   0  0  0  0  0  0  0  0  0  0  0  0
  144.7502  135.0598  149.8468 H   0  0  0  0  0  0  0  0  0  0  0  0
  143.7236  134.9204  151.2485 H   0  0  0  0  0  0  0  0  0  0  0  0
  145.5214  133.8786  152.5371 H   0  0  0  0  0  0  0  0  0  0  0  0
  146.6419  132.5863  150.7395 H   0  0  0  0  0  0  0  0  0  0  0  0
  147.8120  133.5625  151.6164 H   0  0  0  0  0  0  0  0  0  0  0  0
  147.2570  134.0738  150.0236 H   0  0  0  0  0  0  0  0  0  0  0  0
  147.1360  136.0276  151.5458 H   0  0  0  0  0  0  0  0  0  0  0  0
  145.5941  138.6496  153.4651 H   0  0  0  0  0  0  0  0  0  0  0  0
  145.3572  138.8537  150.9859 H   0  0  0  0  0  0  0  0  0  0  0  0
  146.9655  138.1682  150.7665 H   0  0  0  0  0  0  0  0  0  0  0  0
  146.7692  139.7252  151.5649 H   0  0  0  0  0  0  0  0  0  0  0  0
  147.4414  137.4421  154.3265 H   0  0  0  0  0  0  0  0  0  0  0  0
  148.1142  139.8212  152.7771 H   0  0  0  0  0  0  0  0  0  0  0  0
  147.8342  139.7191  154.4995 H   0  0  0  0  0  0  0  0  0  0  0  0
  149.9343  137.9989  154.3683 H   0  0  0  0  0  0  0  0  0  0  0  0
  150.2889  138.9200  152.9225 H   0  0  0  0  0  0  0  0  0  0  0  0
  152.3805  139.2664  155.0037 H   0  0  0  0  0  0  0  0  0  0  0  0
  152.6690  141.6112  156.3667 H   0  0  0  0  0  0  0  0  0  0  0  0
  150.1842  142.8058  156.0883 H   0  0  0  0  0  0  0  0  0  0  0  0
  148.1299  137.3280  152.8404 H   0  0  0  0  0  0  0  0  0  0  0  0
  1  2  1  0  0  0  0
  1 18  1  0  0  0  0
  1 19  1  0  0  0  0
  1 20  1  0  0  0  0
  2  3  1  0  0  0  0
  2 21  1  0  0  0  0
  2 22  1  0  0  0  0
  3  4  1  0  0  0  0
  3  5  1  0  0  0  0
  3 23  1  0  0  0  0
  4 24  1  0  0  0  0
  4 25  1  0  0  0  0
  4 26  1  0  0  0  0
  5  6  1  0  0  0  0
  5 27  1  0  0  0  0
  6  7  2  0  0  0  0
  6  8  1  0  0  0  0
  8  9  1  0  0  0  0
  8 10  1  0  0  0  0
  8 28  1  0  0  0  0
  9 29  1  0  0  0  0
  9 30  1  0  0  0  0
  9 31  1  0  0  0  0
 10 11  1  0  0  0  0
 10 32  1  0  0  0  0
 10 40  1  0  0  0  0
 11 12  1  0  0  0  0
 11 33  1  0  0  0  0
 11 34  1  0  0  0  0
 12 13  1  0  0  0  0
 12 35  1  0  0  0  0
 12 36  1  0  0  0  0
 13 17  1  0  0  0  0
 13 14  1  0  0  0  0
 14 15  2  0  0  0  0
 14 37  1  0  0  0  0
 15 16  1  0  0  0  0
 15 38  1  0  0  0  0
 16 17  2  0  0  0  0
 16 39  1  0  0  0  0
M  CHG  1  10   1
M  END
> <s_m_source_file>
AV-unprocessed.smi

> <i_m_source_file_index>
3158

> <i_lp_mmshare_version>
43012

> <i_f3d_flags>
0

> <s_epik_input>
W0NIM11bQ0gyXVtDQEhdKFtDSDNdKVtOSF1DKD1PKVtDQEhdKFtDSDNdKVtOSF1bQ0gyXVtDSDJdbjFbY0hdW2NIXVtjSF1uMQ==

> <s_epik_cmdline>
J2VwaWtfcHl0aG9uJywgJy1waCcsICc3LjAnLCAnLXRuJywgJzgnLCAnLW1hJywgJzIwMCcsICctbWV0YWxfYmluZGluZycsICctaW1hZScsICc8aW5maWxlLm1hZT4nLCAnLW9tYWUnLCAnPG91dGZpbGUubWFlPic=

> <r_lp_tautomer_probability>
1

> <r_epik_Ionization_Penalty>
0.20724

> <r_epik_Ionization_Penalty_Charging>
0.207237

> <r_epik_Ionization_Penalty_Neutral>
3.33806e-06

> <r_epik_State_Penalty>
0.197234

> <r_epik_Charging_Adjusted_Penalty>
0.404471

> <i_epik_Tot_Q>
1

> <i_epik_Tot_abs_Q>
1

> <r_epik_Metal_State_Penalty>
0.197524

> <b_epik_Metal_Only>
0

> <s_lp_Force_Field>
OPLS_2005

> <r_lp_Energy>
6.13047

> <b_lp_Chiralities_Consistent>
1

> <s_lp_Variant>
AV-unprocessed.smi:3158-2

> <Gold.Version>
5.8.1

> <Gold.Id.Protein>
6NUR|6NUR_protein|mol2

> <Gold.PLP.Fitness>
44.4073

> <Gold.PLP.PLP>
-33.0933

> <Gold.PLP.part.hbond>
-2.0000

> <Gold.PLP.part.metal>
0.0000

> <Gold.PLP.part.buried>
-2.2834

> <Gold.PLP.part.nonpolar>
-29.1489

> <Gold.PLP.part.repulsive>
0.2707

> <Gold.PLP.ligand.clash>
0.0000

> <Gold.PLP.ligand.torsion>
0.3897

> <Gold.PLP.Chemscore.Hbond>
3.0000

> <Gold.PLP.Chemscore.CHOScore>
1.0000

> <Gold.PLP.Chemscore.Metal>
0.0000

> <Gold.Chemscore.Hbonds>
donor molecule, donor type, donor heavy atom, donor atom, acceptor molecule, acceptor atom, score
      L1  H     5    27       P1  7948  0.96
      L1  H    10    40       P1  7948  2.00
      L1  C    16    39       P1  8028  1.00

> <Gold.PLP.Chemscore.Internal.Correction>
0.0934

> <Gold.Rescore>
     Score         DG    S(hbond)    S(metal)    S(lipo)     H(rot)  DE(clash)    DE(int)     intcor
     14.71     -15.42       1.97        0.00      77.05       2.21       0.21       0.50       ----

> <Gold.Chemscore.Fitness>
14.7109

> <Gold.Chemscore.DG>
-15.4160

> <Gold.Chemscore.ZeroCoef>
-5.4800

> <Gold.Chemscore.Hbond>
1.9723

> <Gold.Chemscore.Metal>
0.0000

> <Gold.Chemscore.Lipo>
77.0454

> <Gold.Chemscore.Internal_Hbond>
0.0000

> <Gold.Chemscore.DEClash>
0.2081

> <Gold.Chemscore.DEInternal>
0.4970

> <Gold.Chemscore.Rot>
2.2132

> <Gold.Chemscore.Internal.Correction>
   9.000000E+99

> <Gold.Chemscore.Hbonds>
donor molecule, donor type, donor heavy atom, donor atom, acceptor molecule, acceptor atom, score
      L1  H     5    27       P1  7948  0.92
      L1  H    10    40       P1  7948  1.00

> <Gold.Chemscore.Hbond.Weighted>
-6.5875

> <Gold.Chemscore.Metal.Weighted>
-0.0000

> <Gold.Chemscore.Lipo.Weighted>
-9.0143

> <Gold.Chemscore.Internal_Hbond.Weighted>
0.0000

> <Gold.Chemscore.DEClash.Weighted>
0.2081

> <Gold.Chemscore.DEInternal.Weighted>
0.4970

> <Gold.Chemscore.Rot.Weighted>
5.6658

> <Gold.Chemscore.Internal.Correction.Weighted>
   9.000000E+99

> <Gold.Protein.RotatedTorsions>
[ 6907 6896 6895 6894 ] final   58.90 input  -60.11 | X-H torsion
[ 7974 7965 7964 7962 ] final  167.13 input  175.53 | X-H torsion
[ 8008 7997 7996 7995 ] final -171.77 input   59.86 | X-H torsion
[ 10167 10162 10161 10158 ] final  -48.29 input  -65.29 | X-H torsion
[ 10718 10713 10712 10709 ] final   61.54 input   66.30 | X-H torsion
[ 10763 10752 10751 10750 ] final   65.20 input  -60.55 | X-H torsion
[ 11005 11000 10999 10996 ] final -150.68 input  -57.11 | X-H torsion

> <Gold.Protein.ActiveResidues>
 VAL166  LYS551  ARG553  GLY616  TRP617  ASP618  TYR619  PRO620  LYS621  CYS622 
 ASP623  PHE694  ASN695  SER759  ASP760  ASP761  ALA762  ILE779  LEU786  VAL792 
 PHE793  MET794  SER795  GLU796  ALA797  LYS798  CYS799  TRP800  GLU811  SER814 

> <Gold.Protein.RotatedAtoms>
  152.3866  134.6507  160.0122 H   0  0  0  0  0  0  0  0  0  0  0  0  # atno 6907 bound_to 6896
  151.6754  133.3307  159.3214 H   0  0  0  0  0  0  0  0  0  0  0  0  # atno 6908 bound_to 6896
  150.7791  134.6763  159.6464 H   0  0  0  0  0  0  0  0  0  0  0  0  # atno 6909 bound_to 6896
  144.7436  139.8715  143.6389 H   0  0  0  0  0  0  0  0  0  0  0  0  # atno 7974 bound_to 7965
  155.9359  140.1100  157.1095 H   0  0  0  0  0  0  0  0  0  0  0  0  # atno 8008 bound_to 7997
  154.4080  140.1228  156.4929 H   0  0  0  0  0  0  0  0  0  0  0  0  # atno 8009 bound_to 7997
  155.7022  140.3472  155.4940 H   0  0  0  0  0  0  0  0  0  0  0  0  # atno 8010 bound_to 7997
  140.6737  143.2746  151.4050 H   0  0  0  0  0  0  0  0  0  0  0  0  # atno 10167 bound_to 10162
  157.5835  130.9000  149.9474 H   0  0  0  0  0  0  0  0  0  0  0  0  # atno 10718 bound_to 10713
  153.0086  135.5365  154.6629 H   0  0  0  0  0  0  0  0  0  0  0  0  # atno 10763 bound_to 10752
  154.5833  135.2852  155.0712 H   0  0  0  0  0  0  0  0  0  0  0  0  # atno 10764 bound_to 10752
  154.1833  135.6512  153.5092 H   0  0  0  0  0  0  0  0  0  0  0  0  # atno 10765 bound_to 10752
  140.7376  134.3551  157.5154 H   0  0  0  0  0  0  0  0  0  0  0  0  # atno 11005 bound_to 11000
  146.1276  139.4305  143.0189 LP  0  0  0  0  0  0  0  0  0  0  0  0  # atno 17320 bound_to 7965
  145.7211  141.0074  143.1402 LP  0  0  0  0  0  0  0  0  0  0  0  0  # atno 17321 bound_to 7965
  139.6019  144.1278  152.2207 LP  0  0  0  0  0  0  0  0  0  0  0  0  # atno 17342 bound_to 10162
  140.0665  144.5814  150.7223 LP  0  0  0  0  0  0  0  0  0  0  0  0  # atno 17343 bound_to 10162
  156.0883  130.3666  150.0445 LP  0  0  0  0  0  0  0  0  0  0  0  0  # atno 17370 bound_to 10713
  156.8580  130.9482  151.3620 LP  0  0  0  0  0  0  0  0  0  0  0  0  # atno 17371 bound_to 10713
  139.8813  134.9059  156.2911 LP  0  0  0  0  0  0  0  0  0  0  0  0  # atno 17394 bound_to 11000
  140.9866  133.7235  156.0750 LP  0  0  0  0  0  0  0  0  0  0  0  0  # atno 17395 bound_to 11000

$$$$
