AV-unprocessed.smi:54|AV-procd|sdf|539|dock5
  -GOLD-   2262016423D 1   1.00000     0.00000
 Structure written by MMmdl.
 44 46  0  0  0  0  0  0  0  0  1 V2000
  152.3777  144.9161  158.4289 C   0  0  0  0  0  0  0  0  0  0  0  0
  151.5831  144.1068  159.4669 C   0  0  0  0  0  0  0  0  0  0  0  0
  151.7712  144.6770  160.8820 C   0  0  0  0  0  0  0  0  0  0  0  0
  151.9862  142.6283  159.4242 C   0  0  0  0  0  0  0  0  0  0  0  0
  152.4504  142.0502  160.4076 O   0  0  0  0  0  0  0  0  0  0  0  0
  151.7772  141.9636  158.1500 N   0  0  0  0  0  0  0  0  0  0  0  0
  152.0425  140.6730  157.8407 C   0  0  0  0  0  0  0  0  0  0  0  0
  151.6492  140.1007  156.7118 N   0  0  0  0  0  0  0  0  0  0  0  0
  152.0134  138.7896  156.5824 C   0  0  0  0  0  0  0  0  0  0  0  0
  152.7231  138.0379  157.4946 C   0  0  0  0  0  0  0  0  0  0  0  0
  152.9016  136.7454  157.0141 N   0  0  0  0  0  0  0  0  0  0  0  0
  152.3118  136.7555  155.8509 C   0  0  0  0  0  0  0  0  0  0  0  0
  151.7548  137.9662  155.5086 N   0  0  0  0  0  0  0  0  0  0  0  0
  151.0088  138.3644  154.2704 C   0  0  2  0  0  0  0  0  0  0  0  0
  150.7915  139.7432  154.3124 O   0  0  0  0  0  0  0  0  0  0  0  0
  149.4443  140.0029  154.6832 C   0  0  1  0  0  0  0  0  0  0  0  0
  149.0348  141.4387  154.3134 C   0  0  0  0  0  0  0  0  0  0  0  0
  149.6468  142.3613  155.1889 O   0  0  0  0  0  0  0  0  0  0  0  0
  148.6730  138.8605  154.0097 C   0  0  1  0  0  0  0  0  0  0  0  0
  148.4438  139.1344  152.6400 O   0  0  0  0  0  0  0  0  0  0  0  0
  149.6224  137.6783  154.1653 C   0  0  2  0  0  0  0  0  0  0  0  0
  149.2612  136.9210  155.3088 O   0  0  0  0  0  0  0  0  0  0  0  0
  153.1506  138.6405  158.7239 C   0  0  0  0  0  0  0  0  0  0  0  0
  153.7844  138.1279  159.6436 O   0  0  0  0  0  0  0  0  0  0  0  0
  152.7617  139.9835  158.8172 N   0  0  0  0  0  0  0  0  0  0  0  0
  151.6839  138.1157  153.4505 H   0  0  0  0  0  0  0  0  0  0  0  0
  149.3714  139.8817  155.7654 H   0  0  0  0  0  0  0  0  0  0  0  0
  147.7053  138.6891  154.4836 H   0  0  0  0  0  0  0  0  0  0  0  0
  149.6043  137.0175  153.2974 H   0  0  0  0  0  0  0  0  0  0  0  0
  152.2513  144.5077  157.4253 H   0  0  0  0  0  0  0  0  0  0  0  0
  153.4448  144.9216  158.6547 H   0  0  0  0  0  0  0  0  0  0  0  0
  152.0409  145.9526  158.4041 H   0  0  0  0  0  0  0  0  0  0  0  0
  150.5248  144.1791  159.2117 H   0  0  0  0  0  0  0  0  0  0  0  0
  151.2067  144.1040  161.6188 H   0  0  0  0  0  0  0  0  0  0  0  0
  151.4240  145.7092  160.9354 H   0  0  0  0  0  0  0  0  0  0  0  0
  152.8195  144.6659  161.1832 H   0  0  0  0  0  0  0  0  0  0  0  0
  151.3749  142.5305  157.4185 H   0  0  0  0  0  0  0  0  0  0  0  0
  152.2726  135.8804  155.2191 H   0  0  0  0  0  0  0  0  0  0  0  0
  149.3577  141.6645  153.2970 H   0  0  0  0  0  0  0  0  0  0  0  0
  147.9527  141.5692  154.3375 H   0  0  0  0  0  0  0  0  0  0  0  0
  149.2472  143.2081  155.0597 H   0  0  0  0  0  0  0  0  0  0  0  0
  149.2182  139.5434  152.2844 H   0  0  0  0  0  0  0  0  0  0  0  0
  149.3356  136.0035  155.0955 H   0  0  0  0  0  0  0  0  0  0  0  0
  153.0316  140.4730  159.6575 H   0  0  0  0  0  0  0  0  0  0  0  0
  1  2  1  0  0  0  0
  1 30  1  0  0  0  0
  1 31  1  0  0  0  0
  1 32  1  0  0  0  0
  2  3  1  0  0  0  0
  2  4  1  0  0  0  0
  2 33  1  0  0  0  0
  3 34  1  0  0  0  0
  3 35  1  0  0  0  0
  3 36  1  0  0  0  0
  4  5  2  0  0  0  0
  4  6  1  0  0  0  0
  6 37  1  0  0  0  0
  6  7  1  0  0  0  0
  7 25  1  0  0  0  0
  7  8  2  0  0  0  0
  8  9  1  0  0  0  0
  9 13  1  0  0  0  0
  9 10  2  0  0  0  0
 10 11  1  0  0  0  0
 10 23  1  0  0  0  0
 11 12  2  0  0  0  0
 12 13  1  0  0  0  0
 12 38  1  0  0  0  0
 13 14  1  0  0  0  0
 14 26  1  0  0  0  0
 14 21  1  0  0  0  0
 14 15  1  0  0  0  0
 15 16  1  0  0  0  0
 16 27  1  0  0  0  0
 16 17  1  0  0  0  0
 16 19  1  0  0  0  0
 17 18  1  0  0  0  0
 17 39  1  0  0  0  0
 17 40  1  0  0  0  0
 18 41  1  0  0  0  0
 19 28  1  0  0  0  0
 19 20  1  0  0  0  0
 19 21  1  0  0  0  0
 20 42  1  0  0  0  0
 21 29  1  0  0  0  0
 21 22  1  0  0  0  0
 22 43  1  0  0  0  0
 23 24  2  0  0  0  0
 23 25  1  0  0  0  0
 25 44  1  0  0  0  0
M  END
> <s_m_source_file>
AV-unprocessed.smi

> <i_m_source_file_index>
54

> <i_lp_mmshare_version>
43012

> <i_f3d_flags>
0

> <s_epik_input>
W0NIM11bQ0hdKFtDSDNdKUMoPU8pW05IXWMobjEpW25IXWMoPU8pYyhjMTIpbltjSF1uMltDQEBIXTNPW0NASF0oW0NIMl1bT0hdKVtDQEBIXShbT0hdKVtDQEhdM1tPSF0=

> <s_epik_cmdline>
J2VwaWtfcHl0aG9uJywgJy1waCcsICc3LjAnLCAnLXRuJywgJzgnLCAnLW1hJywgJzIwMCcsICctbWV0YWxfYmluZGluZycsICctaW1hZScsICc8aW5maWxlLm1hZT4nLCAnLW9tYWUnLCAnPG91dGZpbGUubWFlPic=

> <r_lp_tautomer_probability>
0.85571

> <r_epik_Ionization_Penalty>
0.0316551

> <r_epik_Ionization_Penalty_Charging>
0.0316043

> <r_epik_Ionization_Penalty_Neutral>
5.07097e-05

> <r_epik_State_Penalty>
3.15494e-07

> <r_epik_Charging_Adjusted_Penalty>
0.0316047

> <i_epik_Tot_Q>
0

> <i_epik_Tot_abs_Q>
0

> <r_epik_Metal_State_Penalty>
0.421206

> <b_epik_Metal_Only>
0

> <s_epik_Chemistry_Notes>
This compound contains an acetal/aminal-like group ( X-CH(R)-Y where X, Y are N, S, or O) that may be acid/base labile, releasing an aldehyde.

> <s_lp_Force_Field>
OPLS_2005

> <r_lp_Energy>
38.2372

> <b_lp_Chiralities_Consistent>
1

> <s_lp_Variant>
AV-unprocessed.smi:54-11

> <Gold.Version>
5.8.1

> <Gold.Id.Protein>
6NUR|6NUR_protein|mol2

> <Gold.PLP.Fitness>
44.6518

> <Gold.PLP.PLP>
-36.2046

> <Gold.PLP.part.hbond>
-4.4644

> <Gold.PLP.part.metal>
0.0000

> <Gold.PLP.part.buried>
-1.9394

> <Gold.PLP.part.nonpolar>
-30.7026

> <Gold.PLP.part.repulsive>
0.2952

> <Gold.PLP.ligand.clash>
0.0000

> <Gold.PLP.ligand.torsion>
0.2429

> <Gold.PLP.Chemscore.Hbond>
2.9600

> <Gold.PLP.Chemscore.CHOScore>
0.0000

> <Gold.PLP.Chemscore.Metal>
0.0000

> <Gold.Chemscore.Hbonds>
donor molecule, donor type, donor heavy atom, donor atom, acceptor molecule, acceptor atom, score
      L1  H    18    41       P1  8028  1.00
      L1  H    20    42       P1  7957  0.29
      P1  H  7989  7998       L1    15  1.00

> <Gold.PLP.Chemscore.Internal.Correction>
0.0529

> <Gold.Rescore>
     Score         DG    S(hbond)    S(metal)    S(lipo)     H(rot)  DE(clash)    DE(int)     intcor
      7.86     -12.66       2.88        0.00      67.77       4.05       1.54       3.26       ----

> <Gold.Chemscore.Fitness>
7.8622

> <Gold.Chemscore.DG>
-12.6640

> <Gold.Chemscore.ZeroCoef>
-5.4800

> <Gold.Chemscore.Hbond>
2.8807

> <Gold.Chemscore.Metal>
0.0000

> <Gold.Chemscore.Lipo>
67.7676

> <Gold.Chemscore.Internal_Hbond>
0.0000

> <Gold.Chemscore.DEClash>
1.5401

> <Gold.Chemscore.DEInternal>
3.2617

> <Gold.Chemscore.Rot>
4.0493

> <Gold.Chemscore.Internal.Correction>
   9.000000E+99

> <Gold.Chemscore.Hbonds>
donor molecule, donor type, donor heavy atom, donor atom, acceptor molecule, acceptor atom, score
      L1  H    18    41       P1  8028  0.94
      L1  H    20    42       P1  7957  0.29
      P1  H  7989  7998       L1    15  0.97

> <Gold.Chemscore.Hbond.Weighted>
-9.6214

> <Gold.Chemscore.Metal.Weighted>
-0.0000

> <Gold.Chemscore.Lipo.Weighted>
-7.9288

> <Gold.Chemscore.Internal_Hbond.Weighted>
0.0000

> <Gold.Chemscore.DEClash.Weighted>
1.5401

> <Gold.Chemscore.DEInternal.Weighted>
3.2617

> <Gold.Chemscore.Rot.Weighted>
10.3662

> <Gold.Chemscore.Internal.Correction.Weighted>
   9.000000E+99

> <Gold.Protein.RotatedTorsions>
[ 6907 6896 6895 6894 ] final   12.76 input  -60.11 | X-H torsion
[ 7974 7965 7964 7962 ] final  159.37 input  175.53 | X-H torsion
[ 8008 7997 7996 7995 ] final  -14.73 input   59.86 | X-H torsion
[ 10167 10162 10161 10158 ] final  142.29 input  -65.29 | X-H torsion
[ 10718 10713 10712 10709 ] final   11.99 input   66.30 | X-H torsion
[ 10763 10752 10751 10750 ] final   67.52 input  -60.55 | X-H torsion
[ 11005 11000 10999 10996 ] final -174.52 input  -57.11 | X-H torsion

> <Gold.Protein.ActiveResidues>
 VAL166  LYS551  ARG553  GLY616  TRP617  ASP618  TYR619  PRO620  LYS621  CYS622 
 ASP623  PHE694  ASN695  SER759  ASP760  ASP761  ALA762  ILE779  LEU786  VAL792 
 PHE793  MET794  SER795  GLU796  ALA797  LYS798  CYS799  TRP800  GLU811  SER814 

> <Gold.Protein.RotatedAtoms>
  151.7755  135.0775  160.0365 H   0  0  0  0  0  0  0  0  0  0  0  0  # atno 6907 bound_to 6896
  152.3259  133.5900  159.5785 H   0  0  0  0  0  0  0  0  0  0  0  0  # atno 6908 bound_to 6896
  150.7395  133.9857  159.3632 H   0  0  0  0  0  0  0  0  0  0  0  0  # atno 6909 bound_to 6896
  144.7794  139.7608  143.6266 H   0  0  0  0  0  0  0  0  0  0  0  0  # atno 7974 bound_to 7965
  154.5186  140.2215  155.9018 H   0  0  0  0  0  0  0  0  0  0  0  0  # atno 8008 bound_to 7997
  156.1636  140.3137  155.8815 H   0  0  0  0  0  0  0  0  0  0  0  0  # atno 8009 bound_to 7997
  155.3701  140.0466  157.3036 H   0  0  0  0  0  0  0  0  0  0  0  0  # atno 8010 bound_to 7997
  139.4998  144.6116  151.6258 H   0  0  0  0  0  0  0  0  0  0  0  0  # atno 10167 bound_to 10162
  157.0036  130.6089  149.5699 H   0  0  0  0  0  0  0  0  0  0  0  0  # atno 10718 bound_to 10713
  153.0190  135.5281  154.6992 H   0  0  0  0  0  0  0  0  0  0  0  0  # atno 10763 bound_to 10752
  154.6106  135.2878  155.0439 H   0  0  0  0  0  0  0  0  0  0  0  0  # atno 10764 bound_to 10752
  154.1462  135.6570  153.5005 H   0  0  0  0  0  0  0  0  0  0  0  0  # atno 10765 bound_to 10752
  140.4736  134.6142  157.4892 H   0  0  0  0  0  0  0  0  0  0  0  0  # atno 11005 bound_to 11000
  146.1993  139.5278  142.9754 LP  0  0  0  0  0  0  0  0  0  0  0  0  # atno 17320 bound_to 7965
  145.6093  141.0342  143.1975 LP  0  0  0  0  0  0  0  0  0  0  0  0  # atno 17321 bound_to 7965
  140.5793  143.9974  150.6259 LP  0  0  0  0  0  0  0  0  0  0  0  0  # atno 17342 bound_to 10162
  140.3118  143.3193  152.0871 LP  0  0  0  0  0  0  0  0  0  0  0  0  # atno 17343 bound_to 10162
  156.0162  130.5256  150.8140 LP  0  0  0  0  0  0  0  0  0  0  0  0  # atno 17370 bound_to 10713
  157.5372  131.0939  150.9876 LP  0  0  0  0  0  0  0  0  0  0  0  0  # atno 17371 bound_to 10713
  139.9870  134.7046  155.9756 LP  0  0  0  0  0  0  0  0  0  0  0  0  # atno 17394 bound_to 11000
  141.1565  133.6542  156.4179 LP  0  0  0  0  0  0  0  0  0  0  0  0  # atno 17395 bound_to 11000

$$$$
