#       Name:                AV-unprocessed.smi:2901
#       Creating user name   scv26
#       Creation time:       Fri Mar 27 16:02:50 2020


#       File generated by GOLD software.
#

@<TRIPOS>MOLECULE
AV-unprocessed.smi:2901
    47    48     1
SMALL
NO_CHARGES


@<TRIPOS>ATOM
      1 ****        -1.9492   6.1745  -0.8239 C.3            1 S1                 0.0000
      2 ****        -1.7192   4.9440  -0.0166 C.2            1 S1                 0.0000
      3 ****        -1.1314   3.8164  -0.4107 N.2            1 S1                 0.0000
      4 ****        -1.1704   2.9884   0.7026 C.2            1 S1                 0.0000
      5 ****        -0.5989   1.6037   0.6843 C.3            1 S1                 0.0000
      6 ****         0.9303   1.6075   0.8431 C.3            1 S1                 0.0000
      7 ****         1.4729   0.2540   0.8612 N.am           1 S1                 0.0000
      8 ****         1.7045  -0.4932  -0.2267 C.2            1 S1                 0.0000
      9 ****         1.4915  -0.1185  -1.3799 O.2            1 S1                 0.0000
     10 ****         2.1892  -1.7005   0.0930 N.am           1 S1                 0.0000
     11 ****         2.5235  -2.7469  -0.8670 C.3            1 S1                 0.0000
     12 ****         1.2706  -3.4535  -1.4138 C.3            1 S1                 0.0000
     13 ****         0.4000  -4.1293  -0.3539 C.3            1 S1                 0.0000
     14 ****        -0.2940  -5.2465  -1.1187 C.3            1 S1                 0.0000
     15 ****         0.4727  -5.3305  -2.4420 C.3            1 S1                 0.0000
     16 ****         1.6370  -4.5406  -2.2467 O.3            1 S1                 0.0000
     17 ****        -1.7832   3.6719   1.7219 C.2            1 S1                 0.0000
     18 ****        -2.1064   3.3195   3.1342 C.3            1 S1                 0.0000
     19 ****        -2.1395   4.9166   1.2768 O.3            1 S1                 0.0000
     20 ****        -1.4168   6.1105  -1.7732 H              1 S1                 0.0000
     21 ****        -1.5925   7.0495  -0.2804 H              1 S1                 0.0000
     22 ****        -3.0139   6.2939  -1.0249 H              1 S1                 0.0000
     23 ****        -1.0459   1.0068   1.4801 H              1 S1                 0.0000
     24 ****        -0.8714   1.1087  -0.2487 H              1 S1                 0.0000
     25 ****         1.3977   2.1873   0.0449 H              1 S1                 0.0000
     26 ****         1.2043   2.0931   1.7802 H              1 S1                 0.0000
     27 ****         1.6819  -0.1420   1.7660 H              1 S1                 0.0000
     28 ****         2.3301  -1.9159   1.0690 H              1 S1                 0.0000
     29 ****         3.1085  -2.3274  -1.6870 H              1 S1                 0.0000
     30 ****         3.1690  -3.4690  -0.3664 H              1 S1                 0.0000
     31 ****         0.6671  -2.7582  -2.0006 H              1 S1                 0.0000
     32 ****         1.0244  -4.5587   0.4307 H              1 S1                 0.0000
     33 ****        -0.3001  -3.4371   0.1149 H              1 S1                 0.0000
     34 ****        -0.2408  -6.1841  -0.5643 H              1 S1                 0.0000
     35 ****        -1.3463  -5.0206  -1.2960 H              1 S1                 0.0000
     36 ****         0.7312  -6.3543  -2.7133 H              1 S1                 0.0000
     37 ****        -0.1171  -4.9021  -3.2537 H              1 S1                 0.0000
     38 ****        -1.3066   2.7268   3.5787 H              1 S1                 0.0000
     39 ****        -3.0271   2.7381   3.1851 H              1 S1                 0.0000
     40 ****        -2.2376   4.2159   3.7408 H              1 S1                 0.0000
     41 ****        -0.7465   3.6112  -1.3105 LP             1 S1                 0.0000
     42 ****         1.1227   0.7956  -1.5485 LP             1 S1                 0.0000
     43 ****         1.6874  -0.7282  -2.1479 LP             1 S1                 0.0000
     44 ****         2.3505  -5.0850  -1.8056 LP             1 S1                 0.0000
     45 ****         1.9723  -4.2011  -3.1255 LP             1 S1                 0.0000
     46 ****        -3.1302   5.0418   1.3301 LP             1 S1                 0.0000
     47 ****        -1.6844   5.6281   1.8123 LP             1 S1                 0.0000
@<TRIPOS>BOND
    1    1    2 1     
    2    1   20 1     
    3    1   21 1     
    4    1   22 1     
    5    2   19 1     
    6    2    3 2     
    7    3    4 1     
    8    4    5 1     
    9    4   17 2     
   10    5    6 1     
   11    5   23 1     
   12    5   24 1     
   13    6    7 1     
   14    6   25 1     
   15    6   26 1     
   16    7    8 am    
   17    7   27 1     
   18    8    9 2     
   19    8   10 am    
   20   10   11 1     
   21   10   28 1     
   22   11   12 1     
   23   11   29 1     
   24   11   30 1     
   25   12   16 1     
   26   12   13 1     
   27   12   31 1     
   28   13   14 1     
   29   13   32 1     
   30   13   33 1     
   31   14   15 1     
   32   14   34 1     
   33   14   35 1     
   34   15   16 1     
   35   15   36 1     
   36   15   37 1     
   37   17   18 1     
   38   17   19 1     
   39   18   38 1     
   40   18   39 1     
   41   18   40 1     
   42    3   41 1     
   43    9   42 1     
   44    9   43 1     
   45   16   44 1     
   46   16   45 1     
   47   19   46 1     
   48   19   47 1     
@<TRIPOS>SUBSTRUCTURE
      1 S1             1
@<TRIPOS>SET
LONE_PAIRS      STATIC     ATOMS    <user>   **** ""
7 41 42 43 44 45 46 47
DONOR_HYDROGENS      STATIC     ATOMS    <user>   **** ""
2 27 28
ATOM$BLUE        STATIC     ATOMS    COLORGROUP SYSTEM
7 41 42 43 44 45 46 47
ATOM$RED        STATIC     ATOMS    COLORGROUP SYSTEM
2 27 28
