AV-unprocessed.smi:1950|AV-procd|sdf|7880|dock8
  -GOLD-   2272010 33D 1   1.00000     0.00000
 Structure written by MMmdl.
 32 33  0  0  0  0  0  0  0  0  2 V2000
  153.6311  142.0113  161.9943 C   0  0  0  0  0  0  0  0  0  0  0  0
  152.9053  142.9797  161.0575 C   0  0  0  0  0  0  0  0  0  0  0  0
  152.2011  143.8538  161.5637 O   0  0  0  0  0  0  0  0  0  0  0  0
  153.0590  142.8467  159.7179 N   0  0  0  0  0  0  0  0  0  0  0  0
  153.8451  141.7653  159.1122 C   0  0  0  0  0  0  0  0  0  0  0  0
  152.8898  140.7933  158.3960 C   0  0  0  0  0  0  0  0  0  0  0  0
  152.0174  141.5268  157.3553 C   0  0  0  0  0  0  0  0  0  0  0  0
  151.0103  140.6107  156.8265 N   0  0  0  0  0  0  0  0  0  0  0  0
  150.9164  140.1859  155.5581 C   0  0  0  0  0  0  0  0  0  0  0  0
  151.7268  140.5782  154.7153 O   0  0  0  0  0  0  0  0  0  0  0  0
  149.8893  139.3320  155.3444 N   0  5  0  0  0  0  0  0  0  0  0  0
  148.7906  139.7511  154.6950 C   0  0  0  0  0  0  0  0  0  0  0  0
  148.5094  141.0532  154.5267 N   0  0  0  0  0  0  0  0  0  0  0  0
  147.3258  141.2714  153.8346 N   0  0  0  0  0  0  0  0  0  0  0  0
  146.7381  140.1222  153.5030 C   0  0  0  0  0  0  0  0  0  0  0  0
  147.5740  138.6698  154.0101 S   0  0  0  0  0  0  0  0  0  0  0  0
  151.3504  142.7803  157.9666 C   0  0  0  0  0  0  0  0  0  0  0  0
  152.3801  143.6583  158.6996 C   0  0  0  0  0  0  0  0  0  0  0  0
  154.7092  142.0559  161.8384 H   0  0  0  0  0  0  0  0  0  0  0  0
  153.2901  140.9885  161.8315 H   0  0  0  0  0  0  0  0  0  0  0  0
  153.4352  142.2657  163.0365 H   0  0  0  0  0  0  0  0  0  0  0  0
  154.5530  142.1892  158.3985 H   0  0  0  0  0  0  0  0  0  0  0  0
  154.4480  141.2212  159.8404 H   0  0  0  0  0  0  0  0  0  0  0  0
  153.4602  139.9995  157.9125 H   0  0  0  0  0  0  0  0  0  0  0  0
  152.2527  140.3086  159.1378 H   0  0  0  0  0  0  0  0  0  0  0  0
  152.6728  141.8455  156.5426 H   0  0  0  0  0  0  0  0  0  0  0  0
  150.3232  140.2643  157.4799 H   0  0  0  0  0  0  0  0  0  0  0  0
  145.8049  140.1302  152.9600 H   0  0  0  0  0  0  0  0  0  0  0  0
  150.8566  143.3620  157.1875 H   0  0  0  0  0  0  0  0  0  0  0  0
  150.5707  142.4800  158.6683 H   0  0  0  0  0  0  0  0  0  0  0  0
  151.8905  144.5444  159.1004 H   0  0  0  0  0  0  0  0  0  0  0  0
  153.1195  144.0321  157.9900 H   0  0  0  0  0  0  0  0  0  0  0  0
  1  2  1  0  0  0  0
  1 19  1  0  0  0  0
  1 20  1  0  0  0  0
  1 21  1  0  0  0  0
  2  3  2  0  0  0  0
  2  4  1  0  0  0  0
  4 18  1  0  0  0  0
  4  5  1  0  0  0  0
  5  6  1  0  0  0  0
  5 22  1  0  0  0  0
  5 23  1  0  0  0  0
  6  7  1  0  0  0  0
  6 24  1  0  0  0  0
  6 25  1  0  0  0  0
  7  8  1  0  0  0  0
  7 17  1  0  0  0  0
  7 26  1  0  0  0  0
  8  9  1  0  0  0  0
  8 27  1  0  0  0  0
  9 10  2  0  0  0  0
  9 11  1  0  0  0  0
 11 12  1  0  0  0  0
 12 16  1  0  0  0  0
 12 13  2  0  0  0  0
 13 14  1  0  0  0  0
 14 15  2  0  0  0  0
 15 16  1  0  0  0  0
 15 28  1  0  0  0  0
 17 18  1  0  0  0  0
 17 29  1  0  0  0  0
 17 30  1  0  0  0  0
 18 31  1  0  0  0  0
 18 32  1  0  0  0  0
M  CHG  1  11  -1
M  END
> <s_m_source_file>
AV-unprocessed.smi

> <i_m_source_file_index>
1950

> <i_lp_mmshare_version>
43012

> <i_f3d_flags>
0

> <s_epik_input>
W0NIM11DKD1PKU4xW0NIMl1bQ0gyXVtDSF0oW0NIMl1bQ0gyXTEpW05IXUMoPU8pW05IXWMybm5bY0hdczI=

> <s_epik_cmdline>
J2VwaWtfcHl0aG9uJywgJy1waCcsICc3LjAnLCAnLXRuJywgJzgnLCAnLW1hJywgJzIwMCcsICctbWV0YWxfYmluZGluZycsICctaW1hZScsICc8aW5maWxlLm1hZT4nLCAnLW9tYWUnLCAnPG91dGZpbGUubWFlPic=

> <r_lp_tautomer_probability>
1

> <r_epik_Ionization_Penalty>
3.45176

> <r_epik_Ionization_Penalty_Charging>
3.40771

> <r_epik_Ionization_Penalty_Neutral>
0.0440522

> <r_epik_State_Penalty>
3.40583

> <r_epik_Charging_Adjusted_Penalty>
6.81354

> <i_epik_Tot_Q>
-1

> <i_epik_Tot_abs_Q>
1

> <r_epik_Metal_State_Penalty>
0.49593

> <b_epik_Metal_Only>
1

> <s_lp_Force_Field>
OPLS_2005

> <r_lp_Energy>
20.3266

> <b_lp_Chiralities_Consistent>
1

> <s_lp_Variant>
AV-unprocessed.smi:1950-2

> <Gold.Version>
5.8.1

> <Gold.Id.Protein>
6NUR|6NUR_protein|mol2

> <Gold.PLP.Fitness>
39.2183

> <Gold.PLP.PLP>
-35.0044

> <Gold.PLP.part.hbond>
-1.0000

> <Gold.PLP.part.metal>
0.0000

> <Gold.PLP.part.buried>
-7.1560

> <Gold.PLP.part.nonpolar>
-28.3482

> <Gold.PLP.part.repulsive>
0.6028

> <Gold.PLP.ligand.clash>
0.0000

> <Gold.PLP.ligand.torsion>
0.7691

> <Gold.PLP.Chemscore.Hbond>
0.9120

> <Gold.PLP.Chemscore.CHOScore>
1.0000

> <Gold.PLP.Chemscore.Metal>
0.0000

> <Gold.Chemscore.Hbonds>
donor molecule, donor type, donor heavy atom, donor atom, acceptor molecule, acceptor atom, score
      P1  H  7989  7998       L1    10  0.22
      L1  C    15    28       P1 10175  1.00

> <Gold.PLP.Chemscore.Internal.Correction>
0.0162

> <Gold.Rescore>
     Score         DG    S(hbond)    S(metal)    S(lipo)     H(rot)  DE(clash)    DE(int)     intcor
     13.07     -13.83       0.98        0.00      65.38       1.00       0.05       0.71       ----

> <Gold.Chemscore.Fitness>
13.0683

> <Gold.Chemscore.DG>
-13.8270

> <Gold.Chemscore.ZeroCoef>
-5.4800

> <Gold.Chemscore.Hbond>
0.9755

> <Gold.Chemscore.Metal>
0.0000

> <Gold.Chemscore.Lipo>
65.3751

> <Gold.Chemscore.Internal_Hbond>
0.0000

> <Gold.Chemscore.DEClash>
0.0468

> <Gold.Chemscore.DEInternal>
0.7118

> <Gold.Chemscore.Rot>
1.0000

> <Gold.Chemscore.Internal.Correction>
   9.000000E+99

> <Gold.Chemscore.Hbonds>
donor molecule, donor type, donor heavy atom, donor atom, acceptor molecule, acceptor atom, score
      P1  H  7989  7998       L1    10  0.22

> <Gold.Chemscore.Hbond.Weighted>
-3.2581

> <Gold.Chemscore.Metal.Weighted>
-0.0000

> <Gold.Chemscore.Lipo.Weighted>
-7.6489

> <Gold.Chemscore.Internal_Hbond.Weighted>
0.0000

> <Gold.Chemscore.DEClash.Weighted>
0.0468

> <Gold.Chemscore.DEInternal.Weighted>
0.7118

> <Gold.Chemscore.Rot.Weighted>
2.5600

> <Gold.Chemscore.Internal.Correction.Weighted>
   9.000000E+99

> <Gold.Protein.RotatedTorsions>
[ 6907 6896 6895 6894 ] final   16.48 input  -60.11 | X-H torsion
[ 7974 7965 7964 7962 ] final   62.21 input  175.53 | X-H torsion
[ 8008 7997 7996 7995 ] final -143.11 input   59.86 | X-H torsion
[ 10167 10162 10161 10158 ] final    9.21 input  -65.29 | X-H torsion
[ 10718 10713 10712 10709 ] final  149.61 input   66.30 | X-H torsion
[ 10763 10752 10751 10750 ] final -159.31 input  -60.55 | X-H torsion
[ 11005 11000 10999 10996 ] final   40.78 input  -57.11 | X-H torsion

> <Gold.Protein.ActiveResidues>
 VAL166  LYS551  ARG553  GLY616  TRP617  ASP618  TYR619  PRO620  LYS621  CYS622 
 ASP623  PHE694  ASN695  SER759  ASP760  ASP761  ALA762  ILE779  LEU786  VAL792 
 PHE793  MET794  SER795  GLU796  ALA797  LYS798  CYS799  TRP800  GLU811  SER814 

> <Gold.Protein.RotatedAtoms>
  151.8346  135.0610  160.0440 H   0  0  0  0  0  0  0  0  0  0  0  0  # atno 6907 bound_to 6896
  152.2855  133.5506  159.5533 H   0  0  0  0  0  0  0  0  0  0  0  0  # atno 6908 bound_to 6896
  150.7207  134.0420  159.3811 H   0  0  0  0  0  0  0  0  0  0  0  0  # atno 6909 bound_to 6896
  145.8759  139.3410  143.0735 H   0  0  0  0  0  0  0  0  0  0  0  0  # atno 7974 bound_to 7965
  155.5051  140.0579  157.2932 H   0  0  0  0  0  0  0  0  0  0  0  0  # atno 8008 bound_to 7997
  154.4572  140.1979  156.0294 H   0  0  0  0  0  0  0  0  0  0  0  0  # atno 8009 bound_to 7997
  156.0822  140.3245  155.7712 H   0  0  0  0  0  0  0  0  0  0  0  0  # atno 8010 bound_to 7997
  140.6269  143.8081  150.7244 H   0  0  0  0  0  0  0  0  0  0  0  0  # atno 10167 bound_to 10162
  157.2939  131.0858  151.1441 H   0  0  0  0  0  0  0  0  0  0  0  0  # atno 10718 bound_to 10713
  154.7485  135.3086  154.8601 H   0  0  0  0  0  0  0  0  0  0  0  0  # atno 10763 bound_to 10752
  153.9395  135.6776  153.4748 H   0  0  0  0  0  0  0  0  0  0  0  0  # atno 10764 bound_to 10752
  153.1081  135.4879  154.8914 H   0  0  0  0  0  0  0  0  0  0  0  0  # atno 10765 bound_to 10752
  140.1897  134.4001  155.8153 H   0  0  0  0  0  0  0  0  0  0  0  0  # atno 11005 bound_to 11000
  145.9081  140.9198  143.0468 LP  0  0  0  0  0  0  0  0  0  0  0  0  # atno 17320 bound_to 7965
  144.6726  140.1123  143.7454 LP  0  0  0  0  0  0  0  0  0  0  0  0  # atno 17321 bound_to 7965
  140.1684  143.4215  152.2018 LP  0  0  0  0  0  0  0  0  0  0  0  0  # atno 17342 bound_to 10162
  139.5488  144.7320  151.4500 LP  0  0  0  0  0  0  0  0  0  0  0  0  # atno 17343 bound_to 10162
  157.2827  130.6758  149.6074 LP  0  0  0  0  0  0  0  0  0  0  0  0  # atno 17370 bound_to 10713
  155.9668  130.4445  150.5463 LP  0  0  0  0  0  0  0  0  0  0  0  0  # atno 17371 bound_to 10713
  141.2226  133.7040  156.8075 LP  0  0  0  0  0  0  0  0  0  0  0  0  # atno 17394 bound_to 11000
  140.2173  134.8783  157.3339 LP  0  0  0  0  0  0  0  0  0  0  0  0  # atno 17395 bound_to 11000

$$$$
