AV-unprocessed.smi:523|AV-procd|sdf|2803|dock7
  -GOLD-   2262023283D 1   1.00000     0.00000
 Structure written by MMmdl.
 41 43  0  0  0  0  0  0  0  0  1 V2000
  153.3998  142.2156  161.0199 C   0  0  0  0  0  0  0  0  0  0  0  0
  152.6190  142.2643  159.8397 O   0  0  0  0  0  0  0  0  0  0  0  0
  152.8327  143.4515  159.0934 C   0  0  0  0  0  0  0  0  0  0  0  0
  151.8006  143.5478  157.9614 C   0  0  0  0  0  0  0  0  0  0  0  0
  150.4348  143.3872  158.4577 N   0  0  0  0  0  0  0  0  0  0  0  0
  149.4858  142.4986  158.0533 C   0  0  0  0  0  0  0  0  0  0  0  0
  149.7340  141.5382  157.0723 N   0  0  0  0  0  0  0  0  0  0  0  0
  150.7743  140.5136  157.0915 C   0  0  0  0  0  0  0  0  0  0  0  0
  151.5214  140.4682  155.7465 C   0  0  0  0  0  0  0  0  0  0  0  0
  150.5915  140.1884  154.7061 O   0  0  0  0  0  0  0  0  0  0  0  0
  149.5583  141.1653  154.6408 C   0  0  0  0  0  0  0  0  0  0  0  0
  148.8133  141.2174  155.9873 C   0  0  0  0  0  0  0  0  0  0  0  0
  148.2924  142.6566  158.6319 N   0  0  0  0  0  0  0  0  0  0  0  0
  148.5012  143.7173  159.4991 C   0  0  0  0  0  0  0  0  0  0  0  0
  149.7759  144.1749  159.4056 C   0  0  0  0  0  0  0  0  0  0  0  0
  150.2548  145.3276  160.1832 C   0  0  0  0  0  0  0  0  0  0  0  0
  151.3976  145.7734  160.1085 O   0  0  0  0  0  0  0  0  0  0  0  0
  149.3039  145.8578  160.9898 N   0  0  0  0  0  0  0  0  0  0  0  0
  148.0089  145.4427  161.1337 C   0  0  0  0  0  0  0  0  0  0  0  0
  147.2557  146.0338  161.9073 O   0  0  0  0  0  0  0  0  0  0  0  0
  147.5995  144.3650  160.3912 N   0  0  0  0  0  0  0  0  0  0  0  0
  146.2218  143.8818  160.5009 C   0  0  0  0  0  0  0  0  0  0  0  0
  149.5818  146.6541  161.5449 H   0  0  0  0  0  0  0  0  0  0  0  0
  153.1989  141.2865  161.5530 H   0  0  0  0  0  0  0  0  0  0  0  0
  153.1590  143.0450  161.6862 H   0  0  0  0  0  0  0  0  0  0  0  0
  154.4653  142.2484  160.7893 H   0  0  0  0  0  0  0  0  0  0  0  0
  152.7471  144.3210  159.7469 H   0  0  0  0  0  0  0  0  0  0  0  0
  153.8404  143.4558  158.6763 H   0  0  0  0  0  0  0  0  0  0  0  0
  151.9041  144.4987  157.4475 H   0  0  0  0  0  0  0  0  0  0  0  0
  152.0050  142.7996  157.1990 H   0  0  0  0  0  0  0  0  0  0  0  0
  151.4648  140.6800  157.9170 H   0  0  0  0  0  0  0  0  0  0  0  0
  150.3108  139.5457  157.2868 H   0  0  0  0  0  0  0  0  0  0  0  0
  152.0357  141.4097  155.5487 H   0  0  0  0  0  0  0  0  0  0  0  0
  152.2800  139.6857  155.7621 H   0  0  0  0  0  0  0  0  0  0  0  0
  149.9799  142.1404  154.3913 H   0  0  0  0  0  0  0  0  0  0  0  0
  148.8696  140.9000  153.8387 H   0  0  0  0  0  0  0  0  0  0  0  0
  148.3261  140.2631  156.1918 H   0  0  0  0  0  0  0  0  0  0  0  0
  148.0253  141.9698  155.9408 H   0  0  0  0  0  0  0  0  0  0  0  0
  145.9640  143.6776  161.5412 H   0  0  0  0  0  0  0  0  0  0  0  0
  146.0546  142.9615  159.9420 H   0  0  0  0  0  0  0  0  0  0  0  0
  145.5269  144.6308  160.1186 H   0  0  0  0  0  0  0  0  0  0  0  0
  1  2  1  0  0  0  0
  1 24  1  0  0  0  0
  1 25  1  0  0  0  0
  1 26  1  0  0  0  0
  2  3  1  0  0  0  0
  3  4  1  0  0  0  0
  3 27  1  0  0  0  0
  3 28  1  0  0  0  0
  4  5  1  0  0  0  0
  4 29  1  0  0  0  0
  4 30  1  0  0  0  0
  5 15  1  0  0  0  0
  5  6  1  0  0  0  0
  6  7  1  0  0  0  0
  6 13  2  0  0  0  0
  7 12  1  0  0  0  0
  7  8  1  0  0  0  0
  8  9  1  0  0  0  0
  8 31  1  0  0  0  0
  8 32  1  0  0  0  0
  9 10  1  0  0  0  0
  9 33  1  0  0  0  0
  9 34  1  0  0  0  0
 10 11  1  0  0  0  0
 11 12  1  0  0  0  0
 11 35  1  0  0  0  0
 11 36  1  0  0  0  0
 12 37  1  0  0  0  0
 12 38  1  0  0  0  0
 13 14  1  0  0  0  0
 14 21  1  0  0  0  0
 14 15  2  0  0  0  0
 15 16  1  0  0  0  0
 16 17  2  0  0  0  0
 16 18  1  0  0  0  0
 18 23  1  0  0  0  0
 18 19  1  0  0  0  0
 19 20  2  0  0  0  0
 19 21  1  0  0  0  0
 21 22  1  0  0  0  0
 22 39  1  0  0  0  0
 22 40  1  0  0  0  0
 22 41  1  0  0  0  0
M  END
> <s_m_source_file>
AV-unprocessed.smi

> <i_m_source_file_index>
523

> <i_lp_mmshare_version>
43012

> <i_f3d_flags>
0

> <s_epik_input>
W0NIM11uMWMoPU8pW25IXWMoPU8pYyhjMTIpbihbQ0gyXVtDSDJdT1tDSDNdKWMobjIpTjNbQ0gyXVtDSDJdT1tDSDJdW0NIMl0z

> <s_epik_cmdline>
J2VwaWtfcHl0aG9uJywgJy1waCcsICc3LjAnLCAnLXRuJywgJzgnLCAnLW1hJywgJzIwMCcsICctbWV0YWxfYmluZGluZycsICctaW1hZScsICc8aW5maWxlLm1hZT4nLCAnLW9tYWUnLCAnPG91dGZpbGUubWFlPic=

> <r_lp_tautomer_probability>
1

> <r_epik_Ionization_Penalty>
0.000208431

> <r_epik_Ionization_Penalty_Charging>
0.000208146

> <r_epik_Ionization_Penalty_Neutral>
2.85359e-07

> <r_epik_State_Penalty>
-0

> <r_epik_Charging_Adjusted_Penalty>
0.000208146

> <i_epik_Tot_Q>
0

> <i_epik_Tot_abs_Q>
0

> <r_epik_Metal_State_Penalty>
0.136977

> <b_epik_Metal_Only>
0

> <s_lp_Force_Field>
OPLS_2005

> <r_lp_Energy>
38.6509

> <b_lp_Chiralities_Consistent>
1

> <s_lp_Variant>
AV-unprocessed.smi:523-1

> <Gold.Version>
5.8.1

> <Gold.Id.Protein>
6NUR|6NUR_protein|mol2

> <Gold.PLP.Fitness>
40.4112

> <Gold.PLP.PLP>
-40.0093

> <Gold.PLP.part.hbond>
-4.9541

> <Gold.PLP.part.metal>
0.0000

> <Gold.PLP.part.buried>
-5.5010

> <Gold.PLP.part.nonpolar>
-32.8442

> <Gold.PLP.part.repulsive>
3.7777

> <Gold.PLP.ligand.clash>
0.0000

> <Gold.PLP.ligand.torsion>
0.9068

> <Gold.PLP.Chemscore.Hbond>
0.5850

> <Gold.PLP.Chemscore.CHOScore>
0.0000

> <Gold.PLP.Chemscore.Metal>
0.0000

> <Gold.Chemscore.Hbonds>
donor molecule, donor type, donor heavy atom, donor atom, acceptor molecule, acceptor atom, score
      P1  H  7989  7998       L1    10  0.55

> <Gold.PLP.Chemscore.Internal.Correction>
0.4605

> <Gold.Rescore>
     Score         DG    S(hbond)    S(metal)    S(lipo)     H(rot)  DE(clash)    DE(int)     intcor
      6.58      -8.85       0.00        0.00      62.35       1.53       0.32       1.94       ----

> <Gold.Chemscore.Fitness>
6.5811

> <Gold.Chemscore.DG>
-8.8455

> <Gold.Chemscore.ZeroCoef>
-5.4800

> <Gold.Chemscore.Hbond>
0.0000

> <Gold.Chemscore.Metal>
0.0000

> <Gold.Chemscore.Lipo>
62.3456

> <Gold.Chemscore.Internal_Hbond>
0.0000

> <Gold.Chemscore.DEClash>
0.3234

> <Gold.Chemscore.DEInternal>
1.9410

> <Gold.Chemscore.Rot>
1.5348

> <Gold.Chemscore.Internal.Correction>
   9.000000E+99

> <Gold.Chemscore.Hbonds>
donor molecule, donor type, donor heavy atom, donor atom, acceptor molecule, acceptor atom, score
      P1  H  7989  7998       L1    10  0.01

> <Gold.Chemscore.Hbond.Weighted>
-0.0000

> <Gold.Chemscore.Metal.Weighted>
-0.0000

> <Gold.Chemscore.Lipo.Weighted>
-7.2944

> <Gold.Chemscore.Internal_Hbond.Weighted>
0.0000

> <Gold.Chemscore.DEClash.Weighted>
0.3234

> <Gold.Chemscore.DEInternal.Weighted>
1.9410

> <Gold.Chemscore.Rot.Weighted>
3.9290

> <Gold.Chemscore.Internal.Correction.Weighted>
   9.000000E+99

> <Gold.Protein.RotatedTorsions>
[ 6907 6896 6895 6894 ] final -163.66 input  -60.11 | X-H torsion
[ 7974 7965 7964 7962 ] final   98.22 input  175.53 | X-H torsion
[ 8008 7997 7996 7995 ] final  -61.21 input   59.86 | X-H torsion
[ 10167 10162 10161 10158 ] final  -52.75 input  -65.29 | X-H torsion
[ 10718 10713 10712 10709 ] final -100.04 input   66.30 | X-H torsion
[ 10763 10752 10751 10750 ] final -167.73 input  -60.55 | X-H torsion
[ 11005 11000 10999 10996 ] final   53.75 input  -57.11 | X-H torsion

> <Gold.Protein.ActiveResidues>
 VAL166  LYS551  ARG553  GLY616  TRP617  ASP618  TYR619  PRO620  LYS621  CYS622 
 ASP623  PHE694  ASN695  SER759  ASP760  ASP761  ALA762  ILE779  LEU786  VAL792 
 PHE793  MET794  SER795  GLU796  ALA797  LYS798  CYS799  TRP800  GLU811  SER814 

> <Gold.Protein.RotatedAtoms>
  151.3996  133.3762  159.2730 H   0  0  0  0  0  0  0  0  0  0  0  0  # atno 6907 bound_to 6896
  150.9443  134.8851  159.7643 H   0  0  0  0  0  0  0  0  0  0  0  0  # atno 6908 bound_to 6896
  152.5085  134.3948  159.9448 H   0  0  0  0  0  0  0  0  0  0  0  0  # atno 6909 bound_to 6896
  145.4151  139.2328  143.3227 H   0  0  0  0  0  0  0  0  0  0  0  0  # atno 7974 bound_to 7965
  154.4436  140.1022  156.6395 H   0  0  0  0  0  0  0  0  0  0  0  0  # atno 8008 bound_to 7997
  155.5517  140.3486  155.4451 H   0  0  0  0  0  0  0  0  0  0  0  0  # atno 8009 bound_to 7997
  156.0524  140.1307  157.0024 H   0  0  0  0  0  0  0  0  0  0  0  0  # atno 8010 bound_to 7997
  140.6521  143.2573  151.4693 H   0  0  0  0  0  0  0  0  0  0  0  0  # atno 10167 bound_to 10162
  156.0151  130.5310  150.6759 H   0  0  0  0  0  0  0  0  0  0  0  0  # atno 10718 bound_to 10713
  154.6702  135.2938  154.9752 H   0  0  0  0  0  0  0  0  0  0  0  0  # atno 10763 bound_to 10752
  154.0782  135.6608  153.4838 H   0  0  0  0  0  0  0  0  0  0  0  0  # atno 10764 bound_to 10752
  153.0482  135.5191  154.7694 H   0  0  0  0  0  0  0  0  0  0  0  0  # atno 10765 bound_to 10752
  140.0741  134.5428  155.9014 H   0  0  0  0  0  0  0  0  0  0  0  0  # atno 11005 bound_to 11000
  146.2685  140.4868  142.8824 LP  0  0  0  0  0  0  0  0  0  0  0  0  # atno 17320 bound_to 7965
  144.8282  140.6664  143.6308 LP  0  0  0  0  0  0  0  0  0  0  0  0  # atno 17321 bound_to 7965
  139.5737  144.1868  152.1873 LP  0  0  0  0  0  0  0  0  0  0  0  0  # atno 17342 bound_to 10162
  140.1172  144.5405  150.6886 LP  0  0  0  0  0  0  0  0  0  0  0  0  # atno 17343 bound_to 10162
  157.4471  131.0868  151.0884 LP  0  0  0  0  0  0  0  0  0  0  0  0  # atno 17370 bound_to 10713
  157.1410  130.6143  149.5555 LP  0  0  0  0  0  0  0  0  0  0  0  0  # atno 17371 bound_to 10713
  141.2023  133.6624  156.5999 LP  0  0  0  0  0  0  0  0  0  0  0  0  # atno 17394 bound_to 11000
  140.3583  134.7709  157.4516 LP  0  0  0  0  0  0  0  0  0  0  0  0  # atno 17395 bound_to 11000

$$$$
