AV-unprocessed.smi:861|AV-procd|sdf|3975|dock1
  -GOLD-   22720 1453D 1   1.00000     0.00000
 Structure written by MMmdl.
 45 46  0  0  0  0  0  0  0  0  3 V2000
  146.0774  137.1367  159.1393 C   0  0  0  0  0  0  0  0  0  0  0  0
  147.5419  136.8163  158.7954 C   0  0  0  0  0  0  0  0  0  0  0  0
  148.2981  136.3597  160.0524 C   0  0  0  0  0  0  0  0  0  0  0  0
  148.2631  138.0047  158.1269 C   0  0  0  0  0  0  0  0  0  0  0  0
  147.4595  138.6606  156.9871 C   0  0  0  0  0  0  0  0  0  0  0  0
  148.3274  139.3849  156.0246 N   0  3  2  0  0  0  0  0  0  0  0  0
  149.0837  138.4861  155.1182 C   0  0  0  0  0  0  0  0  0  0  0  0
  149.9384  139.3067  154.1394 C   0  0  0  0  0  0  0  0  0  0  0  0
  150.8072  140.1623  154.8706 O   0  0  0  0  0  0  0  0  0  0  0  0
  150.0960  141.1040  155.6673 C   0  0  2  0  0  0  0  0  0  0  0  0
  151.1229  142.0209  156.3491 C   0  0  0  0  0  0  0  0  0  0  0  0
  150.4943  143.2054  156.9147 N   0  0  0  0  0  0  0  0  0  0  0  0
  150.9992  143.7911  158.0832 C   0  0  0  0  0  0  0  0  0  0  0  0
  152.1235  143.3067  158.7914 C   0  0  0  0  0  0  0  0  0  0  0  0
  152.5281  143.9933  159.9488 C   0  0  0  0  0  0  0  0  0  0  0  0
  151.7841  145.1243  160.3291 C   0  0  0  0  0  0  0  0  0  0  0  0
  150.7110  145.5708  159.6390 N   0  0  0  0  0  0  0  0  0  0  0  0
  150.3484  144.8920  158.5362 N   0  3  0  0  0  0  0  0  0  0  0  0
  149.2487  140.3315  156.6988 C   0  0  0  0  0  0  0  0  0  0  0  0
  146.0059  137.9900  159.8147 H   0  0  0  0  0  0  0  0  0  0  0  0
  145.5958  136.2886  159.6271 H   0  0  0  0  0  0  0  0  0  0  0  0
  145.4935  137.3654  158.2483 H   0  0  0  0  0  0  0  0  0  0  0  0
  147.5460  135.9791  158.0963 H   0  0  0  0  0  0  0  0  0  0  0  0
  148.3353  137.1508  160.8021 H   0  0  0  0  0  0  0  0  0  0  0  0
  149.3241  136.0770  159.8152 H   0  0  0  0  0  0  0  0  0  0  0  0
  147.8181  135.4926  160.5072 H   0  0  0  0  0  0  0  0  0  0  0  0
  148.5166  138.7401  158.8906 H   0  0  0  0  0  0  0  0  0  0  0  0
  149.2118  137.6543  157.7179 H   0  0  0  0  0  0  0  0  0  0  0  0
  146.9237  137.8735  156.4545 H   0  0  0  0  0  0  0  0  0  0  0  0
  146.7025  139.3420  157.3767 H   0  0  0  0  0  0  0  0  0  0  0  0
  149.7234  137.8262  155.7063 H   0  0  0  0  0  0  0  0  0  0  0  0
  148.4029  137.8508  154.5527 H   0  0  0  0  0  0  0  0  0  0  0  0
  150.5389  138.6429  153.5174 H   0  0  0  0  0  0  0  0  0  0  0  0
  149.3100  139.8921  153.4662 H   0  0  0  0  0  0  0  0  0  0  0  0
  149.4398  141.7048  155.0341 H   0  0  0  0  0  0  0  0  0  0  0  0
  151.6184  141.4793  157.1556 H   0  0  0  0  0  0  0  0  0  0  0  0
  151.8933  142.3133  155.6342 H   0  0  0  0  0  0  0  0  0  0  0  0
  149.7993  143.6954  156.3691 H   0  0  0  0  0  0  0  0  0  0  0  0
  152.6702  142.4334  158.4685 H   0  0  0  0  0  0  0  0  0  0  0  0
  153.3800  143.6657  160.5263 H   0  0  0  0  0  0  0  0  0  0  0  0
  152.0550  145.6869  161.2105 H   0  0  0  0  0  0  0  0  0  0  0  0
  148.6720  141.0364  157.2993 H   0  0  0  0  0  0  0  0  0  0  0  0
  149.8959  139.7812  157.3841 H   0  0  0  0  0  0  0  0  0  0  0  0
  147.7159  139.9444  155.4470 H   0  0  0  0  0  0  0  0  0  0  0  0
  149.5393  145.2239  158.0109 H   0  0  0  0  0  0  0  0  0  0  0  0
  1  2  1  0  0  0  0
  1 20  1  0  0  0  0
  1 21  1  0  0  0  0
  1 22  1  0  0  0  0
  2  3  1  0  0  0  0
  2  4  1  0  0  0  0
  2 23  1  0  0  0  0
  3 24  1  0  0  0  0
  3 25  1  0  0  0  0
  3 26  1  0  0  0  0
  4  5  1  0  0  0  0
  4 27  1  0  0  0  0
  4 28  1  0  0  0  0
  5  6  1  0  0  0  0
  5 29  1  0  0  0  0
  5 30  1  0  0  0  0
  6 19  1  0  0  0  0
  6  7  1  0  0  0  0
  6 44  1  0  0  0  0
  7  8  1  0  0  0  0
  7 31  1  0  0  0  0
  7 32  1  0  0  0  0
  8  9  1  0  0  0  0
  8 33  1  0  0  0  0
  8 34  1  0  0  0  0
  9 10  1  0  0  0  0
 10 11  1  0  0  0  0
 10 19  1  0  0  0  0
 10 35  1  0  0  0  0
 11 12  1  0  0  0  0
 11 36  1  0  0  0  0
 11 37  1  0  0  0  0
 12 13  1  0  0  0  0
 12 38  1  0  0  0  0
 13 18  1  0  0  0  0
 13 14  2  0  0  0  0
 14 15  1  0  0  0  0
 14 39  1  0  0  0  0
 15 16  2  0  0  0  0
 15 40  1  0  0  0  0
 16 17  1  0  0  0  0
 16 41  1  0  0  0  0
 17 18  2  0  0  0  0
 18 45  1  0  0  0  0
 19 42  1  0  0  0  0
 19 43  1  0  0  0  0
M  CHG  1   6   1
M  CHG  1  18   1
M  END
> <s_m_source_file>
AV-unprocessed.smi

> <i_m_source_file_index>
861

> <i_lp_mmshare_version>
43012

> <i_f3d_flags>
0

> <s_epik_input>
W0NIM11bQ0hdKFtDSDNdKVtDSDJdW0NIMl1OMVtDSDJdW0NIMl1PW0NASF0oW0NIMl0xKVtDSDJdW05IXWMyW2NIXVtjSF1bY0hdbm4y

> <s_epik_cmdline>
J2VwaWtfcHl0aG9uJywgJy1waCcsICc3LjAnLCAnLXRuJywgJzgnLCAnLW1hJywgJzIwMCcsICctbWV0YWxfYmluZGluZycsICctaW1hZScsICc8aW5maWxlLm1hZT4nLCAnLW9tYWUnLCAnPG91dGZpbGUubWFlPic=

> <r_lp_tautomer_probability>
0.966961

> <r_epik_Ionization_Penalty>
2.478

> <r_epik_Ionization_Penalty_Charging>
2.47799

> <r_epik_Ionization_Penalty_Neutral>
3.15286e-06

> <r_epik_State_Penalty>
2.10794

> <r_epik_Charging_Adjusted_Penalty>
4.58594

> <i_epik_Tot_Q>
2

> <i_epik_Tot_abs_Q>
2

> <r_epik_Metal_State_Penalty>
2.11378

> <b_epik_Metal_Only>
0

> <s_lp_Force_Field>
OPLS_2005

> <r_lp_Energy>
32.9485

> <b_lp_Chiralities_Consistent>
1

> <s_lp_Variant>
AV-unprocessed.smi:861-10

> <Gold.Version>
5.8.1

> <Gold.Id.Protein>
6NUR|6NUR_protein|mol2

> <Gold.PLP.Fitness>
46.4020

> <Gold.PLP.PLP>
-32.4229

> <Gold.PLP.part.hbond>
-4.8889

> <Gold.PLP.part.metal>
0.0000

> <Gold.PLP.part.buried>
-5.2776

> <Gold.PLP.part.nonpolar>
-23.0470

> <Gold.PLP.part.repulsive>
0.4727

> <Gold.PLP.ligand.clash>
0.0000

> <Gold.PLP.ligand.torsion>
0.5438

> <Gold.PLP.Chemscore.Hbond>
5.0000

> <Gold.PLP.Chemscore.CHOScore>
0.0000

> <Gold.PLP.Chemscore.Metal>
0.0000

> <Gold.Chemscore.Hbonds>
donor molecule, donor type, donor heavy atom, donor atom, acceptor molecule, acceptor atom, score
      L1  H    12    38       P1  8028  2.00
      L1  H    18    45       P1  8029  1.90
      P1  H  7989  7998       L1     9  0.90

> <Gold.PLP.Chemscore.Internal.Correction>
0.0667

> <Gold.Rescore>
     Score         DG    S(hbond)    S(metal)    S(lipo)     H(rot)  DE(clash)    DE(int)     intcor
     16.76     -17.15       2.22        0.00      75.16       1.78       0.03       0.35       ----

> <Gold.Chemscore.Fitness>
16.7633

> <Gold.Chemscore.DG>
-17.1472

> <Gold.Chemscore.ZeroCoef>
-5.4800

> <Gold.Chemscore.Hbond>
2.2215

> <Gold.Chemscore.Metal>
0.0000

> <Gold.Chemscore.Lipo>
75.1583

> <Gold.Chemscore.Internal_Hbond>
0.0000

> <Gold.Chemscore.DEClash>
0.0310

> <Gold.Chemscore.DEInternal>
0.3529

> <Gold.Chemscore.Rot>
1.7759

> <Gold.Chemscore.Internal.Correction>
   9.000000E+99

> <Gold.Chemscore.Hbonds>
donor molecule, donor type, donor heavy atom, donor atom, acceptor molecule, acceptor atom, score
      L1  H    12    38       P1  8028  0.94
      L1  H    18    45       P1  8029  0.21
      P1  H  7989  7998       L1     9  0.16

> <Gold.Chemscore.Hbond.Weighted>
-7.4198

> <Gold.Chemscore.Metal.Weighted>
-0.0000

> <Gold.Chemscore.Lipo.Weighted>
-8.7935

> <Gold.Chemscore.Internal_Hbond.Weighted>
0.0000

> <Gold.Chemscore.DEClash.Weighted>
0.0310

> <Gold.Chemscore.DEInternal.Weighted>
0.3529

> <Gold.Chemscore.Rot.Weighted>
4.5462

> <Gold.Chemscore.Internal.Correction.Weighted>
   9.000000E+99

> <Gold.Protein.RotatedTorsions>
[ 6907 6896 6895 6894 ] final  -45.13 input  -60.11 | X-H torsion
[ 7974 7965 7964 7962 ] final  -57.17 input  175.53 | X-H torsion
[ 8008 7997 7996 7995 ] final -109.86 input   59.86 | X-H torsion
[ 10167 10162 10161 10158 ] final   11.13 input  -65.29 | X-H torsion
[ 10718 10713 10712 10709 ] final   26.40 input   66.30 | X-H torsion
[ 10763 10752 10751 10750 ] final   43.00 input  -60.55 | X-H torsion
[ 11005 11000 10999 10996 ] final -163.35 input  -57.11 | X-H torsion

> <Gold.Protein.ActiveResidues>
 VAL166  LYS551  ARG553  GLY616  TRP617  ASP618  TYR619  PRO620  LYS621  CYS622 
 ASP623  PHE694  ASN695  SER759  ASP760  ASP761  ALA762  ILE779  LEU786  VAL792 
 PHE793  MET794  SER795  GLU796  ALA797  LYS798  CYS799  TRP800  GLU811  SER814 

> <Gold.Protein.RotatedAtoms>
  150.9253  134.8670  159.7515 H   0  0  0  0  0  0  0  0  0  0  0  0  # atno 6907 bound_to 6896
  152.5012  134.4158  159.9474 H   0  0  0  0  0  0  0  0  0  0  0  0  # atno 6908 bound_to 6896
  151.4189  133.3664  159.2788 H   0  0  0  0  0  0  0  0  0  0  0  0  # atno 6909 bound_to 6896
  145.8542  140.8331  142.9970 H   0  0  0  0  0  0  0  0  0  0  0  0  # atno 7974 bound_to 7965
  154.9658  140.0398  157.2211 H   0  0  0  0  0  0  0  0  0  0  0  0  # atno 8008 bound_to 7997
  154.7847  140.2825  155.6015 H   0  0  0  0  0  0  0  0  0  0  0  0  # atno 8009 bound_to 7997
  156.2941  140.2585  156.2680 H   0  0  0  0  0  0  0  0  0  0  0  0  # atno 8010 bound_to 7997
  140.6151  143.8325  150.7109 H   0  0  0  0  0  0  0  0  0  0  0  0  # atno 10167 bound_to 10162
  157.2063  130.6913  149.6209 H   0  0  0  0  0  0  0  0  0  0  0  0  # atno 10718 bound_to 10713
  152.9870  135.6115  154.3040 H   0  0  0  0  0  0  0  0  0  0  0  0  # atno 10763 bound_to 10752
  154.2759  135.2778  155.2720 H   0  0  0  0  0  0  0  0  0  0  0  0  # atno 10764 bound_to 10752
  154.5081  135.5848  153.6640 H   0  0  0  0  0  0  0  0  0  0  0  0  # atno 10765 bound_to 10752
  140.5991  134.4966  157.5203 H   0  0  0  0  0  0  0  0  0  0  0  0  # atno 11005 bound_to 11000
  144.6728  140.0999  143.7461 LP  0  0  0  0  0  0  0  0  0  0  0  0  # atno 17320 bound_to 7965
  145.9322  139.2614  143.1318 LP  0  0  0  0  0  0  0  0  0  0  0  0  # atno 17321 bound_to 7965
  140.1902  143.4042  152.1869 LP  0  0  0  0  0  0  0  0  0  0  0  0  # atno 17342 bound_to 10162
  139.5392  144.7240  151.4790 LP  0  0  0  0  0  0  0  0  0  0  0  0  # atno 17343 bound_to 10162
  155.9695  130.4566  150.5931 LP  0  0  0  0  0  0  0  0  0  0  0  0  # atno 17370 bound_to 10713
  157.3717  131.0766  151.1552 LP  0  0  0  0  0  0  0  0  0  0  0  0  # atno 17371 bound_to 10713
  139.9240  134.8092  156.1124 LP  0  0  0  0  0  0  0  0  0  0  0  0  # atno 17394 bound_to 11000
  141.0884  133.6724  156.2487 LP  0  0  0  0  0  0  0  0  0  0  0  0  # atno 17395 bound_to 11000

$$$$
