AV-unprocessed.smi:1420|AV-procd|sdf|5786|dock2
  -GOLD-   22720 5433D 1   1.00000     0.00000
 Structure written by MMmdl.
 38 39  0  0  0  0  0  0  0  0  1 V2000
  151.2376  142.5315  157.3653 C   0  0  0  0  0  0  0  0  0  0  0  0
  152.1440  141.4946  158.0784 C   0  0  2  0  0  0  0  0  0  0  0  0
  151.3181  140.2012  158.3406 C   0  0  0  0  0  0  0  0  0  0  0  0
  150.8114  139.5896  157.1166 N   0  0  0  0  0  0  0  0  0  0  0  0
  151.5288  139.3859  156.0012 C   0  0  0  0  0  0  0  0  0  0  0  0
  152.7320  139.6296  155.9114 O   0  0  0  0  0  0  0  0  0  0  0  0
  150.7627  138.8503  154.7921 C   0  0  0  0  0  0  0  0  0  0  0  0
  149.6978  139.7633  154.4183 N   0  0  0  0  0  0  0  0  0  0  0  0
  148.5924  139.5131  153.6319 C   0  0  0  0  0  0  0  0  0  0  0  0
  147.8853  140.6777  153.5425 C   0  0  0  0  0  0  0  0  0  0  0  0
  148.6477  141.5967  154.3165 C   0  0  0  0  0  0  0  0  0  0  0  0
  149.7313  141.0469  154.8407 N   0  0  0  0  0  0  0  0  0  0  0  0
  152.7854  142.0342  159.3000 N   0  0  0  0  0  0  0  0  0  0  0  0
  153.2993  140.9788  160.1809 C   0  0  0  0  0  0  0  0  0  0  0  0
  153.9404  141.5314  161.4653 C   0  0  0  0  0  0  0  0  0  0  0  0
  152.9967  142.3303  162.1650 O   0  0  0  0  0  0  0  0  0  0  0  0
  152.5291  143.4148  161.3753 C   0  0  0  0  0  0  0  0  0  0  0  0
  151.8792  142.8783  160.0880 C   0  0  0  0  0  0  0  0  0  0  0  0
  150.7345  142.1170  156.4924 H   0  0  0  0  0  0  0  0  0  0  0  0
  151.8027  143.3810  156.9846 H   0  0  0  0  0  0  0  0  0  0  0  0
  150.4678  142.9107  158.0379 H   0  0  0  0  0  0  0  0  0  0  0  0
  152.9364  141.2329  157.3752 H   0  0  0  0  0  0  0  0  0  0  0  0
  151.8982  139.4392  158.8592 H   0  0  0  0  0  0  0  0  0  0  0  0
  150.4669  140.4298  158.9828 H   0  0  0  0  0  0  0  0  0  0  0  0
  149.8278  139.3609  157.0949 H   0  0  0  0  0  0  0  0  0  0  0  0
  151.4387  138.7307  153.9446 H   0  0  0  0  0  0  0  0  0  0  0  0
  150.3421  137.8671  155.0104 H   0  0  0  0  0  0  0  0  0  0  0  0
  148.4061  138.5391  153.2037 H   0  0  0  0  0  0  0  0  0  0  0  0
  146.9649  140.8475  153.0041 H   0  0  0  0  0  0  0  0  0  0  0  0
  148.4476  142.6400  154.5112 H   0  0  0  0  0  0  0  0  0  0  0  0
  152.4941  140.2911  160.4444 H   0  0  0  0  0  0  0  0  0  0  0  0
  154.0636  140.3933  159.6728 H   0  0  0  0  0  0  0  0  0  0  0  0
  154.2619  140.7135  162.1102 H   0  0  0  0  0  0  0  0  0  0  0  0
  154.8274  142.1220  161.2312 H   0  0  0  0  0  0  0  0  0  0  0  0
  151.8055  143.9896  161.9537 H   0  0  0  0  0  0  0  0  0  0  0  0
  153.3557  144.0867  161.1394 H   0  0  0  0  0  0  0  0  0  0  0  0
  151.5589  143.7448  159.5136 H   0  0  0  0  0  0  0  0  0  0  0  0
  150.9794  142.3167  160.3439 H   0  0  0  0  0  0  0  0  0  0  0  0
  1  2  1  0  0  0  0
  1 19  1  0  0  0  0
  1 20  1  0  0  0  0
  1 21  1  0  0  0  0
  2  3  1  0  0  0  0
  2 13  1  0  0  0  0
  2 22  1  0  0  0  0
  3  4  1  0  0  0  0
  3 23  1  0  0  0  0
  3 24  1  0  0  0  0
  4  5  1  0  0  0  0
  4 25  1  0  0  0  0
  5  6  2  0  0  0  0
  5  7  1  0  0  0  0
  7  8  1  0  0  0  0
  7 26  1  0  0  0  0
  7 27  1  0  0  0  0
  8 12  1  0  0  0  0
  8  9  1  0  0  0  0
  9 10  2  0  0  0  0
  9 28  1  0  0  0  0
 10 11  1  0  0  0  0
 10 29  1  0  0  0  0
 11 12  2  0  0  0  0
 11 30  1  0  0  0  0
 13 18  1  0  0  0  0
 13 14  1  0  0  0  0
 14 15  1  0  0  0  0
 14 31  1  0  0  0  0
 14 32  1  0  0  0  0
 15 16  1  0  0  0  0
 15 33  1  0  0  0  0
 15 34  1  0  0  0  0
 16 17  1  0  0  0  0
 17 18  1  0  0  0  0
 17 35  1  0  0  0  0
 17 36  1  0  0  0  0
 18 37  1  0  0  0  0
 18 38  1  0  0  0  0
M  END
> <s_m_source_file>
AV-unprocessed.smi

> <i_m_source_file_index>
1420

> <i_lp_mmshare_version>
43012

> <i_f3d_flags>
0

> <s_epik_input>
W0NIMl0xW0NIMl1PW0NIMl1bQ0gyXU4xW0NASF0oW0NIM10pW0NIMl1bTkhdQyg9TylbQ0gyXW4yW2NIXVtjSF1bY0hdbjI=

> <s_epik_cmdline>
J2VwaWtfcHl0aG9uJywgJy1waCcsICc3LjAnLCAnLXRuJywgJzgnLCAnLW1hJywgJzIwMCcsICctbWV0YWxfYmluZGluZycsICctaW1hZScsICc8aW5maWxlLm1hZT4nLCAnLW9tYWUnLCAnPG91dGZpbGUubWFlPic=

> <r_lp_tautomer_probability>
1

> <r_epik_Ionization_Penalty>
0.196927

> <r_epik_Ionization_Penalty_Charging>
0

> <r_epik_Ionization_Penalty_Neutral>
0.196927

> <r_epik_State_Penalty>
0.186684

> <r_epik_Charging_Adjusted_Penalty>
0.186684

> <i_epik_Tot_Q>
0

> <i_epik_Tot_abs_Q>
0

> <r_epik_Metal_State_Penalty>
0.186682

> <b_epik_Metal_Only>
0

> <s_lp_Force_Field>
OPLS_2005

> <r_lp_Energy>
27.7246

> <b_lp_Chiralities_Consistent>
1

> <s_lp_Variant>
AV-unprocessed.smi:1420-1

> <Gold.Version>
5.8.1

> <Gold.Id.Protein>
6NUR|6NUR_protein|mol2

> <Gold.PLP.Fitness>
43.0924

> <Gold.PLP.PLP>
-35.6667

> <Gold.PLP.part.hbond>
-1.9898

> <Gold.PLP.part.metal>
0.0000

> <Gold.PLP.part.buried>
0.1325

> <Gold.PLP.part.nonpolar>
-32.3571

> <Gold.PLP.part.repulsive>
0.2101

> <Gold.PLP.ligand.clash>
0.0000

> <Gold.PLP.ligand.torsion>
0.7459

> <Gold.PLP.Chemscore.Hbond>
1.0000

> <Gold.PLP.Chemscore.CHOScore>
1.9497

> <Gold.PLP.Chemscore.Metal>
0.0000

> <Gold.Chemscore.Hbonds>
donor molecule, donor type, donor heavy atom, donor atom, acceptor molecule, acceptor atom, score
      P1  H  7997  8008       L1     6  1.00
      L1  C     9    28       P1  7948  0.57
      L1  C    11    30       P1  8028  1.00

> <Gold.PLP.Chemscore.Internal.Correction>
0.0684

> <Gold.Rescore>
     Score         DG    S(hbond)    S(metal)    S(lipo)     H(rot)  DE(clash)    DE(int)     intcor
     11.56     -14.69       1.00        0.00      91.04       1.87       0.23       2.90       ----

> <Gold.Chemscore.Fitness>
11.5551

> <Gold.Chemscore.DG>
-14.6927

> <Gold.Chemscore.ZeroCoef>
-5.4800

> <Gold.Chemscore.Hbond>
1.0000

> <Gold.Chemscore.Metal>
0.0000

> <Gold.Chemscore.Lipo>
91.0421

> <Gold.Chemscore.Internal_Hbond>
0.0000

> <Gold.Chemscore.DEClash>
0.2332

> <Gold.Chemscore.DEInternal>
2.9044

> <Gold.Chemscore.Rot>
1.8669

> <Gold.Chemscore.Internal.Correction>
   9.000000E+99

> <Gold.Chemscore.Hbonds>
donor molecule, donor type, donor heavy atom, donor atom, acceptor molecule, acceptor atom, score
      P1  H  7997  8008       L1     6  1.00

> <Gold.Chemscore.Hbond.Weighted>
-3.3400

> <Gold.Chemscore.Metal.Weighted>
-0.0000

> <Gold.Chemscore.Lipo.Weighted>
-10.6519

> <Gold.Chemscore.Internal_Hbond.Weighted>
0.0000

> <Gold.Chemscore.DEClash.Weighted>
0.2332

> <Gold.Chemscore.DEInternal.Weighted>
2.9044

> <Gold.Chemscore.Rot.Weighted>
4.7792

> <Gold.Chemscore.Internal.Correction.Weighted>
   9.000000E+99

> <Gold.Protein.RotatedTorsions>
[ 6907 6896 6895 6894 ] final  -41.97 input  -60.11 | X-H torsion
[ 7974 7965 7964 7962 ] final -168.17 input  175.53 | X-H torsion
[ 8008 7997 7996 7995 ] final  -40.55 input   59.86 | X-H torsion
[ 10167 10162 10161 10158 ] final   80.60 input  -65.29 | X-H torsion
[ 10718 10713 10712 10709 ] final -147.66 input   66.30 | X-H torsion
[ 10763 10752 10751 10750 ] final  -66.50 input  -60.55 | X-H torsion
[ 11005 11000 10999 10996 ] final   -9.58 input  -57.11 | X-H torsion

> <Gold.Protein.ActiveResidues>
 VAL166  LYS551  ARG553  GLY616  TRP617  ASP618  TYR619  PRO620  LYS621  CYS622 
 ASP623  PHE694  ASN695  SER759  ASP760  ASP761  ALA762  ILE779  LEU786  VAL792 
 PHE793  MET794  SER795  GLU796  ALA797  LYS798  CYS799  TRP800  GLU811  SER814 

> <Gold.Protein.RotatedAtoms>
  150.9606  134.8995  159.7728 H   0  0  0  0  0  0  0  0  0  0  0  0  # atno 6907 bound_to 6896
  152.5155  134.3678  159.9317 H   0  0  0  0  0  0  0  0  0  0  0  0  # atno 6908 bound_to 6896
  151.3690  133.3821  159.2732 H   0  0  0  0  0  0  0  0  0  0  0  0  # atno 6909 bound_to 6896
  144.7208  140.2410  143.6291 H   0  0  0  0  0  0  0  0  0  0  0  0  # atno 7974 bound_to 7965
  154.4011  140.1522  156.3046 H   0  0  0  0  0  0  0  0  0  0  0  0  # atno 8008 bound_to 7997
  155.8670  140.3450  155.5773 H   0  0  0  0  0  0  0  0  0  0  0  0  # atno 8009 bound_to 7997
  155.7817  140.0844  157.2046 H   0  0  0  0  0  0  0  0  0  0  0  0  # atno 8010 bound_to 7997
  139.9480  144.6045  150.8188 H   0  0  0  0  0  0  0  0  0  0  0  0  # atno 10167 bound_to 10162
  156.4104  130.7978  151.2195 H   0  0  0  0  0  0  0  0  0  0  0  0  # atno 10718 bound_to 10713
  154.3607  135.6116  153.5689 H   0  0  0  0  0  0  0  0  0  0  0  0  # atno 10763 bound_to 10752
  152.9794  135.5814  154.4636 H   0  0  0  0  0  0  0  0  0  0  0  0  # atno 10764 bound_to 10752
  154.4373  135.2849  155.1849 H   0  0  0  0  0  0  0  0  0  0  0  0  # atno 10765 bound_to 10752
  140.7356  133.8712  155.8927 H   0  0  0  0  0  0  0  0  0  0  0  0  # atno 11005 bound_to 11000
  145.8319  139.2090  143.1878 LP  0  0  0  0  0  0  0  0  0  0  0  0  # atno 17320 bound_to 7965
  146.0423  140.8152  142.9822 LP  0  0  0  0  0  0  0  0  0  0  0  0  # atno 17321 bound_to 7965
  140.7591  143.3122  151.2818 LP  0  0  0  0  0  0  0  0  0  0  0  0  # atno 17342 bound_to 10162
  139.6651  144.0120  152.2717 LP  0  0  0  0  0  0  0  0  0  0  0  0  # atno 17343 bound_to 10162
  157.7507  131.0259  150.3940 LP  0  0  0  0  0  0  0  0  0  0  0  0  # atno 17370 bound_to 10713
  156.4237  130.3958  149.6807 LP  0  0  0  0  0  0  0  0  0  0  0  0  # atno 17371 bound_to 10713
  140.9882  134.1314  157.4432 LP  0  0  0  0  0  0  0  0  0  0  0  0  # atno 17394 bound_to 11000
  139.8817  135.0032  156.6173 LP  0  0  0  0  0  0  0  0  0  0  0  0  # atno 17395 bound_to 11000

$$$$
