AV-unprocessed.smi:2532|AV-procd|sdf|9969|dock6
  -GOLD-   2272014 13D 1   1.00000     0.00000
 Structure written by MMmdl.
 36 38  0  0  0  0  0  0  0  0  1 V2000
  151.9503  137.1716  159.8877 O   0  0  0  0  0  0  0  0  0  0  0  0
  151.5395  138.1693  158.9729 C   0  0  1  0  0  0  0  0  0  0  0  0
  150.0501  137.9588  158.6564 C   0  0  0  0  0  0  0  0  0  0  0  0
  149.3717  137.5769  159.8414 O   0  0  0  0  0  0  0  0  0  0  0  0
  148.4436  136.5259  159.6262 C   0  0  0  0  0  0  0  0  0  0  0  0
  147.7968  136.2113  160.9372 C   0  0  0  0  0  0  0  0  0  0  0  0
  147.7293  137.0251  162.0396 C   0  0  0  0  0  0  0  0  0  0  0  0
  147.0225  136.4395  163.1306 C   0  0  0  0  0  0  0  0  0  0  0  0
  146.5504  135.1860  162.8459 C   0  0  0  0  0  0  0  0  0  0  0  0
  146.9654  134.6997  161.2249 S   0  0  0  0  0  0  0  0  0  0  0  0
  151.8036  139.5553  159.5927 C   0  0  0  0  0  0  0  0  0  0  0  0
  151.5611  140.6409  158.6584 N   0  0  0  0  0  0  0  0  0  0  0  0
  150.9659  140.5525  157.4534 C   0  0  0  0  0  0  0  0  0  0  0  0
  150.8386  141.6756  156.7524 N   0  0  0  0  0  0  0  0  0  0  0  0
  151.4175  142.6026  157.6022 C   0  0  0  0  0  0  0  0  0  0  0  0
  151.6023  143.9956  157.4509 C   0  0  0  0  0  0  0  0  0  0  0  0
  152.2292  144.7475  158.4663 C   0  0  0  0  0  0  0  0  0  0  0  0
  152.6816  144.1200  159.6451 C   0  0  0  0  0  0  0  0  0  0  0  0
  152.5091  142.7332  159.8184 C   0  0  0  0  0  0  0  0  0  0  0  0
  151.8810  141.9867  158.8041 C   0  0  0  0  0  0  0  0  0  0  0  0
  152.8799  137.0359  159.7850 H   0  0  0  0  0  0  0  0  0  0  0  0
  152.1252  138.0731  158.0574 H   0  0  0  0  0  0  0  0  0  0  0  0
  149.6103  138.8543  158.2135 H   0  0  0  0  0  0  0  0  0  0  0  0
  149.9395  137.1527  157.9292 H   0  0  0  0  0  0  0  0  0  0  0  0
  147.6919  136.8277  158.8951 H   0  0  0  0  0  0  0  0  0  0  0  0
  148.9507  135.6403  159.2409 H   0  0  0  0  0  0  0  0  0  0  0  0
  148.1610  138.0132  162.1005 H   0  0  0  0  0  0  0  0  0  0  0  0
  146.8854  136.9519  164.0717 H   0  0  0  0  0  0  0  0  0  0  0  0
  145.9853  134.5229  163.4839 H   0  0  0  0  0  0  0  0  0  0  0  0
  151.1606  139.7074  160.4606 H   0  0  0  0  0  0  0  0  0  0  0  0
  152.8310  139.6236  159.9526 H   0  0  0  0  0  0  0  0  0  0  0  0
  150.6071  139.6089  157.0687 H   0  0  0  0  0  0  0  0  0  0  0  0
  151.2611  144.4865  156.5516 H   0  0  0  0  0  0  0  0  0  0  0  0
  152.3640  145.8117  158.3396 H   0  0  0  0  0  0  0  0  0  0  0  0
  153.1616  144.7041  160.4167 H   0  0  0  0  0  0  0  0  0  0  0  0
  152.8567  142.2491  160.7192 H   0  0  0  0  0  0  0  0  0  0  0  0
  1  2  1  0  0  0  0
  1 21  1  0  0  0  0
  2  3  1  0  0  0  0
  2 11  1  0  0  0  0
  2 22  1  0  0  0  0
  3  4  1  0  0  0  0
  3 23  1  0  0  0  0
  3 24  1  0  0  0  0
  4  5  1  0  0  0  0
  5  6  1  0  0  0  0
  5 25  1  0  0  0  0
  5 26  1  0  0  0  0
  6 10  1  0  0  0  0
  6  7  2  0  0  0  0
  7  8  1  0  0  0  0
  7 27  1  0  0  0  0
  8  9  2  0  0  0  0
  8 28  1  0  0  0  0
  9 10  1  0  0  0  0
  9 29  1  0  0  0  0
 11 12  1  0  0  0  0
 11 30  1  0  0  0  0
 11 31  1  0  0  0  0
 12 20  1  0  0  0  0
 12 13  1  0  0  0  0
 13 14  2  0  0  0  0
 13 32  1  0  0  0  0
 14 15  1  0  0  0  0
 15 20  2  0  0  0  0
 15 16  1  0  0  0  0
 16 17  2  0  0  0  0
 16 33  1  0  0  0  0
 17 18  1  0  0  0  0
 17 34  1  0  0  0  0
 18 19  2  0  0  0  0
 18 35  1  0  0  0  0
 19 20  1  0  0  0  0
 19 36  1  0  0  0  0
M  END
> <s_m_source_file>
AV-unprocessed.smi

> <i_m_source_file_index>
2532

> <i_lp_mmshare_version>
43012

> <i_f3d_flags>
0

> <s_epik_input>
W2NIXTFbY0hdW2NIXVtjSF1jKGMxMiluKFtjSF1uMilbQ0gyXVtDQEhdKFtPSF0pW0NIMl1PW0NIMl1jM1tjSF1bY0hdW2NIXXMz

> <s_epik_cmdline>
J2VwaWtfcHl0aG9uJywgJy1waCcsICc3LjAnLCAnLXRuJywgJzgnLCAnLW1hJywgJzIwMCcsICctbWV0YWxfYmluZGluZycsICctaW1hZScsICc8aW5maWxlLm1hZT4nLCAnLW9tYWUnLCAnPG91dGZpbGUubWFlPic=

> <r_epik_Ionization_Penalty>
0.0678455

> <r_epik_Ionization_Penalty_Charging>
0

> <r_epik_Ionization_Penalty_Neutral>
0.0678455

> <r_epik_State_Penalty>
0.0593261

> <r_epik_Charging_Adjusted_Penalty>
0.0593261

> <i_epik_Tot_Q>
0

> <i_epik_Tot_abs_Q>
0

> <r_epik_Metal_State_Penalty>
6.23947e-05

> <b_epik_Metal_Only>
0

> <s_lp_Force_Field>
OPLS_2005

> <r_lp_Energy>
10.0551

> <b_lp_Chiralities_Consistent>
1

> <s_lp_Variant>
AV-unprocessed.smi:2532-2

> <Gold.Version>
5.8.1

> <Gold.Id.Protein>
6NUR|6NUR_protein|mol2

> <Gold.PLP.Fitness>
48.7243

> <Gold.PLP.PLP>
-47.4671

> <Gold.PLP.part.hbond>
-1.7898

> <Gold.PLP.part.metal>
0.0000

> <Gold.PLP.part.buried>
-4.5521

> <Gold.PLP.part.nonpolar>
-41.5937

> <Gold.PLP.part.repulsive>
0.0639

> <Gold.PLP.ligand.clash>
0.0000

> <Gold.PLP.ligand.torsion>
0.9095

> <Gold.PLP.Chemscore.Hbond>
1.0000

> <Gold.PLP.Chemscore.CHOScore>
0.0000

> <Gold.PLP.Chemscore.Metal>
0.0000

> <Gold.Chemscore.Hbonds>
donor molecule, donor type, donor heavy atom, donor atom, acceptor molecule, acceptor atom, score
      P1  H  6896  6908       L1     1  0.40
      P1  H  6931  6943       L1     4  0.13

> <Gold.PLP.Chemscore.Internal.Correction>
0.0763

> <Gold.Rescore>
     Score         DG    S(hbond)    S(metal)    S(lipo)     H(rot)  DE(clash)    DE(int)     intcor
     15.49     -17.12       0.80        0.00     128.35       2.36       1.38       0.26       ----

> <Gold.Chemscore.Fitness>
15.4870

> <Gold.Chemscore.DG>
-17.1229

> <Gold.Chemscore.ZeroCoef>
-5.4800

> <Gold.Chemscore.Hbond>
0.8001

> <Gold.Chemscore.Metal>
0.0000

> <Gold.Chemscore.Lipo>
128.3539

> <Gold.Chemscore.Internal_Hbond>
0.0000

> <Gold.Chemscore.DEClash>
1.3795

> <Gold.Chemscore.DEInternal>
0.2564

> <Gold.Chemscore.Rot>
2.3620

> <Gold.Chemscore.Internal.Correction>
   9.000000E+99

> <Gold.Chemscore.Hbonds>
donor molecule, donor type, donor heavy atom, donor atom, acceptor molecule, acceptor atom, score
      P1  H  6896  6908       L1     1  0.01
      P1  H  6931  6943       L1     4  0.08

> <Gold.Chemscore.Hbond.Weighted>
-2.6723

> <Gold.Chemscore.Metal.Weighted>
-0.0000

> <Gold.Chemscore.Lipo.Weighted>
-15.0174

> <Gold.Chemscore.Internal_Hbond.Weighted>
0.0000

> <Gold.Chemscore.DEClash.Weighted>
1.3795

> <Gold.Chemscore.DEInternal.Weighted>
0.2564

> <Gold.Chemscore.Rot.Weighted>
6.0468

> <Gold.Chemscore.Internal.Correction.Weighted>
   9.000000E+99

> <Gold.Protein.RotatedTorsions>
[ 6907 6896 6895 6894 ] final -110.74 input  -60.11 | X-H torsion
[ 7974 7965 7964 7962 ] final  157.62 input  175.53 | X-H torsion
[ 8008 7997 7996 7995 ] final -159.17 input   59.86 | X-H torsion
[ 10167 10162 10161 10158 ] final  107.77 input  -65.29 | X-H torsion
[ 10718 10713 10712 10709 ] final  179.20 input   66.30 | X-H torsion
[ 10763 10752 10751 10750 ] final  157.83 input  -60.55 | X-H torsion
[ 11005 11000 10999 10996 ] final   46.48 input  -57.11 | X-H torsion

> <Gold.Protein.ActiveResidues>
 VAL166  LYS551  ARG553  GLY616  TRP617  ASP618  TYR619  PRO620  LYS621  CYS622 
 ASP623  PHE694  ASN695  SER759  ASP760  ASP761  ALA762  ILE779  LEU786  VAL792 
 PHE793  MET794  SER795  GLU796  ALA797  LYS798  CYS799  TRP800  GLU811  SER814 

> <Gold.Protein.RotatedAtoms>
  150.7644  133.9337  159.3434 H   0  0  0  0  0  0  0  0  0  0  0  0  # atno 6907 bound_to 6896
  151.7238  135.0887  160.0298 H   0  0  0  0  0  0  0  0  0  0  0  0  # atno 6908 bound_to 6896
  152.3633  133.6287  159.6067 H   0  0  0  0  0  0  0  0  0  0  0  0  # atno 6909 bound_to 6896
  144.7893  139.7365  143.6228 H   0  0  0  0  0  0  0  0  0  0  0  0  # atno 7974 bound_to 7965
  155.7586  140.0836  157.2166 H   0  0  0  0  0  0  0  0  0  0  0  0  # atno 8008 bound_to 7997
  154.4005  140.1547  156.2863 H   0  0  0  0  0  0  0  0  0  0  0  0  # atno 8009 bound_to 7997
  155.8861  140.3418  155.5925 H   0  0  0  0  0  0  0  0  0  0  0  0  # atno 8010 bound_to 7997
  139.6900  144.7109  151.1364 H   0  0  0  0  0  0  0  0  0  0  0  0  # atno 10167 bound_to 10162
  156.8793  130.9810  151.3064 H   0  0  0  0  0  0  0  0  0  0  0  0  # atno 10718 bound_to 10713
  154.2064  135.2788  155.2973 H   0  0  0  0  0  0  0  0  0  0  0  0  # atno 10763 bound_to 10752
  154.5813  135.5588  153.7192 H   0  0  0  0  0  0  0  0  0  0  0  0  # atno 10764 bound_to 10752
  153.0075  135.6345  154.2203 H   0  0  0  0  0  0  0  0  0  0  0  0  # atno 10765 bound_to 10752
  140.1365  134.4638  155.8481 H   0  0  0  0  0  0  0  0  0  0  0  0  # atno 11005 bound_to 11000
  146.2138  139.5513  142.9663 LP  0  0  0  0  0  0  0  0  0  0  0  0  # atno 17320 bound_to 7965
  145.5838  141.0379  143.2108 LP  0  0  0  0  0  0  0  0  0  0  0  0  # atno 17321 bound_to 7965
  140.7680  143.5573  150.9138 LP  0  0  0  0  0  0  0  0  0  0  0  0  # atno 17342 bound_to 10162
  139.9250  143.6561  152.3089 LP  0  0  0  0  0  0  0  0  0  0  0  0  # atno 17343 bound_to 10162
  157.6150  130.8611  149.9013 LP  0  0  0  0  0  0  0  0  0  0  0  0  # atno 17370 bound_to 10713
  156.0685  130.3688  150.0825 LP  0  0  0  0  0  0  0  0  0  0  0  0  # atno 17371 bound_to 10713
  141.2179  133.6816  156.7167 LP  0  0  0  0  0  0  0  0  0  0  0  0  # atno 17394 bound_to 11000
  140.2776  134.8343  157.3904 LP  0  0  0  0  0  0  0  0  0  0  0  0  # atno 17395 bound_to 11000

$$$$
