AV-unprocessed.smi:2021|AV-procd|sdf|8176|dock1
  -GOLD-   2272010423D 1   1.00000     0.00000
 Structure written by MMmdl.
 42 43  0  0  0  0  0  0  0  0  2 V2000
  144.7538  133.9882  151.7471 C   0  0  0  0  0  0  0  0  0  0  0  0
  145.8731  133.1925  151.0591 C   0  0  0  0  0  0  0  0  0  0  0  0
  145.3421  132.5090  149.7879 C   0  0  0  0  0  0  0  0  0  0  0  0
  146.4985  132.1771  152.0403 C   0  0  0  0  0  0  0  0  0  0  0  0
  147.8217  131.6666  151.5877 N   0  3  2  0  0  0  0  0  0  0  0  0
  148.0942  130.2705  152.0075 C   0  0  0  0  0  0  0  0  0  0  0  0
  148.5205  130.2083  153.4850 C   0  0  0  0  0  0  0  0  0  0  0  0
  149.6596  131.0367  153.6816 O   0  0  0  0  0  0  0  0  0  0  0  0
  149.3923  132.4072  153.3996 C   0  0  1  0  0  0  0  0  0  0  0  0
  150.6605  133.2218  153.7129 C   0  0  0  0  0  0  0  0  0  0  0  0
  150.4578  134.6521  153.5037 N   0  0  0  0  0  0  0  0  0  0  0  0
  150.9897  135.6205  154.2631 C   0  0  0  0  0  0  0  0  0  0  0  0
  151.7158  135.3958  155.2319 O   0  0  0  0  0  0  0  0  0  0  0  0
  150.6291  136.8398  153.8259 N   0  0  0  0  0  0  0  0  0  0  0  0
  151.0112  138.1070  154.3415 C   0  0  0  0  0  0  0  0  0  0  0  0
  152.2866  138.4772  154.5358 N   0  0  0  0  0  0  0  0  0  0  0  0
  152.3821  139.7668  155.0427 N   0  0  0  0  0  0  0  0  0  0  0  0
  151.1766  140.3183  155.2099 C   0  0  0  0  0  0  0  0  0  0  0  0
  149.8067  139.3160  154.7639 S   0  0  0  0  0  0  0  0  0  0  0  0
  148.9776  132.5406  151.9175 C   0  0  0  0  0  0  0  0  0  0  0  0
  143.9431  133.3349  152.0718 H   0  0  0  0  0  0  0  0  0  0  0  0
  144.3303  134.7348  151.0747 H   0  0  0  0  0  0  0  0  0  0  0  0
  145.1285  134.5152  152.6253 H   0  0  0  0  0  0  0  0  0  0  0  0
  146.6299  133.9165  150.7589 H   0  0  0  0  0  0  0  0  0  0  0  0
  144.5690  131.7770  150.0243 H   0  0  0  0  0  0  0  0  0  0  0  0
  146.1369  131.9924  149.2497 H   0  0  0  0  0  0  0  0  0  0  0  0
  144.9091  133.2381  149.1024 H   0  0  0  0  0  0  0  0  0  0  0  0
  146.5869  132.6148  153.0345 H   0  0  0  0  0  0  0  0  0  0  0  0
  145.8060  131.3409  152.1456 H   0  0  0  0  0  0  0  0  0  0  0  0
  147.2276  129.6341  151.8242 H   0  0  0  0  0  0  0  0  0  0  0  0
  148.8984  129.8762  151.3851 H   0  0  0  0  0  0  0  0  0  0  0  0
  147.7092  130.5146  154.1472 H   0  0  0  0  0  0  0  0  0  0  0  0
  148.7811  129.1853  153.7561 H   0  0  0  0  0  0  0  0  0  0  0  0
  148.5813  132.7556  154.0400 H   0  0  0  0  0  0  0  0  0  0  0  0
  150.9608  133.0643  154.7492 H   0  0  0  0  0  0  0  0  0  0  0  0
  151.4924  132.8805  153.0945 H   0  0  0  0  0  0  0  0  0  0  0  0
  149.8721  134.9206  152.7264 H   0  0  0  0  0  0  0  0  0  0  0  0
  150.0152  136.8665  153.0251 H   0  0  0  0  0  0  0  0  0  0  0  0
  151.0938  141.3230  155.5976 H   0  0  0  0  0  0  0  0  0  0  0  0
  149.8130  132.2442  151.2816 H   0  0  0  0  0  0  0  0  0  0  0  0
  148.7668  133.5800  151.6708 H   0  0  0  0  0  0  0  0  0  0  0  0
  147.7579  131.6415  150.5798 H   0  0  0  0  0  0  0  0  0  0  0  0
  1  2  1  0  0  0  0
  1 21  1  0  0  0  0
  1 22  1  0  0  0  0
  1 23  1  0  0  0  0
  2  3  1  0  0  0  0
  2  4  1  0  0  0  0
  2 24  1  0  0  0  0
  3 25  1  0  0  0  0
  3 26  1  0  0  0  0
  3 27  1  0  0  0  0
  4  5  1  0  0  0  0
  4 28  1  0  0  0  0
  4 29  1  0  0  0  0
  5 20  1  0  0  0  0
  5  6  1  0  0  0  0
  5 42  1  0  0  0  0
  6  7  1  0  0  0  0
  6 30  1  0  0  0  0
  6 31  1  0  0  0  0
  7  8  1  0  0  0  0
  7 32  1  0  0  0  0
  7 33  1  0  0  0  0
  8  9  1  0  0  0  0
  9 10  1  0  0  0  0
  9 20  1  0  0  0  0
  9 34  1  0  0  0  0
 10 11  1  0  0  0  0
 10 35  1  0  0  0  0
 10 36  1  0  0  0  0
 11 12  1  0  0  0  0
 11 37  1  0  0  0  0
 12 13  2  0  0  0  0
 12 14  1  0  0  0  0
 14 15  1  0  0  0  0
 14 38  1  0  0  0  0
 15 19  1  0  0  0  0
 15 16  2  0  0  0  0
 16 17  1  0  0  0  0
 17 18  2  0  0  0  0
 18 19  1  0  0  0  0
 18 39  1  0  0  0  0
 20 40  1  0  0  0  0
 20 41  1  0  0  0  0
M  CHG  1   5   1
M  END
> <s_m_source_file>
AV-unprocessed.smi

> <i_m_source_file_index>
2021

> <i_lp_mmshare_version>
43012

> <i_f3d_flags>
0

> <s_epik_input>
W0NIM11bQ0hdKFtDSDNdKVtDSDJdTjFbQ0gyXVtDSDJdT1tDQEhdKFtDSDJdMSlbQ0gyXVtOSF1DKD1PKVtOSF1jMm5uW2NIXXMy

> <s_epik_cmdline>
J2VwaWtfcHl0aG9uJywgJy1waCcsICc3LjAnLCAnLXRuJywgJzgnLCAnLW1hJywgJzIwMCcsICctbWV0YWxfYmluZGluZycsICctaW1hZScsICc8aW5maWxlLm1hZT4nLCAnLW9tYWUnLCAnPG91dGZpbGUubWFlPic=

> <r_lp_tautomer_probability>
1

> <r_epik_Ionization_Penalty>
0.102019

> <r_epik_Ionization_Penalty_Charging>
0.098413

> <r_epik_Ionization_Penalty_Neutral>
0.00360555

> <r_epik_State_Penalty>
0.0884988

> <r_epik_Charging_Adjusted_Penalty>
0.186912

> <i_epik_Tot_Q>
1

> <i_epik_Tot_abs_Q>
1

> <r_epik_Metal_State_Penalty>
0.454709

> <b_epik_Metal_Only>
0

> <s_lp_Force_Field>
OPLS_2005

> <r_lp_Energy>
18.1157

> <b_lp_Chiralities_Consistent>
1

> <s_lp_Variant>
AV-unprocessed.smi:2021-2

> <Gold.Version>
5.8.1

> <Gold.Id.Protein>
6NUR|6NUR_protein|mol2

> <Gold.PLP.Fitness>
43.6150

> <Gold.PLP.PLP>
-33.3207

> <Gold.PLP.part.hbond>
-4.3019

> <Gold.PLP.part.metal>
0.0000

> <Gold.PLP.part.buried>
-3.1558

> <Gold.PLP.part.nonpolar>
-25.4654

> <Gold.PLP.part.repulsive>
0.1797

> <Gold.PLP.ligand.clash>
0.0000

> <Gold.PLP.ligand.torsion>
1.0860

> <Gold.PLP.Chemscore.Hbond>
3.0960

> <Gold.PLP.Chemscore.CHOScore>
1.0000

> <Gold.PLP.Chemscore.Metal>
0.0000

> <Gold.Chemscore.Hbonds>
donor molecule, donor type, donor heavy atom, donor atom, acceptor molecule, acceptor atom, score
      L1  H    14    38       P1  7948  0.65
      P1  H 10752 10764       L1    13  0.20

> <Gold.PLP.Chemscore.Internal.Correction>
0.1782

> <Gold.Rescore>
     Score         DG    S(hbond)    S(metal)    S(lipo)     H(rot)  DE(clash)    DE(int)     intcor
     16.12     -17.43       2.61        0.00      68.69       1.88       0.01       1.30       ----

> <Gold.Chemscore.Fitness>
16.1234

> <Gold.Chemscore.DG>
-17.4327

> <Gold.Chemscore.ZeroCoef>
-5.4800

> <Gold.Chemscore.Hbond>
2.6144

> <Gold.Chemscore.Metal>
0.0000

> <Gold.Chemscore.Lipo>
68.6886

> <Gold.Chemscore.Internal_Hbond>
0.0000

> <Gold.Chemscore.DEClash>
0.0103

> <Gold.Chemscore.DEInternal>
1.2990

> <Gold.Chemscore.Rot>
1.8812

> <Gold.Chemscore.Internal.Correction>
   9.000000E+99

> <Gold.Chemscore.Hbonds>
donor molecule, donor type, donor heavy atom, donor atom, acceptor molecule, acceptor atom, score
      L1  H     5    42       P1 10747  0.05
      L1  H    14    38       P1  7948  0.06
      P1  H  7997  8010       L1    17  0.04
      P1  H 10752 10764       L1    13  0.01

> <Gold.Chemscore.Hbond.Weighted>
-8.7320

> <Gold.Chemscore.Metal.Weighted>
-0.0000

> <Gold.Chemscore.Lipo.Weighted>
-8.0366

> <Gold.Chemscore.Internal_Hbond.Weighted>
0.0000

> <Gold.Chemscore.DEClash.Weighted>
0.0103

> <Gold.Chemscore.DEInternal.Weighted>
1.2990

> <Gold.Chemscore.Rot.Weighted>
4.8159

> <Gold.Chemscore.Internal.Correction.Weighted>
   9.000000E+99

> <Gold.Protein.RotatedTorsions>
[ 6907 6896 6895 6894 ] final  117.21 input  -60.11 | X-H torsion
[ 7974 7965 7964 7962 ] final  160.68 input  175.53 | X-H torsion
[ 8008 7997 7996 7995 ] final  128.57 input   59.86 | X-H torsion
[ 10167 10162 10161 10158 ] final  121.47 input  -65.29 | X-H torsion
[ 10718 10713 10712 10709 ] final  -76.08 input   66.30 | X-H torsion
[ 10763 10752 10751 10750 ] final  -79.09 input  -60.55 | X-H torsion
[ 11005 11000 10999 10996 ] final  -64.75 input  -57.11 | X-H torsion

> <Gold.Protein.ActiveResidues>
 VAL166  LYS551  ARG553  GLY616  TRP617  ASP618  TYR619  PRO620  LYS621  CYS622 
 ASP623  PHE694  ASN695  SER759  ASP760  ASP761  ALA762  ILE779  LEU786  VAL792 
 PHE793  MET794  SER795  GLU796  ALA797  LYS798  CYS799  TRP800  GLU811  SER814 

> <Gold.Protein.RotatedAtoms>
  152.4627  133.7857  159.6874 H   0  0  0  0  0  0  0  0  0  0  0  0  # atno 6907 bound_to 6896
  150.8578  133.7679  159.3009 H   0  0  0  0  0  0  0  0  0  0  0  0  # atno 6908 bound_to 6896
  151.5254  135.1071  159.9941 H   0  0  0  0  0  0  0  0  0  0  0  0  # atno 6909 bound_to 6896
  144.7724  139.7791  143.6292 H   0  0  0  0  0  0  0  0  0  0  0  0  # atno 7974 bound_to 7965
  156.2918  140.2641  156.2457 H   0  0  0  0  0  0  0  0  0  0  0  0  # atno 8008 bound_to 7997
  154.9932  140.0388  157.2347 H   0  0  0  0  0  0  0  0  0  0  0  0  # atno 8009 bound_to 7997
  154.7667  140.2770  155.6175 H   0  0  0  0  0  0  0  0  0  0  0  0  # atno 8010 bound_to 7997
  139.5917  144.7027  151.3273 H   0  0  0  0  0  0  0  0  0  0  0  0  # atno 10167 bound_to 10162
  156.0186  130.4456  150.3140 H   0  0  0  0  0  0  0  0  0  0  0  0  # atno 10718 bound_to 10713
  154.5342  135.5707  153.6785 H   0  0  0  0  0  0  0  0  0  0  0  0  # atno 10763 bound_to 10752
  152.9947  135.6212  154.2588 H   0  0  0  0  0  0  0  0  0  0  0  0  # atno 10764 bound_to 10752
  154.2516  135.2859  155.2794 H   0  0  0  0  0  0  0  0  0  0  0  0  # atno 10765 bound_to 10752
  141.1434  133.6670  156.5880 H   0  0  0  0  0  0  0  0  0  0  0  0  # atno 11005 bound_to 11000
  146.1881  139.5106  142.9823 LP  0  0  0  0  0  0  0  0  0  0  0  0  # atno 17320 bound_to 7965
  145.6284  141.0309  143.1877 LP  0  0  0  0  0  0  0  0  0  0  0  0  # atno 17321 bound_to 7965
  140.7179  143.7217  150.7691 LP  0  0  0  0  0  0  0  0  0  0  0  0  # atno 17342 bound_to 10162
  140.0774  143.5002  152.2548 LP  0  0  0  0  0  0  0  0  0  0  0  0  # atno 17343 bound_to 10162
  157.1241  131.0254  151.2997 LP  0  0  0  0  0  0  0  0  0  0  0  0  # atno 17370 bound_to 10713
  157.4604  130.7650  149.7231 LP  0  0  0  0  0  0  0  0  0  0  0  0  # atno 17371 bound_to 10713
  140.3785  134.7544  157.4646 LP  0  0  0  0  0  0  0  0  0  0  0  0  # atno 17394 bound_to 11000
  140.0656  134.5935  155.8699 LP  0  0  0  0  0  0  0  0  0  0  0  0  # atno 17395 bound_to 11000

$$$$
