AV-unprocessed.smi:1538|AV-procd|sdf|6192|dock2
  -GOLD-   22720 6353D 1   1.00000     0.00000
 Structure written by MMmdl.
 37 38  0  0  0  0  0  0  0  0  2 V2000
  149.2047  130.4564  158.1212 C   0  0  0  0  0  0  0  0  0  0  0  0
  149.4300  131.1834  156.8706 N   0  0  0  0  0  0  0  0  0  0  0  0
  149.1371  130.4216  155.6503 C   0  0  0  0  0  0  0  0  0  0  0  0
  149.8246  130.9921  154.4026 C   0  0  0  0  0  0  0  0  0  0  0  0
  149.6294  132.5103  154.2804 C   0  0  1  0  0  0  0  0  0  0  0  0
  148.2060  132.8997  153.8434 C   0  0  0  0  0  0  0  0  0  0  0  0
  147.4845  133.5672  154.5850 O   0  0  0  0  0  0  0  0  0  0  0  0
  147.8161  132.4869  152.6283 N   0  0  0  0  0  0  0  0  0  0  0  0
  146.5099  132.7650  152.0484 C   0  0  0  0  0  0  0  0  0  0  0  0
  146.3450  132.0351  150.7087 C   0  0  0  0  0  0  0  0  0  0  0  0
  145.0770  132.3746  150.0604 N   0  0  0  0  0  0  0  0  0  0  0  0
  144.6499  131.9867  148.8165 C   0  0  0  0  0  0  0  0  0  0  0  0
  143.4065  132.5378  148.6412 C   0  0  0  0  0  0  0  0  0  0  0  0
  143.1272  133.2365  149.7852 N   0  3  0  0  0  0  0  0  0  0  0  0
  144.1443  133.1359  150.6474 C   0  0  0  0  0  0  0  0  0  0  0  0
  150.0616  133.2392  155.5735 C   0  0  0  0  0  0  0  0  0  0  0  0
  149.8259  132.4791  156.8929 C   0  0  0  0  0  0  0  0  0  0  0  0
  150.0255  133.0862  157.9454 O   0  0  0  0  0  0  0  0  0  0  0  0
  148.5345  131.0105  158.7799 H   0  0  0  0  0  0  0  0  0  0  0  0
  150.1482  130.3014  158.6462 H   0  0  0  0  0  0  0  0  0  0  0  0
  148.7526  129.4779  157.9540 H   0  0  0  0  0  0  0  0  0  0  0  0
  149.4480  129.3834  155.7751 H   0  0  0  0  0  0  0  0  0  0  0  0
  148.0558  130.4018  155.5104 H   0  0  0  0  0  0  0  0  0  0  0  0
  150.8928  130.7769  154.4550 H   0  0  0  0  0  0  0  0  0  0  0  0
  149.4585  130.4823  153.5105 H   0  0  0  0  0  0  0  0  0  0  0  0
  150.2994  132.8510  153.4888 H   0  0  0  0  0  0  0  0  0  0  0  0
  148.4653  131.9467  152.0743 H   0  0  0  0  0  0  0  0  0  0  0  0
  145.7318  132.4498  152.7457 H   0  0  0  0  0  0  0  0  0  0  0  0
  146.3991  133.8413  151.9055 H   0  0  0  0  0  0  0  0  0  0  0  0
  147.1572  132.2870  150.0248 H   0  0  0  0  0  0  0  0  0  0  0  0
  146.3679  130.9538  150.8527 H   0  0  0  0  0  0  0  0  0  0  0  0
  145.2460  131.3633  148.1657 H   0  0  0  0  0  0  0  0  0  0  0  0
  142.7178  132.4855  147.8105 H   0  0  0  0  0  0  0  0  0  0  0  0
  144.1994  133.5808  151.6250 H   0  0  0  0  0  0  0  0  0  0  0  0
  151.1325  133.4378  155.5166 H   0  0  0  0  0  0  0  0  0  0  0  0
  149.5872  134.2196  155.6447 H   0  0  0  0  0  0  0  0  0  0  0  0
  142.2744  133.7544  149.9570 H   0  0  0  0  0  0  0  0  0  0  0  0
  1  2  1  0  0  0  0
  1 19  1  0  0  0  0
  1 20  1  0  0  0  0
  1 21  1  0  0  0  0
  2 17  1  0  0  0  0
  2  3  1  0  0  0  0
  3  4  1  0  0  0  0
  3 22  1  0  0  0  0
  3 23  1  0  0  0  0
  4  5  1  0  0  0  0
  4 24  1  0  0  0  0
  4 25  1  0  0  0  0
  5  6  1  0  0  0  0
  5 16  1  0  0  0  0
  5 26  1  0  0  0  0
  6  7  2  0  0  0  0
  6  8  1  0  0  0  0
  8  9  1  0  0  0  0
  8 27  1  0  0  0  0
  9 10  1  0  0  0  0
  9 28  1  0  0  0  0
  9 29  1  0  0  0  0
 10 11  1  0  0  0  0
 10 30  1  0  0  0  0
 10 31  1  0  0  0  0
 11 15  1  0  0  0  0
 11 12  1  0  0  0  0
 12 13  2  0  0  0  0
 12 32  1  0  0  0  0
 13 14  1  0  0  0  0
 13 33  1  0  0  0  0
 14 15  2  0  0  0  0
 14 37  1  0  0  0  0
 15 34  1  0  0  0  0
 16 17  1  0  0  0  0
 16 35  1  0  0  0  0
 16 36  1  0  0  0  0
 17 18  2  0  0  0  0
M  CHG  1  14   1
M  END
> <s_m_source_file>
AV-unprocessed.smi

> <i_m_source_file_index>
1538

> <i_lp_mmshare_version>
43012

> <i_f3d_flags>
0

> <s_epik_input>
W0NIM11OMVtDSDJdW0NIMl1bQ0BIXShbQ0gyXUMxPU8pQyg9TylbTkhdW0NIMl1bQ0gyXW4yW2NIXVtjSF1uW2NIXTI=

> <s_epik_cmdline>
J2VwaWtfcHl0aG9uJywgJy1waCcsICc3LjAnLCAnLXRuJywgJzgnLCAnLW1hJywgJzIwMCcsICctbWV0YWxfYmluZGluZycsICctaW1hZScsICc8aW5maWxlLm1hZT4nLCAnLW9tYWUnLCAnPG91dGZpbGUubWFlPic=

> <r_lp_tautomer_probability>
1

> <r_epik_Ionization_Penalty>
0.272873

> <r_epik_Ionization_Penalty_Charging>
0

> <r_epik_Ionization_Penalty_Neutral>
0.272873

> <r_epik_State_Penalty>
0.265096

> <r_epik_Charging_Adjusted_Penalty>
0.265096

> <i_epik_Tot_Q>
1

> <i_epik_Tot_abs_Q>
1

> <r_epik_Metal_State_Penalty>
0.549113

> <b_epik_Metal_Only>
0

> <s_lp_Force_Field>
OPLS_2005

> <r_lp_Energy>
17.3063

> <b_lp_Chiralities_Consistent>
1

> <s_lp_Variant>
AV-unprocessed.smi:1538-1

> <Gold.Version>
5.8.1

> <Gold.Id.Protein>
6NUR|6NUR_protein|mol2

> <Gold.PLP.Fitness>
40.4787

> <Gold.PLP.PLP>
-28.7255

> <Gold.PLP.part.hbond>
-2.8728

> <Gold.PLP.part.metal>
0.0000

> <Gold.PLP.part.buried>
0.3933

> <Gold.PLP.part.nonpolar>
-26.4029

> <Gold.PLP.part.repulsive>
0.1325

> <Gold.PLP.ligand.clash>
0.0000

> <Gold.PLP.ligand.torsion>
0.1468

> <Gold.PLP.Chemscore.Hbond>
3.9920

> <Gold.PLP.Chemscore.CHOScore>
0.0000

> <Gold.PLP.Chemscore.Metal>
0.0000

> <Gold.Chemscore.Hbonds>
donor molecule, donor type, donor heavy atom, donor atom, acceptor molecule, acceptor atom, score
      L1  H     8    27       P1 10747  0.70
      L1  H    14    37       P1 10186  1.79
      P1  H  6896  6908       L1    18  0.86

> <Gold.PLP.Chemscore.Internal.Correction>
0.0708

> <Gold.Rescore>
     Score         DG    S(hbond)    S(metal)    S(lipo)     H(rot)  DE(clash)    DE(int)     intcor
     14.78     -16.59       2.66        0.00      63.89       2.05       1.70       0.11       ----

> <Gold.Chemscore.Fitness>
14.7790

> <Gold.Chemscore.DG>
-16.5930

> <Gold.Chemscore.ZeroCoef>
-5.4800

> <Gold.Chemscore.Hbond>
2.6588

> <Gold.Chemscore.Metal>
0.0000

> <Gold.Chemscore.Lipo>
63.8886

> <Gold.Chemscore.Internal_Hbond>
0.0000

> <Gold.Chemscore.DEClash>
1.7031

> <Gold.Chemscore.DEInternal>
0.1109

> <Gold.Chemscore.Rot>
2.0478

> <Gold.Chemscore.Internal.Correction>
   9.000000E+99

> <Gold.Chemscore.Hbonds>
donor molecule, donor type, donor heavy atom, donor atom, acceptor molecule, acceptor atom, score
      L1  H     8    27       P1 10747  0.66
      L1  H    14    37       P1 10186  0.85
      P1  H  6896  6908       L1    18  0.85

> <Gold.Chemscore.Hbond.Weighted>
-8.8804

> <Gold.Chemscore.Metal.Weighted>
-0.0000

> <Gold.Chemscore.Lipo.Weighted>
-7.4750

> <Gold.Chemscore.Internal_Hbond.Weighted>
0.0000

> <Gold.Chemscore.DEClash.Weighted>
1.7031

> <Gold.Chemscore.DEInternal.Weighted>
0.1109

> <Gold.Chemscore.Rot.Weighted>
5.2423

> <Gold.Chemscore.Internal.Correction.Weighted>
   9.000000E+99

> <Gold.Protein.RotatedTorsions>
[ 6907 6896 6895 6894 ] final   84.15 input  -60.11 | X-H torsion
[ 7974 7965 7964 7962 ] final -123.53 input  175.53 | X-H torsion
[ 8008 7997 7996 7995 ] final  130.38 input   59.86 | X-H torsion
[ 10167 10162 10161 10158 ] final   29.69 input  -65.29 | X-H torsion
[ 10718 10713 10712 10709 ] final   62.06 input   66.30 | X-H torsion
[ 10763 10752 10751 10750 ] final    2.40 input  -60.55 | X-H torsion
[ 11005 11000 10999 10996 ] final -150.77 input  -57.11 | X-H torsion

> <Gold.Protein.ActiveResidues>
 VAL166  LYS551  ARG553  GLY616  TRP617  ASP618  TYR619  PRO620  LYS621  CYS622 
 ASP623  PHE694  ASN695  SER759  ASP760  ASP761  ALA762  ILE779  LEU786  VAL792 
 PHE793  MET794  SER795  GLU796  ALA797  LYS798  CYS799  TRP800  GLU811  SER814 

> <Gold.Protein.RotatedAtoms>
  152.5345  134.2785  159.8998 H   0  0  0  0  0  0  0  0  0  0  0  0  # atno 6907 bound_to 6896
  151.2739  133.4235  159.2630 H   0  0  0  0  0  0  0  0  0  0  0  0  # atno 6908 bound_to 6896
  151.0343  134.9577  159.8184 H   0  0  0  0  0  0  0  0  0  0  0  0  # atno 6909 bound_to 6896
  145.0177  140.7961  143.4400 H   0  0  0  0  0  0  0  0  0  0  0  0  # atno 7974 bound_to 7965
  156.2953  140.2597  156.2753 H   0  0  0  0  0  0  0  0  0  0  0  0  # atno 8008 bound_to 7997
  154.9655  140.0392  157.2228 H   0  0  0  0  0  0  0  0  0  0  0  0  # atno 8009 bound_to 7997
  154.7907  140.2811  155.5998 H   0  0  0  0  0  0  0  0  0  0  0  0  # atno 8010 bound_to 7997
  140.4744  144.0713  150.6246 H   0  0  0  0  0  0  0  0  0  0  0  0  # atno 10167 bound_to 10162
  157.5873  130.9029  149.9539 H   0  0  0  0  0  0  0  0  0  0  0  0  # atno 10718 bound_to 10713
  153.2960  135.6952  153.7248 H   0  0  0  0  0  0  0  0  0  0  0  0  # atno 10763 bound_to 10752
  153.6180  135.3432  155.3002 H   0  0  0  0  0  0  0  0  0  0  0  0  # atno 10764 bound_to 10752
  154.8537  135.4379  154.2057 H   0  0  0  0  0  0  0  0  0  0  0  0  # atno 10765 bound_to 10752
  140.7367  134.3560  157.5156 H   0  0  0  0  0  0  0  0  0  0  0  0  # atno 11005 bound_to 11000
  145.1938  139.2287  143.5229 LP  0  0  0  0  0  0  0  0  0  0  0  0  # atno 17320 bound_to 7965
  146.3480  140.1740  142.8589 LP  0  0  0  0  0  0  0  0  0  0  0  0  # atno 17321 bound_to 7965
  140.3937  143.2739  152.0030 LP  0  0  0  0  0  0  0  0  0  0  0  0  # atno 17342 bound_to 10162
  139.4823  144.6056  151.7527 LP  0  0  0  0  0  0  0  0  0  0  0  0  # atno 17343 bound_to 10162
  156.0924  130.3662  150.0370 LP  0  0  0  0  0  0  0  0  0  0  0  0  # atno 17370 bound_to 10713
  156.8499  130.9455  151.3626 LP  0  0  0  0  0  0  0  0  0  0  0  0  # atno 17371 bound_to 10713
  139.8814  134.9054  156.2899 LP  0  0  0  0  0  0  0  0  0  0  0  0  # atno 17394 bound_to 11000
  140.9873  133.7230  156.0761 LP  0  0  0  0  0  0  0  0  0  0  0  0  # atno 17395 bound_to 11000

$$$$
