AV-unprocessed.smi:2020|AV-procd|sdf|8174|dock2
  -GOLD-   2272010423D 1   1.00000     0.00000
 Structure written by MMmdl.
 40 41  0  0  0  0  0  0  0  0  1 V2000
  145.0585  145.0156  152.7941 C   0  0  0  0  0  0  0  0  0  0  0  0
  145.4606  143.9089  153.7072 C   0  0  0  0  0  0  0  0  0  0  0  0
  146.2034  142.8693  153.3193 N   0  0  0  0  0  0  0  0  0  0  0  0
  146.4527  141.9674  154.3586 C   0  0  0  0  0  0  0  0  0  0  0  0
  147.2760  140.7415  154.1040 C   0  0  0  0  0  0  0  0  0  0  0  0
  148.7747  141.0639  153.9799 C   0  0  0  0  0  0  0  0  0  0  0  0
  149.2086  142.0130  154.9986 N   0  0  0  0  0  0  0  0  0  0  0  0
  150.2747  141.8515  155.7947 C   0  0  0  0  0  0  0  0  0  0  0  0
  151.0206  140.8725  155.7588 O   0  0  0  0  0  0  0  0  0  0  0  0
  150.4269  142.8830  156.6370 N   0  0  0  0  0  0  0  0  0  0  0  0
  151.4879  143.0086  157.6318 C   0  0  2  0  0  0  0  0  0  0  0  0
  151.4868  141.7969  158.5858 C   0  0  0  0  0  0  0  0  0  0  0  0
  152.5586  141.9404  159.6803 C   0  0  0  0  0  0  0  0  0  0  0  0
  152.4237  143.2620  160.4600 C   0  0  2  0  0  0  0  0  0  0  0  0
  151.2637  143.2318  161.2680 O   0  0  0  0  0  0  0  0  0  0  0  0
  152.3750  144.4762  159.5133 C   0  0  0  0  0  0  0  0  0  0  0  0
  151.3056  144.3198  158.4179 C   0  0  0  0  0  0  0  0  0  0  0  0
  145.8819  142.3431  155.5491 C   0  0  0  0  0  0  0  0  0  0  0  0
  145.0122  143.8463  155.4075 S   0  0  0  0  0  0  0  0  0  0  0  0
  144.8416  144.6258  151.7991 H   0  0  0  0  0  0  0  0  0  0  0  0
  145.8641  145.7459  152.7182 H   0  0  0  0  0  0  0  0  0  0  0  0
  144.1671  145.5145  153.1748 H   0  0  0  0  0  0  0  0  0  0  0  0
  147.1263  140.0211  154.9092 H   0  0  0  0  0  0  0  0  0  0  0  0
  146.9283  140.2487  153.1952 H   0  0  0  0  0  0  0  0  0  0  0  0
  149.3706  140.1516  154.0421 H   0  0  0  0  0  0  0  0  0  0  0  0
  148.9795  141.5021  153.0028 H   0  0  0  0  0  0  0  0  0  0  0  0
  148.6571  142.8521  155.1041 H   0  0  0  0  0  0  0  0  0  0  0  0
  149.7599  143.6391  156.5874 H   0  0  0  0  0  0  0  0  0  0  0  0
  152.4499  143.0530  157.1175 H   0  0  0  0  0  0  0  0  0  0  0  0
  150.5044  141.6918  159.0485 H   0  0  0  0  0  0  0  0  0  0  0  0
  151.6617  140.8768  158.0271 H   0  0  0  0  0  0  0  0  0  0  0  0
  152.5142  141.0911  160.3630 H   0  0  0  0  0  0  0  0  0  0  0  0
  153.5439  141.9025  159.2140 H   0  0  0  0  0  0  0  0  0  0  0  0
  153.2761  143.3685  161.1315 H   0  0  0  0  0  0  0  0  0  0  0  0
  150.6946  143.9384  161.0036 H   0  0  0  0  0  0  0  0  0  0  0  0
  152.2001  145.3911  160.0806 H   0  0  0  0  0  0  0  0  0  0  0  0
  153.3500  144.5953  159.0389 H   0  0  0  0  0  0  0  0  0  0  0  0
  151.3533  145.1718  157.7385 H   0  0  0  0  0  0  0  0  0  0  0  0
  150.3141  144.3448  158.8723 H   0  0  0  0  0  0  0  0  0  0  0  0
  145.9216  141.8293  156.4982 H   0  0  0  0  0  0  0  0  0  0  0  0
  1  2  1  0  0  0  0
  1 20  1  0  0  0  0
  1 21  1  0  0  0  0
  1 22  1  0  0  0  0
  2 19  1  0  0  0  0
  2  3  2  0  0  0  0
  3  4  1  0  0  0  0
  4  5  1  0  0  0  0
  4 18  2  0  0  0  0
  5  6  1  0  0  0  0
  5 23  1  0  0  0  0
  5 24  1  0  0  0  0
  6  7  1  0  0  0  0
  6 25  1  0  0  0  0
  6 26  1  0  0  0  0
  7  8  1  0  0  0  0
  7 27  1  0  0  0  0
  8  9  2  0  0  0  0
  8 10  1  0  0  0  0
 10 11  1  0  0  0  0
 10 28  1  0  0  0  0
 11 17  1  0  0  0  0
 11 12  1  0  0  0  0
 11 29  1  0  0  0  0
 12 13  1  0  0  0  0
 12 30  1  0  0  0  0
 12 31  1  0  0  0  0
 13 14  1  0  0  0  0
 13 32  1  0  0  0  0
 13 33  1  0  0  0  0
 14 15  1  0  0  0  0
 14 16  1  0  0  0  0
 14 34  1  0  0  0  0
 15 35  1  0  0  0  0
 16 17  1  0  0  0  0
 16 36  1  0  0  0  0
 16 37  1  0  0  0  0
 17 38  1  0  0  0  0
 17 39  1  0  0  0  0
 18 19  1  0  0  0  0
 18 40  1  0  0  0  0
M  END
> <s_m_source_file>
AV-unprocessed.smi

> <i_m_source_file_index>
2020

> <i_lp_mmshare_version>
43012

> <i_f3d_flags>
0

> <s_epik_input>
W0NIM11jMW5jKFtjSF1zMSlbQ0gyXVtDSDJdW05IXUMoPU8pW05IXVtDQEBIXTJbQ0gyXVtDSDJdW0NAQEhdKFtPSF0pW0NIMl1bQ0gyXTI=

> <s_epik_cmdline>
J2VwaWtfcHl0aG9uJywgJy1waCcsICc3LjAnLCAnLXRuJywgJzgnLCAnLW1hJywgJzIwMCcsICctbWV0YWxfYmluZGluZycsICctaW1hZScsICc8aW5maWxlLm1hZT4nLCAnLW9tYWUnLCAnPG91dGZpbGUubWFlPic=

> <r_epik_Ionization_Penalty>
0.00202099

> <r_epik_Ionization_Penalty_Charging>
0

> <r_epik_Ionization_Penalty_Neutral>
0.00202099

> <r_epik_State_Penalty>
0.00133629

> <r_epik_Charging_Adjusted_Penalty>
0.00133629

> <i_epik_Tot_Q>
0

> <i_epik_Tot_abs_Q>
0

> <r_epik_Metal_State_Penalty>
-0

> <b_epik_Metal_Only>
0

> <s_lp_Force_Field>
OPLS_2005

> <r_lp_Energy>
2.55027

> <b_lp_Chiralities_Consistent>
1

> <s_lp_Variant>
AV-unprocessed.smi:2020-2

> <Gold.Version>
5.8.1

> <Gold.Id.Protein>
6NUR|6NUR_protein|mol2

> <Gold.PLP.Fitness>
51.5624

> <Gold.PLP.PLP>
-45.2371

> <Gold.PLP.part.hbond>
-3.7634

> <Gold.PLP.part.metal>
0.0000

> <Gold.PLP.part.buried>
-4.9702

> <Gold.PLP.part.nonpolar>
-35.5238

> <Gold.PLP.part.repulsive>
0.5052

> <Gold.PLP.ligand.clash>
0.0000

> <Gold.PLP.ligand.torsion>
0.3077

> <Gold.PLP.Chemscore.Hbond>
2.3022

> <Gold.PLP.Chemscore.CHOScore>
0.0000

> <Gold.PLP.Chemscore.Metal>
0.0000

> <Gold.Chemscore.Hbonds>
donor molecule, donor type, donor heavy atom, donor atom, acceptor molecule, acceptor atom, score
      L1  H     7    27       P1  8028  0.80
      L1  H    10    28       P1  8028  0.99
      P1  H  6933  6945       L1    15  0.24
      P1  H  7989  7998       L1     9  0.18

> <Gold.PLP.Chemscore.Internal.Correction>
0.0341

> <Gold.Rescore>
     Score         DG    S(hbond)    S(metal)    S(lipo)     H(rot)  DE(clash)    DE(int)     intcor
     18.45     -19.04       1.77        0.00     111.43       2.10       0.34       0.26       ----

> <Gold.Chemscore.Fitness>
18.4471

> <Gold.Chemscore.DG>
-19.0442

> <Gold.Chemscore.ZeroCoef>
-5.4800

> <Gold.Chemscore.Hbond>
1.7672

> <Gold.Chemscore.Metal>
0.0000

> <Gold.Chemscore.Lipo>
111.4267

> <Gold.Chemscore.Internal_Hbond>
0.0000

> <Gold.Chemscore.DEClash>
0.3386

> <Gold.Chemscore.DEInternal>
0.2585

> <Gold.Chemscore.Rot>
2.0997

> <Gold.Chemscore.Internal.Correction>
   9.000000E+99

> <Gold.Chemscore.Hbonds>
donor molecule, donor type, donor heavy atom, donor atom, acceptor molecule, acceptor atom, score
      L1  H     7    27       P1  8028  0.79
      L1  H    10    28       P1  8028  0.94
      P1  H  6933  6945       L1    15  0.13
      P1  H  7989  7998       L1     9  0.05

> <Gold.Chemscore.Hbond.Weighted>
-5.9025

> <Gold.Chemscore.Metal.Weighted>
-0.0000

> <Gold.Chemscore.Lipo.Weighted>
-13.0369

> <Gold.Chemscore.Internal_Hbond.Weighted>
0.0000

> <Gold.Chemscore.DEClash.Weighted>
0.3386

> <Gold.Chemscore.DEInternal.Weighted>
0.2585

> <Gold.Chemscore.Rot.Weighted>
5.3752

> <Gold.Chemscore.Internal.Correction.Weighted>
   9.000000E+99

> <Gold.Protein.RotatedTorsions>
[ 6907 6896 6895 6894 ] final  136.82 input  -60.11 | X-H torsion
[ 7974 7965 7964 7962 ] final  155.48 input  175.53 | X-H torsion
[ 8008 7997 7996 7995 ] final   -9.63 input   59.86 | X-H torsion
[ 10167 10162 10161 10158 ] final -150.72 input  -65.29 | X-H torsion
[ 10718 10713 10712 10709 ] final   66.35 input   66.30 | X-H torsion
[ 10763 10752 10751 10750 ] final   46.60 input  -60.55 | X-H torsion
[ 11005 11000 10999 10996 ] final   93.60 input  -57.11 | X-H torsion

> <Gold.Protein.ActiveResidues>
 VAL166  LYS551  ARG553  GLY616  TRP617  ASP618  TYR619  PRO620  LYS621  CYS622 
 ASP623  PHE694  ASN695  SER759  ASP760  ASP761  ALA762  ILE779  LEU786  VAL792 
 PHE793  MET794  SER795  GLU796  ALA797  LYS798  CYS799  TRP800  GLU811  SER814 

> <Gold.Protein.RotatedAtoms>
  152.2851  133.5507  159.5521 H   0  0  0  0  0  0  0  0  0  0  0  0  # atno 6907 bound_to 6896
  150.7211  134.0509  159.3807 H   0  0  0  0  0  0  0  0  0  0  0  0  # atno 6908 bound_to 6896
  151.8418  135.0588  160.0500 H   0  0  0  0  0  0  0  0  0  0  0  0  # atno 6909 bound_to 6896
  144.8022  139.7074  143.6177 H   0  0  0  0  0  0  0  0  0  0  0  0  # atno 7974 bound_to 7965
  154.5629  140.2350  155.8308 H   0  0  0  0  0  0  0  0  0  0  0  0  # atno 8008 bound_to 7997
  156.2044  140.3043  155.9555 H   0  0  0  0  0  0  0  0  0  0  0  0  # atno 8009 bound_to 7997
  155.2855  140.0424  157.3009 H   0  0  0  0  0  0  0  0  0  0  0  0  # atno 8010 bound_to 7997
  139.7329  143.8780  152.2540 H   0  0  0  0  0  0  0  0  0  0  0  0  # atno 10167 bound_to 10162
  157.6163  130.9263  150.0097 H   0  0  0  0  0  0  0  0  0  0  0  0  # atno 10718 bound_to 10713
  152.9809  135.6003  154.3626 H   0  0  0  0  0  0  0  0  0  0  0  0  # atno 10763 bound_to 10752
  154.3307  135.2768  155.2475 H   0  0  0  0  0  0  0  0  0  0  0  0  # atno 10764 bound_to 10752
  154.4601  135.5968  153.6305 H   0  0  0  0  0  0  0  0  0  0  0  0  # atno 10765 bound_to 10752
  139.8808  134.8799  156.3742 H   0  0  0  0  0  0  0  0  0  0  0  0  # atno 11005 bound_to 11000
  146.2306  139.5806  142.9558 LP  0  0  0  0  0  0  0  0  0  0  0  0  # atno 17320 bound_to 7965
  145.5525  141.0412  143.2270 LP  0  0  0  0  0  0  0  0  0  0  0  0  # atno 17321 bound_to 7965
  139.8708  144.7069  150.8989 LP  0  0  0  0  0  0  0  0  0  0  0  0  # atno 17342 bound_to 10162
  140.7774  143.3739  151.1598 LP  0  0  0  0  0  0  0  0  0  0  0  0  # atno 17343 bound_to 10162
  156.1287  130.3644  149.9767 LP  0  0  0  0  0  0  0  0  0  0  0  0  # atno 17370 bound_to 10713
  156.7832  130.9229  151.3646 LP  0  0  0  0  0  0  0  0  0  0  0  0  # atno 17371 bound_to 10713
  140.9443  133.7493  156.0187 LP  0  0  0  0  0  0  0  0  0  0  0  0  # atno 17394 bound_to 11000
  140.8182  134.3320  157.5390 LP  0  0  0  0  0  0  0  0  0  0  0  0  # atno 17395 bound_to 11000

$$$$
