AV-unprocessed.smi:1857|AV-procd|sdf|7541|dock3
  -GOLD-   22720 9253D 1   1.00000     0.00000
 Structure written by MMmdl.
 45 46  0  0  0  0  0  0  0  0  1 V2000
  147.4967  139.1782  153.2373 C   0  0  0  0  0  0  0  0  0  0  0  0
  147.7003  140.2225  154.3611 C   0  0  0  0  0  0  0  0  0  0  0  0
  147.2643  141.5916  153.8030 C   0  0  0  0  0  0  0  0  0  0  0  0
  146.7731  139.7840  155.5155 C   0  0  0  0  0  0  0  0  0  0  0  0
  149.1611  140.2675  154.7828 C   0  0  0  0  0  0  0  0  0  0  0  0
  150.1317  139.6012  154.1596 N   0  0  0  0  0  0  0  0  0  0  0  0
  151.2870  139.9701  154.8103 N   0  0  0  0  0  0  0  0  0  0  0  0
  151.0389  140.8300  155.7487 N   0  0  0  0  0  0  0  0  0  0  0  0
  149.6983  141.0459  155.7483 N   0  0  0  0  0  0  0  0  0  0  0  0
  149.1522  142.0115  156.6935 C   0  0  0  0  0  0  0  0  0  0  0  0
  150.1423  142.3290  157.8198 C   0  0  0  0  0  0  0  0  0  0  0  0
  149.8182  142.1709  158.9972 O   0  0  0  0  0  0  0  0  0  0  0  0
  151.3506  142.7750  157.4416 N   0  0  0  0  0  0  0  0  0  0  0  0
  152.4494  143.1226  158.3409 C   0  0  0  0  0  0  0  0  0  0  0  0
  152.7418  141.9362  159.2866 C   0  0  0  0  0  0  0  0  0  0  0  0
  153.6061  142.2690  160.5138 C   0  0  0  0  0  0  0  0  0  0  0  0
  152.7710  142.7510  161.7134 C   0  0  0  0  0  0  0  0  0  0  0  0
  152.1947  144.1685  161.5730 C   0  0  0  0  0  0  0  0  0  0  0  0
  151.3233  144.3929  160.3244 C   0  0  0  0  0  0  0  0  0  0  0  0
  152.1506  144.4715  159.0298 C   0  0  0  0  0  0  0  0  0  0  0  0
  146.4526  139.1230  152.9267 H   0  0  0  0  0  0  0  0  0  0  0  0
  147.7914  138.1790  153.5613 H   0  0  0  0  0  0  0  0  0  0  0  0
  148.0790  139.4219  152.3476 H   0  0  0  0  0  0  0  0  0  0  0  0
  147.8783  141.8817  152.9495 H   0  0  0  0  0  0  0  0  0  0  0  0
  147.3448  142.3855  154.5436 H   0  0  0  0  0  0  0  0  0  0  0  0
  146.2271  141.5700  153.4670 H   0  0  0  0  0  0  0  0  0  0  0  0
  145.7487  139.6477  155.1667 H   0  0  0  0  0  0  0  0  0  0  0  0
  146.7197  140.5091  156.3226 H   0  0  0  0  0  0  0  0  0  0  0  0
  147.0988  138.8353  155.9434 H   0  0  0  0  0  0  0  0  0  0  0  0
  148.9055  142.9223  156.1449 H   0  0  0  0  0  0  0  0  0  0  0  0
  148.2150  141.6541  157.1107 H   0  0  0  0  0  0  0  0  0  0  0  0
  151.5283  142.8732  156.4526 H   0  0  0  0  0  0  0  0  0  0  0  0
  153.3394  143.2914  157.7317 H   0  0  0  0  0  0  0  0  0  0  0  0
  151.8088  141.4785  159.6189 H   0  0  0  0  0  0  0  0  0  0  0  0
  153.2472  141.1625  158.7070 H   0  0  0  0  0  0  0  0  0  0  0  0
  154.1235  141.3582  160.8175 H   0  0  0  0  0  0  0  0  0  0  0  0
  154.3885  142.9860  160.2622 H   0  0  0  0  0  0  0  0  0  0  0  0
  151.9616  142.0453  161.9040 H   0  0  0  0  0  0  0  0  0  0  0  0
  153.3967  142.7257  162.6061 H   0  0  0  0  0  0  0  0  0  0  0  0
  151.5939  144.3795  162.4584 H   0  0  0  0  0  0  0  0  0  0  0  0
  153.0063  144.8968  161.5907 H   0  0  0  0  0  0  0  0  0  0  0  0
  150.5394  143.6384  160.2478 H   0  0  0  0  0  0  0  0  0  0  0  0
  150.8077  145.3454  160.4505 H   0  0  0  0  0  0  0  0  0  0  0  0
  153.0910  144.9814  159.2416 H   0  0  0  0  0  0  0  0  0  0  0  0
  151.6390  145.1236  158.3202 H   0  0  0  0  0  0  0  0  0  0  0  0
  1  2  1  0  0  0  0
  1 21  1  0  0  0  0
  1 22  1  0  0  0  0
  1 23  1  0  0  0  0
  2  3  1  0  0  0  0
  2  4  1  0  0  0  0
  2  5  1  0  0  0  0
  3 24  1  0  0  0  0
  3 25  1  0  0  0  0
  3 26  1  0  0  0  0
  4 27  1  0  0  0  0
  4 28  1  0  0  0  0
  4 29  1  0  0  0  0
  5  9  1  0  0  0  0
  5  6  2  0  0  0  0
  6  7  1  0  0  0  0
  7  8  2  0  0  0  0
  8  9  1  0  0  0  0
  9 10  1  0  0  0  0
 10 11  1  0  0  0  0
 10 30  1  0  0  0  0
 10 31  1  0  0  0  0
 11 12  2  0  0  0  0
 11 13  1  0  0  0  0
 13 14  1  0  0  0  0
 13 32  1  0  0  0  0
 14 20  1  0  0  0  0
 14 15  1  0  0  0  0
 14 33  1  0  0  0  0
 15 16  1  0  0  0  0
 15 34  1  0  0  0  0
 15 35  1  0  0  0  0
 16 17  1  0  0  0  0
 16 36  1  0  0  0  0
 16 37  1  0  0  0  0
 17 18  1  0  0  0  0
 17 38  1  0  0  0  0
 17 39  1  0  0  0  0
 18 19  1  0  0  0  0
 18 40  1  0  0  0  0
 18 41  1  0  0  0  0
 19 20  1  0  0  0  0
 19 42  1  0  0  0  0
 19 43  1  0  0  0  0
 20 44  1  0  0  0  0
 20 45  1  0  0  0  0
M  END
> <s_m_source_file>
AV-unprocessed.smi

> <i_m_source_file_index>
1857

> <i_lp_mmshare_version>
43012

> <i_f3d_flags>
0

> <s_epik_input>
W0NIM11DKFtDSDNdKShbQ0gzXSljMW5ubm4xW0NIMl1DKD1PKVtOSF1bQ0hdMltDSDJdW0NIMl1bQ0gyXVtDSDJdW0NIMl1bQ0gyXTI=

> <s_epik_cmdline>
J2VwaWtfcHl0aG9uJywgJy1waCcsICc3LjAnLCAnLXRuJywgJzgnLCAnLW1hJywgJzIwMCcsICctbWV0YWxfYmluZGluZycsICctaW1hZScsICc8aW5maWxlLm1hZT4nLCAnLW9tYWUnLCAnPG91dGZpbGUubWFlPic=

> <r_lp_tautomer_probability>
1

> <r_epik_Ionization_Penalty>
4.53904e-07

> <r_epik_Ionization_Penalty_Charging>
0

> <r_epik_Ionization_Penalty_Neutral>
4.53904e-07

> <r_epik_State_Penalty>
-0

> <r_epik_Charging_Adjusted_Penalty>
0

> <i_epik_Tot_Q>
0

> <i_epik_Tot_abs_Q>
0

> <r_epik_Metal_State_Penalty>
-0

> <b_epik_Metal_Only>
0

> <s_lp_Force_Field>
OPLS_2005

> <r_lp_Energy>
25.0233

> <b_lp_Chiralities_Consistent>
1

> <s_lp_Variant>
AV-unprocessed.smi:1857-1

> <Gold.Version>
5.8.1

> <Gold.Id.Protein>
6NUR|6NUR_protein|mol2

> <Gold.PLP.Fitness>
42.4152

> <Gold.PLP.PLP>
-41.9139

> <Gold.PLP.part.hbond>
-3.7988

> <Gold.PLP.part.metal>
0.0000

> <Gold.PLP.part.buried>
-4.0386

> <Gold.PLP.part.nonpolar>
-34.9940

> <Gold.PLP.part.repulsive>
1.1124

> <Gold.PLP.ligand.clash>
0.0000

> <Gold.PLP.ligand.torsion>
0.4050

> <Gold.PLP.Chemscore.Hbond>
0.4000

> <Gold.PLP.Chemscore.CHOScore>
0.0000

> <Gold.PLP.Chemscore.Metal>
0.0000

> <Gold.Chemscore.Hbonds>
donor molecule, donor type, donor heavy atom, donor atom, acceptor molecule, acceptor atom, score
      P1  H  7989  7998       L1     7  0.35

> <Gold.PLP.Chemscore.Internal.Correction>
0.1113

> <Gold.Rescore>
     Score         DG    S(hbond)    S(metal)    S(lipo)     H(rot)  DE(clash)    DE(int)     intcor
     11.44     -14.11       0.00        0.00     107.74       1.55       0.13       2.54       ----

> <Gold.Chemscore.Fitness>
11.4419

> <Gold.Chemscore.DG>
-14.1123

> <Gold.Chemscore.ZeroCoef>
-5.4800

> <Gold.Chemscore.Hbond>
0.0000

> <Gold.Chemscore.Metal>
0.0000

> <Gold.Chemscore.Lipo>
107.7385

> <Gold.Chemscore.Internal_Hbond>
0.0000

> <Gold.Chemscore.DEClash>
0.1275

> <Gold.Chemscore.DEInternal>
2.5430

> <Gold.Chemscore.Rot>
1.5520

> <Gold.Chemscore.Internal.Correction>
   9.000000E+99

> <Gold.Chemscore.Hbond.Weighted>
-0.0000

> <Gold.Chemscore.Metal.Weighted>
-0.0000

> <Gold.Chemscore.Lipo.Weighted>
-12.6054

> <Gold.Chemscore.Internal_Hbond.Weighted>
0.0000

> <Gold.Chemscore.DEClash.Weighted>
0.1275

> <Gold.Chemscore.DEInternal.Weighted>
2.5430

> <Gold.Chemscore.Rot.Weighted>
3.9731

> <Gold.Chemscore.Internal.Correction.Weighted>
   9.000000E+99

> <Gold.Protein.RotatedTorsions>
[ 6907 6896 6895 6894 ] final  141.75 input  -60.11 | X-H torsion
[ 7974 7965 7964 7962 ] final  162.19 input  175.53 | X-H torsion
[ 8008 7997 7996 7995 ] final   56.07 input   59.86 | X-H torsion
[ 10167 10162 10161 10158 ] final  171.84 input  -65.29 | X-H torsion
[ 10718 10713 10712 10709 ] final  170.57 input   66.30 | X-H torsion
[ 10763 10752 10751 10750 ] final   22.71 input  -60.55 | X-H torsion
[ 11005 11000 10999 10996 ] final  -66.85 input  -57.11 | X-H torsion

> <Gold.Protein.ActiveResidues>
 VAL166  LYS551  ARG553  GLY616  TRP617  ASP618  TYR619  PRO620  LYS621  CYS622 
 ASP623  PHE694  ASN695  SER759  ASP760  ASP761  ALA762  ILE779  LEU786  VAL792 
 PHE793  MET794  SER795  GLU796  ALA797  LYS798  CYS799  TRP800  GLU811  SER814 

> <Gold.Protein.RotatedAtoms>
  152.2272  133.5029  159.5195 H   0  0  0  0  0  0  0  0  0  0  0  0  # atno 6907 bound_to 6896
  150.7028  134.1264  159.4063 H   0  0  0  0  0  0  0  0  0  0  0  0  # atno 6908 bound_to 6896
  151.9185  135.0308  160.0571 H   0  0  0  0  0  0  0  0  0  0  0  0  # atno 6909 bound_to 6896
  144.7648  139.8005  143.6319 H   0  0  0  0  0  0  0  0  0  0  0  0  # atno 7974 bound_to 7965
  155.5115  140.3477  155.4389 H   0  0  0  0  0  0  0  0  0  0  0  0  # atno 8008 bound_to 7997
  156.0846  140.1395  156.9697 H   0  0  0  0  0  0  0  0  0  0  0  0  # atno 8009 bound_to 7997
  154.4599  140.0939  156.6840 H   0  0  0  0  0  0  0  0  0  0  0  0  # atno 8010 bound_to 7997
  139.5058  144.3440  151.9989 H   0  0  0  0  0  0  0  0  0  0  0  0  # atno 10167 bound_to 10162
  157.0062  131.0191  151.2816 H   0  0  0  0  0  0  0  0  0  0  0  0  # atno 10718 bound_to 10713
  153.0894  135.6642  153.9883 H   0  0  0  0  0  0  0  0  0  0  0  0  # atno 10763 bound_to 10752
  153.9484  135.2986  155.3441 H   0  0  0  0  0  0  0  0  0  0  0  0  # atno 10764 bound_to 10752
  154.7307  135.5124  153.9032 H   0  0  0  0  0  0  0  0  0  0  0  0  # atno 10765 bound_to 10752
  141.1493  133.6707  156.6203 H   0  0  0  0  0  0  0  0  0  0  0  0  # atno 11005 bound_to 11000
  146.1746  139.4911  142.9905 LP  0  0  0  0  0  0  0  0  0  0  0  0  # atno 17320 bound_to 7965
  145.6503  141.0264  143.1764 LP  0  0  0  0  0  0  0  0  0  0  0  0  # atno 17321 bound_to 7965
  140.2878  144.3788  150.6098 LP  0  0  0  0  0  0  0  0  0  0  0  0  # atno 17342 bound_to 10162
  140.5969  143.2167  151.7146 LP  0  0  0  0  0  0  0  0  0  0  0  0  # atno 17343 bound_to 10162
  157.5354  130.8085  149.7965 LP  0  0  0  0  0  0  0  0  0  0  0  0  # atno 17370 bound_to 10713
  156.0152  130.3816  150.2132 LP  0  0  0  0  0  0  0  0  0  0  0  0  # atno 17371 bound_to 10713
  140.3546  134.7740  157.4491 LP  0  0  0  0  0  0  0  0  0  0  0  0  # atno 17394 bound_to 11000
  140.0834  134.5700  155.8517 LP  0  0  0  0  0  0  0  0  0  0  0  0  # atno 17395 bound_to 11000

$$$$
