#       Name:                AV-unprocessed.smi:3300
#       Creating user name   scv26
#       Creation time:       Fri Mar 27 18:58:32 2020


#       File generated by GOLD software.
#

@<TRIPOS>MOLECULE
AV-unprocessed.smi:3300
    43    44     1
SMALL
NO_CHARGES


@<TRIPOS>ATOM
      1 ****        -3.8399   2.3072  -2.5276 C.3            1 S1                 0.0000
      2 ****        -3.3179   2.4010  -1.0893 C.3            1 S1                 0.0000
      3 ****        -2.5384   1.1658  -0.6782 C.ar           1 S1                 0.0000
      4 ****        -3.2630   0.0942  -0.2856 N.ar           1 S1                 0.0000
      5 ****        -2.5802  -0.9979   0.0653 C.ar           1 S1                 0.0000
      6 ****        -1.2531  -1.1436   0.0683 N.ar           1 S1                 0.0000
      7 ****        -0.5098  -0.0763  -0.3155 C.ar           1 S1                 0.0000
      8 ****         0.8927  -0.1937  -0.3476 N.3            1 S1                 0.0000
      9 ****         1.3169  -0.5675  -1.6932 C.3            1 S1                 0.0000
     10 ****         2.8467  -0.5528  -1.8037 C.3            1 S1                 0.0000
     11 ****         3.3859  -1.4219  -0.8184 O.3            1 S1                 0.0000
     12 ****         3.0642  -0.9870   0.4972 C.3            1 S1                 0.0000
     13 ****         1.5314  -0.9815   0.7175 C.3            1 S1                 0.0000
     14 ****         1.1847  -0.4458   2.1317 C.3            1 S1                 0.0000
     15 ****         1.6556  -1.3590   3.2749 C.3            1 S1                 0.0000
     16 ****         1.2164  -0.8403   4.5118 O.3            1 S1                 0.0000
     17 ****        -1.1275   1.1295  -0.7182 C.ar           1 S1                 0.0000
     18 ****        -0.3999   2.1995  -1.1227 F              1 S1                 0.0000
     19 ****        -4.3988   3.2036  -2.7967 H              1 S1                 0.0000
     20 ****        -4.5039   1.4512  -2.6519 H              1 S1                 0.0000
     21 ****        -3.0186   2.2009  -3.2368 H              1 S1                 0.0000
     22 ****        -2.6877   3.2843  -0.9816 H              1 S1                 0.0000
     23 ****        -4.1540   2.5385  -0.4023 H              1 S1                 0.0000
     24 ****        -3.1614  -1.8532   0.3763 H              1 S1                 0.0000
     25 ****         0.9382  -1.5635  -1.9280 H              1 S1                 0.0000
     26 ****         0.8924   0.1180  -2.4280 H              1 S1                 0.0000
     27 ****         3.1561  -0.8977  -2.7904 H              1 S1                 0.0000
     28 ****         3.2408   0.4572  -1.6787 H              1 S1                 0.0000
     29 ****         3.5529  -1.6666   1.1943 H              1 S1                 0.0000
     30 ****         3.4884   0.0034   0.6720 H              1 S1                 0.0000
     31 ****         1.1746  -2.0091   0.6328 H              1 S1                 0.0000
     32 ****         1.6075   0.5520   2.2596 H              1 S1                 0.0000
     33 ****         0.1070  -0.3254   2.2395 H              1 S1                 0.0000
     34 ****         1.2545  -2.3653   3.1517 H              1 S1                 0.0000
     35 ****         2.7418  -1.4373   3.3019 H              1 S1                 0.0000
     36 ****         1.5048  -1.4197   5.2006 H              1 S1                 0.0000
     37 ****        -4.2623   0.1184  -0.2593 LP             1 S1                 0.0000
     38 ****        -0.8247  -2.0047   0.3423 LP             1 S1                 0.0000
     39 ****         1.2413   0.7162  -0.1229 LP             1 S1                 0.0000
     40 ****         4.3807  -1.4472  -0.9176 LP             1 S1                 0.0000
     41 ****         3.0137  -2.3397  -0.9568 LP             1 S1                 0.0000
     42 ****         0.2182  -0.7811   4.5171 LP             1 S1                 0.0000
     43 ****         1.6051   0.0702   4.6525 LP             1 S1                 0.0000
@<TRIPOS>BOND
    1    1    2 1     
    2    1   19 1     
    3    1   20 1     
    4    1   21 1     
    5    2    3 1     
    6    2   22 1     
    7    2   23 1     
    8    3   17 ar    
    9    3    4 ar    
   10    4    5 ar    
   11    5    6 ar    
   12    5   24 1     
   13    6    7 ar    
   14    7    8 1     
   15    7   17 ar    
   16    8   13 1     
   17    8    9 1     
   18    9   10 1     
   19    9   25 1     
   20    9   26 1     
   21   10   11 1     
   22   10   27 1     
   23   10   28 1     
   24   11   12 1     
   25   12   13 1     
   26   12   29 1     
   27   12   30 1     
   28   13   14 1     
   29   13   31 1     
   30   14   15 1     
   31   14   32 1     
   32   14   33 1     
   33   15   16 1     
   34   15   34 1     
   35   15   35 1     
   36   16   36 1     
   37   17   18 1     
   38    4   37 1     
   39    6   38 1     
   40    8   39 1     
   41   11   40 1     
   42   11   41 1     
   43   16   42 1     
   44   16   43 1     
@<TRIPOS>SUBSTRUCTURE
      1 S1             1
@<TRIPOS>SET
LONE_PAIRS      STATIC     ATOMS    <user>   **** ""
7 37 38 39 40 41 42 43
DONOR_HYDROGENS      STATIC     ATOMS    <user>   **** ""
1 36
ATOM$BLUE        STATIC     ATOMS    COLORGROUP SYSTEM
7 37 38 39 40 41 42 43
ATOM$RED        STATIC     ATOMS    COLORGROUP SYSTEM
1 36
