#       Name:                AV-unprocessed.smi:2894
#       Creating user name   scv26
#       Creation time:       Fri Mar 27 16:00:01 2020


#       File generated by GOLD software.
#

@<TRIPOS>MOLECULE
AV-unprocessed.smi:2894
    40    41     1
SMALL
NO_CHARGES


@<TRIPOS>ATOM
      1 ****        -5.8463  -0.3759   0.8261 C.3            1 S1                 0.0000
      2 ****        -4.5212   0.2786   0.5687 C.2            1 S1                 0.0000
      3 ****        -3.2617  -0.3491   0.3432 C.2            1 S1                 0.0000
      4 ****        -2.4210   0.7165   0.1707 C.2            1 S1                 0.0000
      5 ****        -1.0850   0.7202  -0.0813 N.am           1 S1                 0.0000
      6 ****        -0.2477  -0.3259  -0.1919 C.2            1 S1                 0.0000
      7 ****        -0.5647  -1.5103  -0.0780 O.2            1 S1                 0.0000
      8 ****         1.0041   0.0830  -0.4439 N.am           1 S1                 0.0000
      9 ****         2.1574  -0.7911  -0.6490 C.3            1 S1                 0.0000
     10 ****         2.7424  -1.2578   0.6976 C.3            1 S1                 0.0000
     11 ****         4.0611  -2.0036   0.4747 C.3            1 S1                 0.0000
     12 ****         5.0685  -1.1051  -0.2613 C.3            1 S1                 0.0000
     13 ****         4.4867  -0.4013  -1.4051 N.am           1 S1                 0.0000
     14 ****         3.1801  -0.1563  -1.6084 C.2            1 S1                 0.0000
     15 ****         2.7975   0.5253  -2.5582 O.2            1 S1                 0.0000
     16 ****        -3.1479   1.8804   0.2880 N.pl3          1 S1                 0.0000
     17 ****        -2.7057   3.2572   0.1817 C.3            1 S1                 0.0000
     18 ****        -4.4467   1.6045   0.5345 N.2            1 S1                 0.0000
     19 ****        -5.7749  -1.4597   0.7328 H              1 S1                 0.0000
     20 ****        -6.6000  -0.0316   0.1176 H              1 S1                 0.0000
     21 ****        -6.2049  -0.1524   1.8311 H              1 S1                 0.0000
     22 ****        -3.0366  -1.4045   0.3157 H              1 S1                 0.0000
     23 ****        -0.6719   1.6340  -0.1958 H              1 S1                 0.0000
     24 ****         1.1726   1.0751  -0.5272 H              1 S1                 0.0000
     25 ****         1.8122  -1.6814  -1.1784 H              1 S1                 0.0000
     26 ****         2.9153  -0.3997   1.3489 H              1 S1                 0.0000
     27 ****         2.0331  -1.9044   1.2158 H              1 S1                 0.0000
     28 ****         4.4777  -2.3356   1.4261 H              1 S1                 0.0000
     29 ****         3.8735  -2.9031  -0.1134 H              1 S1                 0.0000
     30 ****         5.4591  -0.3537   0.4260 H              1 S1                 0.0000
     31 ****         5.9220  -1.6932  -0.5992 H              1 S1                 0.0000
     32 ****         5.1390  -0.0086  -2.0686 H              1 S1                 0.0000
     33 ****        -1.8593   3.4233   0.8487 H              1 S1                 0.0000
     34 ****        -3.5097   3.9414   0.4568 H              1 S1                 0.0000
     35 ****        -2.3988   3.4641  -0.8439 H              1 S1                 0.0000
     36 ****        -1.5146  -1.7575   0.1128 LP             1 S1                 0.0000
     37 ****         0.1279  -2.2249  -0.1764 LP             1 S1                 0.0000
     38 ****         1.8194   0.6685  -2.7090 LP             1 S1                 0.0000
     39 ****         3.4647   0.9363  -3.1796 LP             1 S1                 0.0000
     40 ****        -5.1924   2.2581   0.6636 LP             1 S1                 0.0000
@<TRIPOS>BOND
    1    1    2 1     
    2    1   19 1     
    3    1   20 1     
    4    1   21 1     
    5    2   18 2     
    6    2    3 1     
    7    3    4 2     
    8    3   22 1     
    9    4    5 1     
   10    4   16 1     
   11    5    6 am    
   12    5   23 1     
   13    6    7 2     
   14    6    8 am    
   15    8    9 1     
   16    8   24 1     
   17    9   14 1     
   18    9   10 1     
   19    9   25 1     
   20   10   11 1     
   21   10   26 1     
   22   10   27 1     
   23   11   12 1     
   24   11   28 1     
   25   11   29 1     
   26   12   13 1     
   27   12   30 1     
   28   12   31 1     
   29   13   14 am    
   30   13   32 1     
   31   14   15 2     
   32   16   17 1     
   33   16   18 1     
   34   17   33 1     
   35   17   34 1     
   36   17   35 1     
   37    7   36 1     
   38    7   37 1     
   39   15   38 1     
   40   15   39 1     
   41   18   40 1     
@<TRIPOS>SUBSTRUCTURE
      1 S1             1
@<TRIPOS>SET
LONE_PAIRS      STATIC     ATOMS    <user>   **** ""
5 36 37 38 39 40
DONOR_HYDROGENS      STATIC     ATOMS    <user>   **** ""
3 23 24 32
ATOM$BLUE        STATIC     ATOMS    COLORGROUP SYSTEM
5 36 37 38 39 40
ATOM$RED        STATIC     ATOMS    COLORGROUP SYSTEM
3 23 24 32
