AV-unprocessed.smi:832|AV-procd|sdf|3879|dock9
  -GOLD-   22720 1333D 1   1.00000     0.00000
 Structure written by MMmdl.
 42 43  0  0  0  0  0  0  0  0  2 V2000
  150.9529  141.3789  157.2281 C   0  0  0  0  0  0  0  0  0  0  0  0
  150.5068  140.3828  156.2133 C   0  0  0  0  0  0  0  0  0  0  0  0
  150.3244  139.0290  156.2560 C   0  0  0  0  0  0  0  0  0  0  0  0
  149.8878  138.7237  154.9394 C   0  0  0  0  0  0  0  0  0  0  0  0
  149.5860  137.3901  154.5623 N   0  0  0  0  0  0  0  0  0  0  0  0
  149.6134  136.2945  155.3402 C   0  0  0  0  0  0  0  0  0  0  0  0
  149.9225  136.2783  156.5320 O   0  0  0  0  0  0  0  0  0  0  0  0
  149.2523  135.1992  154.6554 N   0  0  0  0  0  0  0  0  0  0  0  0
  149.2000  133.8437  155.1953 C   0  0  0  0  0  0  0  0  0  0  0  0
  148.8963  132.7920  154.1101 C   0  0  1  0  0  0  0  0  0  0  0  0
  148.3771  131.4689  154.6686 C   0  0  0  0  0  0  0  0  0  0  0  0
  147.5817  130.8397  153.5169 C   0  0  0  0  0  0  0  0  0  0  0  0
  147.3686  131.9010  152.5008 N   0  3  1  0  0  0  0  0  0  0  0  0
  146.0196  131.9137  151.8676 C   0  0  0  0  0  0  0  0  0  0  0  0
  145.5642  130.4875  151.5048 C   0  0  0  0  0  0  0  0  0  0  0  0
  145.9880  132.8004  150.6076 C   0  0  0  0  0  0  0  0  0  0  0  0
  147.7931  133.1737  153.1223 C   0  0  0  0  0  0  0  0  0  0  0  0
  149.8113  139.7939  154.1632 N   0  0  0  0  0  0  0  0  0  0  0  0
  150.2059  140.8628  154.9762 O   0  0  0  0  0  0  0  0  0  0  0  0
  151.4317  140.8854  158.0740 H   0  0  0  0  0  0  0  0  0  0  0  0
  150.1054  141.9511  157.6053 H   0  0  0  0  0  0  0  0  0  0  0  0
  151.6690  142.0785  156.7963 H   0  0  0  0  0  0  0  0  0  0  0  0
  150.4792  138.3676  157.0955 H   0  0  0  0  0  0  0  0  0  0  0  0
  149.3202  137.2578  153.5977 H   0  0  0  0  0  0  0  0  0  0  0  0
  149.0158  135.3070  153.6797 H   0  0  0  0  0  0  0  0  0  0  0  0
  150.1717  133.6319  155.6419 H   0  0  0  0  0  0  0  0  0  0  0  0
  148.4732  133.7819  156.0075 H   0  0  0  0  0  0  0  0  0  0  0  0
  149.8080  132.5878  153.5456 H   0  0  0  0  0  0  0  0  0  0  0  0
  149.1801  130.8227  155.0250 H   0  0  0  0  0  0  0  0  0  0  0  0
  147.7075  131.6560  155.5094 H   0  0  0  0  0  0  0  0  0  0  0  0
  148.1318  130.0170  153.0590 H   0  0  0  0  0  0  0  0  0  0  0  0
  146.6400  130.4397  153.8960 H   0  0  0  0  0  0  0  0  0  0  0  0
  145.3115  132.3274  152.5874 H   0  0  0  0  0  0  0  0  0  0  0  0
  144.5844  130.5011  151.0262 H   0  0  0  0  0  0  0  0  0  0  0  0
  145.4779  129.8468  152.3822 H   0  0  0  0  0  0  0  0  0  0  0  0
  146.2615  130.0130  150.8134 H   0  0  0  0  0  0  0  0  0  0  0  0
  145.0116  132.7566  150.1240 H   0  0  0  0  0  0  0  0  0  0  0  0
  146.7317  132.4804  149.8770 H   0  0  0  0  0  0  0  0  0  0  0  0
  146.1754  133.8489  150.8402 H   0  0  0  0  0  0  0  0  0  0  0  0
  146.9508  133.6185  153.6554 H   0  0  0  0  0  0  0  0  0  0  0  0
  148.1405  133.8876  152.3747 H   0  0  0  0  0  0  0  0  0  0  0  0
  148.0376  131.7193  151.7661 H   0  0  0  0  0  0  0  0  0  0  0  0
  1  2  1  0  0  0  0
  1 20  1  0  0  0  0
  1 21  1  0  0  0  0
  1 22  1  0  0  0  0
  2 19  1  0  0  0  0
  2  3  2  0  0  0  0
  3  4  1  0  0  0  0
  3 23  1  0  0  0  0
  4  5  1  0  0  0  0
  4 18  2  0  0  0  0
  5  6  1  0  0  0  0
  5 24  1  0  0  0  0
  6  7  2  0  0  0  0
  6  8  1  0  0  0  0
  8  9  1  0  0  0  0
  8 25  1  0  0  0  0
  9 10  1  0  0  0  0
  9 26  1  0  0  0  0
  9 27  1  0  0  0  0
 10 17  1  0  0  0  0
 10 11  1  0  0  0  0
 10 28  1  0  0  0  0
 11 12  1  0  0  0  0
 11 29  1  0  0  0  0
 11 30  1  0  0  0  0
 12 13  1  0  0  0  0
 12 31  1  0  0  0  0
 12 32  1  0  0  0  0
 13 14  1  0  0  0  0
 13 17  1  0  0  0  0
 13 42  1  0  0  0  0
 14 15  1  0  0  0  0
 14 16  1  0  0  0  0
 14 33  1  0  0  0  0
 15 34  1  0  0  0  0
 15 35  1  0  0  0  0
 15 36  1  0  0  0  0
 16 37  1  0  0  0  0
 16 38  1  0  0  0  0
 16 39  1  0  0  0  0
 17 40  1  0  0  0  0
 17 41  1  0  0  0  0
 18 19  1  0  0  0  0
M  CHG  1  13   1
M  END
> <s_m_source_file>
AV-unprocessed.smi

> <i_m_source_file_index>
832

> <i_lp_mmshare_version>
43012

> <i_f3d_flags>
0

> <s_epik_input>
W0NIM11jMVtjSF1jKG5vMSlbTkhdQyg9TylbTkhdW0NIMl1bQ0BASF0yW0NIMl1bQ0gyXU4oW0NIMl0yKVtDSF0oW0NIM10pW0NIM10=

> <s_epik_cmdline>
J2VwaWtfcHl0aG9uJywgJy1waCcsICc3LjAnLCAnLXRuJywgJzgnLCAnLW1hJywgJzIwMCcsICctbWV0YWxfYmluZGluZycsICctaW1hZScsICc8aW5maWxlLm1hZT4nLCAnLW9tYWUnLCAnPG91dGZpbGUubWFlPic=

> <r_lp_tautomer_probability>
1

> <r_epik_Ionization_Penalty>
0.000242791

> <r_epik_Ionization_Penalty_Charging>
0.000220876

> <r_epik_Ionization_Penalty_Neutral>
2.19143e-05

> <r_epik_State_Penalty>
-0

> <r_epik_Charging_Adjusted_Penalty>
0.000220876

> <i_epik_Tot_Q>
1

> <i_epik_Tot_abs_Q>
1

> <r_epik_Metal_State_Penalty>
-0

> <b_epik_Metal_Only>
0

> <s_lp_Force_Field>
OPLS_2005

> <r_lp_Energy>
26.1652

> <b_lp_Chiralities_Consistent>
1

> <s_lp_Variant>
AV-unprocessed.smi:832-4

> <Gold.Version>
5.8.1

> <Gold.Id.Protein>
6NUR|6NUR_protein|mol2

> <Gold.PLP.Fitness>
42.4027

> <Gold.PLP.PLP>
-34.0554

> <Gold.PLP.part.hbond>
-5.0000

> <Gold.PLP.part.metal>
0.0000

> <Gold.PLP.part.buried>
-3.6587

> <Gold.PLP.part.nonpolar>
-24.8428

> <Gold.PLP.part.repulsive>
1.0599

> <Gold.PLP.ligand.clash>
0.0000

> <Gold.PLP.ligand.torsion>
0.3373

> <Gold.PLP.Chemscore.Hbond>
3.0000

> <Gold.PLP.Chemscore.CHOScore>
0.0000

> <Gold.PLP.Chemscore.Metal>
0.0000

> <Gold.Chemscore.Hbonds>
donor molecule, donor type, donor heavy atom, donor atom, acceptor molecule, acceptor atom, score
      L1  H     5    24       P1  7948  1.00
      L1  H     8    25       P1  7948  1.00
      L1  H    13    42       P1 10747  1.00

> <Gold.PLP.Chemscore.Internal.Correction>
0.0220

> <Gold.Rescore>
     Score         DG    S(hbond)    S(metal)    S(lipo)     H(rot)  DE(clash)    DE(int)     intcor
     14.57     -16.57       2.15        0.00      66.51       1.51       0.15       1.85       ----

> <Gold.Chemscore.Fitness>
14.5670

> <Gold.Chemscore.DG>
-16.5745

> <Gold.Chemscore.ZeroCoef>
-5.4800

> <Gold.Chemscore.Hbond>
2.1528

> <Gold.Chemscore.Metal>
0.0000

> <Gold.Chemscore.Lipo>
66.5098

> <Gold.Chemscore.Internal_Hbond>
0.0000

> <Gold.Chemscore.DEClash>
0.1530

> <Gold.Chemscore.DEInternal>
1.8545

> <Gold.Chemscore.Rot>
1.5146

> <Gold.Chemscore.Internal.Correction>
   9.000000E+99

> <Gold.Chemscore.Hbonds>
donor molecule, donor type, donor heavy atom, donor atom, acceptor molecule, acceptor atom, score
      L1  H     5    24       P1  7948  0.90
      L1  H     8    25       P1  7948  0.57
      L1  H    13    42       P1 10747  0.98

> <Gold.Chemscore.Hbond.Weighted>
-7.1902

> <Gold.Chemscore.Metal.Weighted>
-0.0000

> <Gold.Chemscore.Lipo.Weighted>
-7.7816

> <Gold.Chemscore.Internal_Hbond.Weighted>
0.0000

> <Gold.Chemscore.DEClash.Weighted>
0.1530

> <Gold.Chemscore.DEInternal.Weighted>
1.8545

> <Gold.Chemscore.Rot.Weighted>
3.8774

> <Gold.Chemscore.Internal.Correction.Weighted>
   9.000000E+99

> <Gold.Protein.RotatedTorsions>
[ 6907 6896 6895 6894 ] final  -49.95 input  -60.11 | X-H torsion
[ 7974 7965 7964 7962 ] final  -16.74 input  175.53 | X-H torsion
[ 8008 7997 7996 7995 ] final   70.96 input   59.86 | X-H torsion
[ 10167 10162 10161 10158 ] final   -3.06 input  -65.29 | X-H torsion
[ 10718 10713 10712 10709 ] final -178.60 input   66.30 | X-H torsion
[ 10763 10752 10751 10750 ] final  112.18 input  -60.55 | X-H torsion
[ 11005 11000 10999 10996 ] final   89.26 input  -57.11 | X-H torsion

> <Gold.Protein.ActiveResidues>
 VAL166  LYS551  ARG553  GLY616  TRP617  ASP618  TYR619  PRO620  LYS621  CYS622 
 ASP623  PHE694  ASN695  SER759  ASP760  ASP761  ALA762  ILE779  LEU786  VAL792 
 PHE793  MET794  SER795  GLU796  ALA797  LYS798  CYS799  TRP800  GLU811  SER814 

> <Gold.Protein.RotatedAtoms>
  150.8755  134.8137  159.7186 H   0  0  0  0  0  0  0  0  0  0  0  0  # atno 6907 bound_to 6896
  152.4743  134.4879  159.9696 H   0  0  0  0  0  0  0  0  0  0  0  0  # atno 6908 bound_to 6896
  151.4961  133.3476  159.2897 H   0  0  0  0  0  0  0  0  0  0  0  0  # atno 6909 bound_to 6896
  146.1973  140.3680  142.8436 H   0  0  0  0  0  0  0  0  0  0  0  0  # atno 7974 bound_to 7965
  155.7467  140.3489  155.5130 H   0  0  0  0  0  0  0  0  0  0  0  0  # atno 8008 bound_to 7997
  155.9043  140.1039  157.1348 H   0  0  0  0  0  0  0  0  0  0  0  0  # atno 8009 bound_to 7997
  154.4048  140.1280  156.4463 H   0  0  0  0  0  0  0  0  0  0  0  0  # atno 8010 bound_to 7997
  140.6875  143.6584  150.8288 H   0  0  0  0  0  0  0  0  0  0  0  0  # atno 10167 bound_to 10162
  156.8467  130.9705  151.3096 H   0  0  0  0  0  0  0  0  0  0  0  0  # atno 10718 bound_to 10713
  153.4741  135.3694  155.2407 H   0  0  0  0  0  0  0  0  0  0  0  0  # atno 10763 bound_to 10752
  154.8756  135.3938  154.3777 H   0  0  0  0  0  0  0  0  0  0  0  0  # atno 10764 bound_to 10752
  153.4370  135.7083  153.6258 H   0  0  0  0  0  0  0  0  0  0  0  0  # atno 10765 bound_to 10752
  139.8879  134.8540  156.3116 H   0  0  0  0  0  0  0  0  0  0  0  0  # atno 11005 bound_to 11000
  144.8608  140.7137  143.6108 LP  0  0  0  0  0  0  0  0  0  0  0  0  # atno 17320 bound_to 7965
  145.3600  139.1684  143.4388 LP  0  0  0  0  0  0  0  0  0  0  0  0  # atno 17321 bound_to 7965
  140.0293  143.5460  152.2767 LP  0  0  0  0  0  0  0  0  0  0  0  0  # atno 17342 bound_to 10162
  139.6247  144.7635  151.2664 LP  0  0  0  0  0  0  0  0  0  0  0  0  # atno 17343 bound_to 10162
  157.6326  130.8741  149.9301 LP  0  0  0  0  0  0  0  0  0  0  0  0  # atno 17370 bound_to 10713
  156.0851  130.3669  150.0504 LP  0  0  0  0  0  0  0  0  0  0  0  0  # atno 17371 bound_to 10713
  140.9846  133.7246  156.0723 LP  0  0  0  0  0  0  0  0  0  0  0  0  # atno 17394 bound_to 11000
  140.7705  134.3838  157.5508 LP  0  0  0  0  0  0  0  0  0  0  0  0  # atno 17395 bound_to 11000

$$$$
