AV-unprocessed.smi:645|AV-procd|sdf|3164|dock4
  -GOLD-   22720 0 83D 1   1.00000     0.00000
 Structure written by MMmdl.
 22 23  0  0  0  0  0  0  0  0  2 V2000
  151.1084  139.3468  157.8069 C   0  0  0  0  0  0  0  0  0  0  0  0
  152.4302  138.8944  158.4654 C   0  0  2  0  0  0  0  0  0  0  0  0
  152.9384  139.9249  159.4931 C   0  0  0  0  0  0  0  0  0  0  0  0
  154.0891  139.7000  160.2899 C   0  0  0  0  0  0  0  0  0  0  0  0
  154.4930  140.6906  161.2066 C   0  0  0  0  0  0  0  0  0  0  0  0
  153.8406  141.8593  161.3751 N   0  0  0  0  0  0  0  0  0  0  0  0
  152.7448  142.0769  160.6193 C   0  0  0  0  0  0  0  0  0  0  0  0
  152.2579  141.1527  159.6747 C   0  0  0  0  0  0  0  0  0  0  0  0
  153.3906  138.5789  157.4138 N   0  5  0  0  0  0  0  0  0  0  0  0
  153.7427  137.2758  157.5136 C   0  0  0  0  0  0  0  0  0  0  0  0
  154.5410  136.6565  156.8143 O   0  0  0  0  0  0  0  0  0  0  0  0
  153.0863  136.6867  158.5167 N   0  0  0  0  0  0  0  0  0  0  0  0
  152.2689  137.5335  159.1347 C   0  0  0  0  0  0  0  0  0  0  0  0
  151.5095  137.2787  160.0696 O   0  0  0  0  0  0  0  0  0  0  0  0
  150.3071  139.4731  158.5347 H   0  0  0  0  0  0  0  0  0  0  0  0
  150.7567  138.6216  157.0711 H   0  0  0  0  0  0  0  0  0  0  0  0
  151.2351  140.2990  157.2906 H   0  0  0  0  0  0  0  0  0  0  0  0
  154.6647  138.7897  160.2143 H   0  0  0  0  0  0  0  0  0  0  0  0
  155.3666  140.5386  161.8231 H   0  0  0  0  0  0  0  0  0  0  0  0
  152.2373  143.0177  160.7729 H   0  0  0  0  0  0  0  0  0  0  0  0
  151.3696  141.3869  159.1074 H   0  0  0  0  0  0  0  0  0  0  0  0
  153.1865  135.7136  158.7634 H   0  0  0  0  0  0  0  0  0  0  0  0
  1  2  1  0  0  0  0
  1 15  1  0  0  0  0
  1 16  1  0  0  0  0
  1 17  1  0  0  0  0
  2 13  1  0  0  0  0
  2  3  1  0  0  0  0
  2  9  1  0  0  0  0
  3  8  1  0  0  0  0
  3  4  2  0  0  0  0
  4  5  1  0  0  0  0
  4 18  1  0  0  0  0
  5  6  2  0  0  0  0
  5 19  1  0  0  0  0
  6  7  1  0  0  0  0
  7  8  2  0  0  0  0
  7 20  1  0  0  0  0
  8 21  1  0  0  0  0
  9 10  1  0  0  0  0
 10 11  2  0  0  0  0
 10 12  1  0  0  0  0
 12 13  1  0  0  0  0
 12 22  1  0  0  0  0
 13 14  2  0  0  0  0
M  CHG  1   9  -1
M  END
> <s_m_source_file>
AV-unprocessed.smi

> <i_m_source_file_index>
645

> <i_lp_mmshare_version>
43012

> <i_f3d_flags>
0

> <s_epik_input>
Tz1DMVtOSF1DKD1PKVtOSF1bQ0BAXTEoW0NIM10pYzJbY0hdW2NIXW5bY0hdW2NIXTI=

> <s_epik_cmdline>
J2VwaWtfcHl0aG9uJywgJy1waCcsICc3LjAnLCAnLXRuJywgJzgnLCAnLW1hJywgJzIwMCcsICctbWV0YWxfYmluZGluZycsICctaW1hZScsICc8aW5maWxlLm1hZT4nLCAnLW9tYWUnLCAnPG91dGZpbGUubWFlPic=

> <r_lp_tautomer_probability>
1

> <r_epik_Ionization_Penalty>
4.86801

> <r_epik_Ionization_Penalty_Charging>
4.8337

> <r_epik_Ionization_Penalty_Neutral>
0.0343087

> <r_epik_State_Penalty>
4.85653

> <r_epik_Charging_Adjusted_Penalty>
9.69023

> <i_epik_Tot_Q>
-1

> <i_epik_Tot_abs_Q>
1

> <r_epik_Metal_State_Penalty>
1.32058

> <b_epik_Metal_Only>
1

> <s_lp_Force_Field>
OPLS_2005

> <r_lp_Energy>
14.3198

> <b_lp_Chiralities_Consistent>
1

> <s_lp_Variant>
AV-unprocessed.smi:645-6

> <Gold.Version>
5.8.1

> <Gold.Id.Protein>
6NUR|6NUR_protein|mol2

> <Gold.PLP.Fitness>
32.6244

> <Gold.PLP.PLP>
-21.4879

> <Gold.PLP.part.hbond>
-2.9838

> <Gold.PLP.part.metal>
0.0000

> <Gold.PLP.part.buried>
-4.1408

> <Gold.PLP.part.nonpolar>
-14.8455

> <Gold.PLP.part.repulsive>
0.1377

> <Gold.PLP.ligand.clash>
0.0000

> <Gold.PLP.ligand.torsion>
0.0738

> <Gold.PLP.Chemscore.Hbond>
3.7433

> <Gold.PLP.Chemscore.CHOScore>
0.0000

> <Gold.PLP.Chemscore.Metal>
0.0000

> <Gold.Chemscore.Hbonds>
donor molecule, donor type, donor heavy atom, donor atom, acceptor molecule, acceptor atom, score
      P1  H  6896  6907       L1    14  0.81
      P1  H  7997  8008       L1     9  2.00
      P1  H 10752 10763       L1    11  0.80

> <Gold.PLP.Chemscore.Internal.Correction>
0.0544

> <Gold.Rescore>
     Score         DG    S(hbond)    S(metal)    S(lipo)     H(rot)  DE(clash)    DE(int)     intcor
     16.85     -16.90       2.50        0.00      48.11       1.00       0.00       0.04       ----

> <Gold.Chemscore.Fitness>
16.8544

> <Gold.Chemscore.DG>
-16.8986

> <Gold.Chemscore.ZeroCoef>
-5.4800

> <Gold.Chemscore.Hbond>
2.4999

> <Gold.Chemscore.Metal>
0.0000

> <Gold.Chemscore.Lipo>
48.1100

> <Gold.Chemscore.Internal_Hbond>
0.0000

> <Gold.Chemscore.DEClash>
0.0000

> <Gold.Chemscore.DEInternal>
0.0442

> <Gold.Chemscore.Rot>
1.0000

> <Gold.Chemscore.Internal.Correction>
   9.000000E+99

> <Gold.Chemscore.Hbonds>
donor molecule, donor type, donor heavy atom, donor atom, acceptor molecule, acceptor atom, score
      P1  H  6896  6907       L1    14  0.21
      P1  H  7997  8008       L1     9  0.91
      P1  H 10752 10763       L1    11  0.73

> <Gold.Chemscore.Hbond.Weighted>
-8.3497

> <Gold.Chemscore.Metal.Weighted>
-0.0000

> <Gold.Chemscore.Lipo.Weighted>
-5.6289

> <Gold.Chemscore.Internal_Hbond.Weighted>
0.0000

> <Gold.Chemscore.DEClash.Weighted>
0.0000

> <Gold.Chemscore.DEInternal.Weighted>
0.0442

> <Gold.Chemscore.Rot.Weighted>
2.5600

> <Gold.Chemscore.Internal.Correction.Weighted>
   9.000000E+99

> <Gold.Protein.RotatedTorsions>
[ 6907 6896 6895 6894 ] final   -2.52 input  -60.11 | X-H torsion
[ 7974 7965 7964 7962 ] final -178.75 input  175.53 | X-H torsion
[ 8008 7997 7996 7995 ] final  -70.08 input   59.86 | X-H torsion
[ 10167 10162 10161 10158 ] final -179.64 input  -65.29 | X-H torsion
[ 10718 10713 10712 10709 ] final   78.52 input   66.30 | X-H torsion
[ 10763 10752 10751 10750 ] final  168.04 input  -60.55 | X-H torsion
[ 11005 11000 10999 10996 ] final  -19.15 input  -57.11 | X-H torsion

> <Gold.Protein.ActiveResidues>
 VAL166  LYS551  ARG553  GLY616  TRP617  ASP618  TYR619  PRO620  LYS621  CYS622 
 ASP623  PHE694  ASN695  SER759  ASP760  ASP761  ALA762  ILE779  LEU786  VAL792 
 PHE793  MET794  SER795  GLU796  ALA797  LYS798  CYS799  TRP800  GLU811  SER814 

> <Gold.Protein.RotatedAtoms>
  151.5285  135.1068  159.9896 H   0  0  0  0  0  0  0  0  0  0  0  0  # atno 6907 bound_to 6896
  152.4589  133.7776  159.6844 H   0  0  0  0  0  0  0  0  0  0  0  0  # atno 6908 bound_to 6896
  150.8543  133.7674  159.3039 H   0  0  0  0  0  0  0  0  0  0  0  0  # atno 6909 bound_to 6896
  144.7132  140.0821  143.6425 H   0  0  0  0  0  0  0  0  0  0  0  0  # atno 7974 bound_to 7965
  154.4985  140.0841  156.7748 H   0  0  0  0  0  0  0  0  0  0  0  0  # atno 8008 bound_to 7997
  155.4058  140.3439  155.4242 H   0  0  0  0  0  0  0  0  0  0  0  0  # atno 8009 bound_to 7997
  156.1426  140.1534  156.8885 H   0  0  0  0  0  0  0  0  0  0  0  0  # atno 8010 bound_to 7997
  139.5377  144.2450  152.0830 H   0  0  0  0  0  0  0  0  0  0  0  0  # atno 10167 bound_to 10162
  157.6747  130.9872  150.1798 H   0  0  0  0  0  0  0  0  0  0  0  0  # atno 10718 bound_to 10713
  154.3627  135.2753  155.2311 H   0  0  0  0  0  0  0  0  0  0  0  0  # atno 10763 bound_to 10752
  154.4492  135.5935  153.6183 H   0  0  0  0  0  0  0  0  0  0  0  0  # atno 10764 bound_to 10752
  152.9842  135.6037  154.3850 H   0  0  0  0  0  0  0  0  0  0  0  0  # atno 10765 bound_to 10752
  140.8338  133.7977  155.9787 H   0  0  0  0  0  0  0  0  0  0  0  0  # atno 11005 bound_to 11000
  145.9693  139.2858  143.1108 LP  0  0  0  0  0  0  0  0  0  0  0  0  # atno 17320 bound_to 7965
  145.9134  140.9164  143.0442 LP  0  0  0  0  0  0  0  0  0  0  0  0  # atno 17321 bound_to 7965
  140.1924  144.4739  150.6472 LP  0  0  0  0  0  0  0  0  0  0  0  0  # atno 17342 bound_to 10162
  140.6592  143.2247  151.5896 LP  0  0  0  0  0  0  0  0  0  0  0  0  # atno 17343 bound_to 10162
  156.2533  130.3703  149.8209 LP  0  0  0  0  0  0  0  0  0  0  0  0  # atno 17370 bound_to 10713
  156.5975  130.8532  151.3423 LP  0  0  0  0  0  0  0  0  0  0  0  0  # atno 17371 bound_to 10713
  140.8969  134.2426  157.5063 LP  0  0  0  0  0  0  0  0  0  0  0  0  # atno 17394 bound_to 11000
  139.8704  134.9688  156.4645 LP  0  0  0  0  0  0  0  0  0  0  0  0  # atno 17395 bound_to 11000

$$$$
