AV-unprocessed.smi:1053|AV-procd|sdf|4618|dock3
  -GOLD-   22720 3123D 1   1.00000     0.00000
 Structure written by MMmdl.
 38 39  0  0  0  0  0  0  0  0  2 V2000
  151.7428  138.3034  154.6515 C   0  0  0  0  0  0  0  0  0  0  0  0
  150.3041  138.8157  154.4934 C   0  0  0  0  0  0  0  0  0  0  0  0
  149.2987  137.7231  154.5772 N   0  3  2  0  0  0  0  0  0  0  0  0
  147.8983  138.1977  154.4606 C   0  0  0  0  0  0  0  0  0  0  0  0
  147.4090  138.8158  155.7822 C   0  0  0  0  0  0  0  0  0  0  0  0
  147.5491  137.8628  156.8282 O   0  0  0  0  0  0  0  0  0  0  0  0
  148.9046  137.4814  157.0443 C   0  0  1  0  0  0  0  0  0  0  0  0
  148.9423  136.5041  158.2268 C   0  0  0  0  0  0  0  0  0  0  0  0
  148.3995  137.1015  159.4375 N   0  0  0  0  0  0  0  0  0  0  0  0
  147.9146  136.3747  160.5077 C   0  0  0  0  0  0  0  0  0  0  0  0
  147.5161  137.0948  161.5584 N   0  0  0  0  0  0  0  0  0  0  0  0
  147.0357  136.4144  162.6219 C   0  0  0  0  0  0  0  0  0  0  0  0
  146.9555  135.0077  162.6290 C   0  0  0  0  0  0  0  0  0  0  0  0
  147.4058  134.3486  161.4633 C   0  0  0  0  0  0  0  0  0  0  0  0
  147.3786  132.8338  161.3269 C   0  0  0  0  0  0  0  0  0  0  0  0
  148.2145  132.2491  162.1856 F   0  0  0  0  0  0  0  0  0  0  0  0
  146.1464  132.3837  161.5634 F   0  0  0  0  0  0  0  0  0  0  0  0
  147.7330  132.4877  160.0892 F   0  0  0  0  0  0  0  0  0  0  0  0
  147.8856  135.0415  160.4044 N   0  0  0  0  0  0  0  0  0  0  0  0
  149.4450  136.8271  155.7534 C   0  0  0  0  0  0  0  0  0  0  0  0
  152.4569  139.1099  154.4834 H   0  0  0  0  0  0  0  0  0  0  0  0
  151.9617  137.5148  153.9310 H   0  0  0  0  0  0  0  0  0  0  0  0
  151.9318  137.9104  155.6499 H   0  0  0  0  0  0  0  0  0  0  0  0
  150.0954  139.5971  155.2239 H   0  0  0  0  0  0  0  0  0  0  0  0
  150.2307  139.2886  153.5133 H   0  0  0  0  0  0  0  0  0  0  0  0
  147.7962  138.9067  153.6383 H   0  0  0  0  0  0  0  0  0  0  0  0
  147.2670  137.3445  154.2083 H   0  0  0  0  0  0  0  0  0  0  0  0
  147.9575  139.7274  156.0234 H   0  0  0  0  0  0  0  0  0  0  0  0
  146.3578  139.0922  155.6985 H   0  0  0  0  0  0  0  0  0  0  0  0
  149.5003  138.3603  157.2954 H   0  0  0  0  0  0  0  0  0  0  0  0
  148.3890  135.5955  157.9856 H   0  0  0  0  0  0  0  0  0  0  0  0
  149.9732  136.2087  158.4258 H   0  0  0  0  0  0  0  0  0  0  0  0
  148.3183  138.1067  159.4861 H   0  0  0  0  0  0  0  0  0  0  0  0
  146.7132  136.9960  163.4728 H   0  0  0  0  0  0  0  0  0  0  0  0
  146.5695  134.4720  163.4835 H   0  0  0  0  0  0  0  0  0  0  0  0
  148.8821  135.9147  155.5509 H   0  0  0  0  0  0  0  0  0  0  0  0
  150.4812  136.5170  155.8825 H   0  0  0  0  0  0  0  0  0  0  0  0
  149.4640  137.1527  153.7598 H   0  0  0  0  0  0  0  0  0  0  0  0
  1  2  1  0  0  0  0
  1 21  1  0  0  0  0
  1 22  1  0  0  0  0
  1 23  1  0  0  0  0
  2  3  1  0  0  0  0
  2 24  1  0  0  0  0
  2 25  1  0  0  0  0
  3 20  1  0  0  0  0
  3  4  1  0  0  0  0
  3 38  1  0  0  0  0
  4  5  1  0  0  0  0
  4 26  1  0  0  0  0
  4 27  1  0  0  0  0
  5  6  1  0  0  0  0
  5 28  1  0  0  0  0
  5 29  1  0  0  0  0
  6  7  1  0  0  0  0
  7  8  1  0  0  0  0
  7 20  1  0  0  0  0
  7 30  1  0  0  0  0
  8  9  1  0  0  0  0
  8 31  1  0  0  0  0
  8 32  1  0  0  0  0
  9 10  1  0  0  0  0
  9 33  1  0  0  0  0
 10 19  1  0  0  0  0
 10 11  2  0  0  0  0
 11 12  1  0  0  0  0
 12 13  2  0  0  0  0
 12 34  1  0  0  0  0
 13 14  1  0  0  0  0
 13 35  1  0  0  0  0
 14 15  1  0  0  0  0
 14 19  2  0  0  0  0
 15 16  1  0  0  0  0
 15 17  1  0  0  0  0
 15 18  1  0  0  0  0
 20 36  1  0  0  0  0
 20 37  1  0  0  0  0
M  CHG  1   3   1
M  END
> <s_m_source_file>
AV-unprocessed.smi

> <i_m_source_file_index>
1053

> <i_lp_mmshare_version>
43012

> <i_f3d_flags>
0

> <s_epik_input>
W0NIM11bQ0gyXU4xW0NIMl1bQ0gyXU9bQ0BIXShbQ0gyXTEpW0NIMl1bTkhdYzJuW2NIXVtjSF1jKG4yKUMoRikoRilG

> <s_epik_cmdline>
J2VwaWtfcHl0aG9uJywgJy1waCcsICc3LjAnLCAnLXRuJywgJzgnLCAnLW1hJywgJzIwMCcsICctbWV0YWxfYmluZGluZycsICctaW1hZScsICc8aW5maWxlLm1hZT4nLCAnLW9tYWUnLCAnPG91dGZpbGUubWFlPic=

> <r_lp_tautomer_probability>
1

> <r_epik_Ionization_Penalty>
0.178506

> <r_epik_Ionization_Penalty_Charging>
0.178504

> <r_epik_Ionization_Penalty_Neutral>
2.47619e-06

> <r_epik_State_Penalty>
0.167974

> <r_epik_Charging_Adjusted_Penalty>
0.346478

> <i_epik_Tot_Q>
1

> <i_epik_Tot_abs_Q>
1

> <r_epik_Metal_State_Penalty>
0.167974

> <b_epik_Metal_Only>
0

> <s_lp_Force_Field>
OPLS_2005

> <r_lp_Energy>
12.5681

> <b_lp_Chiralities_Consistent>
1

> <s_lp_Variant>
AV-unprocessed.smi:1053-2

> <Gold.Version>
5.8.1

> <Gold.Id.Protein>
6NUR|6NUR_protein|mol2

> <Gold.PLP.Fitness>
43.2040

> <Gold.PLP.PLP>
-32.4755

> <Gold.PLP.part.hbond>
-3.0000

> <Gold.PLP.part.metal>
0.0000

> <Gold.PLP.part.buried>
-4.8538

> <Gold.PLP.part.nonpolar>
-24.4114

> <Gold.PLP.part.repulsive>
0.2039

> <Gold.PLP.ligand.clash>
0.0000

> <Gold.PLP.ligand.torsion>
0.2823

> <Gold.PLP.Chemscore.Hbond>
3.7520

> <Gold.PLP.Chemscore.CHOScore>
0.0000

> <Gold.PLP.Chemscore.Metal>
0.0000

> <Gold.Chemscore.Hbonds>
donor molecule, donor type, donor heavy atom, donor atom, acceptor molecule, acceptor atom, score
      L1  H     3    38       P1  7948  1.43
      P1  H  6931  6943       L1    11  0.99
      P1  H  6934  6947       L1    11  0.81

> <Gold.PLP.Chemscore.Internal.Correction>
0.0370

> <Gold.Rescore>
     Score         DG    S(hbond)    S(metal)    S(lipo)     H(rot)  DE(clash)    DE(int)     intcor
     15.75     -16.33       2.40        0.00      58.09       1.55       0.01       0.57       ----

> <Gold.Chemscore.Fitness>
15.7544

> <Gold.Chemscore.DG>
-16.3287

> <Gold.Chemscore.ZeroCoef>
-5.4800

> <Gold.Chemscore.Hbond>
2.4049

> <Gold.Chemscore.Metal>
0.0000

> <Gold.Chemscore.Lipo>
58.0931

> <Gold.Chemscore.Internal_Hbond>
0.0000

> <Gold.Chemscore.DEClash>
0.0082

> <Gold.Chemscore.DEInternal>
0.5661

> <Gold.Chemscore.Rot>
1.5549

> <Gold.Chemscore.Internal.Correction>
   9.000000E+99

> <Gold.Chemscore.Hbonds>
donor molecule, donor type, donor heavy atom, donor atom, acceptor molecule, acceptor atom, score
      L1  H     3    38       P1  7948  0.66
      P1  H  6931  6943       L1    11  0.39
      P1  H  6934  6947       L1    11  0.52

> <Gold.Chemscore.Hbond.Weighted>
-8.0324

> <Gold.Chemscore.Metal.Weighted>
-0.0000

> <Gold.Chemscore.Lipo.Weighted>
-6.7969

> <Gold.Chemscore.Internal_Hbond.Weighted>
0.0000

> <Gold.Chemscore.DEClash.Weighted>
0.0082

> <Gold.Chemscore.DEInternal.Weighted>
0.5661

> <Gold.Chemscore.Rot.Weighted>
3.9806

> <Gold.Chemscore.Internal.Correction.Weighted>
   9.000000E+99

> <Gold.Protein.RotatedTorsions>
[ 6907 6896 6895 6894 ] final  175.59 input  -60.11 | X-H torsion
[ 7974 7965 7964 7962 ] final -136.04 input  175.53 | X-H torsion
[ 8008 7997 7996 7995 ] final  175.44 input   59.86 | X-H torsion
[ 10167 10162 10161 10158 ] final  162.58 input  -65.29 | X-H torsion
[ 10718 10713 10712 10709 ] final   76.31 input   66.30 | X-H torsion
[ 10763 10752 10751 10750 ] final   48.30 input  -60.55 | X-H torsion
[ 11005 11000 10999 10996 ] final  -35.79 input  -57.11 | X-H torsion

> <Gold.Protein.ActiveResidues>
 VAL166  LYS551  ARG553  GLY616  TRP617  ASP618  TYR619  PRO620  LYS621  CYS622 
 ASP623  PHE694  ASN695  SER759  ASP760  ASP761  ALA762  ILE779  LEU786  VAL792 
 PHE793  MET794  SER795  GLU796  ALA797  LYS798  CYS799  TRP800  GLU811  SER814 

> <Gold.Protein.RotatedAtoms>
  151.7338  133.3319  159.3347 H   0  0  0  0  0  0  0  0  0  0  0  0  # atno 6907 bound_to 6896
  150.7601  134.6339  159.6210 H   0  0  0  0  0  0  0  0  0  0  0  0  # atno 6908 bound_to 6896
  152.3574  134.6922  160.0269 H   0  0  0  0  0  0  0  0  0  0  0  0  # atno 6909 bound_to 6896
  144.8961  140.6708  143.5114 H   0  0  0  0  0  0  0  0  0  0  0  0  # atno 7974 bound_to 7965
  156.0871  140.1409  156.9640 H   0  0  0  0  0  0  0  0  0  0  0  0  # atno 8008 bound_to 7997
  154.4619  140.0940  156.6964 H   0  0  0  0  0  0  0  0  0  0  0  0  # atno 8009 bound_to 7997
  155.4981  140.3450  155.4368 H   0  0  0  0  0  0  0  0  0  0  0  0  # atno 8010 bound_to 7997
  139.4862  144.4423  151.8936 H   0  0  0  0  0  0  0  0  0  0  0  0  # atno 10167 bound_to 10162
  157.6668  130.9768  150.1478 H   0  0  0  0  0  0  0  0  0  0  0  0  # atno 10718 bound_to 10713
  152.9793  135.5948  154.3904 H   0  0  0  0  0  0  0  0  0  0  0  0  # atno 10763 bound_to 10752
  154.3560  135.2767  155.2348 H   0  0  0  0  0  0  0  0  0  0  0  0  # atno 10764 bound_to 10752
  154.4366  135.6023  153.6157 H   0  0  0  0  0  0  0  0  0  0  0  0  # atno 10765 bound_to 10752
  140.9824  133.7049  156.1707 H   0  0  0  0  0  0  0  0  0  0  0  0  # atno 11005 bound_to 11000
  145.3698  139.1661  143.4338 LP  0  0  0  0  0  0  0  0  0  0  0  0  # atno 17320 bound_to 7965
  146.3082  140.3768  142.8680 LP  0  0  0  0  0  0  0  0  0  0  0  0  # atno 17321 bound_to 7965
  140.3875  144.2657  150.5902 LP  0  0  0  0  0  0  0  0  0  0  0  0  # atno 17342 bound_to 10162
  140.5176  143.2274  151.8438 LP  0  0  0  0  0  0  0  0  0  0  0  0  # atno 17343 bound_to 10162
  156.2285  130.3680  149.8473 LP  0  0  0  0  0  0  0  0  0  0  0  0  # atno 17370 bound_to 10713
  156.6306  130.8664  151.3494 LP  0  0  0  0  0  0  0  0  0  0  0  0  # atno 17371 bound_to 10713
  140.7166  134.4404  157.5578 LP  0  0  0  0  0  0  0  0  0  0  0  0  # atno 17394 bound_to 11000
  139.8956  134.8679  156.2125 LP  0  0  0  0  0  0  0  0  0  0  0  0  # atno 17395 bound_to 11000

$$$$
