AV-unprocessed.smi:1492|AV-procd|sdf|6037|dock6
  -GOLD-   22720 6143D 1   1.00000     0.00000
 Structure written by MMmdl.
 52 53  0  0  0  0  0  0  0  0  1 V2000
  144.3422  132.7357  158.1970 C   0  0  0  0  0  0  0  0  0  0  0  0
  145.7930  132.2528  158.3839 C   0  0  0  0  0  0  0  0  0  0  0  0
  146.8496  133.2886  158.8992 C   0  0  2  0  0  0  0  0  0  0  0  0
  146.9678  134.4230  157.8502 C   0  0  0  0  0  0  0  0  0  0  0  0
  148.2391  132.5814  158.9786 C   0  0  0  0  0  0  0  0  0  0  0  0
  148.7010  132.1771  157.6541 N   0  0  0  0  0  0  0  0  0  0  0  0
  149.9420  132.3324  157.1723 C   0  0  0  0  0  0  0  0  0  0  0  0
  150.8051  133.0276  157.7066 O   0  0  0  0  0  0  0  0  0  0  0  0
  150.2688  131.5246  155.9178 C   0  0  0  0  0  0  0  0  0  0  0  0
  149.3889  131.8619  154.7146 C   0  0  0  0  0  0  0  0  0  0  0  0
  148.6082  130.9378  154.0818 C   0  0  0  0  0  0  0  0  0  0  0  0
  148.5542  129.4785  154.4993 C   0  0  0  0  0  0  0  0  0  0  0  0
  147.7833  131.2870  153.0036 N   0  0  0  0  0  0  0  0  0  0  0  0
  147.7588  132.5185  152.6131 C   0  0  0  0  0  0  0  0  0  0  0  0
  146.9014  133.0255  151.4732 C   0  0  0  0  0  0  0  0  0  0  0  0
  148.5273  133.5112  153.2176 N   0  0  0  0  0  0  0  0  0  0  0  0
  149.3575  133.2643  154.2551 C   0  0  0  0  0  0  0  0  0  0  0  0
  150.0119  134.1765  154.7577 O   0  0  0  0  0  0  0  0  0  0  0  0
  146.4420  133.8036  160.2436 N   0  0  0  0  0  0  0  0  0  0  0  0
  146.1174  132.7735  161.2399 C   0  0  0  0  0  0  0  0  0  0  0  0
  145.5680  133.3782  162.5421 C   0  0  0  0  0  0  0  0  0  0  0  0
  146.5116  134.2969  163.0770 O   0  0  0  0  0  0  0  0  0  0  0  0
  146.8154  135.3476  162.1693 C   0  0  0  0  0  0  0  0  0  0  0  0
  147.3681  134.7637  160.8577 C   0  0  0  0  0  0  0  0  0  0  0  0
  148.4669  134.4571  152.8702 H   0  0  0  0  0  0  0  0  0  0  0  0
  143.6971  131.8949  157.9422 H   0  0  0  0  0  0  0  0  0  0  0  0
  144.2517  133.4559  157.3843 H   0  0  0  0  0  0  0  0  0  0  0  0
  143.9387  133.1870  159.1026 H   0  0  0  0  0  0  0  0  0  0  0  0
  145.7409  131.4128  159.0762 H   0  0  0  0  0  0  0  0  0  0  0  0
  146.1290  131.8313  157.4354 H   0  0  0  0  0  0  0  0  0  0  0  0
  147.2959  134.0429  156.8835 H   0  0  0  0  0  0  0  0  0  0  0  0
  147.6981  135.1771  158.1418 H   0  0  0  0  0  0  0  0  0  0  0  0
  146.0177  134.9304  157.6849 H   0  0  0  0  0  0  0  0  0  0  0  0
  148.9925  133.2366  159.4135 H   0  0  0  0  0  0  0  0  0  0  0  0
  148.2116  131.7363  159.6663 H   0  0  0  0  0  0  0  0  0  0  0  0
  148.0669  131.6000  157.1204 H   0  0  0  0  0  0  0  0  0  0  0  0
  151.3226  131.6599  155.6711 H   0  0  0  0  0  0  0  0  0  0  0  0
  150.1729  130.4644  156.1522 H   0  0  0  0  0  0  0  0  0  0  0  0
  148.2382  129.3877  155.5384 H   0  0  0  0  0  0  0  0  0  0  0  0
  149.5328  129.0110  154.3893 H   0  0  0  0  0  0  0  0  0  0  0  0
  147.8461  128.9177  153.8878 H   0  0  0  0  0  0  0  0  0  0  0  0
  147.1513  132.4987  150.5522 H   0  0  0  0  0  0  0  0  0  0  0  0
  147.0442  134.0936  151.3054 H   0  0  0  0  0  0  0  0  0  0  0  0
  145.8475  132.8525  151.6924 H   0  0  0  0  0  0  0  0  0  0  0  0
  145.3692  132.0802  160.8642 H   0  0  0  0  0  0  0  0  0  0  0  0
  147.0034  132.1844  161.4765 H   0  0  0  0  0  0  0  0  0  0  0  0
  144.6180  133.8823  162.3635 H   0  0  0  0  0  0  0  0  0  0  0  0
  145.3805  132.5930  163.2743 H   0  0  0  0  0  0  0  0  0  0  0  0
  145.9215  135.9422  161.9784 H   0  0  0  0  0  0  0  0  0  0  0  0
  147.5484  136.0119  162.6269 H   0  0  0  0  0  0  0  0  0  0  0  0
  148.3274  134.2864  161.0581 H   0  0  0  0  0  0  0  0  0  0  0  0
  147.5623  135.6029  160.1932 H   0  0  0  0  0  0  0  0  0  0  0  0
  1  2  1  0  0  0  0
  1 26  1  0  0  0  0
  1 27  1  0  0  0  0
  1 28  1  0  0  0  0
  2  3  1  0  0  0  0
  2 29  1  0  0  0  0
  2 30  1  0  0  0  0
  3  4  1  0  0  0  0
  3  5  1  0  0  0  0
  3 19  1  0  0  0  0
  4 31  1  0  0  0  0
  4 32  1  0  0  0  0
  4 33  1  0  0  0  0
  5  6  1  0  0  0  0
  5 34  1  0  0  0  0
  5 35  1  0  0  0  0
  6  7  1  0  0  0  0
  6 36  1  0  0  0  0
  7  8  2  0  0  0  0
  7  9  1  0  0  0  0
  9 10  1  0  0  0  0
  9 37  1  0  0  0  0
  9 38  1  0  0  0  0
 10 17  1  0  0  0  0
 10 11  2  0  0  0  0
 11 12  1  0  0  0  0
 11 13  1  0  0  0  0
 12 39  1  0  0  0  0
 12 40  1  0  0  0  0
 12 41  1  0  0  0  0
 13 14  2  0  0  0  0
 14 15  1  0  0  0  0
 14 16  1  0  0  0  0
 15 42  1  0  0  0  0
 15 43  1  0  0  0  0
 15 44  1  0  0  0  0
 16 25  1  0  0  0  0
 16 17  1  0  0  0  0
 17 18  2  0  0  0  0
 19 24  1  0  0  0  0
 19 20  1  0  0  0  0
 20 21  1  0  0  0  0
 20 45  1  0  0  0  0
 20 46  1  0  0  0  0
 21 22  1  0  0  0  0
 21 47  1  0  0  0  0
 21 48  1  0  0  0  0
 22 23  1  0  0  0  0
 23 24  1  0  0  0  0
 23 49  1  0  0  0  0
 23 50  1  0  0  0  0
 24 51  1  0  0  0  0
 24 52  1  0  0  0  0
M  END
> <s_m_source_file>
AV-unprocessed.smi

> <i_m_source_file_index>
1492

> <i_lp_mmshare_version>
43012

> <i_f3d_flags>
0

> <s_epik_input>
W0NIMl0xW0NIMl1PW0NIMl1bQ0gyXU4xW0NAQF0oW0NIM10pKFtDSDJdW0NIM10pW0NIMl1bTkhdQyg9TylbQ0gyXWMyYyhbQ0gzXSluYyhbQ0gzXSlbbkhdYzI9Tw==

> <s_epik_cmdline>
J2VwaWtfcHl0aG9uJywgJy1waCcsICc3LjAnLCAnLXRuJywgJzgnLCAnLW1hJywgJzIwMCcsICctbWV0YWxfYmluZGluZycsICctaW1hZScsICc8aW5maWxlLm1hZT4nLCAnLW9tYWUnLCAnPG91dGZpbGUubWFlPic=

> <r_lp_tautomer_probability>
0.839158

> <r_epik_Ionization_Penalty>
0.328652

> <r_epik_Ionization_Penalty_Charging>
0.000364731

> <r_epik_Ionization_Penalty_Neutral>
0.328288

> <r_epik_State_Penalty>
0.414451

> <r_epik_Charging_Adjusted_Penalty>
0.414816

> <i_epik_Tot_Q>
0

> <i_epik_Tot_abs_Q>
0

> <r_epik_Metal_State_Penalty>
0.592978

> <b_epik_Metal_Only>
0

> <s_lp_Force_Field>
OPLS_2005

> <r_lp_Energy>
44.0338

> <b_lp_Chiralities_Consistent>
1

> <s_lp_Variant>
AV-unprocessed.smi:1492-2

> <Gold.Version>
5.8.1

> <Gold.Id.Protein>
6NUR|6NUR_protein|mol2

> <Gold.PLP.Fitness>
37.1855

> <Gold.PLP.PLP>
-31.4503

> <Gold.PLP.part.hbond>
-3.0000

> <Gold.PLP.part.metal>
0.0000

> <Gold.PLP.part.buried>
-4.5298

> <Gold.PLP.part.nonpolar>
-24.8254

> <Gold.PLP.part.repulsive>
1.0470

> <Gold.PLP.ligand.clash>
0.0000

> <Gold.PLP.ligand.torsion>
0.1974

> <Gold.PLP.Chemscore.Hbond>
2.0000

> <Gold.PLP.Chemscore.CHOScore>
0.0000

> <Gold.PLP.Chemscore.Metal>
0.0000

> <Gold.Chemscore.Hbonds>
donor molecule, donor type, donor heavy atom, donor atom, acceptor molecule, acceptor atom, score
      L1  H    16    25       P1  7948  0.90
      P1  H  6896  6908       L1     8  1.00

> <Gold.PLP.Chemscore.Internal.Correction>
0.1299

> <Gold.Rescore>
     Score         DG    S(hbond)    S(metal)    S(lipo)     H(rot)  DE(clash)    DE(int)     intcor
     12.65     -12.97       1.78        0.00      59.59       2.12       0.00       0.33       ----

> <Gold.Chemscore.Fitness>
12.6454

> <Gold.Chemscore.DG>
-12.9734

> <Gold.Chemscore.ZeroCoef>
-5.4800

> <Gold.Chemscore.Hbond>
1.7777

> <Gold.Chemscore.Metal>
0.0000

> <Gold.Chemscore.Lipo>
59.5879

> <Gold.Chemscore.Internal_Hbond>
0.0000

> <Gold.Chemscore.DEClash>
0.0029

> <Gold.Chemscore.DEInternal>
0.3252

> <Gold.Chemscore.Rot>
2.1155

> <Gold.Chemscore.Internal.Correction>
   9.000000E+99

> <Gold.Chemscore.Hbonds>
donor molecule, donor type, donor heavy atom, donor atom, acceptor molecule, acceptor atom, score
      L1  H    16    25       P1  7948  0.19
      P1  H  6896  6908       L1     8  0.96

> <Gold.Chemscore.Hbond.Weighted>
-5.9374

> <Gold.Chemscore.Metal.Weighted>
-0.0000

> <Gold.Chemscore.Lipo.Weighted>
-6.9718

> <Gold.Chemscore.Internal_Hbond.Weighted>
0.0000

> <Gold.Chemscore.DEClash.Weighted>
0.0029

> <Gold.Chemscore.DEInternal.Weighted>
0.3252

> <Gold.Chemscore.Rot.Weighted>
5.4157

> <Gold.Chemscore.Internal.Correction.Weighted>
   9.000000E+99

> <Gold.Protein.RotatedTorsions>
[ 6907 6896 6895 6894 ] final   98.32 input  -60.11 | X-H torsion
[ 7974 7965 7964 7962 ] final  -33.42 input  175.53 | X-H torsion
[ 8008 7997 7996 7995 ] final  -67.73 input   59.86 | X-H torsion
[ 10167 10162 10161 10158 ] final   34.84 input  -65.29 | X-H torsion
[ 10718 10713 10712 10709 ] final -119.15 input   66.30 | X-H torsion
[ 10763 10752 10751 10750 ] final  -68.24 input  -60.55 | X-H torsion
[ 11005 11000 10999 10996 ] final -108.85 input  -57.11 | X-H torsion

> <Gold.Protein.ActiveResidues>
 VAL166  LYS551  ARG553  GLY616  TRP617  ASP618  TYR619  PRO620  LYS621  CYS622 
 ASP623  PHE694  ASN695  SER759  ASP760  ASP761  ALA762  ILE779  LEU786  VAL792 
 PHE793  MET794  SER795  GLU796  ALA797  LYS798  CYS799  TRP800  GLU811  SER814 

> <Gold.Protein.RotatedAtoms>
  152.5411  134.0599  159.8147 H   0  0  0  0  0  0  0  0  0  0  0  0  # atno 6907 bound_to 6896
  151.0728  133.5445  159.2633 H   0  0  0  0  0  0  0  0  0  0  0  0  # atno 6908 bound_to 6896
  151.2301  135.0559  159.9038 H   0  0  0  0  0  0  0  0  0  0  0  0  # atno 6909 bound_to 6896
  146.0912  140.5914  142.8863 H   0  0  0  0  0  0  0  0  0  0  0  0  # atno 7974 bound_to 7965
  154.4819  140.0887  156.7398 H   0  0  0  0  0  0  0  0  0  0  0  0  # atno 8008 bound_to 7997
  155.4448  140.3455  155.4275 H   0  0  0  0  0  0  0  0  0  0  0  0  # atno 8009 bound_to 7997
  156.1204  140.1472  156.9200 H   0  0  0  0  0  0  0  0  0  0  0  0  # atno 8010 bound_to 7997
  140.4278  144.1369  150.6155 H   0  0  0  0  0  0  0  0  0  0  0  0  # atno 10167 bound_to 10162
  156.1160  130.6286  150.9381 H   0  0  0  0  0  0  0  0  0  0  0  0  # atno 10718 bound_to 10713
  154.3862  135.6063  153.5818 H   0  0  0  0  0  0  0  0  0  0  0  0  # atno 10763 bound_to 10752
  152.9787  135.5872  154.4352 H   0  0  0  0  0  0  0  0  0  0  0  0  # atno 10764 bound_to 10752
  154.4129  135.2844  155.2003 H   0  0  0  0  0  0  0  0  0  0  0  0  # atno 10765 bound_to 10752
  141.0880  133.9105  157.2142 H   0  0  0  0  0  0  0  0  0  0  0  0  # atno 11005 bound_to 11000
  144.7361  140.4813  143.6902 LP  0  0  0  0  0  0  0  0  0  0  0  0  # atno 17320 bound_to 7965
  145.6035  139.1506  143.3115 LP  0  0  0  0  0  0  0  0  0  0  0  0  # atno 17321 bound_to 7965
  140.4462  143.2506  151.9408 LP  0  0  0  0  0  0  0  0  0  0  0  0  # atno 17342 bound_to 10162
  139.4784  144.5607  151.8244 LP  0  0  0  0  0  0  0  0  0  0  0  0  # atno 17343 bound_to 10162
  157.6343  131.0918  150.8380 LP  0  0  0  0  0  0  0  0  0  0  0  0  # atno 17370 bound_to 10713
  156.8483  130.5072  149.5314 LP  0  0  0  0  0  0  0  0  0  0  0  0  # atno 17371 bound_to 10713
  139.9701  135.0131  156.9489 LP  0  0  0  0  0  0  0  0  0  0  0  0  # atno 17394 bound_to 11000
  140.5319  134.0805  155.7318 LP  0  0  0  0  0  0  0  0  0  0  0  0  # atno 17395 bound_to 11000

$$$$
