AV-unprocessed.smi:1940|AV-procd|sdf|7839|dock7
  -GOLD-   22720 9583D 1   1.00000     0.00000
 Structure written by MMmdl.
 49 51  0  0  0  0  0  0  0  0  1 V2000
  147.3315  133.3975  155.3199 C   0  0  0  0  0  0  0  0  0  0  0  0
  148.4244  133.3881  154.2412 C   0  0  2  0  0  0  0  0  0  0  0  0
  148.9411  134.7460  154.0758 N   0  0  0  0  0  0  0  0  0  0  0  0
  149.4327  135.5269  155.0489 C   0  0  0  0  0  0  0  0  0  0  0  0
  149.4976  135.1841  156.2284 O   0  0  0  0  0  0  0  0  0  0  0  0
  149.8313  136.7118  154.5549 N   0  0  0  0  0  0  0  0  0  0  0  0
  150.4046  137.8269  155.2267 C   0  0  0  0  0  0  0  0  0  0  0  0
  151.4315  138.6506  154.7077 C   0  0  0  0  0  0  0  0  0  0  0  0
  151.8995  139.7282  155.4841 C   0  0  0  0  0  0  0  0  0  0  0  0
  151.3326  139.9632  156.7582 C   0  0  0  0  0  0  0  0  0  0  0  0
  151.7934  141.0365  157.5508 N   0  0  0  0  0  0  0  0  0  0  0  0
  151.0229  142.2824  157.5205 C   0  0  0  0  0  0  0  0  0  0  0  0
  151.8291  143.4492  158.1155 C   0  0  0  0  0  0  0  0  0  0  0  0
  152.3378  143.1063  159.5231 C   0  0  0  0  0  0  0  0  0  0  0  0
  153.1403  141.7971  159.4874 C   0  0  0  0  0  0  0  0  0  0  0  0
  152.3148  140.6575  158.8656 C   0  0  0  0  0  0  0  0  0  0  0  0
  150.3419  139.1790  157.2482 N   0  0  0  0  0  0  0  0  0  0  0  0
  149.8976  138.1468  156.5020 C   0  0  0  0  0  0  0  0  0  0  0  0
  147.9010  132.8541  152.8934 C   0  0  1  0  0  0  0  0  0  0  0  0
  147.0881  131.5616  152.9874 C   0  0  0  0  0  0  0  0  0  0  0  0
  146.2775  131.6204  151.7135 C   0  0  0  0  0  0  0  0  0  0  0  0
  145.9550  133.1088  151.6143 C   0  0  0  0  0  0  0  0  0  0  0  0
  147.0072  133.7895  152.2947 O   0  0  0  0  0  0  0  0  0  0  0  0
  146.9427  132.3938  155.4944 H   0  0  0  0  0  0  0  0  0  0  0  0
  146.4931  134.0331  155.0327 H   0  0  0  0  0  0  0  0  0  0  0  0
  147.7203  133.7665  156.2694 H   0  0  0  0  0  0  0  0  0  0  0  0
  149.2188  132.7219  154.5826 H   0  0  0  0  0  0  0  0  0  0  0  0
  148.9302  135.1172  153.1370 H   0  0  0  0  0  0  0  0  0  0  0  0
  149.6832  136.8430  153.5651 H   0  0  0  0  0  0  0  0  0  0  0  0
  151.8679  138.4937  153.7347 H   0  0  0  0  0  0  0  0  0  0  0  0
  152.6740  140.3695  155.0903 H   0  0  0  0  0  0  0  0  0  0  0  0
  150.7455  142.5280  156.4946 H   0  0  0  0  0  0  0  0  0  0  0  0
  150.0974  142.1444  158.0814 H   0  0  0  0  0  0  0  0  0  0  0  0
  152.6761  143.6752  157.4662 H   0  0  0  0  0  0  0  0  0  0  0  0
  151.2148  144.3493  158.1475 H   0  0  0  0  0  0  0  0  0  0  0  0
  152.9549  143.9180  159.9093 H   0  0  0  0  0  0  0  0  0  0  0  0
  151.4929  143.0022  160.2050 H   0  0  0  0  0  0  0  0  0  0  0  0
  154.0528  141.9439  158.9080 H   0  0  0  0  0  0  0  0  0  0  0  0
  153.4540  141.5228  160.4949 H   0  0  0  0  0  0  0  0  0  0  0  0
  151.4725  140.4138  159.5143 H   0  0  0  0  0  0  0  0  0  0  0  0
  152.9338  139.7630  158.8104 H   0  0  0  0  0  0  0  0  0  0  0  0
  149.1086  137.5545  156.9421 H   0  0  0  0  0  0  0  0  0  0  0  0
  148.7313  132.6997  152.2015 H   0  0  0  0  0  0  0  0  0  0  0  0
  147.7104  130.6689  153.0563 H   0  0  0  0  0  0  0  0  0  0  0  0
  146.4258  131.5852  153.8540 H   0  0  0  0  0  0  0  0  0  0  0  0
  146.8914  131.3114  150.8665 H   0  0  0  0  0  0  0  0  0  0  0  0
  145.3876  130.9910  151.7393 H   0  0  0  0  0  0  0  0  0  0  0  0
  145.8692  133.4440  150.5805 H   0  0  0  0  0  0  0  0  0  0  0  0
  145.0158  133.3317  152.1215 H   0  0  0  0  0  0  0  0  0  0  0  0
  1  2  1  0  0  0  0
  1 24  1  0  0  0  0
  1 25  1  0  0  0  0
  1 26  1  0  0  0  0
  2  3  1  0  0  0  0
  2 19  1  0  0  0  0
  2 27  1  0  0  0  0
  3  4  1  0  0  0  0
  3 28  1  0  0  0  0
  4  5  2  0  0  0  0
  4  6  1  0  0  0  0
  6  7  1  0  0  0  0
  6 29  1  0  0  0  0
  7 18  1  0  0  0  0
  7  8  2  0  0  0  0
  8  9  1  0  0  0  0
  8 30  1  0  0  0  0
  9 10  2  0  0  0  0
  9 31  1  0  0  0  0
 10 11  1  0  0  0  0
 10 17  1  0  0  0  0
 11 16  1  0  0  0  0
 11 12  1  0  0  0  0
 12 13  1  0  0  0  0
 12 32  1  0  0  0  0
 12 33  1  0  0  0  0
 13 14  1  0  0  0  0
 13 34  1  0  0  0  0
 13 35  1  0  0  0  0
 14 15  1  0  0  0  0
 14 36  1  0  0  0  0
 14 37  1  0  0  0  0
 15 16  1  0  0  0  0
 15 38  1  0  0  0  0
 15 39  1  0  0  0  0
 16 40  1  0  0  0  0
 16 41  1  0  0  0  0
 17 18  2  0  0  0  0
 18 42  1  0  0  0  0
 19 23  1  0  0  0  0
 19 20  1  0  0  0  0
 19 43  1  0  0  0  0
 20 21  1  0  0  0  0
 20 44  1  0  0  0  0
 20 45  1  0  0  0  0
 21 22  1  0  0  0  0
 21 46  1  0  0  0  0
 21 47  1  0  0  0  0
 22 23  1  0  0  0  0
 22 48  1  0  0  0  0
 22 49  1  0  0  0  0
M  END
> <s_m_source_file>
AV-unprocessed.smi

> <i_m_source_file_index>
1940

> <i_lp_mmshare_version>
43012

> <i_f3d_flags>
0

> <s_epik_input>
TzFbQ0gyXVtDSDJdW0NIMl1bQ0BIXTFbQ0BIXShbQ0gzXSlbTkhdQyg9TylbTkhdYzJbY0hdW2NIXWMobltjSF0yKU4zW0NIMl1bQ0gyXVtDSDJdW0NIMl1bQ0gyXTM=

> <s_epik_cmdline>
J2VwaWtfcHl0aG9uJywgJy1waCcsICc3LjAnLCAnLXRuJywgJzgnLCAnLW1hJywgJzIwMCcsICctbWV0YWxfYmluZGluZycsICctaW1hZScsICc8aW5maWxlLm1hZT4nLCAnLW9tYWUnLCAnPG91dGZpbGUubWFlPic=

> <r_lp_tautomer_probability>
1

> <r_epik_Ionization_Penalty>
0.105688

> <r_epik_Ionization_Penalty_Charging>
0

> <r_epik_Ionization_Penalty_Neutral>
0.105688

> <r_epik_State_Penalty>
0.0895745

> <r_epik_Charging_Adjusted_Penalty>
0.0895745

> <i_epik_Tot_Q>
0

> <i_epik_Tot_abs_Q>
0

> <r_epik_Metal_State_Penalty>
0.0765749

> <b_epik_Metal_Only>
0

> <s_lp_Force_Field>
OPLS_2005

> <r_lp_Energy>
32.8596

> <b_lp_Chiralities_Consistent>
1

> <s_lp_Variant>
AV-unprocessed.smi:1940-3

> <Gold.Version>
5.8.1

> <Gold.Id.Protein>
6NUR|6NUR_protein|mol2

> <Gold.PLP.Fitness>
43.1720

> <Gold.PLP.PLP>
-38.2562

> <Gold.PLP.part.hbond>
-2.0000

> <Gold.PLP.part.metal>
0.0000

> <Gold.PLP.part.buried>
-4.4034

> <Gold.PLP.part.nonpolar>
-32.7527

> <Gold.PLP.part.repulsive>
0.3447

> <Gold.PLP.ligand.clash>
0.0000

> <Gold.PLP.ligand.torsion>
0.7508

> <Gold.PLP.Chemscore.Hbond>
2.0000

> <Gold.PLP.Chemscore.CHOScore>
0.0000

> <Gold.PLP.Chemscore.Metal>
0.0000

> <Gold.Chemscore.Hbonds>
donor molecule, donor type, donor heavy atom, donor atom, acceptor molecule, acceptor atom, score
      L1  H     3    28       P1  7948  1.00
      L1  H     6    29       P1  7948  1.00

> <Gold.PLP.Chemscore.Internal.Correction>
0.4173

> <Gold.Rescore>
     Score         DG    S(hbond)    S(metal)    S(lipo)     H(rot)  DE(clash)    DE(int)     intcor
     18.18     -20.03       1.76        0.00     103.19       1.34       0.08       1.77       ----

> <Gold.Chemscore.Fitness>
18.1847

> <Gold.Chemscore.DG>
-20.0273

> <Gold.Chemscore.ZeroCoef>
-5.4800

> <Gold.Chemscore.Hbond>
1.7645

> <Gold.Chemscore.Metal>
0.0000

> <Gold.Chemscore.Lipo>
103.1934

> <Gold.Chemscore.Internal_Hbond>
0.0000

> <Gold.Chemscore.DEClash>
0.0752

> <Gold.Chemscore.DEInternal>
1.7675

> <Gold.Chemscore.Rot>
1.3359

> <Gold.Chemscore.Internal.Correction>
   9.000000E+99

> <Gold.Chemscore.Hbonds>
donor molecule, donor type, donor heavy atom, donor atom, acceptor molecule, acceptor atom, score
      L1  H     3    28       P1  7948  0.30
      L1  H     6    29       P1  7948  0.62

> <Gold.Chemscore.Hbond.Weighted>
-5.8936

> <Gold.Chemscore.Metal.Weighted>
-0.0000

> <Gold.Chemscore.Lipo.Weighted>
-12.0736

> <Gold.Chemscore.Internal_Hbond.Weighted>
0.0000

> <Gold.Chemscore.DEClash.Weighted>
0.0752

> <Gold.Chemscore.DEInternal.Weighted>
1.7675

> <Gold.Chemscore.Rot.Weighted>
3.4199

> <Gold.Chemscore.Internal.Correction.Weighted>
   9.000000E+99

> <Gold.Protein.RotatedTorsions>
[ 6907 6896 6895 6894 ] final  126.38 input  -60.11 | X-H torsion
[ 7974 7965 7964 7962 ] final  109.38 input  175.53 | X-H torsion
[ 8008 7997 7996 7995 ] final  -91.00 input   59.86 | X-H torsion
[ 10167 10162 10161 10158 ] final   84.48 input  -65.29 | X-H torsion
[ 10718 10713 10712 10709 ] final  -68.27 input   66.30 | X-H torsion
[ 10763 10752 10751 10750 ] final   23.61 input  -60.55 | X-H torsion
[ 11005 11000 10999 10996 ] final  100.85 input  -57.11 | X-H torsion

> <Gold.Protein.ActiveResidues>
 VAL166  LYS551  ARG553  GLY616  TRP617  ASP618  TYR619  PRO620  LYS621  CYS622 
 ASP623  PHE694  ASN695  SER759  ASP760  ASP761  ALA762  ILE779  LEU786  VAL792 
 PHE793  MET794  SER795  GLU796  ALA797  LYS798  CYS799  TRP800  GLU811  SER814 

> <Gold.Protein.RotatedAtoms>
  152.3909  133.6677  159.6236 H   0  0  0  0  0  0  0  0  0  0  0  0  # atno 6907 bound_to 6896
  150.7817  133.8956  159.3335 H   0  0  0  0  0  0  0  0  0  0  0  0  # atno 6908 bound_to 6896
  151.6743  135.0973  160.0255 H   0  0  0  0  0  0  0  0  0  0  0  0  # atno 6909 bound_to 6896
  145.2686  139.2675  143.3978 H   0  0  0  0  0  0  0  0  0  0  0  0  # atno 7974 bound_to 7965
  154.7054  140.0524  157.0499 H   0  0  0  0  0  0  0  0  0  0  0  0  # atno 8008 bound_to 7997
  155.0627  140.3191  155.4636 H   0  0  0  0  0  0  0  0  0  0  0  0  # atno 8009 bound_to 7997
  156.2773  140.2096  156.5754 H   0  0  0  0  0  0  0  0  0  0  0  0  # atno 8010 bound_to 7997
  139.9076  144.6291  150.8571 H   0  0  0  0  0  0  0  0  0  0  0  0  # atno 10167 bound_to 10162
  156.0514  130.4292  150.1976 H   0  0  0  0  0  0  0  0  0  0  0  0  # atno 10718 bound_to 10713
  153.0825  135.6623  154.0016 H   0  0  0  0  0  0  0  0  0  0  0  0  # atno 10763 bound_to 10752
  153.9634  135.2972  155.3433 H   0  0  0  0  0  0  0  0  0  0  0  0  # atno 10764 bound_to 10752
  154.7227  135.5157  153.8909 H   0  0  0  0  0  0  0  0  0  0  0  0  # atno 10765 bound_to 10752
  139.8772  134.9158  156.4818 H   0  0  0  0  0  0  0  0  0  0  0  0  # atno 11005 bound_to 11000
  146.3253  140.3122  142.8627 LP  0  0  0  0  0  0  0  0  0  0  0  0  # atno 17320 bound_to 7965
  144.9355  140.8022  143.5663 LP  0  0  0  0  0  0  0  0  0  0  0  0  # atno 17321 bound_to 7965
  140.7693  143.3390  151.2249 LP  0  0  0  0  0  0  0  0  0  0  0  0  # atno 17342 bound_to 10162
  139.6970  143.9595  152.2887 LP  0  0  0  0  0  0  0  0  0  0  0  0  # atno 17343 bound_to 10162
  157.0058  130.9936  151.3379 LP  0  0  0  0  0  0  0  0  0  0  0  0  # atno 17370 bound_to 10713
  157.5444  130.8141  149.8067 LP  0  0  0  0  0  0  0  0  0  0  0  0  # atno 17371 bound_to 10713
  140.8722  133.7980  155.9376 LP  0  0  0  0  0  0  0  0  0  0  0  0  # atno 17394 bound_to 11000
  140.8941  134.2459  157.5078 LP  0  0  0  0  0  0  0  0  0  0  0  0  # atno 17395 bound_to 11000

$$$$
