AV-unprocessed.smi:1196|AV-procd|sdf|5003|dock2
  -GOLD-   22720 4 13D 1   1.00000     0.00000
 Structure written by MMmdl.
 36 37  0  0  0  0  0  0  0  0  2 V2000
  152.2339  140.6377  158.9280 C   0  0  0  0  0  0  0  0  0  0  0  0
  153.5350  141.2632  159.4556 C   0  0  1  0  0  0  0  0  0  0  0  0
  153.2523  142.5013  160.3282 C   0  0  0  0  0  0  0  0  0  0  0  0
  152.4743  143.5062  159.6249 N   0  0  0  0  0  0  0  0  0  0  0  0
  151.9721  144.6941  160.1126 C   0  0  0  0  0  0  0  0  0  0  0  0
  151.3043  145.3034  159.0891 C   0  0  0  0  0  0  0  0  0  0  0  0
  151.4532  144.3976  158.0017 C   0  0  0  0  0  0  0  0  0  0  0  0
  152.1564  143.3243  158.3244 N   0  0  0  0  0  0  0  0  0  0  0  0
  154.2918  140.2729  160.2185 N   0  0  0  0  0  0  0  0  0  0  0  0
  154.7253  139.0922  159.7519 C   0  0  0  0  0  0  0  0  0  0  0  0
  154.5052  138.6980  158.6060 O   0  0  0  0  0  0  0  0  0  0  0  0
  155.5239  138.2378  160.7409 C   0  0  0  0  0  0  0  0  0  0  0  0
  154.6608  137.6199  161.8584 C   0  0  0  0  0  0  0  0  0  0  0  0
  155.4749  137.2751  163.1232 C   0  0  1  0  0  0  0  0  0  0  0  0
  155.9853  138.4704  163.7724 N   0  5  0  0  0  0  0  0  0  0  0  0
  155.5109  138.5060  165.0399 C   0  0  0  0  0  0  0  0  0  0  0  0
  155.7306  139.3544  165.9015 O   0  0  0  0  0  0  0  0  0  0  0  0
  154.7210  137.4541  165.2796 N   0  0  0  0  0  0  0  0  0  0  0  0
  154.6151  136.6665  164.2144 C   0  0  0  0  0  0  0  0  0  0  0  0
  153.9546  135.6337  164.1106 O   0  0  0  0  0  0  0  0  0  0  0  0
  151.6604  141.3595  158.3460 H   0  0  0  0  0  0  0  0  0  0  0  0
  151.6002  140.2909  159.7448 H   0  0  0  0  0  0  0  0  0  0  0  0
  152.4394  139.7848  158.2800 H   0  0  0  0  0  0  0  0  0  0  0  0
  154.1279  141.5855  158.5973 H   0  0  0  0  0  0  0  0  0  0  0  0
  152.6912  142.2108  161.2172 H   0  0  0  0  0  0  0  0  0  0  0  0
  154.1836  142.9476  160.6814 H   0  0  0  0  0  0  0  0  0  0  0  0
  152.1287  145.0016  161.1360 H   0  0  0  0  0  0  0  0  0  0  0  0
  150.7866  146.2506  159.1141 H   0  0  0  0  0  0  0  0  0  0  0  0
  151.0750  144.4886  156.9941 H   0  0  0  0  0  0  0  0  0  0  0  0
  154.5249  140.5150  161.1710 H   0  0  0  0  0  0  0  0  0  0  0  0
  156.0251  137.4411  160.1892 H   0  0  0  0  0  0  0  0  0  0  0  0
  156.3079  138.8594  161.1743 H   0  0  0  0  0  0  0  0  0  0  0  0
  153.8428  138.2961  162.1151 H   0  0  0  0  0  0  0  0  0  0  0  0
  154.1930  136.7104  161.4772 H   0  0  0  0  0  0  0  0  0  0  0  0
  156.2659  136.5656  162.8764 H   0  0  0  0  0  0  0  0  0  0  0  0
  154.2557  137.2855  166.1588 H   0  0  0  0  0  0  0  0  0  0  0  0
  1  2  1  0  0  0  0
  1 21  1  0  0  0  0
  1 22  1  0  0  0  0
  1 23  1  0  0  0  0
  2  3  1  0  0  0  0
  2  9  1  0  0  0  0
  2 24  1  0  0  0  0
  3  4  1  0  0  0  0
  3 25  1  0  0  0  0
  3 26  1  0  0  0  0
  4  8  1  0  0  0  0
  4  5  1  0  0  0  0
  5  6  2  0  0  0  0
  5 27  1  0  0  0  0
  6  7  1  0  0  0  0
  6 28  1  0  0  0  0
  7  8  2  0  0  0  0
  7 29  1  0  0  0  0
  9 10  1  0  0  0  0
  9 30  1  0  0  0  0
 10 11  2  0  0  0  0
 10 12  1  0  0  0  0
 12 13  1  0  0  0  0
 12 31  1  0  0  0  0
 12 32  1  0  0  0  0
 13 14  1  0  0  0  0
 13 33  1  0  0  0  0
 13 34  1  0  0  0  0
 14 19  1  0  0  0  0
 14 15  1  0  0  0  0
 14 35  1  0  0  0  0
 15 16  1  0  0  0  0
 16 17  2  0  0  0  0
 16 18  1  0  0  0  0
 18 19  1  0  0  0  0
 18 36  1  0  0  0  0
 19 20  2  0  0  0  0
M  CHG  1  15  -1
M  END
> <s_m_source_file>
AV-unprocessed.smi

> <i_m_source_file_index>
1196

> <i_lp_mmshare_version>
43012

> <i_f3d_flags>
0

> <s_epik_input>
bjFbY0hdW2NIXVtjSF1uMVtDSDJdW0NAQEhdKFtDSDNdKVtOSF1DKD1PKVtDSDJdW0NIMl1bQ0BASF0yW05IXUMoPU8pW05IXUMyPU8=

> <s_epik_cmdline>
J2VwaWtfcHl0aG9uJywgJy1waCcsICc3LjAnLCAnLXRuJywgJzgnLCAnLW1hJywgJzIwMCcsICctbWV0YWxfYmluZGluZycsICctaW1hZScsICc8aW5maWxlLm1hZT4nLCAnLW9tYWUnLCAnPG91dGZpbGUubWFlPic=

> <r_lp_tautomer_probability>
1

> <r_epik_Ionization_Penalty>
5.79547

> <r_epik_Ionization_Penalty_Charging>
5.79516

> <r_epik_Ionization_Penalty_Neutral>
0.000313087

> <r_epik_State_Penalty>
5.80096

> <r_epik_Charging_Adjusted_Penalty>
11.5961

> <i_epik_Tot_Q>
-1

> <i_epik_Tot_abs_Q>
1

> <r_epik_Metal_State_Penalty>
2.14443

> <b_epik_Metal_Only>
1

> <s_lp_Force_Field>
OPLS_2005

> <r_lp_Energy>
12.8227

> <b_lp_Chiralities_Consistent>
1

> <s_lp_Variant>
AV-unprocessed.smi:1196-8

> <Gold.Version>
5.8.1

> <Gold.Id.Protein>
6NUR|6NUR_protein|mol2

> <Gold.PLP.Fitness>
45.5156

> <Gold.PLP.PLP>
-40.0615

> <Gold.PLP.part.hbond>
-2.0000

> <Gold.PLP.part.metal>
0.0000

> <Gold.PLP.part.buried>
-6.9739

> <Gold.PLP.part.nonpolar>
-30.5730

> <Gold.PLP.part.repulsive>
0.3996

> <Gold.PLP.ligand.clash>
0.0000

> <Gold.PLP.ligand.torsion>
0.2899

> <Gold.PLP.Chemscore.Hbond>
1.0000

> <Gold.PLP.Chemscore.CHOScore>
1.0000

> <Gold.PLP.Chemscore.Metal>
0.0000

> <Gold.Chemscore.Hbonds>
donor molecule, donor type, donor heavy atom, donor atom, acceptor molecule, acceptor atom, score
      P1  H  7997  8008       L1    11  1.00
      L1  C     7    29       P1  8028  0.98

> <Gold.PLP.Chemscore.Internal.Correction>
0.0340

> <Gold.Rescore>
     Score         DG    S(hbond)    S(metal)    S(lipo)     H(rot)  DE(clash)    DE(int)     intcor
      9.12     -10.74       0.99        0.00      80.11       2.89       0.04       1.58       ----

> <Gold.Chemscore.Fitness>
9.1185

> <Gold.Chemscore.DG>
-10.7424

> <Gold.Chemscore.ZeroCoef>
-5.4800

> <Gold.Chemscore.Hbond>
0.9881

> <Gold.Chemscore.Metal>
0.0000

> <Gold.Chemscore.Lipo>
80.1051

> <Gold.Chemscore.Internal_Hbond>
0.0000

> <Gold.Chemscore.DEClash>
0.0443

> <Gold.Chemscore.DEInternal>
1.5797

> <Gold.Chemscore.Rot>
2.8946

> <Gold.Chemscore.Internal.Correction>
   9.000000E+99

> <Gold.Chemscore.Hbonds>
donor molecule, donor type, donor heavy atom, donor atom, acceptor molecule, acceptor atom, score
      P1  H  7997  8008       L1    11  0.78

> <Gold.Chemscore.Hbond.Weighted>
-3.3002

> <Gold.Chemscore.Metal.Weighted>
-0.0000

> <Gold.Chemscore.Lipo.Weighted>
-9.3723

> <Gold.Chemscore.Internal_Hbond.Weighted>
0.0000

> <Gold.Chemscore.DEClash.Weighted>
0.0443

> <Gold.Chemscore.DEInternal.Weighted>
1.5797

> <Gold.Chemscore.Rot.Weighted>
7.4101

> <Gold.Chemscore.Internal.Correction.Weighted>
   9.000000E+99

> <Gold.Protein.RotatedTorsions>
[ 6907 6896 6895 6894 ] final -178.40 input  -60.11 | X-H torsion
[ 7974 7965 7964 7962 ] final  -82.98 input  175.53 | X-H torsion
[ 8008 7997 7996 7995 ] final -118.74 input   59.86 | X-H torsion
[ 10167 10162 10161 10158 ] final   22.93 input  -65.29 | X-H torsion
[ 10718 10713 10712 10709 ] final -149.54 input   66.30 | X-H torsion
[ 10763 10752 10751 10750 ] final  175.69 input  -60.55 | X-H torsion
[ 11005 11000 10999 10996 ] final  117.67 input  -57.11 | X-H torsion

> <Gold.Protein.ActiveResidues>
 VAL166  LYS551  ARG553  GLY616  TRP617  ASP618  TYR619  PRO620  LYS621  CYS622 
 ASP623  PHE694  ASN695  SER759  ASP760  ASP761  ALA762  ILE779  LEU786  VAL792 
 PHE793  MET794  SER795  GLU796  ALA797  LYS798  CYS799  TRP800  GLU811  SER814 

> <Gold.Protein.RotatedAtoms>
  151.6366  133.3328  159.3120 H   0  0  0  0  0  0  0  0  0  0  0  0  # atno 6907 bound_to 6896
  150.8029  134.7139  159.6629 H   0  0  0  0  0  0  0  0  0  0  0  0  # atno 6908 bound_to 6896
  152.4123  134.6108  160.0076 H   0  0  0  0  0  0  0  0  0  0  0  0  # atno 6909 bound_to 6896
  145.5261  140.9526  143.1629 H   0  0  0  0  0  0  0  0  0  0  0  0  # atno 7974 bound_to 7965
  155.1045  140.0396  157.2706 H   0  0  0  0  0  0  0  0  0  0  0  0  # atno 8008 bound_to 7997
  154.6732  140.2617  155.6960 H   0  0  0  0  0  0  0  0  0  0  0  0  # atno 8009 bound_to 7997
  156.2666  140.2793  156.1249 H   0  0  0  0  0  0  0  0  0  0  0  0  # atno 8010 bound_to 7997
  140.5310  143.9842  150.6465 H   0  0  0  0  0  0  0  0  0  0  0  0  # atno 10167 bound_to 10162
  156.4345  130.8092  151.2320 H   0  0  0  0  0  0  0  0  0  0  0  0  # atno 10718 bound_to 10713
  154.4710  135.2771  155.1642 H   0  0  0  0  0  0  0  0  0  0  0  0  # atno 10763 bound_to 10752
  154.3391  135.6174  153.5591 H   0  0  0  0  0  0  0  0  0  0  0  0  # atno 10764 bound_to 10752
  152.9864  135.5784  154.5091 H   0  0  0  0  0  0  0  0  0  0  0  0  # atno 10765 bound_to 10752
  139.9082  134.9612  156.7386 H   0  0  0  0  0  0  0  0  0  0  0  0  # atno 11005 bound_to 11000
  144.7650  139.6865  143.7218 LP  0  0  0  0  0  0  0  0  0  0  0  0  # atno 17320 bound_to 7965
  146.2075  139.5408  142.9703 LP  0  0  0  0  0  0  0  0  0  0  0  0  # atno 17321 bound_to 7965
  140.3217  143.3133  152.0778 LP  0  0  0  0  0  0  0  0  0  0  0  0  # atno 17342 bound_to 10162
  139.4954  144.6569  151.6552 LP  0  0  0  0  0  0  0  0  0  0  0  0  # atno 17343 bound_to 10162
  157.7507  131.0188  150.3640 LP  0  0  0  0  0  0  0  0  0  0  0  0  # atno 17370 bound_to 10713
  156.3984  130.3911  149.6978 LP  0  0  0  0  0  0  0  0  0  0  0  0  # atno 17371 bound_to 10713
  140.6867  133.9426  155.7942 LP  0  0  0  0  0  0  0  0  0  0  0  0  # atno 17394 bound_to 11000
  141.0471  134.0538  157.3830 LP  0  0  0  0  0  0  0  0  0  0  0  0  # atno 17395 bound_to 11000

$$$$
