AV-unprocessed.smi:103|AV-procd|sdf|982|dock5
  -GOLD-   2262017543D 1   1.00000     0.00000
 Structure written by MMmdl.
 53 55  0  0  0  0  0  0  0  0  1 V2000
  150.3041  142.0210  156.7121 C   0  0  0  0  0  0  0  0  0  0  0  0
  148.9590  141.3171  156.8334 C   0  0  0  0  0  0  0  0  0  0  0  0
  147.9558  141.9152  157.2229 O   0  0  0  0  0  0  0  0  0  0  0  0
  149.0232  140.0250  156.4726 O   0  0  0  0  0  0  0  0  0  0  0  0
  147.8310  139.2793  156.2791 C   0  0  0  0  0  0  0  0  0  0  0  0
  147.2517  138.8806  157.6473 C   0  0  1  0  0  0  0  0  0  0  0  0
  146.1693  137.9822  157.3981 O   0  0  0  0  0  0  0  0  0  0  0  0
  146.3712  136.7853  158.0745 C   0  0  1  0  0  0  0  0  0  0  0  0
  145.8553  135.6570  157.2397 N   0  0  0  0  0  0  0  0  0  0  0  0
  144.7041  134.9077  157.3806 C   0  0  0  0  0  0  0  0  0  0  0  0
  143.4373  135.1240  158.6252 S   0  0  0  0  0  0  0  0  0  0  0  0
  144.3466  134.6959  160.1647 C   0  0  0  0  0  0  0  0  0  0  0  0
  143.0930  136.5543  158.6449 O   0  0  0  0  0  0  0  0  0  0  0  0
  142.4011  134.1107  158.3755 O   0  0  0  0  0  0  0  0  0  0  0  0
  144.4650  134.0217  156.4520 N   0  0  0  0  0  0  0  0  0  0  0  0
  145.5777  134.1199  155.6289 C   0  0  0  0  0  0  0  0  0  0  0  0
  145.9943  133.4515  154.4501 C   0  0  0  0  0  0  0  0  0  0  0  0
  145.2760  132.4823  153.8661 N   0  0  0  0  0  0  0  0  0  0  0  0
  147.1713  133.8089  153.8853 N   0  0  0  0  0  0  0  0  0  0  0  0
  147.9055  134.7743  154.4476 C   0  0  0  0  0  0  0  0  0  0  0  0
  147.6451  135.4877  155.5458 N   0  0  0  0  0  0  0  0  0  0  0  0
  146.4578  135.1288  156.1151 C   0  0  0  0  0  0  0  0  0  0  0  0
  147.8690  136.6563  158.3034 C   0  0  2  0  0  0  0  0  0  0  0  0
  148.1132  135.8467  159.4438 O   0  0  0  0  0  0  0  0  0  0  0  0
  147.5899  136.1789  160.6340 C   0  0  0  0  0  0  0  0  0  0  0  0
  147.5261  134.9941  161.5882 C   0  0  0  0  0  0  0  0  0  0  0  0
  147.1898  137.2949  160.9652 O   0  0  0  0  0  0  0  0  0  0  0  0
  148.2328  138.1075  158.5538 C   0  0  1  0  0  0  0  0  0  0  0  0
  149.6022  138.3211  158.2328 O   0  0  0  0  0  0  0  0  0  0  0  0
  150.5684  137.7755  158.9896 C   0  0  0  0  0  0  0  0  0  0  0  0
  151.9596  138.2257  158.5651 C   0  0  0  0  0  0  0  0  0  0  0  0
  150.4011  137.0026  159.9327 O   0  0  0  0  0  0  0  0  0  0  0  0
  151.1133  141.3559  157.0142 H   0  0  0  0  0  0  0  0  0  0  0  0
  150.3300  142.9058  157.3484 H   0  0  0  0  0  0  0  0  0  0  0  0
  150.4754  142.3308  155.6812 H   0  0  0  0  0  0  0  0  0  0  0  0
  147.0874  139.8392  155.7118 H   0  0  0  0  0  0  0  0  0  0  0  0
  148.0786  138.3930  155.6947 H   0  0  0  0  0  0  0  0  0  0  0  0
  146.8880  139.7669  158.1681 H   0  0  0  0  0  0  0  0  0  0  0  0
  145.7822  136.7972  158.9901 H   0  0  0  0  0  0  0  0  0  0  0  0
  143.6783  134.7952  161.0196 H   0  0  0  0  0  0  0  0  0  0  0  0
  145.1929  135.3721  160.2850 H   0  0  0  0  0  0  0  0  0  0  0  0
  144.7093  133.6704  160.1034 H   0  0  0  0  0  0  0  0  0  0  0  0
  144.3935  132.1991  154.2676 H   0  0  0  0  0  0  0  0  0  0  0  0
  145.6186  132.0363  153.0276 H   0  0  0  0  0  0  0  0  0  0  0  0
  148.8319  135.0119  153.9454 H   0  0  0  0  0  0  0  0  0  0  0  0
  148.3368  136.2795  157.3920 H   0  0  0  0  0  0  0  0  0  0  0  0
  148.4731  134.4538  161.5871 H   0  0  0  0  0  0  0  0  0  0  0  0
  146.7348  134.3081  161.2859 H   0  0  0  0  0  0  0  0  0  0  0  0
  147.3226  135.3314  162.6046 H   0  0  0  0  0  0  0  0  0  0  0  0
  148.0226  138.3427  159.5991 H   0  0  0  0  0  0  0  0  0  0  0  0
  152.0589  138.1840  157.4802 H   0  0  0  0  0  0  0  0  0  0  0  0
  152.7212  137.5826  159.0063 H   0  0  0  0  0  0  0  0  0  0  0  0
  152.1399  139.2501  158.8907 H   0  0  0  0  0  0  0  0  0  0  0  0
  1  2  1  0  0  0  0
  1 33  1  0  0  0  0
  1 34  1  0  0  0  0
  1 35  1  0  0  0  0
  2  3  2  0  0  0  0
  2  4  1  0  0  0  0
  4  5  1  0  0  0  0
  5  6  1  0  0  0  0
  5 36  1  0  0  0  0
  5 37  1  0  0  0  0
  6 28  1  0  0  0  0
  6  7  1  0  0  0  0
  6 38  1  0  0  0  0
  7  8  1  0  0  0  0
  8  9  1  0  0  0  0
  8 23  1  0  0  0  0
  8 39  1  0  0  0  0
  9 22  1  0  0  0  0
  9 10  1  0  0  0  0
 10 11  1  0  0  0  0
 10 15  2  0  0  0  0
 11 12  1  0  0  0  0
 11 13  2  0  0  0  0
 11 14  2  0  0  0  0
 12 40  1  0  0  0  0
 12 41  1  0  0  0  0
 12 42  1  0  0  0  0
 15 16  1  0  0  0  0
 16 22  2  0  0  0  0
 16 17  1  0  0  0  0
 17 18  1  0  0  0  0
 17 19  2  0  0  0  0
 18 43  1  0  0  0  0
 18 44  1  0  0  0  0
 19 20  1  0  0  0  0
 20 21  2  0  0  0  0
 20 45  1  0  0  0  0
 21 22  1  0  0  0  0
 23 24  1  0  0  0  0
 23 28  1  0  0  0  0
 23 46  1  0  0  0  0
 24 25  1  0  0  0  0
 25 26  1  0  0  0  0
 25 27  2  0  0  0  0
 26 47  1  0  0  0  0
 26 48  1  0  0  0  0
 26 49  1  0  0  0  0
 28 29  1  0  0  0  0
 28 50  1  0  0  0  0
 29 30  1  0  0  0  0
 30 31  1  0  0  0  0
 30 32  2  0  0  0  0
 31 51  1  0  0  0  0
 31 52  1  0  0  0  0
 31 53  1  0  0  0  0
M  END
> <s_m_source_file>
AV-unprocessed.smi

> <i_m_source_file_index>
103

> <i_lp_mmshare_version>
43012

> <i_f3d_flags>
0

> <s_epik_input>
W0NIM11DKD1PKU9bQ0gyXVtDQEBIXTFPW0NASF0oW0NAQEhdKE9DKD1PKVtDSDNdKVtDQEhdMU9DKD1PKVtDSDNdKW4oYyhuMilTKD1PKSg9TylbQ0gzXSljKGMyMyluW2NIXW5jM1tOSDJd

> <s_epik_cmdline>
J2VwaWtfcHl0aG9uJywgJy1waCcsICc3LjAnLCAnLXRuJywgJzgnLCAnLW1hJywgJzIwMCcsICctbWV0YWxfYmluZGluZycsICctaW1hZScsICc8aW5maWxlLm1hZT4nLCAnLW9tYWUnLCAnPG91dGZpbGUubWFlPic=

> <r_lp_tautomer_probability>
1

> <r_epik_Ionization_Penalty>
1.51338e-05

> <r_epik_Ionization_Penalty_Charging>
0

> <r_epik_Ionization_Penalty_Neutral>
1.51338e-05

> <r_epik_State_Penalty>
-0

> <r_epik_Charging_Adjusted_Penalty>
0

> <i_epik_Tot_Q>
0

> <i_epik_Tot_abs_Q>
0

> <r_epik_Metal_State_Penalty>
-0

> <b_epik_Metal_Only>
0

> <s_epik_Chemistry_Notes>
This compound has an ester and may undergo hydrolysis at high or low pH. This compound contains an acetal/aminal-like group ( X-CH(R)-Y where X, Y are N, S, or O) that may be acid/base labile, releasing an aldehyde.

> <s_lp_Force_Field>
OPLS_2005

> <r_lp_Energy>
15.9567

> <b_lp_Chiralities_Consistent>
1

> <s_lp_Variant>
AV-unprocessed.smi:103-6

> <Gold.Version>
5.8.1

> <Gold.Id.Protein>
6NUR|6NUR_protein|mol2

> <Gold.PLP.Fitness>
35.0037

> <Gold.PLP.PLP>
-20.3536

> <Gold.PLP.part.hbond>
-5.3161

> <Gold.PLP.part.metal>
0.0000

> <Gold.PLP.part.buried>
-2.9471

> <Gold.PLP.part.nonpolar>
-13.0526

> <Gold.PLP.part.repulsive>
0.3804

> <Gold.PLP.ligand.clash>
0.0000

> <Gold.PLP.ligand.torsion>
2.0546

> <Gold.PLP.Chemscore.Hbond>
4.7823

> <Gold.PLP.Chemscore.CHOScore>
0.7434

> <Gold.PLP.Chemscore.Metal>
0.0000

> <Gold.Chemscore.Hbonds>
donor molecule, donor type, donor heavy atom, donor atom, acceptor molecule, acceptor atom, score
      L1  H    18    43       P1 10957  1.00
      P1  H  6896  6908       L1    32  0.93
      P1  H  6931  6943       L1    27  0.29
      P1  H  6934  6947       L1    27  1.00
      P1  H 11000 11005       L1    14  1.00
      L1  C    20    45       P1  7948  0.89

> <Gold.PLP.Chemscore.Internal.Correction>
2.1822

> <Gold.Rescore>
     Score         DG    S(hbond)    S(metal)    S(lipo)     H(rot)  DE(clash)    DE(int)     intcor
      3.87     -13.47       4.67        0.00      27.77       4.25       0.11       9.49       ----

> <Gold.Chemscore.Fitness>
3.8661

> <Gold.Chemscore.DG>
-13.4665

> <Gold.Chemscore.ZeroCoef>
-5.4800

> <Gold.Chemscore.Hbond>
4.6724

> <Gold.Chemscore.Metal>
0.0000

> <Gold.Chemscore.Lipo>
27.7731

> <Gold.Chemscore.Internal_Hbond>
0.0000

> <Gold.Chemscore.DEClash>
0.1107

> <Gold.Chemscore.DEInternal>
9.4898

> <Gold.Chemscore.Rot>
4.2456

> <Gold.Chemscore.Internal.Correction>
   9.000000E+99

> <Gold.Chemscore.Hbonds>
donor molecule, donor type, donor heavy atom, donor atom, acceptor molecule, acceptor atom, score
      L1  H    18    43       P1 10957  0.35
      P1  H  6896  6908       L1    32  0.87
      P1  H  6931  6943       L1    27  0.13
      P1  H  6934  6947       L1    27  0.99
      P1  H 11000 11005       L1    14  1.00

> <Gold.Chemscore.Hbond.Weighted>
-15.6058

> <Gold.Chemscore.Metal.Weighted>
-0.0000

> <Gold.Chemscore.Lipo.Weighted>
-3.2495

> <Gold.Chemscore.Internal_Hbond.Weighted>
0.0000

> <Gold.Chemscore.DEClash.Weighted>
0.1107

> <Gold.Chemscore.DEInternal.Weighted>
9.4898

> <Gold.Chemscore.Rot.Weighted>
10.8687

> <Gold.Chemscore.Internal.Correction.Weighted>
   9.000000E+99

> <Gold.Protein.RotatedTorsions>
[ 6907 6896 6895 6894 ] final -135.81 input  -60.11 | X-H torsion
[ 7974 7965 7964 7962 ] final  174.88 input  175.53 | X-H torsion
[ 8008 7997 7996 7995 ] final  -11.10 input   59.86 | X-H torsion
[ 10167 10162 10161 10158 ] final   50.37 input  -65.29 | X-H torsion
[ 10718 10713 10712 10709 ] final -102.90 input   66.30 | X-H torsion
[ 10763 10752 10751 10750 ] final  103.52 input  -60.55 | X-H torsion
[ 11005 11000 10999 10996 ] final -132.00 input  -57.11 | X-H torsion

> <Gold.Protein.ActiveResidues>
 VAL166  LYS551  ARG553  GLY616  TRP617  ASP618  TYR619  PRO620  LYS621  CYS622 
 ASP623  PHE694  ASN695  SER759  ASP760  ASP761  ALA762  ILE779  LEU786  VAL792 
 PHE793  MET794  SER795  GLU796  ALA797  LYS798  CYS799  TRP800  GLU811  SER814 

> <Gold.Protein.RotatedAtoms>
  151.0024  133.6044  159.2693 H   0  0  0  0  0  0  0  0  0  0  0  0  # atno 6907 bound_to 6896
  151.3225  135.0821  159.9320 H   0  0  0  0  0  0  0  0  0  0  0  0  # atno 6908 bound_to 6896
  152.5277  133.9668  159.7797 H   0  0  0  0  0  0  0  0  0  0  0  0  # atno 6909 bound_to 6896
  144.7212  139.9863  143.6439 H   0  0  0  0  0  0  0  0  0  0  0  0  # atno 7974 bound_to 7965
  154.5495  140.2311  155.8508 H   0  0  0  0  0  0  0  0  0  0  0  0  # atno 8008 bound_to 7997
  156.1933  140.3071  155.9338 H   0  0  0  0  0  0  0  0  0  0  0  0  # atno 8009 bound_to 7997
  155.3099  140.0435  157.3025 H   0  0  0  0  0  0  0  0  0  0  0  0  # atno 8010 bound_to 7997
  140.2731  144.3243  150.6284 H   0  0  0  0  0  0  0  0  0  0  0  0  # atno 10167 bound_to 10162
  156.0245  130.5442  150.7175 H   0  0  0  0  0  0  0  0  0  0  0  0  # atno 10718 bound_to 10713
  153.3538  135.3974  155.1666 H   0  0  0  0  0  0  0  0  0  0  0  0  # atno 10763 bound_to 10752
  154.8667  135.3663  154.5187 H   0  0  0  0  0  0  0  0  0  0  0  0  # atno 10764 bound_to 10752
  153.5641  135.7080  153.5594 H   0  0  0  0  0  0  0  0  0  0  0  0  # atno 10765 bound_to 10752
  140.9209  134.1445  157.4314 H   0  0  0  0  0  0  0  0  0  0  0  0  # atno 11005 bound_to 11000
  146.0447  139.3455  143.0676 LP  0  0  0  0  0  0  0  0  0  0  0  0  # atno 17320 bound_to 7965
  145.8290  140.9640  143.0859 LP  0  0  0  0  0  0  0  0  0  0  0  0  # atno 17321 bound_to 7965
  140.5873  143.2169  151.7318 LP  0  0  0  0  0  0  0  0  0  0  0  0  # atno 17342 bound_to 10162
  139.4983  144.3991  152.0200 LP  0  0  0  0  0  0  0  0  0  0  0  0  # atno 17343 bound_to 10162
  157.4798  131.0901  151.0548 LP  0  0  0  0  0  0  0  0  0  0  0  0  # atno 17370 bound_to 10713
  157.0985  130.5972  149.5455 LP  0  0  0  0  0  0  0  0  0  0  0  0  # atno 17371 bound_to 10713
  139.8775  134.9971  156.5829 LP  0  0  0  0  0  0  0  0  0  0  0  0  # atno 17394 bound_to 11000
  140.7988  133.8522  155.8709 LP  0  0  0  0  0  0  0  0  0  0  0  0  # atno 17395 bound_to 11000

$$$$
