AV-unprocessed.smi:3183|AV-procd|sdf|12156|dock9
  -GOLD-   2272017593D 1   1.00000     0.00000
 Structure written by MMmdl.
 43 44  0  0  0  0  0  0  0  0  2 V2000
  152.5327  144.0540  161.9089 C   0  0  0  0  0  0  0  0  0  0  0  0
  152.3918  143.7605  160.4062 C   0  0  1  0  0  0  0  0  0  0  0  0
  151.8775  142.3309  160.1480 C   0  0  0  0  0  0  0  0  0  0  0  0
  151.8233  142.0178  158.6447 C   0  0  0  0  0  0  0  0  0  0  0  0
  150.9707  143.0438  157.8769 C   0  0  2  0  0  0  0  0  0  0  0  0
  150.9828  142.7184  156.4332 N   0  3  0  0  0  0  0  0  0  0  0  0
  150.5353  141.3526  156.0880 C   0  0  0  0  0  0  0  0  0  0  0  0
  151.6823  140.5383  155.4717 C   0  0  0  0  0  0  0  0  0  0  0  0
  151.3220  139.1221  155.1393 C   0  0  0  0  0  0  0  0  0  0  0  0
  150.3527  138.6054  154.3230 C   0  0  0  0  0  0  0  0  0  0  0  0
  150.5210  137.1974  154.4298 C   0  0  0  0  0  0  0  0  0  0  0  0
  151.5090  136.8656  155.2418 N   0  0  0  0  0  0  0  0  0  0  0  0
  152.0026  138.0442  155.6767 N   0  0  0  0  0  0  0  0  0  0  0  0
  153.1169  138.0459  156.6049 C   0  0  0  0  0  0  0  0  0  0  0  0
  151.4879  144.4756  158.1445 C   0  0  0  0  0  0  0  0  0  0  0  0
  151.5446  144.8154  159.6494 C   0  0  1  0  0  0  0  0  0  0  0  0
  150.1350  145.0338  160.2363 C   0  0  0  0  0  0  0  0  0  0  0  0
  151.5851  143.9378  162.4354 H   0  0  0  0  0  0  0  0  0  0  0  0
  152.8906  145.0697  162.0803 H   0  0  0  0  0  0  0  0  0  0  0  0
  153.2468  143.3726  162.3720 H   0  0  0  0  0  0  0  0  0  0  0  0
  153.4002  143.8134  159.9919 H   0  0  0  0  0  0  0  0  0  0  0  0
  152.5278  141.6086  160.6430 H   0  0  0  0  0  0  0  0  0  0  0  0
  150.8887  142.1998  160.5886 H   0  0  0  0  0  0  0  0  0  0  0  0
  152.8380  142.0068  158.2438 H   0  0  0  0  0  0  0  0  0  0  0  0
  151.4235  141.0137  158.4972 H   0  0  0  0  0  0  0  0  0  0  0  0
  149.9419  142.9568  158.2290 H   0  0  0  0  0  0  0  0  0  0  0  0
  150.4119  143.3909  155.9411 H   0  0  0  0  0  0  0  0  0  0  0  0
  150.1712  140.8551  156.9880 H   0  0  0  0  0  0  0  0  0  0  0  0
  149.7040  141.4058  155.3852 H   0  0  0  0  0  0  0  0  0  0  0  0
  152.0281  141.0368  154.5652 H   0  0  0  0  0  0  0  0  0  0  0  0
  152.5292  140.5358  156.1590 H   0  0  0  0  0  0  0  0  0  0  0  0
  149.6277  139.1485  153.7350 H   0  0  0  0  0  0  0  0  0  0  0  0
  149.9585  136.4128  153.9456 H   0  0  0  0  0  0  0  0  0  0  0  0
  153.8980  138.7152  156.2437 H   0  0  0  0  0  0  0  0  0  0  0  0
  153.5352  137.0434  156.7067 H   0  0  0  0  0  0  0  0  0  0  0  0
  152.7773  138.3879  157.5829 H   0  0  0  0  0  0  0  0  0  0  0  0
  152.4874  144.5804  157.7199 H   0  0  0  0  0  0  0  0  0  0  0  0
  150.8681  145.2133  157.6351 H   0  0  0  0  0  0  0  0  0  0  0  0
  152.0621  145.7716  159.7378 H   0  0  0  0  0  0  0  0  0  0  0  0
  149.5485  144.1160  160.2561 H   0  0  0  0  0  0  0  0  0  0  0  0
  149.5789  145.7652  159.6496 H   0  0  0  0  0  0  0  0  0  0  0  0
  150.1817  145.4173  161.2554 H   0  0  0  0  0  0  0  0  0  0  0  0
  151.9354  142.8114  156.1105 H   0  0  0  0  0  0  0  0  0  0  0  0
  1  2  1  0  0  0  0
  1 18  1  0  0  0  0
  1 19  1  0  0  0  0
  1 20  1  0  0  0  0
  2 16  1  0  0  0  0
  2  3  1  0  0  0  0
  2 21  1  0  0  0  0
  3  4  1  0  0  0  0
  3 22  1  0  0  0  0
  3 23  1  0  0  0  0
  4  5  1  0  0  0  0
  4 24  1  0  0  0  0
  4 25  1  0  0  0  0
  5  6  1  0  0  0  0
  5 15  1  0  0  0  0
  5 26  1  0  0  0  0
  6  7  1  0  0  0  0
  6 27  1  0  0  0  0
  6 43  1  0  0  0  0
  7  8  1  0  0  0  0
  7 28  1  0  0  0  0
  7 29  1  0  0  0  0
  8  9  1  0  0  0  0
  8 30  1  0  0  0  0
  8 31  1  0  0  0  0
  9 13  1  0  0  0  0
  9 10  2  0  0  0  0
 10 11  1  0  0  0  0
 10 32  1  0  0  0  0
 11 12  2  0  0  0  0
 11 33  1  0  0  0  0
 12 13  1  0  0  0  0
 13 14  1  0  0  0  0
 14 34  1  0  0  0  0
 14 35  1  0  0  0  0
 14 36  1  0  0  0  0
 15 16  1  0  0  0  0
 15 37  1  0  0  0  0
 15 38  1  0  0  0  0
 16 17  1  0  0  0  0
 16 39  1  0  0  0  0
 17 40  1  0  0  0  0
 17 41  1  0  0  0  0
 17 42  1  0  0  0  0
M  CHG  1   6   1
M  END
> <s_m_source_file>
AV-unprocessed.smi

> <i_m_source_file_index>
3183

> <i_lp_mmshare_version>
43012

> <i_f3d_flags>
0

> <s_epik_input>
W0NIM11bQ0BASF0xW0NIMl1bQ0gyXVtDQEhdKFtDSDJdW0NASF0xW0NIM10pW05IXVtDSDJdW0NIMl1jMltjSF1bY0hdbm4yW0NIM10=

> <s_epik_cmdline>
J2VwaWtfcHl0aG9uJywgJy1waCcsICc3LjAnLCAnLXRuJywgJzgnLCAnLW1hJywgJzIwMCcsICctbWV0YWxfYmluZGluZycsICctaW1hZScsICc8aW5maWxlLm1hZT4nLCAnLW9tYWUnLCAnPG91dGZpbGUubWFlPic=

> <r_lp_tautomer_probability>
1

> <r_epik_Ionization_Penalty>
0.000327718

> <r_epik_Ionization_Penalty_Charging>
0.000294043

> <r_epik_Ionization_Penalty_Neutral>
3.36755e-05

> <r_epik_State_Penalty>
-0

> <r_epik_Charging_Adjusted_Penalty>
0.000294043

> <i_epik_Tot_Q>
1

> <i_epik_Tot_abs_Q>
1

> <r_epik_Metal_State_Penalty>
-0

> <b_epik_Metal_Only>
0

> <s_lp_Force_Field>
OPLS_2005

> <r_lp_Energy>
13.9595

> <b_lp_Chiralities_Consistent>
1

> <s_lp_Variant>
AV-unprocessed.smi:3183-4

> <Gold.Version>
5.8.1

> <Gold.Id.Protein>
6NUR|6NUR_protein|mol2

> <Gold.PLP.Fitness>
49.0753

> <Gold.PLP.PLP>
-37.9069

> <Gold.PLP.part.hbond>
-2.0000

> <Gold.PLP.part.metal>
0.0000

> <Gold.PLP.part.buried>
-0.4576

> <Gold.PLP.part.nonpolar>
-35.1063

> <Gold.PLP.part.repulsive>
0.1866

> <Gold.PLP.ligand.clash>
0.0000

> <Gold.PLP.ligand.torsion>
0.3784

> <Gold.PLP.Chemscore.Hbond>
3.0000

> <Gold.PLP.Chemscore.CHOScore>
0.9726

> <Gold.PLP.Chemscore.Metal>
0.0000

> <Gold.Chemscore.Hbonds>
donor molecule, donor type, donor heavy atom, donor atom, acceptor molecule, acceptor atom, score
      L1  H     6    27       P1  8028  1.98
      P1  H 10752 10763       L1    12  0.94
      L1  C    11    33       P1  7948  1.00

> <Gold.PLP.Chemscore.Internal.Correction>
0.0074

> <Gold.Rescore>
     Score         DG    S(hbond)    S(metal)    S(lipo)     H(rot)  DE(clash)    DE(int)     intcor
     20.49     -22.16       1.83        0.00     120.35       1.38       1.29       0.39       ----

> <Gold.Chemscore.Fitness>
20.4893

> <Gold.Chemscore.DG>
-22.1636

> <Gold.Chemscore.ZeroCoef>
-5.4800

> <Gold.Chemscore.Hbond>
1.8345

> <Gold.Chemscore.Metal>
0.0000

> <Gold.Chemscore.Lipo>
120.3501

> <Gold.Chemscore.Internal_Hbond>
0.0000

> <Gold.Chemscore.DEClash>
1.2860

> <Gold.Chemscore.DEInternal>
0.3882

> <Gold.Chemscore.Rot>
1.3768

> <Gold.Chemscore.Internal.Correction>
   9.000000E+99

> <Gold.Chemscore.Hbonds>
donor molecule, donor type, donor heavy atom, donor atom, acceptor molecule, acceptor atom, score
      L1  H     6    27       P1  8028  0.92
      P1  H 10752 10763       L1    12  0.70

> <Gold.Chemscore.Hbond.Weighted>
-6.1273

> <Gold.Chemscore.Metal.Weighted>
-0.0000

> <Gold.Chemscore.Lipo.Weighted>
-14.0810

> <Gold.Chemscore.Internal_Hbond.Weighted>
0.0000

> <Gold.Chemscore.DEClash.Weighted>
1.2860

> <Gold.Chemscore.DEInternal.Weighted>
0.3882

> <Gold.Chemscore.Rot.Weighted>
3.5247

> <Gold.Chemscore.Internal.Correction.Weighted>
   9.000000E+99

> <Gold.Protein.RotatedTorsions>
[ 6907 6896 6895 6894 ] final   82.57 input  -60.11 | X-H torsion
[ 7974 7965 7964 7962 ] final  106.26 input  175.53 | X-H torsion
[ 8008 7997 7996 7995 ] final  -61.44 input   59.86 | X-H torsion
[ 10167 10162 10161 10158 ] final  144.47 input  -65.29 | X-H torsion
[ 10718 10713 10712 10709 ] final  153.11 input   66.30 | X-H torsion
[ 10763 10752 10751 10750 ] final   47.56 input  -60.55 | X-H torsion
[ 11005 11000 10999 10996 ] final -148.02 input  -57.11 | X-H torsion

> <Gold.Protein.ActiveResidues>
 VAL166  LYS551  ARG553  GLY616  TRP617  ASP618  TYR619  PRO620  LYS621  CYS622 
 ASP623  PHE694  ASN695  SER759  ASP760  ASP761  ALA762  ILE779  LEU786  VAL792 
 PHE793  MET794  SER795  GLU796  ALA797  LYS798  CYS799  TRP800  GLU811  SER814 

> <Gold.Protein.RotatedAtoms>
  152.5303  134.3030  159.9085 H   0  0  0  0  0  0  0  0  0  0  0  0  # atno 6907 bound_to 6896
  151.2980  133.4128  159.2645 H   0  0  0  0  0  0  0  0  0  0  0  0  # atno 6908 bound_to 6896
  151.0143  134.9437  159.8081 H   0  0  0  0  0  0  0  0  0  0  0  0  # atno 6909 bound_to 6896
  145.3089  139.2546  143.3773 H   0  0  0  0  0  0  0  0  0  0  0  0  # atno 7974 bound_to 7965
  154.4448  140.1017  156.6432 H   0  0  0  0  0  0  0  0  0  0  0  0  # atno 8008 bound_to 7997
  155.5479  140.3485  155.4443 H   0  0  0  0  0  0  0  0  0  0  0  0  # atno 8009 bound_to 7997
  156.0550  140.1313  156.9996 H   0  0  0  0  0  0  0  0  0  0  0  0  # atno 8010 bound_to 7997
  139.4946  144.5970  151.6562 H   0  0  0  0  0  0  0  0  0  0  0  0  # atno 10167 bound_to 10162
  157.2491  131.0775  151.1742 H   0  0  0  0  0  0  0  0  0  0  0  0  # atno 10718 bound_to 10713
  152.9799  135.5972  154.3783 H   0  0  0  0  0  0  0  0  0  0  0  0  # atno 10763 bound_to 10752
  154.3450  135.2767  155.2404 H   0  0  0  0  0  0  0  0  0  0  0  0  # atno 10764 bound_to 10752
  154.4469  135.5999  153.6221 H   0  0  0  0  0  0  0  0  0  0  0  0  # atno 10765 bound_to 10752
  140.7656  134.3248  157.5089 H   0  0  0  0  0  0  0  0  0  0  0  0  # atno 11005 bound_to 11000
  146.3125  140.3620  142.8666 LP  0  0  0  0  0  0  0  0  0  0  0  0  # atno 17320 bound_to 7965
  144.9032  140.7668  143.5854 LP  0  0  0  0  0  0  0  0  0  0  0  0  # atno 17321 bound_to 7965
  140.5610  144.0268  150.6170 LP  0  0  0  0  0  0  0  0  0  0  0  0  # atno 17342 bound_to 10162
  140.3354  143.3052  152.0644 LP  0  0  0  0  0  0  0  0  0  0  0  0  # atno 17343 bound_to 10162
  157.3297  130.6979  149.6317 LP  0  0  0  0  0  0  0  0  0  0  0  0  # atno 17370 bound_to 10713
  155.9667  130.4311  150.4905 LP  0  0  0  0  0  0  0  0  0  0  0  0  # atno 17371 bound_to 10713
  139.8764  134.9229  156.3311 LP  0  0  0  0  0  0  0  0  0  0  0  0  # atno 17394 bound_to 11000
  140.9622  133.7381  156.0417 LP  0  0  0  0  0  0  0  0  0  0  0  0  # atno 17395 bound_to 11000

$$$$
