AV-unprocessed.smi:3225|AV-procd|sdf|12311|dock8
  -GOLD-   2272018153D 1   1.00000     0.00000
 Structure written by MMmdl.
 41 42  0  0  0  0  0  0  0  0  2 V2000
  154.0231  140.8231  161.3950 C   0  0  0  0  0  0  0  0  0  0  0  0
  153.6409  141.9422  160.4118 C   0  0  2  0  0  0  0  0  0  0  0  0
  152.6559  142.9606  161.0322 C   0  0  0  0  0  0  0  0  0  0  0  0
  151.9672  143.7633  160.0376 N   0  0  0  0  0  0  0  0  0  0  0  0
  152.5045  144.4821  158.9902 C   0  0  0  0  0  0  0  0  0  0  0  0
  151.4673  145.0840  158.3373 C   0  0  0  0  0  0  0  0  0  0  0  0
  150.3205  144.6746  159.0732 C   0  0  0  0  0  0  0  0  0  0  0  0
  150.6236  143.8870  160.0928 N   0  0  0  0  0  0  0  0  0  0  0  0
  153.0790  141.3425  159.1810 N   0  3  0  0  0  0  0  0  0  0  0  0
  152.4991  139.9929  159.3450 C   0  0  0  0  0  0  0  0  0  0  0  0
  151.4703  139.7000  158.2459 C   0  0  0  0  0  0  0  0  0  0  0  0
  152.0196  139.9924  156.8395 C   0  0  0  0  0  0  0  0  0  0  0  0
  151.2422  139.3178  155.8032 N   0  0  0  0  0  0  0  0  0  0  0  0
  150.2599  140.0477  155.0194 C   0  0  0  0  0  0  0  0  0  0  0  0
  149.5296  138.9744  154.1997 C   0  0  0  0  0  0  0  0  0  0  0  0
  150.4012  137.7172  154.2916 C   0  0  0  0  0  0  0  0  0  0  0  0
  151.3637  138.0408  155.4219 C   0  0  0  0  0  0  0  0  0  0  0  0
  152.1389  137.2129  155.8983 O   0  0  0  0  0  0  0  0  0  0  0  0
  154.5287  141.2180  162.2766 H   0  0  0  0  0  0  0  0  0  0  0  0
  154.7025  140.1080  160.9298 H   0  0  0  0  0  0  0  0  0  0  0  0
  153.1435  140.2747  161.7340 H   0  0  0  0  0  0  0  0  0  0  0  0
  154.5622  142.4599  160.1393 H   0  0  0  0  0  0  0  0  0  0  0  0
  151.8972  142.4570  161.6314 H   0  0  0  0  0  0  0  0  0  0  0  0
  153.1877  143.6331  161.7066 H   0  0  0  0  0  0  0  0  0  0  0  0
  153.5670  144.5043  158.7969 H   0  0  0  0  0  0  0  0  0  0  0  0
  151.5194  145.7221  157.4676 H   0  0  0  0  0  0  0  0  0  0  0  0
  149.2844  144.9258  158.8998 H   0  0  0  0  0  0  0  0  0  0  0  0
  152.3368  141.9468  158.8581 H   0  0  0  0  0  0  0  0  0  0  0  0
  153.2879  139.2416  159.3146 H   0  0  0  0  0  0  0  0  0  0  0  0
  152.0244  139.9234  160.3248 H   0  0  0  0  0  0  0  0  0  0  0  0
  151.1608  138.6559  158.3108 H   0  0  0  0  0  0  0  0  0  0  0  0
  150.5751  140.2996  158.4171 H   0  0  0  0  0  0  0  0  0  0  0  0
  152.0102  141.0672  156.6526 H   0  0  0  0  0  0  0  0  0  0  0  0
  153.0620  139.6779  156.7686 H   0  0  0  0  0  0  0  0  0  0  0  0
  149.5745  140.6062  155.6582 H   0  0  0  0  0  0  0  0  0  0  0  0
  150.7739  140.7548  154.3669 H   0  0  0  0  0  0  0  0  0  0  0  0
  148.5483  138.7762  154.6328 H   0  0  0  0  0  0  0  0  0  0  0  0
  149.3741  139.2903  153.1676 H   0  0  0  0  0  0  0  0  0  0  0  0
  149.8159  136.8228  154.5072 H   0  0  0  0  0  0  0  0  0  0  0  0
  150.9641  137.5555  153.3720 H   0  0  0  0  0  0  0  0  0  0  0  0
  153.7983  141.3148  158.4724 H   0  0  0  0  0  0  0  0  0  0  0  0
  1  2  1  0  0  0  0
  1 19  1  0  0  0  0
  1 20  1  0  0  0  0
  1 21  1  0  0  0  0
  2  3  1  0  0  0  0
  2  9  1  0  0  0  0
  2 22  1  0  0  0  0
  3  4  1  0  0  0  0
  3 23  1  0  0  0  0
  3 24  1  0  0  0  0
  4  8  1  0  0  0  0
  4  5  1  0  0  0  0
  5  6  2  0  0  0  0
  5 25  1  0  0  0  0
  6  7  1  0  0  0  0
  6 26  1  0  0  0  0
  7  8  2  0  0  0  0
  7 27  1  0  0  0  0
  9 10  1  0  0  0  0
  9 28  1  0  0  0  0
  9 41  1  0  0  0  0
 10 11  1  0  0  0  0
 10 29  1  0  0  0  0
 10 30  1  0  0  0  0
 11 12  1  0  0  0  0
 11 31  1  0  0  0  0
 11 32  1  0  0  0  0
 12 13  1  0  0  0  0
 12 33  1  0  0  0  0
 12 34  1  0  0  0  0
 13 17  1  0  0  0  0
 13 14  1  0  0  0  0
 14 15  1  0  0  0  0
 14 35  1  0  0  0  0
 14 36  1  0  0  0  0
 15 16  1  0  0  0  0
 15 37  1  0  0  0  0
 15 38  1  0  0  0  0
 16 17  1  0  0  0  0
 16 39  1  0  0  0  0
 16 40  1  0  0  0  0
 17 18  2  0  0  0  0
M  CHG  1   9   1
M  END
> <s_m_source_file>
AV-unprocessed.smi

> <i_m_source_file_index>
3225

> <i_lp_mmshare_version>
43012

> <i_f3d_flags>
0

> <s_epik_input>
bjFbY0hdW2NIXVtjSF1uMVtDSDJdW0NAQEhdKFtDSDNdKVtOSF1bQ0gyXVtDSDJdW0NIMl1OMltDSDJdW0NIMl1bQ0gyXUMyPU8=

> <s_epik_cmdline>
J2VwaWtfcHl0aG9uJywgJy1waCcsICc3LjAnLCAnLXRuJywgJzgnLCAnLW1hJywgJzIwMCcsICctbWV0YWxfYmluZGluZycsICctaW1hZScsICc8aW5maWxlLm1hZT4nLCAnLW9tYWUnLCAnPG91dGZpbGUubWFlPic=

> <r_lp_tautomer_probability>
1

> <r_epik_Ionization_Penalty>
0.00490443

> <r_epik_Ionization_Penalty_Charging>
0.00490019

> <r_epik_Ionization_Penalty_Neutral>
4.24076e-06

> <r_epik_State_Penalty>
0.00355741

> <r_epik_Charging_Adjusted_Penalty>
0.0084576

> <i_epik_Tot_Q>
1

> <i_epik_Tot_abs_Q>
1

> <r_epik_Metal_State_Penalty>
-0

> <b_epik_Metal_Only>
0

> <s_lp_Force_Field>
OPLS_2005

> <r_lp_Energy>
20.009

> <b_lp_Chiralities_Consistent>
1

> <s_lp_Variant>
AV-unprocessed.smi:3225-1

> <Gold.Version>
5.8.1

> <Gold.Id.Protein>
6NUR|6NUR_protein|mol2

> <Gold.PLP.Fitness>
44.0615

> <Gold.PLP.PLP>
-43.5518

> <Gold.PLP.part.hbond>
-1.9767

> <Gold.PLP.part.metal>
0.0000

> <Gold.PLP.part.buried>
-4.2336

> <Gold.PLP.part.nonpolar>
-37.9035

> <Gold.PLP.part.repulsive>
0.1955

> <Gold.PLP.ligand.clash>
2.3034

> <Gold.PLP.ligand.torsion>
1.3084

> <Gold.PLP.Chemscore.Hbond>
0.7930

> <Gold.PLP.Chemscore.CHOScore>
0.9990

> <Gold.PLP.Chemscore.Metal>
0.0000

> <Gold.Chemscore.Hbonds>
donor molecule, donor type, donor heavy atom, donor atom, acceptor molecule, acceptor atom, score
      P1  H 10752 10765       L1    18  0.65
      L1  C     7    27       P1  8029  1.00

> <Gold.PLP.Chemscore.Internal.Correction>
0.0538

> <Gold.Rescore>
     Score         DG    S(hbond)    S(metal)    S(lipo)     H(rot)  DE(clash)    DE(int)     intcor
     13.92     -15.18       0.92        0.00     104.47       2.19       0.03       1.23       ----

> <Gold.Chemscore.Fitness>
13.9241

> <Gold.Chemscore.DG>
-15.1774

> <Gold.Chemscore.ZeroCoef>
-5.4800

> <Gold.Chemscore.Hbond>
0.9213

> <Gold.Chemscore.Metal>
0.0000

> <Gold.Chemscore.Lipo>
104.4657

> <Gold.Chemscore.Internal_Hbond>
0.0000

> <Gold.Chemscore.DEClash>
0.0272

> <Gold.Chemscore.DEInternal>
1.2260

> <Gold.Chemscore.Rot>
2.1884

> <Gold.Chemscore.Internal.Correction>
   9.000000E+99

> <Gold.Chemscore.Hbonds>
donor molecule, donor type, donor heavy atom, donor atom, acceptor molecule, acceptor atom, score
      P1  H 10752 10765       L1    18  0.63

> <Gold.Chemscore.Hbond.Weighted>
-3.0772

> <Gold.Chemscore.Metal.Weighted>
-0.0000

> <Gold.Chemscore.Lipo.Weighted>
-12.2225

> <Gold.Chemscore.Internal_Hbond.Weighted>
0.0000

> <Gold.Chemscore.DEClash.Weighted>
0.0272

> <Gold.Chemscore.DEInternal.Weighted>
1.2260

> <Gold.Chemscore.Rot.Weighted>
5.6023

> <Gold.Chemscore.Internal.Correction.Weighted>
   9.000000E+99

> <Gold.Protein.RotatedTorsions>
[ 6907 6896 6895 6894 ] final   29.12 input  -60.11 | X-H torsion
[ 7974 7965 7964 7962 ] final   37.12 input  175.53 | X-H torsion
[ 8008 7997 7996 7995 ] final -168.03 input   59.86 | X-H torsion
[ 10167 10162 10161 10158 ] final  -18.69 input  -65.29 | X-H torsion
[ 10718 10713 10712 10709 ] final -160.61 input   66.30 | X-H torsion
[ 10763 10752 10751 10750 ] final -159.53 input  -60.55 | X-H torsion
[ 11005 11000 10999 10996 ] final    8.97 input  -57.11 | X-H torsion

> <Gold.Protein.ActiveResidues>
 VAL166  LYS551  ARG553  GLY616  TRP617  ASP618  TYR619  PRO620  LYS621  CYS622 
 ASP623  PHE694  ASN695  SER759  ASP760  ASP761  ALA762  ILE779  LEU786  VAL792 
 PHE793  MET794  SER795  GLU796  ALA797  LYS798  CYS799  TRP800  GLU811  SER814 

> <Gold.Protein.RotatedAtoms>
  152.0269  134.9790  160.0571 H   0  0  0  0  0  0  0  0  0  0  0  0  # atno 6907 bound_to 6896
  152.1283  133.4388  159.4716 H   0  0  0  0  0  0  0  0  0  0  0  0  # atno 6908 bound_to 6896
  150.6854  134.2370  159.4500 H   0  0  0  0  0  0  0  0  0  0  0  0  # atno 6909 bound_to 6896
  146.1161  139.5933  142.9320 H   0  0  0  0  0  0  0  0  0  0  0  0  # atno 7974 bound_to 7965
  155.8858  140.1016  157.1453 H   0  0  0  0  0  0  0  0  0  0  0  0  # atno 8008 bound_to 7997
  154.4010  140.1320  156.4318 H   0  0  0  0  0  0  0  0  0  0  0  0  # atno 8009 bound_to 7997
  155.7590  140.3463  155.5191 H   0  0  0  0  0  0  0  0  0  0  0  0  # atno 8010 bound_to 7997
  140.7261  143.4892  151.0015 H   0  0  0  0  0  0  0  0  0  0  0  0  # atno 10167 bound_to 10162
  156.5845  130.8744  151.2873 H   0  0  0  0  0  0  0  0  0  0  0  0  # atno 10718 bound_to 10713
  154.7467  135.3082  154.8632 H   0  0  0  0  0  0  0  0  0  0  0  0  # atno 10763 bound_to 10752
  153.9431  135.6772  153.4748 H   0  0  0  0  0  0  0  0  0  0  0  0  # atno 10764 bound_to 10752
  153.1063  135.4887  154.8884 H   0  0  0  0  0  0  0  0  0  0  0  0  # atno 10765 bound_to 10752
  140.5310  134.0466  155.7873 H   0  0  0  0  0  0  0  0  0  0  0  0  # atno 11005 bound_to 11000
  145.5564  141.0408  143.2250 LP  0  0  0  0  0  0  0  0  0  0  0  0  # atno 17320 bound_to 7965
  144.7554  139.7088  143.7256 LP  0  0  0  0  0  0  0  0  0  0  0  0  # atno 17321 bound_to 7965
  139.8595  143.7333  152.3174 LP  0  0  0  0  0  0  0  0  0  0  0  0  # atno 17342 bound_to 10162
  139.7543  144.7525  151.0458 LP  0  0  0  0  0  0  0  0  0  0  0  0  # atno 17343 bound_to 10162
  157.7318  130.9706  150.1900 LP  0  0  0  0  0  0  0  0  0  0  0  0  # atno 17370 bound_to 10713
  156.2603  130.3710  149.8138 LP  0  0  0  0  0  0  0  0  0  0  0  0  # atno 17371 bound_to 10713
  141.1281  133.9349  157.2593 LP  0  0  0  0  0  0  0  0  0  0  0  0  # atno 17394 bound_to 11000
  139.9554  135.0166  156.9113 LP  0  0  0  0  0  0  0  0  0  0  0  0  # atno 17395 bound_to 11000

$$$$
