AV-unprocessed.smi:2856|AV-procd|sdf|10996|dock4
  -GOLD-   2272015453D 1   1.00000     0.00000
 Structure written by MMmdl.
 37 38  0  0  0  0  0  0  0  0  1 V2000
  146.9797  132.0516  154.2660 C   0  0  0  0  0  0  0  0  0  0  0  0
  147.9658  132.6773  152.8782 S   0  0  0  0  0  0  0  0  0  0  0  0
  146.6643  133.0297  151.6534 C   0  0  1  0  0  0  0  0  0  0  0  0
  145.9340  131.7232  151.2897 C   0  0  0  0  0  0  0  0  0  0  0  0
  144.8025  131.9622  150.2797 C   0  0  0  0  0  0  0  0  0  0  0  0
  143.8048  132.9998  150.8118 C   0  0  0  0  0  0  0  0  0  0  0  0
  144.5145  134.3158  151.1616 C   0  0  0  0  0  0  0  0  0  0  0  0
  145.6669  134.0986  152.1647 C   0  0  2  0  0  0  0  0  0  0  0  0
  146.3561  135.3665  152.3912 N   0  0  0  0  0  0  0  0  0  0  0  0
  145.8374  136.4364  153.0101 C   0  0  0  0  0  0  0  0  0  0  0  0
  144.6798  136.4894  153.4261 O   0  0  0  0  0  0  0  0  0  0  0  0
  146.7446  137.4219  153.1141 N   0  0  0  0  0  0  0  0  0  0  0  0
  146.5826  138.6849  153.7377 C   0  0  0  0  0  0  0  0  0  0  0  0
  147.1010  139.8638  153.1386 C   0  0  0  0  0  0  0  0  0  0  0  0
  146.7512  140.8403  154.0283 C   0  0  0  0  0  0  0  0  0  0  0  0
  146.9685  142.3145  154.0529 C   0  0  0  0  0  0  0  0  0  0  0  0
  146.0757  140.3030  155.0803 O   0  0  0  0  0  0  0  0  0  0  0  0
  145.9699  138.9204  154.8879 N   0  0  0  0  0  0  0  0  0  0  0  0
  147.6311  131.8043  155.1039 H   0  0  0  0  0  0  0  0  0  0  0  0
  146.4323  131.1532  153.9833 H   0  0  0  0  0  0  0  0  0  0  0  0
  146.2655  132.8057  154.5966 H   0  0  0  0  0  0  0  0  0  0  0  0
  147.1487  133.3987  150.7483 H   0  0  0  0  0  0  0  0  0  0  0  0
  146.6437  131.0034  150.8800 H   0  0  0  0  0  0  0  0  0  0  0  0
  145.5221  131.2691  152.1922 H   0  0  0  0  0  0  0  0  0  0  0  0
  145.2214  132.3055  149.3329 H   0  0  0  0  0  0  0  0  0  0  0  0
  144.2871  131.0246  150.0695 H   0  0  0  0  0  0  0  0  0  0  0  0
  143.0262  133.1823  150.0707 H   0  0  0  0  0  0  0  0  0  0  0  0
  143.3038  132.6069  151.6975 H   0  0  0  0  0  0  0  0  0  0  0  0
  144.9021  134.7675  150.2471 H   0  0  0  0  0  0  0  0  0  0  0  0
  143.7905  135.0218  151.5703 H   0  0  0  0  0  0  0  0  0  0  0  0
  145.2438  133.7401  153.1055 H   0  0  0  0  0  0  0  0  0  0  0  0
  147.3144  135.4189  152.0792 H   0  0  0  0  0  0  0  0  0  0  0  0
  147.6571  137.2413  152.7231 H   0  0  0  0  0  0  0  0  0  0  0  0
  147.6422  139.9776  152.2111 H   0  0  0  0  0  0  0  0  0  0  0  0
  147.2506  142.6827  153.0662 H   0  0  0  0  0  0  0  0  0  0  0  0
  147.7630  142.5758  154.7520 H   0  0  0  0  0  0  0  0  0  0  0  0
  146.0613  142.8352  154.3603 H   0  0  0  0  0  0  0  0  0  0  0  0
  1  2  1  0  0  0  0
  1 19  1  0  0  0  0
  1 20  1  0  0  0  0
  1 21  1  0  0  0  0
  2  3  1  0  0  0  0
  3  8  1  0  0  0  0
  3  4  1  0  0  0  0
  3 22  1  0  0  0  0
  4  5  1  0  0  0  0
  4 23  1  0  0  0  0
  4 24  1  0  0  0  0
  5  6  1  0  0  0  0
  5 25  1  0  0  0  0
  5 26  1  0  0  0  0
  6  7  1  0  0  0  0
  6 27  1  0  0  0  0
  6 28  1  0  0  0  0
  7  8  1  0  0  0  0
  7 29  1  0  0  0  0
  7 30  1  0  0  0  0
  8  9  1  0  0  0  0
  8 31  1  0  0  0  0
  9 10  1  0  0  0  0
  9 32  1  0  0  0  0
 10 11  2  0  0  0  0
 10 12  1  0  0  0  0
 12 13  1  0  0  0  0
 12 33  1  0  0  0  0
 13 18  2  0  0  0  0
 13 14  1  0  0  0  0
 14 15  2  0  0  0  0
 14 34  1  0  0  0  0
 15 16  1  0  0  0  0
 15 17  1  0  0  0  0
 16 35  1  0  0  0  0
 16 36  1  0  0  0  0
 16 37  1  0  0  0  0
 17 18  1  0  0  0  0
M  END
> <s_m_source_file>
AV-unprocessed.smi

> <i_m_source_file_index>
2856

> <i_lp_mmshare_version>
43012

> <i_f3d_flags>
0

> <s_epik_input>
W0NIM11TW0NAQEhdMVtDSDJdW0NIMl1bQ0gyXVtDSDJdW0NASF0xW05IXUMoPU8pW05IXWMyW2NIXWMoW0NIM10pb24y

> <s_epik_cmdline>
J2VwaWtfcHl0aG9uJywgJy1waCcsICc3LjAnLCAnLXRuJywgJzgnLCAnLW1hJywgJzIwMCcsICctbWV0YWxfYmluZGluZycsICctaW1hZScsICc8aW5maWxlLm1hZT4nLCAnLW9tYWUnLCAnPG91dGZpbGUubWFlPic=

> <r_lp_tautomer_probability>
1

> <r_epik_Ionization_Penalty>
2.20874e-05

> <r_epik_Ionization_Penalty_Charging>
0

> <r_epik_Ionization_Penalty_Neutral>
2.20874e-05

> <r_epik_State_Penalty>
-0

> <r_epik_Charging_Adjusted_Penalty>
0

> <i_epik_Tot_Q>
0

> <i_epik_Tot_abs_Q>
0

> <r_epik_Metal_State_Penalty>
-0

> <b_epik_Metal_Only>
0

> <s_lp_Force_Field>
OPLS_2005

> <r_lp_Energy>
6.82526

> <b_lp_Chiralities_Consistent>
1

> <s_lp_Variant>
AV-unprocessed.smi:2856-4

> <Gold.Version>
5.8.1

> <Gold.Id.Protein>
6NUR|6NUR_protein|mol2

> <Gold.PLP.Fitness>
35.2204

> <Gold.PLP.PLP>
-30.0231

> <Gold.PLP.part.hbond>
-2.0000

> <Gold.PLP.part.metal>
0.0000

> <Gold.PLP.part.buried>
-5.1362

> <Gold.PLP.part.nonpolar>
-24.1483

> <Gold.PLP.part.repulsive>
0.2677

> <Gold.PLP.ligand.clash>
0.0000

> <Gold.PLP.ligand.torsion>
0.4052

> <Gold.PLP.Chemscore.Hbond>
2.0000

> <Gold.PLP.Chemscore.CHOScore>
0.0000

> <Gold.PLP.Chemscore.Metal>
0.0000

> <Gold.Chemscore.Hbonds>
donor molecule, donor type, donor heavy atom, donor atom, acceptor molecule, acceptor atom, score
      L1  H     9    32       P1  7948  1.00
      L1  H    12    33       P1  7948  1.00

> <Gold.PLP.Chemscore.Internal.Correction>
0.0077

> <Gold.Rescore>
     Score         DG    S(hbond)    S(metal)    S(lipo)     H(rot)  DE(clash)    DE(int)     intcor
     16.82     -17.39       1.95        0.00      72.52       1.21       0.02       0.55       ----

> <Gold.Chemscore.Fitness>
16.8229

> <Gold.Chemscore.DG>
-17.3922

> <Gold.Chemscore.ZeroCoef>
-5.4800

> <Gold.Chemscore.Hbond>
1.9544

> <Gold.Chemscore.Metal>
0.0000

> <Gold.Chemscore.Lipo>
72.5166

> <Gold.Chemscore.Internal_Hbond>
0.0000

> <Gold.Chemscore.DEClash>
0.0155

> <Gold.Chemscore.DEInternal>
0.5538

> <Gold.Chemscore.Rot>
1.2109

> <Gold.Chemscore.Internal.Correction>
   9.000000E+99

> <Gold.Chemscore.Hbonds>
donor molecule, donor type, donor heavy atom, donor atom, acceptor molecule, acceptor atom, score
      L1  H     9    32       P1  7948  0.98
      L1  H    12    33       P1  7948  0.98

> <Gold.Chemscore.Hbond.Weighted>
-6.5278

> <Gold.Chemscore.Metal.Weighted>
-0.0000

> <Gold.Chemscore.Lipo.Weighted>
-8.4844

> <Gold.Chemscore.Internal_Hbond.Weighted>
0.0000

> <Gold.Chemscore.DEClash.Weighted>
0.0155

> <Gold.Chemscore.DEInternal.Weighted>
0.5538

> <Gold.Chemscore.Rot.Weighted>
3.1000

> <Gold.Chemscore.Internal.Correction.Weighted>
   9.000000E+99

> <Gold.Protein.RotatedTorsions>
[ 6907 6896 6895 6894 ] final   -6.03 input  -60.11 | X-H torsion
[ 7974 7965 7964 7962 ] final -159.71 input  175.53 | X-H torsion
[ 8008 7997 7996 7995 ] final  -86.74 input   59.86 | X-H torsion
[ 10167 10162 10161 10158 ] final  162.07 input  -65.29 | X-H torsion
[ 10718 10713 10712 10709 ] final  -97.51 input   66.30 | X-H torsion
[ 10763 10752 10751 10750 ] final   21.48 input  -60.55 | X-H torsion
[ 11005 11000 10999 10996 ] final  104.88 input  -57.11 | X-H torsion

> <Gold.Protein.ActiveResidues>
 VAL166  LYS551  ARG553  GLY616  TRP617  ASP618  TYR619  PRO620  LYS621  CYS622 
 ASP623  PHE694  ASN695  SER759  ASP760  ASP761  ALA762  ILE779  LEU786  VAL792 
 PHE793  MET794  SER795  GLU796  ALA797  LYS798  CYS799  TRP800  GLU811  SER814 

> <Gold.Protein.RotatedAtoms>
  151.4721  135.1046  159.9754 H   0  0  0  0  0  0  0  0  0  0  0  0  # atno 6907 bound_to 6896
  152.4812  133.8256  159.7087 H   0  0  0  0  0  0  0  0  0  0  0  0  # atno 6908 bound_to 6896
  150.8886  133.7213  159.2938 H   0  0  0  0  0  0  0  0  0  0  0  0  # atno 6909 bound_to 6896
  144.7455  140.3646  143.6089 H   0  0  0  0  0  0  0  0  0  0  0  0  # atno 7974 bound_to 7965
  154.6553  140.0574  157.0002 H   0  0  0  0  0  0  0  0  0  0  0  0  # atno 8008 bound_to 7997
  155.1309  140.3256  155.4456 H   0  0  0  0  0  0  0  0  0  0  0  0  # atno 8009 bound_to 7997
  156.2594  140.1981  156.6428 H   0  0  0  0  0  0  0  0  0  0  0  0  # atno 8010 bound_to 7997
  139.4856  144.4474  151.8874 H   0  0  0  0  0  0  0  0  0  0  0  0  # atno 10167 bound_to 10162
  156.0085  130.5197  150.6386 H   0  0  0  0  0  0  0  0  0  0  0  0  # atno 10718 bound_to 10713
  153.0992  135.6668  153.9705 H   0  0  0  0  0  0  0  0  0  0  0  0  # atno 10763 bound_to 10752
  153.9281  135.3007  155.3447 H   0  0  0  0  0  0  0  0  0  0  0  0  # atno 10764 bound_to 10752
  154.7412  135.5079  153.9200 H   0  0  0  0  0  0  0  0  0  0  0  0  # atno 10765 bound_to 10752
  139.8796  134.9316  156.5428 H   0  0  0  0  0  0  0  0  0  0  0  0  # atno 11005 bound_to 11000
  145.7142  139.1692  143.2522 LP  0  0  0  0  0  0  0  0  0  0  0  0  # atno 17320 bound_to 7965
  146.1325  140.7167  142.9405 LP  0  0  0  0  0  0  0  0  0  0  0  0  # atno 17321 bound_to 7965
  140.3929  144.2592  150.5898 LP  0  0  0  0  0  0  0  0  0  0  0  0  # atno 17342 bound_to 10162
  140.5129  143.2286  151.8507 LP  0  0  0  0  0  0  0  0  0  0  0  0  # atno 17343 bound_to 10162
  157.4170  131.0831  151.1167 LP  0  0  0  0  0  0  0  0  0  0  0  0  # atno 17370 bound_to 10713
  157.1781  130.6297  149.5662 LP  0  0  0  0  0  0  0  0  0  0  0  0  # atno 17371 bound_to 10713
  140.8298  133.8288  155.8973 LP  0  0  0  0  0  0  0  0  0  0  0  0  # atno 17394 bound_to 11000
  140.9340  134.1986  157.4844 LP  0  0  0  0  0  0  0  0  0  0  0  0  # atno 17395 bound_to 11000

$$$$
