AV-unprocessed.smi:2171|AV-procd|sdf|8827|dock5
  -GOLD-   2272012 23D 1   1.00000     0.00000
 Structure written by MMmdl.
 39 41  0  0  0  0  0  0  0  0  2 V2000
  151.8089  139.9047  155.1194 O   0  0  0  0  0  0  0  0  0  0  0  0
  151.3994  139.3335  156.1297 C   0  0  0  0  0  0  0  0  0  0  0  0
  151.8441  137.9050  156.4398 C   0  0  0  0  0  0  0  0  0  0  0  0
  150.7751  136.9655  156.1506 N   0  0  0  0  0  0  0  0  0  0  0  0
  149.4719  136.9873  156.6019 C   0  0  0  0  0  0  0  0  0  0  0  0
  148.8326  135.9149  156.0491 C   0  0  0  0  0  0  0  0  0  0  0  0
  149.8397  135.2886  155.2627 C   0  0  0  0  0  0  0  0  0  0  0  0
  151.0007  135.9205  155.3232 N   0  0  0  0  0  0  0  0  0  0  0  0
  150.5861  139.9104  157.0272 N   0  0  0  0  0  0  0  0  0  0  0  0
  150.1582  141.3046  156.9894 C   0  0  1  0  0  0  0  0  0  0  0  0
  149.0248  141.6183  157.9757 C   0  0  0  0  0  0  0  0  0  0  0  0
  149.2665  143.0735  158.4160 C   0  0  0  0  0  0  0  0  0  0  0  0
  150.4924  143.5178  157.7158 N   0  3  1  0  0  0  0  0  0  0  0  0
  151.2595  144.6170  158.3556 C   0  0  0  0  0  0  0  0  0  0  0  0
  152.1224  144.1326  159.5329 C   0  0  0  0  0  0  0  0  0  0  0  0
  153.0251  142.9725  159.1009 C   0  0  0  0  0  0  0  0  0  0  0  0
  152.1667  141.8311  158.5458 C   0  0  0  0  0  0  0  0  0  0  0  0
  151.2645  142.3024  157.3748 C   0  0  1  0  0  0  0  0  0  0  0  0
  152.7274  137.6460  155.8538 H   0  0  0  0  0  0  0  0  0  0  0  0
  152.1170  137.8168  157.4923 H   0  0  0  0  0  0  0  0  0  0  0  0
  149.1124  137.7576  157.2685 H   0  0  0  0  0  0  0  0  0  0  0  0
  147.8020  135.6225  156.1854 H   0  0  0  0  0  0  0  0  0  0  0  0
  149.7614  134.4005  154.6530 H   0  0  0  0  0  0  0  0  0  0  0  0
  150.3013  139.3623  157.8267 H   0  0  0  0  0  0  0  0  0  0  0  0
  149.8042  141.5456  155.9848 H   0  0  0  0  0  0  0  0  0  0  0  0
  148.0450  141.4855  157.5157 H   0  0  0  0  0  0  0  0  0  0  0  0
  149.0699  140.9605  158.8450 H   0  0  0  0  0  0  0  0  0  0  0  0
  148.4312  143.7237  158.1544 H   0  0  0  0  0  0  0  0  0  0  0  0
  149.3966  143.1173  159.4977 H   0  0  0  0  0  0  0  0  0  0  0  0
  151.9074  145.0567  157.5964 H   0  0  0  0  0  0  0  0  0  0  0  0
  150.5780  145.4063  158.6748 H   0  0  0  0  0  0  0  0  0  0  0  0
  152.7307  144.9560  159.9083 H   0  0  0  0  0  0  0  0  0  0  0  0
  151.4879  143.8184  160.3623 H   0  0  0  0  0  0  0  0  0  0  0  0
  153.7330  143.3107  158.3431 H   0  0  0  0  0  0  0  0  0  0  0  0
  153.6156  142.6200  159.9471 H   0  0  0  0  0  0  0  0  0  0  0  0
  152.8169  141.0195  158.2171 H   0  0  0  0  0  0  0  0  0  0  0  0
  151.5562  141.4236  159.3526 H   0  0  0  0  0  0  0  0  0  0  0  0
  151.8966  142.5185  156.5123 H   0  0  0  0  0  0  0  0  0  0  0  0
  150.1646  143.8818  156.8323 H   0  0  0  0  0  0  0  0  0  0  0  0
  1  2  2  0  0  0  0
  2  3  1  0  0  0  0
  2  9  1  0  0  0  0
  3  4  1  0  0  0  0
  3 19  1  0  0  0  0
  3 20  1  0  0  0  0
  4  8  1  0  0  0  0
  4  5  1  0  0  0  0
  5  6  2  0  0  0  0
  5 21  1  0  0  0  0
  6  7  1  0  0  0  0
  6 22  1  0  0  0  0
  7  8  2  0  0  0  0
  7 23  1  0  0  0  0
  9 10  1  0  0  0  0
  9 24  1  0  0  0  0
 10 18  1  0  0  0  0
 10 11  1  0  0  0  0
 10 25  1  0  0  0  0
 11 12  1  0  0  0  0
 11 26  1  0  0  0  0
 11 27  1  0  0  0  0
 12 13  1  0  0  0  0
 12 28  1  0  0  0  0
 12 29  1  0  0  0  0
 13 18  1  0  0  0  0
 13 14  1  0  0  0  0
 13 39  1  0  0  0  0
 14 15  1  0  0  0  0
 14 30  1  0  0  0  0
 14 31  1  0  0  0  0
 15 16  1  0  0  0  0
 15 32  1  0  0  0  0
 15 33  1  0  0  0  0
 16 17  1  0  0  0  0
 16 34  1  0  0  0  0
 16 35  1  0  0  0  0
 17 18  1  0  0  0  0
 17 36  1  0  0  0  0
 17 37  1  0  0  0  0
 18 38  1  0  0  0  0
M  CHG  1  13   1
M  END
> <s_m_source_file>
AV-unprocessed.smi

> <i_m_source_file_index>
2171

> <i_lp_mmshare_version>
43012

> <i_f3d_flags>
0

> <s_epik_input>
bjFbY0hdW2NIXVtjSF1uMVtDSDJdQyg9TylbTkhdW0NASF0oW0NIMl1bQ0gyXTIpW0NAQEhdKE4yMylbQ0gyXVtDSDJdW0NIMl1bQ0gyXTM=

> <s_epik_cmdline>
J2VwaWtfcHl0aG9uJywgJy1waCcsICc3LjAnLCAnLXRuJywgJzgnLCAnLW1hJywgJzIwMCcsICctbWV0YWxfYmluZGluZycsICctaW1hZScsICc8aW5maWxlLm1hZT4nLCAnLW9tYWUnLCAnPG91dGZpbGUubWFlPic=

> <r_lp_tautomer_probability>
1

> <r_epik_Ionization_Penalty>
0.00204179

> <r_epik_Ionization_Penalty_Charging>
0.00203239

> <r_epik_Ionization_Penalty_Neutral>
9.40205e-06

> <r_epik_State_Penalty>
0.00138983

> <r_epik_Charging_Adjusted_Penalty>
0.00342221

> <i_epik_Tot_Q>
1

> <i_epik_Tot_abs_Q>
1

> <r_epik_Metal_State_Penalty>
-0

> <b_epik_Metal_Only>
0

> <s_lp_Force_Field>
OPLS_2005

> <r_lp_Energy>
35.3096

> <b_lp_Chiralities_Consistent>
1

> <s_lp_Variant>
AV-unprocessed.smi:2171-2

> <Gold.Version>
5.8.1

> <Gold.Id.Protein>
6NUR|6NUR_protein|mol2

> <Gold.PLP.Fitness>
41.4749

> <Gold.PLP.PLP>
-30.6772

> <Gold.PLP.part.hbond>
-3.0000

> <Gold.PLP.part.metal>
0.0000

> <Gold.PLP.part.buried>
-5.7231

> <Gold.PLP.part.nonpolar>
-23.1310

> <Gold.PLP.part.repulsive>
0.2267

> <Gold.PLP.ligand.clash>
0.0000

> <Gold.PLP.ligand.torsion>
0.3755

> <Gold.PLP.Chemscore.Hbond>
3.8480

> <Gold.PLP.Chemscore.CHOScore>
0.0000

> <Gold.PLP.Chemscore.Metal>
0.0000

> <Gold.Chemscore.Hbonds>
donor molecule, donor type, donor heavy atom, donor atom, acceptor molecule, acceptor atom, score
      L1  H    13    39       P1  8028  2.00
      P1  H  7989  7998       L1     1  0.96
      P1  H 10752 10765       L1     8  0.80

> <Gold.PLP.Chemscore.Internal.Correction>
0.0047

> <Gold.Rescore>
     Score         DG    S(hbond)    S(metal)    S(lipo)     H(rot)  DE(clash)    DE(int)     intcor
     20.63     -21.14       2.91        0.00      82.40       1.44       0.00       0.51       ----

> <Gold.Chemscore.Fitness>
20.6327

> <Gold.Chemscore.DG>
-21.1388

> <Gold.Chemscore.ZeroCoef>
-5.4800

> <Gold.Chemscore.Hbond>
2.9062

> <Gold.Chemscore.Metal>
0.0000

> <Gold.Chemscore.Lipo>
82.4029

> <Gold.Chemscore.Internal_Hbond>
0.0000

> <Gold.Chemscore.DEClash>
0.0000

> <Gold.Chemscore.DEInternal>
0.5061

> <Gold.Chemscore.Rot>
1.4410

> <Gold.Chemscore.Internal.Correction>
   9.000000E+99

> <Gold.Chemscore.Hbonds>
donor molecule, donor type, donor heavy atom, donor atom, acceptor molecule, acceptor atom, score
      L1  H    13    39       P1  8028  0.97
      P1  H  7989  7998       L1     1  0.92
      P1  H 10752 10765       L1     8  0.72

> <Gold.Chemscore.Hbond.Weighted>
-9.7066

> <Gold.Chemscore.Metal.Weighted>
-0.0000

> <Gold.Chemscore.Lipo.Weighted>
-9.6411

> <Gold.Chemscore.Internal_Hbond.Weighted>
0.0000

> <Gold.Chemscore.DEClash.Weighted>
0.0000

> <Gold.Chemscore.DEInternal.Weighted>
0.5061

> <Gold.Chemscore.Rot.Weighted>
3.6889

> <Gold.Chemscore.Internal.Correction.Weighted>
   9.000000E+99

> <Gold.Protein.RotatedTorsions>
[ 6907 6896 6895 6894 ] final  175.72 input  -60.11 | X-H torsion
[ 7974 7965 7964 7962 ] final -148.12 input  175.53 | X-H torsion
[ 8008 7997 7996 7995 ] final   75.22 input   59.86 | X-H torsion
[ 10167 10162 10161 10158 ] final   69.87 input  -65.29 | X-H torsion
[ 10718 10713 10712 10709 ] final -110.64 input   66.30 | X-H torsion
[ 10763 10752 10751 10750 ] final -161.91 input  -60.55 | X-H torsion
[ 11005 11000 10999 10996 ] final  -89.14 input  -57.11 | X-H torsion

> <Gold.Protein.ActiveResidues>
 VAL166  LYS551  ARG553  GLY616  TRP617  ASP618  TYR619  PRO620  LYS621  CYS622 
 ASP623  PHE694  ASN695  SER759  ASP760  ASP761  ALA762  ILE779  LEU786  VAL792 
 PHE793  MET794  SER795  GLU796  ALA797  LYS798  CYS799  TRP800  GLU811  SER814 

> <Gold.Protein.RotatedAtoms>
  151.7317  133.3318  159.3341 H   0  0  0  0  0  0  0  0  0  0  0  0  # atno 6907 bound_to 6896
  150.7610  134.6358  159.6220 H   0  0  0  0  0  0  0  0  0  0  0  0  # atno 6908 bound_to 6896
  152.3588  134.6905  160.0265 H   0  0  0  0  0  0  0  0  0  0  0  0  # atno 6909 bound_to 6896
  144.8049  140.5237  143.5682 H   0  0  0  0  0  0  0  0  0  0  0  0  # atno 7974 bound_to 7965
  155.8097  140.3473  155.5450 H   0  0  0  0  0  0  0  0  0  0  0  0  # atno 8008 bound_to 7997
  155.8453  140.0948  157.1729 H   0  0  0  0  0  0  0  0  0  0  0  0  # atno 8009 bound_to 7997
  154.4006  140.1386  156.3766 H   0  0  0  0  0  0  0  0  0  0  0  0  # atno 8010 bound_to 7997
  140.0631  144.5216  150.7280 H   0  0  0  0  0  0  0  0  0  0  0  0  # atno 10167 bound_to 10162
  156.0602  130.5826  150.8264 H   0  0  0  0  0  0  0  0  0  0  0  0  # atno 10718 bound_to 10713
  154.7262  135.3036  154.8968 H   0  0  0  0  0  0  0  0  0  0  0  0  # atno 10763 bound_to 10752
  153.9824  135.6728  153.4754 H   0  0  0  0  0  0  0  0  0  0  0  0  # atno 10764 bound_to 10752
  153.0877  135.4975  154.8548 H   0  0  0  0  0  0  0  0  0  0  0  0  # atno 10765 bound_to 10752
  141.1590  133.7612  156.9552 H   0  0  0  0  0  0  0  0  0  0  0  0  # atno 11005 bound_to 11000
  145.5462  139.1476  143.3419 LP  0  0  0  0  0  0  0  0  0  0  0  0  # atno 17320 bound_to 7965
  146.2338  140.5601  142.8963 LP  0  0  0  0  0  0  0  0  0  0  0  0  # atno 17321 bound_to 7965
  140.7162  143.2547  151.4426 LP  0  0  0  0  0  0  0  0  0  0  0  0  # atno 17342 bound_to 10162
  139.5881  144.1558  152.2055 LP  0  0  0  0  0  0  0  0  0  0  0  0  # atno 17343 bound_to 10162
  157.5604  131.0946  150.9567 LP  0  0  0  0  0  0  0  0  0  0  0  0  # atno 17370 bound_to 10713
  156.9806  130.5525  149.5296 LP  0  0  0  0  0  0  0  0  0  0  0  0  # atno 17371 bound_to 10713
  140.1230  134.9405  157.2230 LP  0  0  0  0  0  0  0  0  0  0  0  0  # atno 17394 bound_to 11000
  140.3048  134.3090  155.7281 LP  0  0  0  0  0  0  0  0  0  0  0  0  # atno 17395 bound_to 11000

$$$$
