AV-unprocessed.smi:2450|AV-procd|sdf|9665|dock8
  -GOLD-   2272013303D 1   1.00000     0.00000
 Structure written by MMmdl.
 41 42  0  0  0  0  0  0  0  0  1 V2000
  145.0668  132.7885  151.0059 C   0  0  0  0  0  0  0  0  0  0  0  0
  146.0871  133.8656  151.4026 C   0  0  0  0  0  0  0  0  0  0  0  0
  145.4474  135.1329  151.9997 C   0  0  2  0  0  0  0  0  0  0  0  0
  144.3561  135.7044  151.0818 C   0  0  0  0  0  0  0  0  0  0  0  0
  146.4702  136.1478  152.2427 N   0  0  0  0  0  0  0  0  0  0  0  0
  146.2578  137.3572  152.7804 C   0  0  0  0  0  0  0  0  0  0  0  0
  145.1515  137.7602  153.1399 O   0  0  0  0  0  0  0  0  0  0  0  0
  147.4068  138.0460  152.8825 N   0  0  0  0  0  0  0  0  0  0  0  0
  147.6217  139.3295  153.4601 C   0  0  0  0  0  0  0  0  0  0  0  0
  146.6813  140.3789  153.3142 C   0  0  0  0  0  0  0  0  0  0  0  0
  146.9737  141.6465  153.8461 C   0  0  0  0  0  0  0  0  0  0  0  0
  148.2072  141.8273  154.4930 C   0  0  0  0  0  0  0  0  0  0  0  0
  149.1189  140.8438  154.6278 N   0  0  0  0  0  0  0  0  0  0  0  0
  148.8453  139.6113  154.1330 C   0  0  0  0  0  0  0  0  0  0  0  0
  149.8340  138.6170  154.3156 N   0  0  0  0  0  0  0  0  0  0  0  0
  151.1950  138.9863  154.6892 C   0  0  0  0  0  0  0  0  0  0  0  0
  151.8429  137.6853  155.1529 C   0  0  0  0  0  0  0  0  0  0  0  0
  150.6824  136.9706  155.8383 C   0  0  0  0  0  0  0  0  0  0  0  0
  149.4584  137.3937  155.0189 C   0  0  0  0  0  0  0  0  0  0  0  0
  145.5658  131.9333  150.5501 H   0  0  0  0  0  0  0  0  0  0  0  0
  144.3472  133.1757  150.2841 H   0  0  0  0  0  0  0  0  0  0  0  0
  144.5113  132.4230  151.8698 H   0  0  0  0  0  0  0  0  0  0  0  0
  146.8008  133.4425  152.1106 H   0  0  0  0  0  0  0  0  0  0  0  0
  146.6640  134.1391  150.5184 H   0  0  0  0  0  0  0  0  0  0  0  0
  144.9807  134.8532  152.9462 H   0  0  0  0  0  0  0  0  0  0  0  0
  143.5711  134.9697  150.9015 H   0  0  0  0  0  0  0  0  0  0  0  0
  144.7648  135.9992  150.1146 H   0  0  0  0  0  0  0  0  0  0  0  0
  143.8868  136.5822  151.5271 H   0  0  0  0  0  0  0  0  0  0  0  0
  147.4153  135.9063  151.9828 H   0  0  0  0  0  0  0  0  0  0  0  0
  148.2451  137.5492  152.6182 H   0  0  0  0  0  0  0  0  0  0  0  0
  145.7518  140.2416  152.7835 H   0  0  0  0  0  0  0  0  0  0  0  0
  146.2741  142.4632  153.7486 H   0  0  0  0  0  0  0  0  0  0  0  0
  148.4723  142.7883  154.9079 H   0  0  0  0  0  0  0  0  0  0  0  0
  151.7319  139.4306  153.8506 H   0  0  0  0  0  0  0  0  0  0  0  0
  151.1903  139.7020  155.5124 H   0  0  0  0  0  0  0  0  0  0  0  0
  152.1805  137.1075  154.2914 H   0  0  0  0  0  0  0  0  0  0  0  0
  152.6965  137.8461  155.8117 H   0  0  0  0  0  0  0  0  0  0  0  0
  150.8122  135.8889  155.8781 H   0  0  0  0  0  0  0  0  0  0  0  0
  150.5825  137.3351  156.8614 H   0  0  0  0  0  0  0  0  0  0  0  0
  148.5838  137.5376  155.6551 H   0  0  0  0  0  0  0  0  0  0  0  0
  149.2203  136.6234  154.2850 H   0  0  0  0  0  0  0  0  0  0  0  0
  1  2  1  0  0  0  0
  1 20  1  0  0  0  0
  1 21  1  0  0  0  0
  1 22  1  0  0  0  0
  2  3  1  0  0  0  0
  2 23  1  0  0  0  0
  2 24  1  0  0  0  0
  3  4  1  0  0  0  0
  3  5  1  0  0  0  0
  3 25  1  0  0  0  0
  4 26  1  0  0  0  0
  4 27  1  0  0  0  0
  4 28  1  0  0  0  0
  5  6  1  0  0  0  0
  5 29  1  0  0  0  0
  6  7  2  0  0  0  0
  6  8  1  0  0  0  0
  8  9  1  0  0  0  0
  8 30  1  0  0  0  0
  9 14  1  0  0  0  0
  9 10  2  0  0  0  0
 10 11  1  0  0  0  0
 10 31  1  0  0  0  0
 11 12  2  0  0  0  0
 11 32  1  0  0  0  0
 12 13  1  0  0  0  0
 12 33  1  0  0  0  0
 13 14  2  0  0  0  0
 14 15  1  0  0  0  0
 15 19  1  0  0  0  0
 15 16  1  0  0  0  0
 16 17  1  0  0  0  0
 16 34  1  0  0  0  0
 16 35  1  0  0  0  0
 17 18  1  0  0  0  0
 17 36  1  0  0  0  0
 17 37  1  0  0  0  0
 18 19  1  0  0  0  0
 18 38  1  0  0  0  0
 18 39  1  0  0  0  0
 19 40  1  0  0  0  0
 19 41  1  0  0  0  0
M  END
> <s_m_source_file>
AV-unprocessed.smi

> <i_m_source_file_index>
2450

> <i_lp_mmshare_version>
43012

> <i_f3d_flags>
0

> <s_epik_input>
W0NIM11bQ0gyXVtDQEhdKFtDSDNdKVtOSF1DKD1PKVtOSF1jMVtjSF1bY0hdW2NIXW5jMU4yW0NIMl1bQ0gyXVtDSDJdW0NIMl0y

> <s_epik_cmdline>
J2VwaWtfcHl0aG9uJywgJy1waCcsICc3LjAnLCAnLXRuJywgJzgnLCAnLW1hJywgJzIwMCcsICctbWV0YWxfYmluZGluZycsICctaW1hZScsICc8aW5maWxlLm1hZT4nLCAnLW9tYWUnLCAnPG91dGZpbGUubWFlPic=

> <r_lp_tautomer_probability>
1

> <r_epik_Ionization_Penalty>
0.103391

> <r_epik_Ionization_Penalty_Charging>
0

> <r_epik_Ionization_Penalty_Neutral>
0.103391

> <r_epik_State_Penalty>
0.0927616

> <r_epik_Charging_Adjusted_Penalty>
0.0927616

> <i_epik_Tot_Q>
0

> <i_epik_Tot_abs_Q>
0

> <r_epik_Metal_State_Penalty>
0.0789158

> <b_epik_Metal_Only>
0

> <s_lp_Force_Field>
OPLS_2005

> <r_lp_Energy>
32.2235

> <b_lp_Chiralities_Consistent>
1

> <s_lp_Variant>
AV-unprocessed.smi:2450-1

> <Gold.Version>
5.8.1

> <Gold.Id.Protein>
6NUR|6NUR_protein|mol2

> <Gold.PLP.Fitness>
37.1340

> <Gold.PLP.PLP>
-28.8098

> <Gold.PLP.part.hbond>
-1.8802

> <Gold.PLP.part.metal>
0.0000

> <Gold.PLP.part.buried>
-0.1972

> <Gold.PLP.part.nonpolar>
-26.9684

> <Gold.PLP.part.repulsive>
0.6256

> <Gold.PLP.ligand.clash>
0.0000

> <Gold.PLP.ligand.torsion>
0.4931

> <Gold.PLP.Chemscore.Hbond>
1.9920

> <Gold.PLP.Chemscore.CHOScore>
1.0000

> <Gold.PLP.Chemscore.Metal>
0.0000

> <Gold.Chemscore.Hbonds>
donor molecule, donor type, donor heavy atom, donor atom, acceptor molecule, acceptor atom, score
      L1  H     5    29       P1  7948  1.00
      L1  H     8    30       P1  7948  0.99
      L1  C    12    33       P1  8028  1.00

> <Gold.PLP.Chemscore.Internal.Correction>
0.3342

> <Gold.Rescore>
     Score         DG    S(hbond)    S(metal)    S(lipo)     H(rot)  DE(clash)    DE(int)     intcor
     14.70     -16.97       1.96        0.00      71.15       1.32       0.16       2.11       ----

> <Gold.Chemscore.Fitness>
14.7009

> <Gold.Chemscore.DG>
-16.9665

> <Gold.Chemscore.ZeroCoef>
-5.4800

> <Gold.Chemscore.Hbond>
1.9554

> <Gold.Chemscore.Metal>
0.0000

> <Gold.Chemscore.Lipo>
71.1543

> <Gold.Chemscore.Internal_Hbond>
0.0000

> <Gold.Chemscore.DEClash>
0.1568

> <Gold.Chemscore.DEInternal>
2.1087

> <Gold.Chemscore.Rot>
1.3163

> <Gold.Chemscore.Internal.Correction>
   9.000000E+99

> <Gold.Chemscore.Hbonds>
donor molecule, donor type, donor heavy atom, donor atom, acceptor molecule, acceptor atom, score
      L1  H     5    29       P1  7948  0.93
      L1  H     8    30       P1  7948  0.93

> <Gold.Chemscore.Hbond.Weighted>
-6.5311

> <Gold.Chemscore.Metal.Weighted>
-0.0000

> <Gold.Chemscore.Lipo.Weighted>
-8.3251

> <Gold.Chemscore.Internal_Hbond.Weighted>
0.0000

> <Gold.Chemscore.DEClash.Weighted>
0.1568

> <Gold.Chemscore.DEInternal.Weighted>
2.1087

> <Gold.Chemscore.Rot.Weighted>
3.3696

> <Gold.Chemscore.Internal.Correction.Weighted>
   9.000000E+99

> <Gold.Protein.RotatedTorsions>
[ 6907 6896 6895 6894 ] final  147.94 input  -60.11 | X-H torsion
[ 7974 7965 7964 7962 ] final   36.51 input  175.53 | X-H torsion
[ 8008 7997 7996 7995 ] final -158.38 input   59.86 | X-H torsion
[ 10167 10162 10161 10158 ] final  157.25 input  -65.29 | X-H torsion
[ 10718 10713 10712 10709 ] final  126.64 input   66.30 | X-H torsion
[ 10763 10752 10751 10750 ] final  -20.52 input  -60.55 | X-H torsion
[ 11005 11000 10999 10996 ] final  116.66 input  -57.11 | X-H torsion

> <Gold.Protein.ActiveResidues>
 VAL166  LYS551  ARG553  GLY616  TRP617  ASP618  TYR619  PRO620  LYS621  CYS622 
 ASP623  PHE694  ASN695  SER759  ASP760  ASP761  ALA762  ILE779  LEU786  VAL792 
 PHE793  MET794  SER795  GLU796  ALA797  LYS798  CYS799  TRP800  GLU811  SER814 

> <Gold.Protein.RotatedAtoms>
  152.1482  133.4505  159.4799 H   0  0  0  0  0  0  0  0  0  0  0  0  # atno 6907 bound_to 6896
  150.6893  134.2222  159.4410 H   0  0  0  0  0  0  0  0  0  0  0  0  # atno 6908 bound_to 6896
  152.0117  134.9872  160.0619 H   0  0  0  0  0  0  0  0  0  0  0  0  # atno 6909 bound_to 6896
  146.1206  139.6009  142.9292 H   0  0  0  0  0  0  0  0  0  0  0  0  # atno 7974 bound_to 7965
  155.7468  140.0821  157.2220 H   0  0  0  0  0  0  0  0  0  0  0  0  # atno 8008 bound_to 7997
  154.4016  140.1568  156.2734 H   0  0  0  0  0  0  0  0  0  0  0  0  # atno 8009 bound_to 7997
  155.8969  140.3412  155.6000 H   0  0  0  0  0  0  0  0  0  0  0  0  # atno 8010 bound_to 7997
  139.4822  144.4934  151.8274 H   0  0  0  0  0  0  0  0  0  0  0  0  # atno 10167 bound_to 10162
  157.5402  131.1097  150.8871 H   0  0  0  0  0  0  0  0  0  0  0  0  # atno 10718 bound_to 10713
  153.6217  135.6992  153.5308 H   0  0  0  0  0  0  0  0  0  0  0  0  # atno 10763 bound_to 10752
  153.2932  135.4151  155.1185 H   0  0  0  0  0  0  0  0  0  0  0  0  # atno 10764 bound_to 10752
  154.8542  135.3630  154.5758 H   0  0  0  0  0  0  0  0  0  0  0  0  # atno 10765 bound_to 10752
  139.9048  134.9601  156.7232 H   0  0  0  0  0  0  0  0  0  0  0  0  # atno 11005 bound_to 11000
  145.5474  141.0416  143.2297 LP  0  0  0  0  0  0  0  0  0  0  0  0  # atno 17320 bound_to 7965
  144.7594  139.6995  143.7241 LP  0  0  0  0  0  0  0  0  0  0  0  0  # atno 17321 bound_to 7965
  140.4421  144.1972  150.5892 LP  0  0  0  0  0  0  0  0  0  0  0  0  # atno 17342 bound_to 10162
  140.4673  143.2426  151.9138 LP  0  0  0  0  0  0  0  0  0  0  0  0  # atno 17343 bound_to 10162
  156.9427  130.5390  149.5280 LP  0  0  0  0  0  0  0  0  0  0  0  0  # atno 17370 bound_to 10713
  156.0490  130.5562  150.8947 LP  0  0  0  0  0  0  0  0  0  0  0  0  # atno 17371 bound_to 10713
  140.6984  133.9328  155.8009 LP  0  0  0  0  0  0  0  0  0  0  0  0  # atno 17394 bound_to 11000
  141.0390  134.0648  157.3925 LP  0  0  0  0  0  0  0  0  0  0  0  0  # atno 17395 bound_to 11000

$$$$
