AV-unprocessed.smi:282|AV-procd|sdf|2118|dock4
  -GOLD-   2262021413D 1   1.00000     0.00000
 Structure written by MMmdl.
 65 69  0  0  0  0  0  0  0  0  2 V2000
  142.0794  137.3594  153.2275 C   0  0  0  0  0  0  0  0  0  0  0  0
  143.5975  137.2038  153.3928 C   0  0  0  0  0  0  0  0  0  0  0  0
  144.1049  135.7425  153.2668 C   0  0  1  0  0  0  0  0  0  0  0  0
  143.6945  135.1288  151.9074 C   0  0  0  0  0  0  0  0  0  0  0  0
  144.2241  133.7544  151.7249 N   0  3  1  0  0  0  0  0  0  0  0  0
  143.7814  133.1565  150.4385 C   0  0  0  0  0  0  0  0  0  0  0  0
  144.2501  131.6989  150.3073 C   0  0  0  0  0  0  0  0  0  0  0  0
  145.7724  131.6012  150.4584 C   0  0  0  0  0  0  0  0  0  0  0  0
  146.2050  132.2367  151.7853 C   0  0  0  0  0  0  0  0  0  0  0  0
  145.7012  133.6889  151.9048 C   0  0  2  0  0  0  0  0  0  0  0  0
  146.1024  134.2922  153.2608 C   0  0  0  0  0  0  0  0  0  0  0  0
  145.5612  135.6360  153.4306 N   0  0  0  0  0  0  0  0  0  0  0  0
  146.0904  136.2220  154.5282 C   0  0  0  0  0  0  0  0  0  0  0  0
  145.7142  135.7280  155.7326 N   0  0  0  0  0  0  0  0  0  0  0  0
  146.2074  136.2607  156.8546 C   0  0  0  0  0  0  0  0  0  0  0  0
  147.0694  137.2706  156.9904 N   0  0  0  0  0  0  0  0  0  0  0  0
  147.4464  137.7719  155.7791 C   0  0  0  0  0  0  0  0  0  0  0  0
  147.0018  137.3152  154.5069 C   0  0  0  0  0  0  0  0  0  0  0  0
  147.5813  138.0761  153.4997 N   0  0  0  0  0  0  0  0  0  0  0  0
  148.3280  138.9330  154.1408 C   0  0  0  0  0  0  0  0  0  0  0  0
  148.3242  138.8091  155.5127 N   0  0  0  0  0  0  0  0  0  0  0  0
  149.0621  139.6301  156.4632 C   0  0  0  0  0  0  0  0  0  0  0  0
  150.1355  140.5722  155.8305 C   0  0  0  0  0  0  0  0  0  0  0  0
  149.4798  141.6053  154.8754 C   0  0  0  0  0  0  0  0  0  0  0  0
  148.3926  142.2785  155.4787 O   0  0  0  0  0  0  0  0  0  0  0  0
  150.9058  141.3275  156.9426 C   0  0  0  0  0  0  0  0  0  0  0  0
  151.8618  140.4165  157.7342 C   0  0  0  0  0  0  0  0  0  0  0  0
  152.7735  139.7810  156.8478 O   0  0  0  0  0  0  0  0  0  0  0  0
  152.1250  138.9410  155.9020 C   0  0  0  0  0  0  0  0  0  0  0  0
  151.1872  139.7791  155.0141 C   0  0  0  0  0  0  0  0  0  0  0  0
  141.7769  138.3883  153.4245 H   0  0  0  0  0  0  0  0  0  0  0  0
  141.5396  136.7178  153.9243 H   0  0  0  0  0  0  0  0  0  0  0  0
  141.7514  137.1162  152.2174 H   0  0  0  0  0  0  0  0  0  0  0  0
  144.1106  137.8381  152.6689 H   0  0  0  0  0  0  0  0  0  0  0  0
  143.8459  137.6089  154.3737 H   0  0  0  0  0  0  0  0  0  0  0  0
  143.6386  135.1484  154.0531 H   0  0  0  0  0  0  0  0  0  0  0  0
  142.6086  135.0892  151.8249 H   0  0  0  0  0  0  0  0  0  0  0  0
  144.0528  135.7600  151.0922 H   0  0  0  0  0  0  0  0  0  0  0  0
  142.6934  133.1942  150.3732 H   0  0  0  0  0  0  0  0  0  0  0  0
  144.1690  133.7495  149.6084 H   0  0  0  0  0  0  0  0  0  0  0  0
  143.7641  131.0860  151.0676 H   0  0  0  0  0  0  0  0  0  0  0  0
  143.9453  131.2947  149.3415 H   0  0  0  0  0  0  0  0  0  0  0  0
  146.0897  130.5588  150.4179 H   0  0  0  0  0  0  0  0  0  0  0  0
  146.2614  132.1105  149.6270 H   0  0  0  0  0  0  0  0  0  0  0  0
  145.8191  131.6413  152.6141 H   0  0  0  0  0  0  0  0  0  0  0  0
  147.2920  132.2101  151.8676 H   0  0  0  0  0  0  0  0  0  0  0  0
  146.1621  134.2834  151.1135 H   0  0  0  0  0  0  0  0  0  0  0  0
  145.7394  133.6564  154.0700 H   0  0  0  0  0  0  0  0  0  0  0  0
  147.1906  134.3179  153.3418 H   0  0  0  0  0  0  0  0  0  0  0  0
  145.8645  135.8126  157.7755 H   0  0  0  0  0  0  0  0  0  0  0  0
  148.9116  139.6823  153.6259 H   0  0  0  0  0  0  0  0  0  0  0  0
  148.3340  140.2194  157.0218 H   0  0  0  0  0  0  0  0  0  0  0  0
  149.5088  138.9618  157.1981 H   0  0  0  0  0  0  0  0  0  0  0  0
  150.2073  142.3581  154.5698 H   0  0  0  0  0  0  0  0  0  0  0  0
  149.1342  141.1304  153.9572 H   0  0  0  0  0  0  0  0  0  0  0  0
  148.4976  143.2066  155.3358 H   0  0  0  0  0  0  0  0  0  0  0  0
  151.4962  142.1295  156.4976 H   0  0  0  0  0  0  0  0  0  0  0  0
  150.2102  141.8124  157.6285 H   0  0  0  0  0  0  0  0  0  0  0  0
  152.4315  141.0116  158.4481 H   0  0  0  0  0  0  0  0  0  0  0  0
  151.3182  139.6714  158.3155 H   0  0  0  0  0  0  0  0  0  0  0  0
  152.8852  138.4605  155.2859 H   0  0  0  0  0  0  0  0  0  0  0  0
  151.5907  138.1419  156.4156 H   0  0  0  0  0  0  0  0  0  0  0  0
  150.7086  139.1448  154.2685 H   0  0  0  0  0  0  0  0  0  0  0  0
  151.8062  140.4763  154.4476 H   0  0  0  0  0  0  0  0  0  0  0  0
  143.8210  133.1917  152.4604 H   0  0  0  0  0  0  0  0  0  0  0  0
  1  2  1  0  0  0  0
  1 31  1  0  0  0  0
  1 32  1  0  0  0  0
  1 33  1  0  0  0  0
  2  3  1  0  0  0  0
  2 34  1  0  0  0  0
  2 35  1  0  0  0  0
  3 12  1  0  0  0  0
  3  4  1  0  0  0  0
  3 36  1  0  0  0  0
  4  5  1  0  0  0  0
  4 37  1  0  0  0  0
  4 38  1  0  0  0  0
  5 10  1  0  0  0  0
  5  6  1  0  0  0  0
  5 65  1  0  0  0  0
  6  7  1  0  0  0  0
  6 39  1  0  0  0  0
  6 40  1  0  0  0  0
  7  8  1  0  0  0  0
  7 41  1  0  0  0  0
  7 42  1  0  0  0  0
  8  9  1  0  0  0  0
  8 43  1  0  0  0  0
  8 44  1  0  0  0  0
  9 10  1  0  0  0  0
  9 45  1  0  0  0  0
  9 46  1  0  0  0  0
 10 11  1  0  0  0  0
 10 47  1  0  0  0  0
 11 12  1  0  0  0  0
 11 48  1  0  0  0  0
 11 49  1  0  0  0  0
 12 13  1  0  0  0  0
 13 18  1  0  0  0  0
 13 14  2  0  0  0  0
 14 15  1  0  0  0  0
 15 16  2  0  0  0  0
 15 50  1  0  0  0  0
 16 17  1  0  0  0  0
 17 21  1  0  0  0  0
 17 18  2  0  0  0  0
 18 19  1  0  0  0  0
 19 20  2  0  0  0  0
 20 21  1  0  0  0  0
 20 51  1  0  0  0  0
 21 22  1  0  0  0  0
 22 23  1  0  0  0  0
 22 52  1  0  0  0  0
 22 53  1  0  0  0  0
 23 30  1  0  0  0  0
 23 24  1  0  0  0  0
 23 26  1  0  0  0  0
 24 25  1  0  0  0  0
 24 54  1  0  0  0  0
 24 55  1  0  0  0  0
 25 56  1  0  0  0  0
 26 27  1  0  0  0  0
 26 57  1  0  0  0  0
 26 58  1  0  0  0  0
 27 28  1  0  0  0  0
 27 59  1  0  0  0  0
 27 60  1  0  0  0  0
 28 29  1  0  0  0  0
 29 30  1  0  0  0  0
 29 61  1  0  0  0  0
 29 62  1  0  0  0  0
 30 63  1  0  0  0  0
 30 64  1  0  0  0  0
M  CHG  1   5   1
M  END
> <s_m_source_file>
AV-unprocessed.smi

> <i_m_source_file_index>
282

> <i_lp_mmshare_version>
43012

> <i_f3d_flags>
0

> <s_epik_input>
W0NIMl0xW0NIMl1bQ0gyXVtDSDJdW0NAQEhdKE4xMilbQ0gyXU4oW0NAQEhdKFtDSDJdMilbQ0gyXVtDSDNdKWMobltjSF1uMyljKGMzNCluW2NIXW40W0NIMl1DNShbQ0gyXVtPSF0pW0NIMl1bQ0gyXU9bQ0gyXVtDSDJdNQ==

> <s_epik_cmdline>
J2VwaWtfcHl0aG9uJywgJy1waCcsICc3LjAnLCAnLXRuJywgJzgnLCAnLW1hJywgJzIwMCcsICctbWV0YWxfYmluZGluZycsICctaW1hZScsICc8aW5maWxlLm1hZT4nLCAnLW9tYWUnLCAnPG91dGZpbGUubWFlPic=

> <r_lp_tautomer_probability>
1

> <r_epik_Ionization_Penalty>
0.00308583

> <r_epik_Ionization_Penalty_Charging>
0.00300384

> <r_epik_Ionization_Penalty_Neutral>
8.19894e-05

> <r_epik_State_Penalty>
-0

> <r_epik_Charging_Adjusted_Penalty>
0.00300384

> <i_epik_Tot_Q>
1

> <i_epik_Tot_abs_Q>
1

> <r_epik_Metal_State_Penalty>
-0

> <b_epik_Metal_Only>
0

> <s_lp_Force_Field>
OPLS_2005

> <r_lp_Energy>
55.6254

> <b_lp_Chiralities_Consistent>
1

> <s_lp_Variant>
AV-unprocessed.smi:282-2

> <Gold.Version>
5.8.1

> <Gold.Id.Protein>
6NUR|6NUR_protein|mol2

> <Gold.PLP.Fitness>
44.6656

> <Gold.PLP.PLP>
-35.9699

> <Gold.PLP.part.hbond>
-1.7946

> <Gold.PLP.part.metal>
0.0000

> <Gold.PLP.part.buried>
-1.5148

> <Gold.PLP.part.nonpolar>
-34.8194

> <Gold.PLP.part.repulsive>
2.3697

> <Gold.PLP.ligand.clash>
0.0000

> <Gold.PLP.ligand.torsion>
0.2744

> <Gold.PLP.Chemscore.Hbond>
2.0000

> <Gold.PLP.Chemscore.CHOScore>
1.0000

> <Gold.PLP.Chemscore.Metal>
0.0000

> <Gold.Chemscore.Hbonds>
donor molecule, donor type, donor heavy atom, donor atom, acceptor molecule, acceptor atom, score
      L1  H    25    56       P1  8028  1.00
      P1  H  7997  8008       L1    28  1.00
      L1  C    20    51       P1  7957  0.86

> <Gold.PLP.Chemscore.Internal.Correction>
0.2445

> <Gold.Rescore>
     Score         DG    S(hbond)    S(metal)    S(lipo)     H(rot)  DE(clash)    DE(int)     intcor
     14.78     -17.25       1.91        0.00      99.95       2.46       1.06       1.41       ----

> <Gold.Chemscore.Fitness>
14.7849

> <Gold.Chemscore.DG>
-17.2502

> <Gold.Chemscore.ZeroCoef>
-5.4800

> <Gold.Chemscore.Hbond>
1.9064

> <Gold.Chemscore.Metal>
0.0000

> <Gold.Chemscore.Lipo>
99.9521

> <Gold.Chemscore.Internal_Hbond>
0.0000

> <Gold.Chemscore.DEClash>
1.0598

> <Gold.Chemscore.DEInternal>
1.4056

> <Gold.Chemscore.Rot>
2.4576

> <Gold.Chemscore.Internal.Correction>
   9.000000E+99

> <Gold.Chemscore.Hbonds>
donor molecule, donor type, donor heavy atom, donor atom, acceptor molecule, acceptor atom, score
      L1  H    25    56       P1  8028  0.97
      P1  H  7997  8008       L1    28  0.88

> <Gold.Chemscore.Hbond.Weighted>
-6.3674

> <Gold.Chemscore.Metal.Weighted>
-0.0000

> <Gold.Chemscore.Lipo.Weighted>
-11.6944

> <Gold.Chemscore.Internal_Hbond.Weighted>
0.0000

> <Gold.Chemscore.DEClash.Weighted>
1.0598

> <Gold.Chemscore.DEInternal.Weighted>
1.4056

> <Gold.Chemscore.Rot.Weighted>
6.2915

> <Gold.Chemscore.Internal.Correction.Weighted>
   9.000000E+99

> <Gold.Protein.RotatedTorsions>
[ 6907 6896 6895 6894 ] final  107.23 input  -60.11 | X-H torsion
[ 7974 7965 7964 7962 ] final  126.70 input  175.53 | X-H torsion
[ 8008 7997 7996 7995 ] final  -49.43 input   59.86 | X-H torsion
[ 10167 10162 10161 10158 ] final -103.17 input  -65.29 | X-H torsion
[ 10718 10713 10712 10709 ] final  108.65 input   66.30 | X-H torsion
[ 10763 10752 10751 10750 ] final  -32.63 input  -60.55 | X-H torsion
[ 11005 11000 10999 10996 ] final   68.39 input  -57.11 | X-H torsion

> <Gold.Protein.ActiveResidues>
 VAL166  LYS551  ARG553  GLY616  TRP617  ASP618  TYR619  PRO620  LYS621  CYS622 
 ASP623  PHE694  ASN695  SER759  ASP760  ASP761  ALA762  ILE779  LEU786  VAL792 
 PHE793  MET794  SER795  GLU796  ALA797  LYS798  CYS799  TRP800  GLU811  SER814 

> <Gold.Protein.RotatedAtoms>
  152.5162  133.9264  159.7559 H   0  0  0  0  0  0  0  0  0  0  0  0  # atno 6907 bound_to 6896
  150.9624  133.6422  159.2759 H   0  0  0  0  0  0  0  0  0  0  0  0  # atno 6908 bound_to 6896
  151.3662  135.0919  159.9503 H   0  0  0  0  0  0  0  0  0  0  0  0  # atno 6909 bound_to 6896
  145.0588  139.3822  143.5016 H   0  0  0  0  0  0  0  0  0  0  0  0  # atno 7974 bound_to 7965
  154.4044  140.1297  156.4502 H   0  0  0  0  0  0  0  0  0  0  0  0  # atno 8008 bound_to 7997
  155.7374  140.3490  155.5068 H   0  0  0  0  0  0  0  0  0  0  0  0  # atno 8009 bound_to 7997
  155.9071  140.1029  157.1297 H   0  0  0  0  0  0  0  0  0  0  0  0  # atno 8010 bound_to 7997
  140.2229  143.3663  152.0954 H   0  0  0  0  0  0  0  0  0  0  0  0  # atno 10167 bound_to 10162
  157.6577  131.0898  150.6336 H   0  0  0  0  0  0  0  0  0  0  0  0  # atno 10718 bound_to 10713
  153.8169  135.6877  153.4832 H   0  0  0  0  0  0  0  0  0  0  0  0  # atno 10763 bound_to 10752
  153.1593  135.4586  154.9747 H   0  0  0  0  0  0  0  0  0  0  0  0  # atno 10764 bound_to 10752
  154.7944  135.3313  154.7645 H   0  0  0  0  0  0  0  0  0  0  0  0  # atno 10765 bound_to 10752
  139.9714  134.6894  156.0439 H   0  0  0  0  0  0  0  0  0  0  0  0  # atno 11005 bound_to 11000
  146.3523  140.0275  142.8653 LP  0  0  0  0  0  0  0  0  0  0  0  0  # atno 17320 bound_to 7965
  145.1435  140.9584  143.4475 LP  0  0  0  0  0  0  0  0  0  0  0  0  # atno 17321 bound_to 7965
  139.5137  144.6937  151.5689 LP  0  0  0  0  0  0  0  0  0  0  0  0  # atno 17342 bound_to 10162
  140.6242  143.9201  150.6551 LP  0  0  0  0  0  0  0  0  0  0  0  0  # atno 17343 bound_to 10162
  156.6642  130.4521  149.5678 LP  0  0  0  0  0  0  0  0  0  0  0  0  # atno 17370 bound_to 10713
  156.2045  130.6640  151.1203 LP  0  0  0  0  0  0  0  0  0  0  0  0  # atno 17371 bound_to 10713
  141.1393  133.6568  156.3685 LP  0  0  0  0  0  0  0  0  0  0  0  0  # atno 17394 bound_to 11000
  140.5285  134.6235  157.5342 LP  0  0  0  0  0  0  0  0  0  0  0  0  # atno 17395 bound_to 11000

$$$$
