#       Name:                AV-unprocessed.smi:2021
#       Creating user name   scv26
#       Creation time:       Fri Mar 27 10:42:56 2020


#       File generated by GOLD software.
#

@<TRIPOS>MOLECULE
AV-unprocessed.smi:2021
    48    49     1
SMALL
NO_CHARGES


@<TRIPOS>ATOM
      1 ****        -3.1759   2.5620   2.3521 C.3            1 S1                 0.0000
      2 ****        -3.7861   2.1288   1.0084 C.3            1 S1                 0.0000
      3 ****        -5.3202   2.1380   1.0881 C.3            1 S1                 0.0000
      4 ****        -3.2764   0.7401   0.5673 C.3            1 S1                 0.0000
      5 ****        -1.8084   0.6997   0.3443 N.4            1 S1                 1.0000
      6 ****        -1.3814   1.3361  -0.9262 C.3            1 S1                 0.0000
      7 ****         0.1480   1.2775  -1.0668 C.3            1 S1                 0.0000
      8 ****         0.5790  -0.0739  -0.9830 O.3            1 S1                 0.0000
      9 ****         0.2718  -0.6653   0.2755 C.3            1 S1                 0.0000
     10 ****         0.8571  -2.0882   0.3184 C.3            1 S1                 0.0000
     11 ****         2.3163  -2.0762   0.2944 N.am           1 S1                 0.0000
     12 ****         3.0675  -2.1128  -0.8159 C.2            1 S1                 0.0000
     13 ****         2.5949  -2.1603  -1.9518 O.2            1 S1                 0.0000
     14 ****         4.3786  -2.0881  -0.5190 N.am           1 S1                 0.0000
     15 ****         5.4830  -2.1144  -1.4116 C.2            1 S1                 0.0000
     16 ****         5.3600  -2.1604  -2.7475 N.2            1 S1                 0.0000
     17 ****         6.5950  -2.1793  -3.3826 N.2            1 S1                 0.0000
     18 ****         7.5994  -2.1463  -2.5023 C.2            1 S1                 0.0000
     19 ****         7.1348  -2.0864  -0.8108 S.3            1 S1                 0.0000
     20 ****        -1.2601  -0.6740   0.4449 C.3            1 S1                 0.0000
     21 ****        -3.4163   1.8513   3.1435 H              1 S1                 0.0000
     22 ****        -3.5524   3.5385   2.6580 H              1 S1                 0.0000
     23 ****        -2.0901   2.6389   2.2917 H              1 S1                 0.0000
     24 ****        -3.5067   2.8687   0.2588 H              1 S1                 0.0000
     25 ****        -5.6842   1.4222   1.8260 H              1 S1                 0.0000
     26 ****        -5.7657   1.8801   0.1269 H              1 S1                 0.0000
     27 ****        -5.6948   3.1231   1.3679 H              1 S1                 0.0000
     28 ****        -3.5443   0.0185   1.3408 H              1 S1                 0.0000
     29 ****        -3.7861   0.4129  -0.3404 H              1 S1                 0.0000
     30 ****        -1.8504   0.8253  -1.7685 H              1 S1                 0.0000
     31 ****        -1.7046   2.3758  -0.9625 H              1 S1                 0.0000
     32 ****         0.4535   1.6859  -2.0302 H              1 S1                 0.0000
     33 ****         0.6358   1.8777  -0.2971 H              1 S1                 0.0000
     34 ****         0.7231  -0.0743   1.0749 H              1 S1                 0.0000
     35 ****         0.5514  -2.5812   1.2415 H              1 S1                 0.0000
     36 ****         0.4593  -2.6941  -0.4978 H              1 S1                 0.0000
     37 ****         2.7867  -2.0392   1.1870 H              1 S1                 0.0000
     38 ****         4.6168  -2.0503   0.4610 H              1 S1                 0.0000
     39 ****         8.6211  -2.1567  -2.8517 H              1 S1                 0.0000
     40 ****        -1.5181  -1.1006   1.4152 H              1 S1                 0.0000
     41 ****        -1.7211  -1.3061  -0.3164 H              1 S1                 0.0000
     42 ****        -1.3882   1.2270   1.0965 H              1 S1                 0.0000
     43 ****         1.5693  -0.1040  -1.1187 LP             1 S1                 0.0000
     44 ****         0.1276  -0.6001  -1.7037 LP             1 S1                 0.0000
     45 ****         1.6033  -2.1733  -2.0807 LP             1 S1                 0.0000
     46 ****         3.2026  -2.1859  -2.7456 LP             1 S1                 0.0000
     47 ****         4.4833  -2.1789  -3.2283 LP             1 S1                 0.0000
     48 ****         6.7171  -2.2133  -4.3746 LP             1 S1                 0.0000
@<TRIPOS>BOND
    1    1    2 1     
    2    1   21 1     
    3    1   22 1     
    4    1   23 1     
    5    2    3 1     
    6    2    4 1     
    7    2   24 1     
    8    3   25 1     
    9    3   26 1     
   10    3   27 1     
   11    4    5 1     
   12    4   28 1     
   13    4   29 1     
   14    5   20 1     
   15    5    6 1     
   16    5   42 1     
   17    6    7 1     
   18    6   30 1     
   19    6   31 1     
   20    7    8 1     
   21    7   32 1     
   22    7   33 1     
   23    8    9 1     
   24    9   10 1     
   25    9   20 1     
   26    9   34 1     
   27   10   11 1     
   28   10   35 1     
   29   10   36 1     
   30   11   12 am    
   31   11   37 1     
   32   12   13 2     
   33   12   14 am    
   34   14   15 1     
   35   14   38 1     
   36   15   19 1     
   37   15   16 2     
   38   16   17 1     
   39   17   18 2     
   40   18   19 1     
   41   18   39 1     
   42   20   40 1     
   43   20   41 1     
   44    8   43 1     
   45    8   44 1     
   46   13   45 1     
   47   13   46 1     
   48   16   47 1     
   49   17   48 1     
@<TRIPOS>SUBSTRUCTURE
      1 S1             1
@<TRIPOS>SET
LONE_PAIRS      STATIC     ATOMS    <user>   **** ""
6 43 44 45 46 47 48
DONOR_HYDROGENS      STATIC     ATOMS    <user>   **** ""
3 42 37 38
ATOM$BLUE        STATIC     ATOMS    COLORGROUP SYSTEM
6 43 44 45 46 47 48
ATOM$RED        STATIC     ATOMS    COLORGROUP SYSTEM
3 42 37 38
