AV-unprocessed.smi:1662|AV-procd|sdf|6664|dock10
  -GOLD-   22720 7373D 1   1.00000     0.00000
 Structure written by MMmdl.
 47 48  0  0  0  0  0  0  0  0  1 V2000
  146.9258  137.4978  155.9003 C   0  0  0  0  0  0  0  0  0  0  0  0
  147.9220  137.3625  157.0201 C   0  0  0  0  0  0  0  0  0  0  0  0
  149.1586  137.6011  156.7292 N   0  0  0  0  0  0  0  0  0  0  0  0
  150.1540  137.4986  157.6816 N   0  0  0  0  0  0  0  0  0  0  0  0
  151.5045  137.7810  157.1743 C   0  0  0  0  0  0  0  0  0  0  0  0
  152.0242  139.1597  157.6043 C   0  0  0  0  0  0  0  0  0  0  0  0
  153.1102  139.5731  157.1964 O   0  0  0  0  0  0  0  0  0  0  0  0
  151.2219  139.8654  158.4156 N   0  0  0  0  0  0  0  0  0  0  0  0
  151.5160  141.1870  158.9653 C   0  0  1  0  0  0  0  0  0  0  0  0
  152.7985  141.1092  159.8175 C   0  0  0  0  0  0  0  0  0  0  0  0
  153.2153  142.4861  160.3527 C   0  0  0  0  0  0  0  0  0  0  0  0
  153.3649  143.5036  159.2107 C   0  0  0  0  0  0  0  0  0  0  0  0
  152.0832  143.6192  158.3604 C   0  0  2  0  0  0  0  0  0  0  0  0
  150.9669  144.3691  159.1162 C   0  0  0  0  0  0  0  0  0  0  0  0
  151.6627  142.2248  157.8228 C   0  0  2  0  0  0  0  0  0  0  0  0
  150.4198  142.2950  156.9129 C   0  0  0  0  0  0  0  0  0  0  0  0
  149.9483  137.1599  158.9872 C   0  0  0  0  0  0  0  0  0  0  0  0
  150.8669  137.0879  159.8054 O   0  0  0  0  0  0  0  0  0  0  0  0
  148.5449  136.8931  159.3098 C   0  0  0  0  0  0  0  0  0  0  0  0
  148.2861  136.5303  160.6658 C   0  0  0  0  0  0  0  0  0  0  0  0
  148.0762  136.2550  161.7704 N   0  0  0  0  0  0  0  0  0  0  0  0
  147.5593  136.9832  158.3821 C   0  0  0  0  0  0  0  0  0  0  0  0
  146.0876  136.7139  158.6652 C   0  0  0  0  0  0  0  0  0  0  0  0
  146.1728  138.2488  156.1399 H   0  0  0  0  0  0  0  0  0  0  0  0
  146.4155  136.5514  155.7209 H   0  0  0  0  0  0  0  0  0  0  0  0
  147.4024  137.7969  154.9654 H   0  0  0  0  0  0  0  0  0  0  0  0
  152.2100  137.0294  157.5329 H   0  0  0  0  0  0  0  0  0  0  0  0
  151.5178  137.6982  156.0856 H   0  0  0  0  0  0  0  0  0  0  0  0
  150.3465  139.4460  158.6935 H   0  0  0  0  0  0  0  0  0  0  0  0
  150.6904  141.5011  159.6059 H   0  0  0  0  0  0  0  0  0  0  0  0
  152.6529  140.4220  160.6520 H   0  0  0  0  0  0  0  0  0  0  0  0
  153.6127  140.6975  159.2193 H   0  0  0  0  0  0  0  0  0  0  0  0
  152.4787  142.8384  161.0752 H   0  0  0  0  0  0  0  0  0  0  0  0
  154.1568  142.4003  160.8957 H   0  0  0  0  0  0  0  0  0  0  0  0
  153.6408  144.4783  159.6141 H   0  0  0  0  0  0  0  0  0  0  0  0
  154.1933  143.1981  158.5702 H   0  0  0  0  0  0  0  0  0  0  0  0
  152.3339  144.2379  157.4976 H   0  0  0  0  0  0  0  0  0  0  0  0
  150.6015  143.8081  159.9757 H   0  0  0  0  0  0  0  0  0  0  0  0
  150.1143  144.5759  158.4698 H   0  0  0  0  0  0  0  0  0  0  0  0
  151.3258  145.3312  159.4826 H   0  0  0  0  0  0  0  0  0  0  0  0
  152.4820  141.8834  157.1877 H   0  0  0  0  0  0  0  0  0  0  0  0
  149.5162  142.5118  157.4829 H   0  0  0  0  0  0  0  0  0  0  0  0
  150.2542  141.3539  156.3881 H   0  0  0  0  0  0  0  0  0  0  0  0
  150.5323  143.0696  156.1540 H   0  0  0  0  0  0  0  0  0  0  0  0
  145.9096  136.4436  159.7055 H   0  0  0  0  0  0  0  0  0  0  0  0
  145.7234  135.8927  158.0471 H   0  0  0  0  0  0  0  0  0  0  0  0
  145.4877  137.5988  158.4506 H   0  0  0  0  0  0  0  0  0  0  0  0
  1  2  1  0  0  0  0
  1 24  1  0  0  0  0
  1 25  1  0  0  0  0
  1 26  1  0  0  0  0
  2 22  1  0  0  0  0
  2  3  2  0  0  0  0
  3  4  1  0  0  0  0
  4  5  1  0  0  0  0
  4 17  1  0  0  0  0
  5  6  1  0  0  0  0
  5 27  1  0  0  0  0
  5 28  1  0  0  0  0
  6  7  2  0  0  0  0
  6  8  1  0  0  0  0
  8  9  1  0  0  0  0
  8 29  1  0  0  0  0
  9 15  1  0  0  0  0
  9 10  1  0  0  0  0
  9 30  1  0  0  0  0
 10 11  1  0  0  0  0
 10 31  1  0  0  0  0
 10 32  1  0  0  0  0
 11 12  1  0  0  0  0
 11 33  1  0  0  0  0
 11 34  1  0  0  0  0
 12 13  1  0  0  0  0
 12 35  1  0  0  0  0
 12 36  1  0  0  0  0
 13 14  1  0  0  0  0
 13 15  1  0  0  0  0
 13 37  1  0  0  0  0
 14 38  1  0  0  0  0
 14 39  1  0  0  0  0
 14 40  1  0  0  0  0
 15 16  1  0  0  0  0
 15 41  1  0  0  0  0
 16 42  1  0  0  0  0
 16 43  1  0  0  0  0
 16 44  1  0  0  0  0
 17 18  2  0  0  0  0
 17 19  1  0  0  0  0
 19 20  1  0  0  0  0
 19 22  2  0  0  0  0
 20 21  3  0  0  0  0
 22 23  1  0  0  0  0
 23 45  1  0  0  0  0
 23 46  1  0  0  0  0
 23 47  1  0  0  0  0
M  END
> <s_m_source_file>
AV-unprocessed.smi

> <i_m_source_file_index>
1662

> <i_lp_mmshare_version>
43012

> <i_f3d_flags>
0

> <s_epik_input>
TiNDYyhjMVtDSDNdKWMoPU8pbihuYzFbQ0gzXSlbQ0gyXUMoPU8pW05IXVtDQEBIXTJbQ0gyXVtDSDJdW0NIMl1bQ0BASF0oW0NIM10pW0NASF0yW0NIM10=

> <s_epik_cmdline>
J2VwaWtfcHl0aG9uJywgJy1waCcsICc3LjAnLCAnLXRuJywgJzgnLCAnLW1hJywgJzIwMCcsICctbWV0YWxfYmluZGluZycsICctaW1hZScsICc8aW5maWxlLm1hZT4nLCAnLW9tYWUnLCAnPG91dGZpbGUubWFlPic=

> <r_lp_tautomer_probability>
1

> <r_epik_Ionization_Penalty>
1.90709e-08

> <r_epik_Ionization_Penalty_Charging>
2.37982e-11

> <r_epik_Ionization_Penalty_Neutral>
1.90471e-08

> <r_epik_State_Penalty>
-0

> <r_epik_Charging_Adjusted_Penalty>
2.37982e-11

> <i_epik_Tot_Q>
0

> <i_epik_Tot_abs_Q>
0

> <r_epik_Metal_State_Penalty>
-0

> <b_epik_Metal_Only>
0

> <s_lp_Force_Field>
OPLS_2005

> <r_lp_Energy>
29.0639

> <b_lp_Chiralities_Consistent>
1

> <s_lp_Variant>
AV-unprocessed.smi:1662-8

> <Gold.Version>
5.8.1

> <Gold.Id.Protein>
6NUR|6NUR_protein|mol2

> <Gold.PLP.Fitness>
39.8645

> <Gold.PLP.PLP>
-34.3631

> <Gold.PLP.part.hbond>
-2.6294

> <Gold.PLP.part.metal>
0.0000

> <Gold.PLP.part.buried>
-3.6148

> <Gold.PLP.part.nonpolar>
-27.0603

> <Gold.PLP.part.repulsive>
0.1376

> <Gold.PLP.ligand.clash>
0.0000

> <Gold.PLP.ligand.torsion>
0.2141

> <Gold.PLP.Chemscore.Hbond>
1.9750

> <Gold.PLP.Chemscore.CHOScore>
0.0000

> <Gold.PLP.Chemscore.Metal>
0.0000

> <Gold.Chemscore.Hbonds>
donor molecule, donor type, donor heavy atom, donor atom, acceptor molecule, acceptor atom, score
      P1  H  6896  6908       L1    18  1.00
      P1  H  7997  8009       L1     7  0.96

> <Gold.PLP.Chemscore.Internal.Correction>
0.0046

> <Gold.Rescore>
     Score         DG    S(hbond)    S(metal)    S(lipo)     H(rot)  DE(clash)    DE(int)     intcor
     17.42     -18.68       1.96        0.00      88.61       1.45       0.00       1.26       ----

> <Gold.Chemscore.Fitness>
17.4173

> <Gold.Chemscore.DG>
-18.6760

> <Gold.Chemscore.ZeroCoef>
-5.4800

> <Gold.Chemscore.Hbond>
1.9584

> <Gold.Chemscore.Metal>
0.0000

> <Gold.Chemscore.Lipo>
88.6135

> <Gold.Chemscore.Internal_Hbond>
0.0000

> <Gold.Chemscore.DEClash>
0.0000

> <Gold.Chemscore.DEInternal>
1.2588

> <Gold.Chemscore.Rot>
1.4504

> <Gold.Chemscore.Internal.Correction>
   9.000000E+99

> <Gold.Chemscore.Hbonds>
donor molecule, donor type, donor heavy atom, donor atom, acceptor molecule, acceptor atom, score
      P1  H  6896  6908       L1    18  0.29
      P1  H  7997  8009       L1     7  0.88

> <Gold.Chemscore.Hbond.Weighted>
-6.5412

> <Gold.Chemscore.Metal.Weighted>
-0.0000

> <Gold.Chemscore.Lipo.Weighted>
-10.3678

> <Gold.Chemscore.Internal_Hbond.Weighted>
0.0000

> <Gold.Chemscore.DEClash.Weighted>
0.0000

> <Gold.Chemscore.DEInternal.Weighted>
1.2588

> <Gold.Chemscore.Rot.Weighted>
3.7129

> <Gold.Chemscore.Internal.Correction.Weighted>
   9.000000E+99

> <Gold.Protein.RotatedTorsions>
[ 6907 6896 6895 6894 ] final -146.14 input  -60.11 | X-H torsion
[ 7974 7965 7964 7962 ] final  -45.71 input  175.53 | X-H torsion
[ 8008 7997 7996 7995 ] final  154.11 input   59.86 | X-H torsion
[ 10167 10162 10161 10158 ] final   12.07 input  -65.29 | X-H torsion
[ 10718 10713 10712 10709 ] final -145.76 input   66.30 | X-H torsion
[ 10763 10752 10751 10750 ] final   29.11 input  -60.55 | X-H torsion
[ 11005 11000 10999 10996 ] final -107.03 input  -57.11 | X-H torsion

> <Gold.Protein.ActiveResidues>
 VAL166  LYS551  ARG553  GLY616  TRP617  ASP618  TYR619  PRO620  LYS621  CYS622 
 ASP623  PHE694  ASN695  SER759  ASP760  ASP761  ALA762  ILE779  LEU786  VAL792 
 PHE793  MET794  SER795  GLU796  ALA797  LYS798  CYS799  TRP800  GLU811  SER814 

> <Gold.Protein.RotatedAtoms>
  151.1375  133.4994  159.2597 H   0  0  0  0  0  0  0  0  0  0  0  0  # atno 6907 bound_to 6896
  151.1691  135.0309  159.8754 H   0  0  0  0  0  0  0  0  0  0  0  0  # atno 6908 bound_to 6896
  152.5461  134.1240  159.8464 H   0  0  0  0  0  0  0  0  0  0  0  0  # atno 6909 bound_to 6896
  145.9793  140.7300  142.9371 H   0  0  0  0  0  0  0  0  0  0  0  0  # atno 7974 bound_to 7965
  156.2548  140.1975  156.6596 H   0  0  0  0  0  0  0  0  0  0  0  0  # atno 8008 bound_to 7997
  154.6475  140.0576  156.9942 H   0  0  0  0  0  0  0  0  0  0  0  0  # atno 8009 bound_to 7997
  155.1469  140.3248  155.4442 H   0  0  0  0  0  0  0  0  0  0  0  0  # atno 8010 bound_to 7997
  140.6092  143.8444  150.7046 H   0  0  0  0  0  0  0  0  0  0  0  0  # atno 10167 bound_to 10162
  156.3864  130.7863  151.2061 H   0  0  0  0  0  0  0  0  0  0  0  0  # atno 10718 bound_to 10713
  153.0450  135.6497  154.0840 H   0  0  0  0  0  0  0  0  0  0  0  0  # atno 10763 bound_to 10752
  154.0540  135.2893  155.3337 H   0  0  0  0  0  0  0  0  0  0  0  0  # atno 10764 bound_to 10752
  154.6701  135.5359  153.8193 H   0  0  0  0  0  0  0  0  0  0  0  0  # atno 10765 bound_to 10752
  141.0975  133.8945  157.1927 H   0  0  0  0  0  0  0  0  0  0  0  0  # atno 11005 bound_to 11000
  144.6857  140.2881  143.7282 LP  0  0  0  0  0  0  0  0  0  0  0  0  # atno 17320 bound_to 7965
  145.7793  139.1885  143.2167 LP  0  0  0  0  0  0  0  0  0  0  0  0  # atno 17321 bound_to 7965
  140.2008  143.3960  152.1793 LP  0  0  0  0  0  0  0  0  0  0  0  0  # atno 17342 bound_to 10162
  139.5348  144.7198  151.4931 LP  0  0  0  0  0  0  0  0  0  0  0  0  # atno 17343 bound_to 10162
  157.7496  131.0329  150.4246 LP  0  0  0  0  0  0  0  0  0  0  0  0  # atno 17370 bound_to 10713
  156.4499  130.4009  149.6643 LP  0  0  0  0  0  0  0  0  0  0  0  0  # atno 17371 bound_to 10713
  139.9816  135.0096  156.9762 LP  0  0  0  0  0  0  0  0  0  0  0  0  # atno 17394 bound_to 11000
  140.5104  134.1007  155.7269 LP  0  0  0  0  0  0  0  0  0  0  0  0  # atno 17395 bound_to 11000

$$$$
