AV-unprocessed.smi:2453|AV-procd|sdf|9688|dock6
  -GOLD-   2272013323D 1   1.00000     0.00000
 Structure written by MMmdl.
 40 41  0  0  0  0  0  0  0  0  1 V2000
  151.1860  145.0543  158.3754 C   0  0  0  0  0  0  0  0  0  0  0  0
  151.6728  143.6719  158.7742 C   0  0  0  0  0  0  0  0  0  0  0  0
  152.8179  143.5371  159.5883 C   0  0  0  0  0  0  0  0  0  0  0  0
  153.3162  142.3479  159.9847 N   0  0  0  0  0  0  0  0  0  0  0  0
  152.6815  141.2320  159.5718 C   0  0  0  0  0  0  0  0  0  0  0  0
  151.5321  141.2492  158.7581 C   0  0  0  0  0  0  0  0  0  0  0  0
  151.0005  142.4981  158.3547 C   0  0  0  0  0  0  0  0  0  0  0  0
  149.8579  142.6267  157.5151 N   0  0  0  0  0  0  0  0  0  0  0  0
  148.8564  141.7535  157.3124 C   0  0  0  0  0  0  0  0  0  0  0  0
  148.7327  140.6672  157.8776 O   0  0  0  0  0  0  0  0  0  0  0  0
  147.9839  142.2289  156.4119 N   0  0  0  0  0  0  0  0  0  0  0  0
  146.7802  141.5491  155.9277 C   0  0  1  0  0  0  0  0  0  0  0  0
  145.5214  142.2887  156.4236 C   0  0  0  0  0  0  0  0  0  0  0  0
  145.3454  143.6581  155.7454 C   0  0  0  0  0  0  0  0  0  0  0  0
  145.3458  143.5242  154.2155 C   0  0  0  0  0  0  0  0  0  0  0  0
  146.6109  142.8071  153.7166 C   0  0  0  0  0  0  0  0  0  0  0  0
  146.7828  141.4236  154.3801 C   0  0  1  0  0  0  0  0  0  0  0  0
  148.0199  140.6887  153.8214 C   0  0  0  0  0  0  0  0  0  0  0  0
  149.1754  141.4921  153.9388 O   0  0  0  0  0  0  0  0  0  0  0  0
  151.8223  145.8348  158.7938 H   0  0  0  0  0  0  0  0  0  0  0  0
  150.1704  145.2182  158.7364 H   0  0  0  0  0  0  0  0  0  0  0  0
  151.1901  145.1619  157.2905 H   0  0  0  0  0  0  0  0  0  0  0  0
  153.3546  144.4090  159.9324 H   0  0  0  0  0  0  0  0  0  0  0  0
  153.1073  140.2933  159.8940 H   0  0  0  0  0  0  0  0  0  0  0  0
  151.0951  140.3112  158.4527 H   0  0  0  0  0  0  0  0  0  0  0  0
  149.7698  143.5153  157.0447 H   0  0  0  0  0  0  0  0  0  0  0  0
  148.1720  143.1365  156.0125 H   0  0  0  0  0  0  0  0  0  0  0  0
  146.7408  140.5412  156.3442 H   0  0  0  0  0  0  0  0  0  0  0  0
  144.6437  141.6749  156.2171 H   0  0  0  0  0  0  0  0  0  0  0  0
  145.5564  142.4092  157.5071 H   0  0  0  0  0  0  0  0  0  0  0  0
  144.4141  144.1182  156.0769 H   0  0  0  0  0  0  0  0  0  0  0  0
  146.1462  144.3308  156.0544 H   0  0  0  0  0  0  0  0  0  0  0  0
  144.4624  142.9689  153.8975 H   0  0  0  0  0  0  0  0  0  0  0  0
  145.2720  144.5106  153.7565 H   0  0  0  0  0  0  0  0  0  0  0  0
  146.5565  142.6957  152.6332 H   0  0  0  0  0  0  0  0  0  0  0  0
  147.4851  143.4282  153.9153 H   0  0  0  0  0  0  0  0  0  0  0  0
  145.9092  140.8314  154.1017 H   0  0  0  0  0  0  0  0  0  0  0  0
  148.1941  139.7668  154.3770 H   0  0  0  0  0  0  0  0  0  0  0  0
  147.8798  140.4064  152.7777 H   0  0  0  0  0  0  0  0  0  0  0  0
  149.0777  142.0530  154.6933 H   0  0  0  0  0  0  0  0  0  0  0  0
  1  2  1  0  0  0  0
  1 20  1  0  0  0  0
  1 21  1  0  0  0  0
  1 22  1  0  0  0  0
  2  7  1  0  0  0  0
  2  3  2  0  0  0  0
  3  4  1  0  0  0  0
  3 23  1  0  0  0  0
  4  5  2  0  0  0  0
  5  6  1  0  0  0  0
  5 24  1  0  0  0  0
  6  7  2  0  0  0  0
  6 25  1  0  0  0  0
  7  8  1  0  0  0  0
  8  9  1  0  0  0  0
  8 26  1  0  0  0  0
  9 10  2  0  0  0  0
  9 11  1  0  0  0  0
 11 12  1  0  0  0  0
 11 27  1  0  0  0  0
 12 17  1  0  0  0  0
 12 13  1  0  0  0  0
 12 28  1  0  0  0  0
 13 14  1  0  0  0  0
 13 29  1  0  0  0  0
 13 30  1  0  0  0  0
 14 15  1  0  0  0  0
 14 31  1  0  0  0  0
 14 32  1  0  0  0  0
 15 16  1  0  0  0  0
 15 33  1  0  0  0  0
 15 34  1  0  0  0  0
 16 17  1  0  0  0  0
 16 35  1  0  0  0  0
 16 36  1  0  0  0  0
 17 18  1  0  0  0  0
 17 37  1  0  0  0  0
 18 19  1  0  0  0  0
 18 38  1  0  0  0  0
 18 39  1  0  0  0  0
 19 40  1  0  0  0  0
M  END
> <s_m_source_file>
AV-unprocessed.smi

> <i_m_source_file_index>
2453

> <i_lp_mmshare_version>
43012

> <i_f3d_flags>
0

> <s_epik_input>
W0NIM11jMVtjSF1uW2NIXVtjSF1jMVtOSF1DKD1PKVtOSF1bQ0BASF0yW0NIMl1bQ0gyXVtDSDJdW0NIMl1bQ0BIXTJbQ0gyXVtPSF0=

> <s_epik_cmdline>
J2VwaWtfcHl0aG9uJywgJy1waCcsICc3LjAnLCAnLXRuJywgJzgnLCAnLW1hJywgJzIwMCcsICctbWV0YWxfYmluZGluZycsICctaW1hZScsICc8aW5maWxlLm1hZT4nLCAnLW9tYWUnLCAnPG91dGZpbGUubWFlPic=

> <r_epik_Ionization_Penalty>
0.210691

> <r_epik_Ionization_Penalty_Charging>
0

> <r_epik_Ionization_Penalty_Neutral>
0.210691

> <r_epik_State_Penalty>
0.200732

> <r_epik_Charging_Adjusted_Penalty>
0.200732

> <i_epik_Tot_Q>
0

> <i_epik_Tot_abs_Q>
0

> <r_epik_Metal_State_Penalty>
0.147519

> <b_epik_Metal_Only>
0

> <s_lp_Force_Field>
OPLS_2005

> <r_lp_Energy>
17.3761

> <b_lp_Chiralities_Consistent>
1

> <s_lp_Variant>
AV-unprocessed.smi:2453-2

> <Gold.Version>
5.8.1

> <Gold.Id.Protein>
6NUR|6NUR_protein|mol2

> <Gold.PLP.Fitness>
46.1689

> <Gold.PLP.PLP>
-38.4299

> <Gold.PLP.part.hbond>
-4.5785

> <Gold.PLP.part.metal>
0.0000

> <Gold.PLP.part.buried>
-6.8653

> <Gold.PLP.part.nonpolar>
-26.9006

> <Gold.PLP.part.repulsive>
0.0545

> <Gold.PLP.ligand.clash>
0.0000

> <Gold.PLP.ligand.torsion>
0.1952

> <Gold.PLP.Chemscore.Hbond>
2.7040

> <Gold.PLP.Chemscore.CHOScore>
0.0000

> <Gold.PLP.Chemscore.Metal>
0.0000

> <Gold.Chemscore.Hbonds>
donor molecule, donor type, donor heavy atom, donor atom, acceptor molecule, acceptor atom, score
      L1  H     8    26       P1  8028  1.00
      L1  H    11    27       P1  8028  1.00
      P1  H  8011  8017       L1    19  0.70

> <Gold.PLP.Chemscore.Internal.Correction>
0.0174

> <Gold.Rescore>
     Score         DG    S(hbond)    S(metal)    S(lipo)     H(rot)  DE(clash)    DE(int)     intcor
     17.41     -20.35       2.51        0.00      93.64       1.75       0.20       2.75       ----

> <Gold.Chemscore.Fitness>
17.4059

> <Gold.Chemscore.DG>
-20.3548

> <Gold.Chemscore.ZeroCoef>
-5.4800

> <Gold.Chemscore.Hbond>
2.5142

> <Gold.Chemscore.Metal>
0.0000

> <Gold.Chemscore.Lipo>
93.6374

> <Gold.Chemscore.Internal_Hbond>
0.0000

> <Gold.Chemscore.DEClash>
0.2005

> <Gold.Chemscore.DEInternal>
2.7484

> <Gold.Chemscore.Rot>
1.7493

> <Gold.Chemscore.Internal.Correction>
   9.000000E+99

> <Gold.Chemscore.Hbonds>
donor molecule, donor type, donor heavy atom, donor atom, acceptor molecule, acceptor atom, score
      L1  H     8    26       P1  8028  0.88
      L1  H    11    27       P1  8028  0.70
      P1  H  8011  8017       L1    19  0.58

> <Gold.Chemscore.Hbond.Weighted>
-8.3974

> <Gold.Chemscore.Metal.Weighted>
-0.0000

> <Gold.Chemscore.Lipo.Weighted>
-10.9556

> <Gold.Chemscore.Internal_Hbond.Weighted>
0.0000

> <Gold.Chemscore.DEClash.Weighted>
0.2005

> <Gold.Chemscore.DEInternal.Weighted>
2.7484

> <Gold.Chemscore.Rot.Weighted>
4.4782

> <Gold.Chemscore.Internal.Correction.Weighted>
   9.000000E+99

> <Gold.Protein.RotatedTorsions>
[ 6907 6896 6895 6894 ] final   13.84 input  -60.11 | X-H torsion
[ 7974 7965 7964 7962 ] final  -38.45 input  175.53 | X-H torsion
[ 8008 7997 7996 7995 ] final   23.75 input   59.86 | X-H torsion
[ 10167 10162 10161 10158 ] final   50.75 input  -65.29 | X-H torsion
[ 10718 10713 10712 10709 ] final   38.59 input   66.30 | X-H torsion
[ 10763 10752 10751 10750 ] final   94.10 input  -60.55 | X-H torsion
[ 11005 11000 10999 10996 ] final  174.83 input  -57.11 | X-H torsion

> <Gold.Protein.ActiveResidues>
 VAL166  LYS551  ARG553  GLY616  TRP617  ASP618  TYR619  PRO620  LYS621  CYS622 
 ASP623  PHE694  ASN695  SER759  ASP760  ASP761  ALA762  ILE779  LEU786  VAL792 
 PHE793  MET794  SER795  GLU796  ALA797  LYS798  CYS799  TRP800  GLU811  SER814 

> <Gold.Protein.RotatedAtoms>
  151.7928  135.0731  160.0389 H   0  0  0  0  0  0  0  0  0  0  0  0  # atno 6907 bound_to 6896
  152.3144  133.5783  159.5711 H   0  0  0  0  0  0  0  0  0  0  0  0  # atno 6908 bound_to 6896
  150.7337  134.0020  159.3683 H   0  0  0  0  0  0  0  0  0  0  0  0  # atno 6909 bound_to 6896
  146.0485  140.6514  142.9053 H   0  0  0  0  0  0  0  0  0  0  0  0  # atno 7974 bound_to 7965
  154.9857  140.3107  155.4927 H   0  0  0  0  0  0  0  0  0  0  0  0  # atno 8008 bound_to 7997
  156.2947  140.2258  156.4898 H   0  0  0  0  0  0  0  0  0  0  0  0  # atno 8009 bound_to 7997
  154.7749  140.0450  157.1069 H   0  0  0  0  0  0  0  0  0  0  0  0  # atno 8010 bound_to 7997
  140.2692  144.3285  150.6295 H   0  0  0  0  0  0  0  0  0  0  0  0  # atno 10167 bound_to 10162
  157.3607  130.7648  149.7045 H   0  0  0  0  0  0  0  0  0  0  0  0  # atno 10718 bound_to 10713
  153.2378  135.4302  155.0665 H   0  0  0  0  0  0  0  0  0  0  0  0  # atno 10763 bound_to 10752
  154.8327  135.3395  154.6693 H   0  0  0  0  0  0  0  0  0  0  0  0  # atno 10764 bound_to 10752
  153.7118  135.7022  153.5092 H   0  0  0  0  0  0  0  0  0  0  0  0  # atno 10765 bound_to 10752
  140.3555  134.7158  157.4297 H   0  0  0  0  0  0  0  0  0  0  0  0  # atno 11005 bound_to 11000
  144.7110  140.4038  143.7080 LP  0  0  0  0  0  0  0  0  0  0  0  0  # atno 17320 bound_to 7965
  145.6765  139.1609  143.2725 LP  0  0  0  0  0  0  0  0  0  0  0  0  # atno 17321 bound_to 7965
  140.5904  143.2168  151.7264 LP  0  0  0  0  0  0  0  0  0  0  0  0  # atno 17342 bound_to 10162
  139.4994  144.3948  152.0242 LP  0  0  0  0  0  0  0  0  0  0  0  0  # atno 17343 bound_to 10162
  155.9737  130.4115  150.3983 LP  0  0  0  0  0  0  0  0  0  0  0  0  # atno 17370 bound_to 10713
  157.2059  131.0449  151.2625 LP  0  0  0  0  0  0  0  0  0  0  0  0  # atno 17371 bound_to 10713
  140.0668  134.5918  155.8686 LP  0  0  0  0  0  0  0  0  0  0  0  0  # atno 17394 bound_to 11000
  141.1999  133.6610  156.5871 LP  0  0  0  0  0  0  0  0  0  0  0  0  # atno 17395 bound_to 11000

$$$$
