AV-unprocessed.smi:496|AV-procd|sdf|2722|dock3
  -GOLD-   2262023163D 1   1.00000     0.00000
 Structure written by MMmdl.
 42 44  0  0  0  0  0  0  0  0  3 V2000
  153.9897  139.4444  159.6516 C   0  0  0  0  0  0  0  0  0  0  0  0
  153.6756  139.6028  158.2768 O   0  0  0  0  0  0  0  0  0  0  0  0
  152.3131  139.3523  157.9641 C   0  0  0  0  0  0  0  0  0  0  0  0
  151.3642  140.1024  158.9145 C   0  0  0  0  0  0  0  0  0  0  0  0
  150.9826  141.4210  158.3727 N   0  0  0  0  0  0  0  0  0  0  0  0
  150.2168  141.7742  157.2898 C   0  0  0  0  0  0  0  0  0  0  0  0
  149.5143  140.8760  156.3027 C   0  0  2  0  0  0  0  0  0  0  0  0
  150.2763  140.8497  154.9708 C   0  0  0  0  0  0  0  0  0  0  0  0
  148.1361  141.3052  156.0598 N   0  5  0  0  0  0  0  0  0  0  0  0
  147.5581  141.3522  154.8256 C   0  0  0  0  0  0  0  0  0  0  0  0
  147.7820  140.6614  153.8255 O   0  0  0  0  0  0  0  0  0  0  0  0
  146.5093  142.3951  154.7335 C   0  0  0  0  0  0  0  0  0  0  0  0
  145.9743  143.0105  153.6328 C   0  0  0  0  0  0  0  0  0  0  0  0
  145.0007  143.9322  154.1079 C   0  0  0  0  0  0  0  0  0  0  0  0
  145.0073  143.8166  155.4680 C   0  0  0  0  0  0  0  0  0  0  0  0
  145.9175  142.8871  155.8657 O   0  0  0  0  0  0  0  0  0  0  0  0
  150.1927  143.1380  157.2508 N   0  3  0  0  0  0  0  0  0  0  0  0
  150.9197  143.6633  158.3170 C   0  0  0  0  0  0  0  0  0  0  0  0
  151.1624  144.9810  158.6917 C   0  0  0  0  0  0  0  0  0  0  0  0
  151.9424  145.1755  159.8502 C   0  0  0  0  0  0  0  0  0  0  0  0
  152.4459  144.0841  160.5871 C   0  0  0  0  0  0  0  0  0  0  0  0
  152.1939  142.7528  160.1953 C   0  0  0  0  0  0  0  0  0  0  0  0
  151.4245  142.5681  159.0461 C   0  0  0  0  0  0  0  0  0  0  0  0
  155.0343  139.7079  159.8163 H   0  0  0  0  0  0  0  0  0  0  0  0
  153.8532  138.4159  159.9848 H   0  0  0  0  0  0  0  0  0  0  0  0
  153.3782  140.0980  160.2747 H   0  0  0  0  0  0  0  0  0  0  0  0
  152.1024  139.5952  156.9213 H   0  0  0  0  0  0  0  0  0  0  0  0
  152.1495  138.2794  158.0685 H   0  0  0  0  0  0  0  0  0  0  0  0
  150.4629  139.5202  159.1043 H   0  0  0  0  0  0  0  0  0  0  0  0
  151.8244  140.2586  159.8893 H   0  0  0  0  0  0  0  0  0  0  0  0
  149.5370  139.8631  156.7069 H   0  0  0  0  0  0  0  0  0  0  0  0
  151.2974  140.4953  155.1144 H   0  0  0  0  0  0  0  0  0  0  0  0
  150.3280  141.8406  154.5179 H   0  0  0  0  0  0  0  0  0  0  0  0
  149.7960  140.1811  154.2553 H   0  0  0  0  0  0  0  0  0  0  0  0
  146.2520  142.8189  152.6068 H   0  0  0  0  0  0  0  0  0  0  0  0
  144.3752  144.5946  153.5281 H   0  0  0  0  0  0  0  0  0  0  0  0
  144.4576  144.2947  156.2653 H   0  0  0  0  0  0  0  0  0  0  0  0
  150.7722  145.8172  158.1302 H   0  0  0  0  0  0  0  0  0  0  0  0
  152.1548  146.1814  160.1820 H   0  0  0  0  0  0  0  0  0  0  0  0
  153.0364  144.2713  161.4722 H   0  0  0  0  0  0  0  0  0  0  0  0
  152.5809  141.9254  160.7715 H   0  0  0  0  0  0  0  0  0  0  0  0
  149.6865  143.6596  156.5467 H   0  0  0  0  0  0  0  0  0  0  0  0
  1  2  1  0  0  0  0
  1 24  1  0  0  0  0
  1 25  1  0  0  0  0
  1 26  1  0  0  0  0
  2  3  1  0  0  0  0
  3  4  1  0  0  0  0
  3 27  1  0  0  0  0
  3 28  1  0  0  0  0
  4  5  1  0  0  0  0
  4 29  1  0  0  0  0
  4 30  1  0  0  0  0
  5 23  1  0  0  0  0
  5  6  1  0  0  0  0
  6  7  1  0  0  0  0
  6 17  2  0  0  0  0
  7  8  1  0  0  0  0
  7  9  1  0  0  0  0
  7 31  1  0  0  0  0
  8 32  1  0  0  0  0
  8 33  1  0  0  0  0
  8 34  1  0  0  0  0
  9 10  1  0  0  0  0
 10 11  2  0  0  0  0
 10 12  1  0  0  0  0
 12 16  1  0  0  0  0
 12 13  2  0  0  0  0
 13 14  1  0  0  0  0
 13 35  1  0  0  0  0
 14 15  2  0  0  0  0
 14 36  1  0  0  0  0
 15 16  1  0  0  0  0
 15 37  1  0  0  0  0
 17 18  1  0  0  0  0
 17 42  1  0  0  0  0
 18 23  2  0  0  0  0
 18 19  1  0  0  0  0
 19 20  2  0  0  0  0
 19 38  1  0  0  0  0
 20 21  1  0  0  0  0
 20 39  1  0  0  0  0
 21 22  2  0  0  0  0
 21 40  1  0  0  0  0
 22 23  1  0  0  0  0
 22 41  1  0  0  0  0
M  CHG  1   9  -1
M  CHG  1  17   1
M  END
> <s_m_source_file>
AV-unprocessed.smi

> <i_m_source_file_index>
496

> <i_lp_mmshare_version>
43012

> <i_f3d_flags>
0

> <s_epik_input>
W2NIXTFbY0hdW2NIXVtjSF1jKGMxMiluKFtDSDJdW0NIMl1PW0NIM10pYyhuMilbQ0BIXShbQ0gzXSlbTkhdQyg9TyljM1tjSF1bY0hdW2NIXW8z

> <s_epik_cmdline>
J2VwaWtfcHl0aG9uJywgJy1waCcsICc3LjAnLCAnLXRuJywgJzgnLCAnLW1hJywgJzIwMCcsICctbWV0YWxfYmluZGluZycsICctaW1hZScsICc8aW5maWxlLm1hZT4nLCAnLW9tYWUnLCAnPG91dGZpbGUubWFlPic=

> <r_epik_Ionization_Penalty>
6.2189

> <r_epik_Ionization_Penalty_Charging>
6.2189

> <r_epik_Ionization_Penalty_Neutral>
2.56052e-12

> <r_epik_State_Penalty>
7.14475

> <r_epik_Charging_Adjusted_Penalty>
13.3636

> <i_epik_Tot_Q>
0

> <i_epik_Tot_abs_Q>
2

> <r_epik_Metal_State_Penalty>
3.17915

> <b_epik_Metal_Only>
1

> <s_lp_Force_Field>
OPLS_2005

> <r_lp_Energy>
11.1611

> <b_lp_Chiralities_Consistent>
1

> <s_lp_Variant>
AV-unprocessed.smi:496-7

> <Gold.Version>
5.8.1

> <Gold.Id.Protein>
6NUR|6NUR_protein|mol2

> <Gold.PLP.Fitness>
51.9091

> <Gold.PLP.PLP>
-45.2543

> <Gold.PLP.part.hbond>
-2.0000

> <Gold.PLP.part.metal>
0.0000

> <Gold.PLP.part.buried>
-5.8226

> <Gold.PLP.part.nonpolar>
-37.2313

> <Gold.PLP.part.repulsive>
0.3946

> <Gold.PLP.ligand.clash>
0.0000

> <Gold.PLP.ligand.torsion>
1.2073

> <Gold.PLP.Chemscore.Hbond>
3.0000

> <Gold.PLP.Chemscore.CHOScore>
0.0000

> <Gold.PLP.Chemscore.Metal>
0.0000

> <Gold.Chemscore.Hbonds>
donor molecule, donor type, donor heavy atom, donor atom, acceptor molecule, acceptor atom, score
      L1  H    17    42       P1  8028  2.00
      P1  H  7997  8010       L1     2  1.00

> <Gold.PLP.Chemscore.Internal.Correction>
0.0695

> <Gold.Rescore>
     Score         DG    S(hbond)    S(metal)    S(lipo)     H(rot)  DE(clash)    DE(int)     intcor
     18.32     -21.15       1.97        0.00     117.82       1.83       0.30       2.53       ----

> <Gold.Chemscore.Fitness>
18.3164

> <Gold.Chemscore.DG>
-21.1498

> <Gold.Chemscore.ZeroCoef>
-5.4800

> <Gold.Chemscore.Hbond>
1.9703

> <Gold.Chemscore.Metal>
0.0000

> <Gold.Chemscore.Lipo>
117.8177

> <Gold.Chemscore.Internal_Hbond>
0.0000

> <Gold.Chemscore.DEClash>
0.3015

> <Gold.Chemscore.DEInternal>
2.5319

> <Gold.Chemscore.Rot>
1.8343

> <Gold.Chemscore.Internal.Correction>
   9.000000E+99

> <Gold.Chemscore.Hbonds>
donor molecule, donor type, donor heavy atom, donor atom, acceptor molecule, acceptor atom, score
      L1  H    17    42       P1  8028  0.98
      P1  H  7997  8010       L1     2  0.95

> <Gold.Chemscore.Hbond.Weighted>
-6.5809

> <Gold.Chemscore.Metal.Weighted>
-0.0000

> <Gold.Chemscore.Lipo.Weighted>
-13.7847

> <Gold.Chemscore.Internal_Hbond.Weighted>
0.0000

> <Gold.Chemscore.DEClash.Weighted>
0.3015

> <Gold.Chemscore.DEInternal.Weighted>
2.5319

> <Gold.Chemscore.Rot.Weighted>
4.6958

> <Gold.Chemscore.Internal.Correction.Weighted>
   9.000000E+99

> <Gold.Protein.RotatedTorsions>
[ 6907 6896 6895 6894 ] final  -69.93 input  -60.11 | X-H torsion
[ 7974 7965 7964 7962 ] final -130.95 input  175.53 | X-H torsion
[ 8008 7997 7996 7995 ] final   14.15 input   59.86 | X-H torsion
[ 10167 10162 10161 10158 ] final   65.09 input  -65.29 | X-H torsion
[ 10718 10713 10712 10709 ] final   71.13 input   66.30 | X-H torsion
[ 10763 10752 10751 10750 ] final  150.17 input  -60.55 | X-H torsion
[ 11005 11000 10999 10996 ] final   81.62 input  -57.11 | X-H torsion

> <Gold.Protein.ActiveResidues>
 VAL166  LYS551  ARG553  GLY616  TRP617  ASP618  TYR619  PRO620  LYS621  CYS622 
 ASP623  PHE694  ASN695  SER759  ASP760  ASP761  ALA762  ILE779  LEU786  VAL792 
 PHE793  MET794  SER795  GLU796  ALA797  LYS798  CYS799  TRP800  GLU811  SER814 

> <Gold.Protein.RotatedAtoms>
  150.7282  134.5526  159.5802 H   0  0  0  0  0  0  0  0  0  0  0  0  # atno 6907 bound_to 6896
  152.3010  134.7608  160.0367 H   0  0  0  0  0  0  0  0  0  0  0  0  # atno 6908 bound_to 6896
  151.8189  133.3356  159.3615 H   0  0  0  0  0  0  0  0  0  0  0  0  # atno 6909 bound_to 6896
  144.9426  140.7255  143.4837 H   0  0  0  0  0  0  0  0  0  0  0  0  # atno 7974 bound_to 7965
  154.8444  140.2920  155.5638 H   0  0  0  0  0  0  0  0  0  0  0  0  # atno 8008 bound_to 7997
  156.3013  140.2508  156.3324 H   0  0  0  0  0  0  0  0  0  0  0  0  # atno 8009 bound_to 7997
  154.9090  140.0389  157.1925 H   0  0  0  0  0  0  0  0  0  0  0  0  # atno 8010 bound_to 7997
  140.1151  144.4782  150.6954 H   0  0  0  0  0  0  0  0  0  0  0  0  # atno 10167 bound_to 10162
  157.6436  130.9512  150.0747 H   0  0  0  0  0  0  0  0  0  0  0  0  # atno 10718 bound_to 10713
  154.0831  135.2858  155.3286 H   0  0  0  0  0  0  0  0  0  0  0  0  # atno 10763 bound_to 10752
  154.6671  135.5313  153.8094 H   0  0  0  0  0  0  0  0  0  0  0  0  # atno 10764 bound_to 10752
  153.0441  135.6548  154.1004 H   0  0  0  0  0  0  0  0  0  0  0  0  # atno 10765 bound_to 10752
  139.9091  134.8010  156.2066 H   0  0  0  0  0  0  0  0  0  0  0  0  # atno 11005 bound_to 11000
  145.2968  139.1864  143.4711 LP  0  0  0  0  0  0  0  0  0  0  0  0  # atno 17320 bound_to 7965
  146.3291  140.2953  142.8617 LP  0  0  0  0  0  0  0  0  0  0  0  0  # atno 17321 bound_to 7965
  140.6904  143.2372  151.5147 LP  0  0  0  0  0  0  0  0  0  0  0  0  # atno 17342 bound_to 10162
  139.5598  144.2184  152.1673 LP  0  0  0  0  0  0  0  0  0  0  0  0  # atno 17343 bound_to 10162
  156.1740  130.3647  149.9125 LP  0  0  0  0  0  0  0  0  0  0  0  0  # atno 17370 bound_to 10713
  156.7094  130.8964  151.3608 LP  0  0  0  0  0  0  0  0  0  0  0  0  # atno 17371 bound_to 10713
  141.0491  133.6898  156.1739 LP  0  0  0  0  0  0  0  0  0  0  0  0  # atno 17394 bound_to 11000
  140.6837  134.4739  157.5589 LP  0  0  0  0  0  0  0  0  0  0  0  0  # atno 17395 bound_to 11000

$$$$
