AV-unprocessed.smi:1381|AV-procd|sdf|5619|dock4
  -GOLD-   22720 5233D 1   1.00000     0.00000
 Structure written by MMmdl.
 42 43  0  0  0  0  0  0  0  0  3 V2000
  150.6863  142.3195  159.2955 C   0  0  0  0  0  0  0  0  0  0  0  0
  151.2871  141.1956  158.5233 C   0  0  0  0  0  0  0  0  0  0  0  0
  150.8612  140.4771  157.4418 C   0  0  0  0  0  0  0  0  0  0  0  0
  151.9228  139.5575  157.2289 C   0  0  0  0  0  0  0  0  0  0  0  0
  151.8604  138.6137  156.1697 N   0  0  0  0  0  0  0  0  0  0  0  0
  152.4720  138.6488  154.9714 C   0  0  0  0  0  0  0  0  0  0  0  0
  153.2096  139.5956  154.6737 O   0  0  0  0  0  0  0  0  0  0  0  0
  152.1689  137.5628  154.2088 N   0  5  0  0  0  0  0  0  0  0  0  0
  150.9468  136.7681  154.3397 C   0  0  0  0  0  0  0  0  0  0  0  0
  151.3024  135.2714  154.3994 C   0  0  0  0  0  0  0  0  0  0  0  0
  150.1747  134.4195  153.9280 N   0  3  1  0  0  0  0  0  0  0  0  0
  150.5868  133.1946  153.1953 C   0  0  0  0  0  0  0  0  0  0  0  0
  151.0512  132.0884  154.1674 C   0  0  2  0  0  0  0  0  0  0  0  0
  151.3661  130.7770  153.4393 C   0  0  0  0  0  0  0  0  0  0  0  0
  150.0199  131.8332  155.1160 O   0  0  0  0  0  0  0  0  0  0  0  0
  149.6999  132.9750  155.9049 C   0  0  2  0  0  0  0  0  0  0  0  0
  148.6555  132.5585  156.9464 C   0  0  0  0  0  0  0  0  0  0  0  0
  149.1798  134.0909  154.9776 C   0  0  0  0  0  0  0  0  0  0  0  0
  152.9093  139.7051  158.1007 N   0  0  0  0  0  0  0  0  0  0  0  0
  152.5067  140.7547  158.9350 O   0  0  0  0  0  0  0  0  0  0  0  0
  149.7312  142.6219  158.8655 H   0  0  0  0  0  0  0  0  0  0  0  0
  151.3476  143.1861  159.2934 H   0  0  0  0  0  0  0  0  0  0  0  0
  150.5133  142.0268  160.3311 H   0  0  0  0  0  0  0  0  0  0  0  0
  149.9378  140.5909  156.8938 H   0  0  0  0  0  0  0  0  0  0  0  0
  151.2847  137.8035  156.3435 H   0  0  0  0  0  0  0  0  0  0  0  0
  150.3760  137.0270  155.2324 H   0  0  0  0  0  0  0  0  0  0  0  0
  150.2747  136.9346  153.4977 H   0  0  0  0  0  0  0  0  0  0  0  0
  152.1965  135.0866  153.8036 H   0  0  0  0  0  0  0  0  0  0  0  0
  151.5762  135.0152  155.4243 H   0  0  0  0  0  0  0  0  0  0  0  0
  149.7301  132.8399  152.6205 H   0  0  0  0  0  0  0  0  0  0  0  0
  151.3675  133.4302  152.4706 H   0  0  0  0  0  0  0  0  0  0  0  0
  151.9499  132.4061  154.6982 H   0  0  0  0  0  0  0  0  0  0  0  0
  152.1606  130.9166  152.7056 H   0  0  0  0  0  0  0  0  0  0  0  0
  150.4896  130.3948  152.9150 H   0  0  0  0  0  0  0  0  0  0  0  0
  151.6945  130.0104  154.1417 H   0  0  0  0  0  0  0  0  0  0  0  0
  150.5950  133.3118  156.4306 H   0  0  0  0  0  0  0  0  0  0  0  0
  148.3823  133.3985  157.5856 H   0  0  0  0  0  0  0  0  0  0  0  0
  149.0391  131.7644  157.5877 H   0  0  0  0  0  0  0  0  0  0  0  0
  147.7464  132.1907  156.4696 H   0  0  0  0  0  0  0  0  0  0  0  0
  148.9179  134.9858  155.5440 H   0  0  0  0  0  0  0  0  0  0  0  0
  148.2633  133.7616  154.4861 H   0  0  0  0  0  0  0  0  0  0  0  0
  149.6896  135.0084  153.2646 H   0  0  0  0  0  0  0  0  0  0  0  0
  1  2  1  0  0  0  0
  1 21  1  0  0  0  0
  1 22  1  0  0  0  0
  1 23  1  0  0  0  0
  2 20  1  0  0  0  0
  2  3  2  0  0  0  0
  3  4  1  0  0  0  0
  3 24  1  0  0  0  0
  4  5  1  0  0  0  0
  4 19  2  0  0  0  0
  5  6  1  0  0  0  0
  5 25  1  0  0  0  0
  6  7  2  0  0  0  0
  6  8  1  0  0  0  0
  8  9  1  0  0  0  0
  9 10  1  0  0  0  0
  9 26  1  0  0  0  0
  9 27  1  0  0  0  0
 10 11  1  0  0  0  0
 10 28  1  0  0  0  0
 10 29  1  0  0  0  0
 11 18  1  0  0  0  0
 11 12  1  0  0  0  0
 11 42  1  0  0  0  0
 12 13  1  0  0  0  0
 12 30  1  0  0  0  0
 12 31  1  0  0  0  0
 13 14  1  0  0  0  0
 13 15  1  0  0  0  0
 13 32  1  0  0  0  0
 14 33  1  0  0  0  0
 14 34  1  0  0  0  0
 14 35  1  0  0  0  0
 15 16  1  0  0  0  0
 16 17  1  0  0  0  0
 16 18  1  0  0  0  0
 16 36  1  0  0  0  0
 17 37  1  0  0  0  0
 17 38  1  0  0  0  0
 17 39  1  0  0  0  0
 18 40  1  0  0  0  0
 18 41  1  0  0  0  0
 19 20  1  0  0  0  0
M  CHG  1   8  -1
M  CHG  1  11   1
M  END
> <s_m_source_file>
AV-unprocessed.smi

> <i_m_source_file_index>
1381

> <i_lp_mmshare_version>
43012

> <i_f3d_flags>
0

> <s_epik_input>
W0NIM11jMVtjSF1jKG5vMSlbTkhdQyg9TylbTkhdW0NIMl1bQ0gyXU4yW0NIMl1bQ0BASF0oW0NIM10pT1tDQEBIXShbQ0gzXSlbQ0gyXTI=

> <s_epik_cmdline>
J2VwaWtfcHl0aG9uJywgJy1waCcsICc3LjAnLCAnLXRuJywgJzgnLCAnLW1hJywgJzIwMCcsICctbWV0YWxfYmluZGluZycsICctaW1hZScsICc8aW5maWxlLm1hZT4nLCAnLW9tYWUnLCAnPG91dGZpbGUubWFlPic=

> <r_epik_Ionization_Penalty>
6.8073

> <r_epik_Ionization_Penalty_Charging>
6.80729

> <r_epik_Ionization_Penalty_Neutral>
5.65391e-06

> <r_epik_State_Penalty>
7.47323

> <r_epik_Charging_Adjusted_Penalty>
14.2805

> <i_epik_Tot_Q>
0

> <i_epik_Tot_abs_Q>
2

> <r_epik_Metal_State_Penalty>
3.40035

> <b_epik_Metal_Only>
1

> <s_lp_Force_Field>
OPLS_2005

> <r_lp_Energy>
13.1386

> <b_lp_Chiralities_Consistent>
1

> <s_lp_Variant>
AV-unprocessed.smi:1381-18

> <Gold.Version>
5.8.1

> <Gold.Id.Protein>
6NUR|6NUR_protein|mol2

> <Gold.PLP.Fitness>
42.5507

> <Gold.PLP.PLP>
-28.4005

> <Gold.PLP.part.hbond>
-4.0473

> <Gold.PLP.part.metal>
0.0000

> <Gold.PLP.part.buried>
-4.6188

> <Gold.PLP.part.nonpolar>
-21.0175

> <Gold.PLP.part.repulsive>
0.2808

> <Gold.PLP.ligand.clash>
0.0000

> <Gold.PLP.ligand.torsion>
1.4398

> <Gold.PLP.Chemscore.Hbond>
5.6640

> <Gold.PLP.Chemscore.CHOScore>
0.0000

> <Gold.PLP.Chemscore.Metal>
0.0000

> <Gold.Chemscore.Hbonds>
donor molecule, donor type, donor heavy atom, donor atom, acceptor molecule, acceptor atom, score
      L1  H    11    42       P1  7948  0.40
      P1  H  7989  7998       L1     7  0.09
      P1  H  7997  8008       L1    19  0.56
      P1  H  7997  8009       L1     7  0.99

> <Gold.PLP.Chemscore.Internal.Correction>
0.0379

> <Gold.Rescore>
     Score         DG    S(hbond)    S(metal)    S(lipo)     H(rot)  DE(clash)    DE(int)     intcor
     15.23     -16.34       2.63        0.00      52.39       1.58       0.07       1.04       ----

> <Gold.Chemscore.Fitness>
15.2339

> <Gold.Chemscore.DG>
-16.3427

> <Gold.Chemscore.ZeroCoef>
-5.4800

> <Gold.Chemscore.Hbond>
2.6274

> <Gold.Chemscore.Metal>
0.0000

> <Gold.Chemscore.Lipo>
52.3948

> <Gold.Chemscore.Internal_Hbond>
0.0000

> <Gold.Chemscore.DEClash>
0.0650

> <Gold.Chemscore.DEInternal>
1.0438

> <Gold.Chemscore.Rot>
1.5792

> <Gold.Chemscore.Internal.Correction>
   9.000000E+99

> <Gold.Chemscore.Hbonds>
donor molecule, donor type, donor heavy atom, donor atom, acceptor molecule, acceptor atom, score
      P1  H  7989  7998       L1     7  0.02
      P1  H  7997  8008       L1    19  0.42
      P1  H  7997  8009       L1     7  0.94

> <Gold.Chemscore.Hbond.Weighted>
-8.7754

> <Gold.Chemscore.Metal.Weighted>
-0.0000

> <Gold.Chemscore.Lipo.Weighted>
-6.1302

> <Gold.Chemscore.Internal_Hbond.Weighted>
0.0000

> <Gold.Chemscore.DEClash.Weighted>
0.0650

> <Gold.Chemscore.DEInternal.Weighted>
1.0438

> <Gold.Chemscore.Rot.Weighted>
4.0428

> <Gold.Chemscore.Internal.Correction.Weighted>
   9.000000E+99

> <Gold.Protein.RotatedTorsions>
[ 6907 6896 6895 6894 ] final   54.76 input  -60.11 | X-H torsion
[ 7974 7965 7964 7962 ] final -112.26 input  175.53 | X-H torsion
[ 8008 7997 7996 7995 ] final -106.18 input   59.86 | X-H torsion
[ 10167 10162 10161 10158 ] final   19.32 input  -65.29 | X-H torsion
[ 10718 10713 10712 10709 ] final    8.23 input   66.30 | X-H torsion
[ 10763 10752 10751 10750 ] final   41.44 input  -60.55 | X-H torsion
[ 11005 11000 10999 10996 ] final   34.36 input  -57.11 | X-H torsion

> <Gold.Protein.ActiveResidues>
 VAL166  LYS551  ARG553  GLY616  TRP617  ASP618  TYR619  PRO620  LYS621  CYS622 
 ASP623  PHE694  ASN695  SER759  ASP760  ASP761  ALA762  ILE779  LEU786  VAL792 
 PHE793  MET794  SER795  GLU796  ALA797  LYS798  CYS799  TRP800  GLU811  SER814 

> <Gold.Protein.RotatedAtoms>
  152.3471  134.7056  160.0246 H   0  0  0  0  0  0  0  0  0  0  0  0  # atno 6907 bound_to 6896
  151.7422  133.3317  159.3377 H   0  0  0  0  0  0  0  0  0  0  0  0  # atno 6908 bound_to 6896
  150.7516  134.6201  159.6176 H   0  0  0  0  0  0  0  0  0  0  0  0  # atno 6909 bound_to 6896
  145.1461  140.8804  143.3674 H   0  0  0  0  0  0  0  0  0  0  0  0  # atno 7974 bound_to 7965
  154.9108  140.0410  157.1945 H   0  0  0  0  0  0  0  0  0  0  0  0  # atno 8008 bound_to 7997
  154.8350  140.2905  155.5675 H   0  0  0  0  0  0  0  0  0  0  0  0  # atno 8009 bound_to 7997
  156.2989  140.2493  156.3283 H   0  0  0  0  0  0  0  0  0  0  0  0  # atno 8010 bound_to 7997
  140.5588  143.9376  150.6628 H   0  0  0  0  0  0  0  0  0  0  0  0  # atno 10167 bound_to 10162
  156.9485  130.5888  149.5655 H   0  0  0  0  0  0  0  0  0  0  0  0  # atno 10718 bound_to 10713
  152.9908  135.6161  154.2789 H   0  0  0  0  0  0  0  0  0  0  0  0  # atno 10763 bound_to 10752
  154.2519  135.2785  155.2815 H   0  0  0  0  0  0  0  0  0  0  0  0  # atno 10764 bound_to 10752
  154.5281  135.5796  153.6793 H   0  0  0  0  0  0  0  0  0  0  0  0  # atno 10765 bound_to 10752
  140.2537  134.3273  155.7881 H   0  0  0  0  0  0  0  0  0  0  0  0  # atno 11005 bound_to 11000
  145.0480  139.3205  143.5943 LP  0  0  0  0  0  0  0  0  0  0  0  0  # atno 17320 bound_to 7965
  146.3500  139.9878  142.8689 LP  0  0  0  0  0  0  0  0  0  0  0  0  # atno 17321 bound_to 7965
  140.2821  143.3382  152.1142 LP  0  0  0  0  0  0  0  0  0  0  0  0  # atno 17342 bound_to 10162
  139.5060  144.6806  151.6018 LP  0  0  0  0  0  0  0  0  0  0  0  0  # atno 17343 bound_to 10162
  156.0373  130.5459  150.8685 LP  0  0  0  0  0  0  0  0  0  0  0  0  # atno 17370 bound_to 10713
  157.5738  131.0946  150.9378 LP  0  0  0  0  0  0  0  0  0  0  0  0  # atno 17371 bound_to 10713
  141.2198  133.7368  156.9077 LP  0  0  0  0  0  0  0  0  0  0  0  0  # atno 17394 bound_to 11000
  140.1533  134.9215  157.2620 LP  0  0  0  0  0  0  0  0  0  0  0  0  # atno 17395 bound_to 11000

$$$$
