#       Name:                AV-unprocessed.smi:1982
#       Creating user name   scv26
#       Creation time:       Fri Mar 27 10:21:30 2020


#       File generated by GOLD software.
#

@<TRIPOS>MOLECULE
AV-unprocessed.smi:1982
    41    42     1
SMALL
NO_CHARGES


@<TRIPOS>ATOM
      1 ****        -1.5597  -2.0444  -2.1831 C.3            1 S1                 0.0000
      2 ****        -1.0772  -1.5094  -0.8230 C.3            1 S1                 0.0000
      3 ****        -1.6221  -2.4022   0.3113 C.3            1 S1                 0.0000
      4 ****        -1.1600  -1.9270   1.6953 C.3            1 S1                 0.0000
      5 ****        -1.5564  -0.4631   1.9335 C.3            1 S1                 0.0000
      6 ****        -1.0246   0.4617   0.8221 C.3            1 S1                 0.0000
      7 ****         0.4306   0.5798   0.9000 N.am           1 S1                 0.0000
      8 ****         1.1140   1.5035   1.5930 C.2            1 S1                 0.0000
      9 ****         0.5819   2.3452   2.3157 O.2            1 S1                 0.0000
     10 ****         2.6358   1.4755   1.4410 C.3            1 S1                 0.0000
     11 ****         3.0249   1.6697   0.0557 N.pl3          1 S1                 0.0000
     12 ****         3.1271   2.7794  -0.6787 C.2            1 S1                 0.0000
     13 ****         3.4918   2.5099  -1.9229 N.2            1 S1                 0.0000
     14 ****         3.6158   1.1303  -1.9233 N.2            1 S1                 0.0000
     15 ****         3.3407   0.6260  -0.7519 N.2            1 S1                 0.0000
     16 ****        -1.4618  -0.0220  -0.5853 C.3            1 S1                 0.0000
     17 ****        -0.9329   0.9203  -1.6869 C.3            1 S1                 0.0000
     18 ****        -2.6385  -1.9309  -2.2948 H              1 S1                 0.0000
     19 ****        -1.3259  -3.1039  -2.2913 H              1 S1                 0.0000
     20 ****        -1.0791  -1.5292  -3.0144 H              1 S1                 0.0000
     21 ****         0.0109  -1.5882  -0.8129 H              1 S1                 0.0000
     22 ****        -2.7125  -2.4128   0.2794 H              1 S1                 0.0000
     23 ****        -1.3014  -3.4336   0.1604 H              1 S1                 0.0000
     24 ****        -1.5970  -2.5590   2.4688 H              1 S1                 0.0000
     25 ****        -0.0786  -2.0392   1.7816 H              1 S1                 0.0000
     26 ****        -2.6439  -0.3894   1.9707 H              1 S1                 0.0000
     27 ****        -1.1977  -0.1317   2.9088 H              1 S1                 0.0000
     28 ****        -1.4585   1.4513   0.9770 H              1 S1                 0.0000
     29 ****         0.9622  -0.0722   0.3411 H              1 S1                 0.0000
     30 ****         3.0894   2.2627   2.0445 H              1 S1                 0.0000
     31 ****         3.0272   0.5228   1.8009 H              1 S1                 0.0000
     32 ****         2.9283   3.7740  -0.3068 H              1 S1                 0.0000
     33 ****        -2.5508   0.0409  -0.6149 H              1 S1                 0.0000
     34 ****         0.1454   0.8236  -1.8184 H              1 S1                 0.0000
     35 ****        -1.1441   1.9622  -1.4440 H              1 S1                 0.0000
     36 ****        -1.4038   0.7191  -2.6487 H              1 S1                 0.0000
     37 ****        -0.4134   2.3654   2.4107 LP             1 S1                 0.0000
     38 ****         1.1447   3.0091   2.8081 LP             1 S1                 0.0000
     39 ****         3.6414   3.1475  -2.6786 LP             1 S1                 0.0000
     40 ****         3.8825   0.5891  -2.7208 LP             1 S1                 0.0000
     41 ****         3.3590  -0.3412  -0.4986 LP             1 S1                 0.0000
@<TRIPOS>BOND
    1    1    2 1     
    2    1   18 1     
    3    1   19 1     
    4    1   20 1     
    5    2   16 1     
    6    2    3 1     
    7    2   21 1     
    8    3    4 1     
    9    3   22 1     
   10    3   23 1     
   11    4    5 1     
   12    4   24 1     
   13    4   25 1     
   14    5    6 1     
   15    5   26 1     
   16    5   27 1     
   17    6    7 1     
   18    6   16 1     
   19    6   28 1     
   20    7    8 am    
   21    7   29 1     
   22    8    9 2     
   23    8   10 1     
   24   10   11 1     
   25   10   30 1     
   26   10   31 1     
   27   11   15 1     
   28   11   12 1     
   29   12   13 2     
   30   12   32 1     
   31   13   14 1     
   32   14   15 2     
   33   16   17 1     
   34   16   33 1     
   35   17   34 1     
   36   17   35 1     
   37   17   36 1     
   38    9   37 1     
   39    9   38 1     
   40   13   39 1     
   41   14   40 1     
   42   15   41 1     
@<TRIPOS>SUBSTRUCTURE
      1 S1             1
@<TRIPOS>SET
LONE_PAIRS      STATIC     ATOMS    <user>   **** ""
5 37 38 39 40 41
DONOR_HYDROGENS      STATIC     ATOMS    <user>   **** ""
1 29
ATOM$BLUE        STATIC     ATOMS    COLORGROUP SYSTEM
5 37 38 39 40 41
ATOM$RED        STATIC     ATOMS    COLORGROUP SYSTEM
1 29
