AV-unprocessed.smi:1631|AV-procd|sdf|6527|dock7
  -GOLD-   22720 7203D 1   1.00000     0.00000
 Structure written by MMmdl.
 38 39  0  0  0  0  0  0  0  0  1 V2000
  147.3517  136.8819  163.1373 C   0  0  0  0  0  0  0  0  0  0  0  0
  147.7936  136.3336  161.8074 C   0  0  0  0  0  0  0  0  0  0  0  0
  148.4883  137.1232  161.0570 N   0  0  0  0  0  0  0  0  0  0  0  0
  148.9592  136.7158  159.8240 N   0  0  0  0  0  0  0  0  0  0  0  0
  149.7813  137.7173  159.1310 C   0  0  0  0  0  0  0  0  0  0  0  0
  149.2311  138.0762  157.7286 C   0  0  1  0  0  0  0  0  0  0  0  0
  147.8270  138.1943  157.8292 O   0  0  0  0  0  0  0  0  0  0  0  0
  149.8612  139.3403  157.1373 C   0  0  0  0  0  0  0  0  0  0  0  0
  149.5754  140.5749  157.7654 C   0  0  0  0  0  0  0  0  0  0  0  0
  150.1407  141.7741  157.2991 C   0  0  0  0  0  0  0  0  0  0  0  0
  150.9985  141.7535  156.1881 C   0  0  0  0  0  0  0  0  0  0  0  0
  151.2802  140.5364  155.5428 C   0  0  0  0  0  0  0  0  0  0  0  0
  150.7171  139.3201  155.9978 C   0  0  0  0  0  0  0  0  0  0  0  0
  151.0383  138.0299  155.2419 C   0  0  0  0  0  0  0  0  0  0  0  0
  151.9306  138.2320  154.2716 F   0  0  0  0  0  0  0  0  0  0  0  0
  151.5480  137.1209  156.0707 F   0  0  0  0  0  0  0  0  0  0  0  0
  149.9340  137.5433  154.6749 F   0  0  0  0  0  0  0  0  0  0  0  0
  148.7146  135.4970  159.2645 C   0  0  0  0  0  0  0  0  0  0  0  0
  149.1358  135.1828  158.1502 O   0  0  0  0  0  0  0  0  0  0  0  0
  147.9262  134.6067  160.1194 C   0  0  0  0  0  0  0  0  0  0  0  0
  147.6649  133.3114  159.5801 C   0  0  0  0  0  0  0  0  0  0  0  0
  147.4731  132.2553  159.1462 N   0  0  0  0  0  0  0  0  0  0  0  0
  147.4813  134.9858  161.3436 C   0  0  0  0  0  0  0  0  0  0  0  0
  146.6638  134.0979  162.2714 C   0  0  0  0  0  0  0  0  0  0  0  0
  146.2684  136.8207  163.2423 H   0  0  0  0  0  0  0  0  0  0  0  0
  147.6349  137.9286  163.2597 H   0  0  0  0  0  0  0  0  0  0  0  0
  147.8044  136.3213  163.9553 H   0  0  0  0  0  0  0  0  0  0  0  0
  149.8613  138.6195  159.7406 H   0  0  0  0  0  0  0  0  0  0  0  0
  150.8053  137.3488  159.0465 H   0  0  0  0  0  0  0  0  0  0  0  0
  149.4065  137.2206  157.0825 H   0  0  0  0  0  0  0  0  0  0  0  0
  147.6045  138.3610  158.7325 H   0  0  0  0  0  0  0  0  0  0  0  0
  148.9205  140.6059  158.6237 H   0  0  0  0  0  0  0  0  0  0  0  0
  149.9168  142.7073  157.7945 H   0  0  0  0  0  0  0  0  0  0  0  0
  151.4360  142.6720  155.8256 H   0  0  0  0  0  0  0  0  0  0  0  0
  151.9366  140.5536  154.6860 H   0  0  0  0  0  0  0  0  0  0  0  0
  146.5494  133.0874  161.8803 H   0  0  0  0  0  0  0  0  0  0  0  0
  145.6653  134.5126  162.4124 H   0  0  0  0  0  0  0  0  0  0  0  0
  147.1428  134.0149  163.2474 H   0  0  0  0  0  0  0  0  0  0  0  0
  1  2  1  0  0  0  0
  1 25  1  0  0  0  0
  1 26  1  0  0  0  0
  1 27  1  0  0  0  0
  2 23  1  0  0  0  0
  2  3  2  0  0  0  0
  3  4  1  0  0  0  0
  4  5  1  0  0  0  0
  4 18  1  0  0  0  0
  5  6  1  0  0  0  0
  5 28  1  0  0  0  0
  5 29  1  0  0  0  0
  6  7  1  0  0  0  0
  6  8  1  0  0  0  0
  6 30  1  0  0  0  0
  7 31  1  0  0  0  0
  8 13  1  0  0  0  0
  8  9  2  0  0  0  0
  9 10  1  0  0  0  0
  9 32  1  0  0  0  0
 10 11  2  0  0  0  0
 10 33  1  0  0  0  0
 11 12  1  0  0  0  0
 11 34  1  0  0  0  0
 12 13  2  0  0  0  0
 12 35  1  0  0  0  0
 13 14  1  0  0  0  0
 14 15  1  0  0  0  0
 14 16  1  0  0  0  0
 14 17  1  0  0  0  0
 18 19  2  0  0  0  0
 18 20  1  0  0  0  0
 20 21  1  0  0  0  0
 20 23  2  0  0  0  0
 21 22  3  0  0  0  0
 23 24  1  0  0  0  0
 24 36  1  0  0  0  0
 24 37  1  0  0  0  0
 24 38  1  0  0  0  0
M  END
> <s_m_source_file>
AV-unprocessed.smi

> <i_m_source_file_index>
1631

> <i_lp_mmshare_version>
43012

> <i_f3d_flags>
0

> <s_epik_input>
TiNDYyhjMVtDSDNdKWMoPU8pbihuYzFbQ0gzXSlbQ0gyXVtDQEhdKFtPSF0pYzJbY0hdW2NIXVtjSF1bY0hdYzJDKEYpKEYpRg==

> <s_epik_cmdline>
J2VwaWtfcHl0aG9uJywgJy1waCcsICc3LjAnLCAnLXRuJywgJzgnLCAnLW1hJywgJzIwMCcsICctbWV0YWxfYmluZGluZycsICctaW1hZScsICc8aW5maWxlLm1hZT4nLCAnLW9tYWUnLCAnPG91dGZpbGUubWFlPic=

> <r_lp_tautomer_probability>
1

> <r_epik_Ionization_Penalty>
7.1854e-08

> <r_epik_Ionization_Penalty_Charging>
1.40848e-10

> <r_epik_Ionization_Penalty_Neutral>
7.17131e-08

> <r_epik_State_Penalty>
-0

> <r_epik_Charging_Adjusted_Penalty>
1.40848e-10

> <i_epik_Tot_Q>
0

> <i_epik_Tot_abs_Q>
0

> <r_epik_Metal_State_Penalty>
-0

> <b_epik_Metal_Only>
0

> <s_lp_Force_Field>
OPLS_2005

> <r_lp_Energy>
27.8833

> <b_lp_Chiralities_Consistent>
1

> <s_lp_Variant>
AV-unprocessed.smi:1631-2

> <Gold.Version>
5.8.1

> <Gold.Id.Protein>
6NUR|6NUR_protein|mol2

> <Gold.PLP.Fitness>
41.2985

> <Gold.PLP.PLP>
-37.9748

> <Gold.PLP.part.hbond>
-2.9649

> <Gold.PLP.part.metal>
0.0000

> <Gold.PLP.part.buried>
-1.9730

> <Gold.PLP.part.nonpolar>
-33.3340

> <Gold.PLP.part.repulsive>
0.0000

> <Gold.PLP.ligand.clash>
1.4114

> <Gold.PLP.ligand.torsion>
0.2873

> <Gold.PLP.Chemscore.Hbond>
1.2694

> <Gold.PLP.Chemscore.CHOScore>
0.0000

> <Gold.PLP.Chemscore.Metal>
0.0000

> <Gold.Chemscore.Hbonds>
donor molecule, donor type, donor heavy atom, donor atom, acceptor molecule, acceptor atom, score
      P1  H  6931  6943       L1     3  0.94
      P1  H  6934  6947       L1     3  0.18

> <Gold.PLP.Chemscore.Internal.Correction>
1.5017

> <Gold.Rescore>
     Score         DG    S(hbond)    S(metal)    S(lipo)     H(rot)  DE(clash)    DE(int)     intcor
     10.20     -12.68       1.09        0.00      76.60       2.11       0.05       2.43       ----

> <Gold.Chemscore.Fitness>
10.2046

> <Gold.Chemscore.DG>
-12.6816

> <Gold.Chemscore.ZeroCoef>
-5.4800

> <Gold.Chemscore.Hbond>
1.0918

> <Gold.Chemscore.Metal>
0.0000

> <Gold.Chemscore.Lipo>
76.6036

> <Gold.Chemscore.Internal_Hbond>
0.0000

> <Gold.Chemscore.DEClash>
0.0461

> <Gold.Chemscore.DEInternal>
2.4309

> <Gold.Chemscore.Rot>
2.1124

> <Gold.Chemscore.Internal.Correction>
   9.000000E+99

> <Gold.Chemscore.Hbonds>
donor molecule, donor type, donor heavy atom, donor atom, acceptor molecule, acceptor atom, score
      P1  H  6931  6943       L1     3  0.64
      P1  H  6934  6947       L1     3  0.07

> <Gold.Chemscore.Hbond.Weighted>
-3.6468

> <Gold.Chemscore.Metal.Weighted>
-0.0000

> <Gold.Chemscore.Lipo.Weighted>
-8.9626

> <Gold.Chemscore.Internal_Hbond.Weighted>
0.0000

> <Gold.Chemscore.DEClash.Weighted>
0.0461

> <Gold.Chemscore.DEInternal.Weighted>
2.4309

> <Gold.Chemscore.Rot.Weighted>
5.4078

> <Gold.Chemscore.Internal.Correction.Weighted>
   9.000000E+99

> <Gold.Protein.RotatedTorsions>
[ 6907 6896 6895 6894 ] final  167.74 input  -60.11 | X-H torsion
[ 7974 7965 7964 7962 ] final -150.64 input  175.53 | X-H torsion
[ 8008 7997 7996 7995 ] final -135.21 input   59.86 | X-H torsion
[ 10167 10162 10161 10158 ] final  101.24 input  -65.29 | X-H torsion
[ 10718 10713 10712 10709 ] final  -80.84 input   66.30 | X-H torsion
[ 10763 10752 10751 10750 ] final   67.90 input  -60.55 | X-H torsion
[ 11005 11000 10999 10996 ] final  -95.99 input  -57.11 | X-H torsion

> <Gold.Protein.ActiveResidues>
 VAL166  LYS551  ARG553  GLY616  TRP617  ASP618  TYR619  PRO620  LYS621  CYS622 
 ASP623  PHE694  ASN695  SER759  ASP760  ASP761  ALA762  ILE779  LEU786  VAL792 
 PHE793  MET794  SER795  GLU796  ALA797  LYS798  CYS799  TRP800  GLU811  SER814 

> <Gold.Protein.RotatedAtoms>
  151.8585  133.3453  159.3695 H   0  0  0  0  0  0  0  0  0  0  0  0  # atno 6907 bound_to 6896
  150.7186  134.5229  159.5672 H   0  0  0  0  0  0  0  0  0  0  0  0  # atno 6908 bound_to 6896
  152.2738  134.7905  160.0460 H   0  0  0  0  0  0  0  0  0  0  0  0  # atno 6909 bound_to 6896
  144.7895  140.4904  143.5782 H   0  0  0  0  0  0  0  0  0  0  0  0  # atno 7974 bound_to 7965
  155.3748  140.0490  157.3045 H   0  0  0  0  0  0  0  0  0  0  0  0  # atno 8008 bound_to 7997
  154.5112  140.2192  155.9116 H   0  0  0  0  0  0  0  0  0  0  0  0  # atno 8009 bound_to 7997
  156.1584  140.3121  155.8771 H   0  0  0  0  0  0  0  0  0  0  0  0  # atno 8010 bound_to 7997
  139.7456  144.6999  151.0509 H   0  0  0  0  0  0  0  0  0  0  0  0  # atno 10167 bound_to 10162
  156.0062  130.4586  150.3861 H   0  0  0  0  0  0  0  0  0  0  0  0  # atno 10718 bound_to 10713
  153.0208  135.5267  154.7051 H   0  0  0  0  0  0  0  0  0  0  0  0  # atno 10763 bound_to 10752
  154.6149  135.2882  155.0394 H   0  0  0  0  0  0  0  0  0  0  0  0  # atno 10764 bound_to 10752
  154.1402  135.6579  153.4993 H   0  0  0  0  0  0  0  0  0  0  0  0  # atno 10765 bound_to 10752
  141.1425  133.8066  157.0511 H   0  0  0  0  0  0  0  0  0  0  0  0  # atno 11005 bound_to 11000
  145.5831  139.1490  143.3224 LP  0  0  0  0  0  0  0  0  0  0  0  0  # atno 17320 bound_to 7965
  146.2142  140.5960  142.9046 LP  0  0  0  0  0  0  0  0  0  0  0  0  # atno 17321 bound_to 7965
  140.7791  143.4871  150.9941 LP  0  0  0  0  0  0  0  0  0  0  0  0  # atno 17342 bound_to 10162
  139.8559  143.7377  152.3176 LP  0  0  0  0  0  0  0  0  0  0  0  0  # atno 17343 bound_to 10162
  157.1938  131.0421  151.2686 LP  0  0  0  0  0  0  0  0  0  0  0  0  # atno 17370 bound_to 10713
  157.4037  130.7347  149.6786 LP  0  0  0  0  0  0  0  0  0  0  0  0  # atno 17371 bound_to 10713
  140.0631  134.9744  157.1339 LP  0  0  0  0  0  0  0  0  0  0  0  0  # atno 17394 bound_to 11000
  140.3819  134.2278  155.7170 LP  0  0  0  0  0  0  0  0  0  0  0  0  # atno 17395 bound_to 11000

$$$$
