#       Name:                AV-unprocessed.smi:573
#       Creating user name   scv26
#       Creation time:       Thu Mar 26 23:47:57 2020


#       File generated by GOLD software.
#

@<TRIPOS>MOLECULE
AV-unprocessed.smi:573
    49    51     1
SMALL
NO_CHARGES


@<TRIPOS>ATOM
      1 ****        -0.1014  -0.5996   2.5376 C.3            1 S1                 0.0000
      2 ****        -1.2462   0.4113   2.7037 C.3            1 S1                 0.0000
      3 ****        -1.0184   1.1391   3.8917 O.3            1 S1                 0.0000
      4 ****        -1.3550   1.4143   1.5422 C.3            1 S1                 0.0000
      5 ****        -1.7873   0.7859   0.3072 N.pl3          1 S1                 0.0000
      6 ****        -1.0846   0.2545  -0.7679 C.2            1 S1                 0.0000
      7 ****        -1.6598  -0.2948  -1.8362 N.2            1 S1                 0.0000
      8 ****        -0.5678  -0.6690  -2.5965 C.ar           1 S1                 0.0000
      9 ****        -0.5025  -1.3104  -3.8543 C.ar           1 S1                 0.0000
     10 ****         0.7454  -1.5989  -4.4446 C.ar           1 S1                 0.0000
     11 ****         1.9437  -1.2529  -3.7872 C.ar           1 S1                 0.0000
     12 ****         1.9023  -0.6137  -2.5331 C.ar           1 S1                 0.0000
     13 ****         0.6545  -0.3250  -1.9486 C.ar           1 S1                 0.0000
     14 ****         0.2687   0.2801  -0.7560 N.pl3          1 S1                 0.0000
     15 ****         1.1492   0.8100   0.2755 C.3            1 S1                 0.0000
     16 ****         1.3718  -0.2014   1.4119 C.3            1 S1                 0.0000
     17 ****         2.3197   0.3425   2.4972 C.3            1 S1                 0.0000
     18 ****         2.5645  -0.7189   3.5759 C.3            1 S1                 0.0000
     19 ****         3.0372  -2.0218   2.9217 C.3            1 S1                 0.0000
     20 ****         2.0645  -2.4469   1.8099 C.3            1 S1                 0.0000
     21 ****         1.9233  -1.3958   0.8600 O.3            1 S1                 0.0000
     22 ****        -0.2567  -1.2347   1.6655 H              1 S1                 0.0000
     23 ****        -0.0278  -1.2548   3.4061 H              1 S1                 0.0000
     24 ****         0.8584  -0.0964   2.4162 H              1 S1                 0.0000
     25 ****        -2.1906  -0.1224   2.8193 H              1 S1                 0.0000
     26 ****        -1.7394   1.7360   4.0210 H              1 S1                 0.0000
     27 ****        -2.0819   2.1893   1.7873 H              1 S1                 0.0000
     28 ****        -0.4015   1.9186   1.3798 H              1 S1                 0.0000
     29 ****        -2.7902   0.6974   0.2316 H              1 S1                 0.0000
     30 ****        -1.4144  -1.5819  -4.3651 H              1 S1                 0.0000
     31 ****         0.7832  -2.0895  -5.4060 H              1 S1                 0.0000
     32 ****         2.8951  -1.4791  -4.2458 H              1 S1                 0.0000
     33 ****         2.8185  -0.3509  -2.0255 H              1 S1                 0.0000
     34 ****         2.1014   1.0780  -0.1833 H              1 S1                 0.0000
     35 ****         0.7255   1.7374   0.6628 H              1 S1                 0.0000
     36 ****         0.4060  -0.4359   1.8636 H              1 S1                 0.0000
     37 ****         3.2703   0.6295   2.0458 H              1 S1                 0.0000
     38 ****         1.9026   1.2435   2.9483 H              1 S1                 0.0000
     39 ****         3.3008  -0.3661   4.2986 H              1 S1                 0.0000
     40 ****         1.6422  -0.8993   4.1297 H              1 S1                 0.0000
     41 ****         4.0322  -1.8791   2.4984 H              1 S1                 0.0000
     42 ****         3.1245  -2.8102   3.6697 H              1 S1                 0.0000
     43 ****         2.4433  -3.3322   1.2989 H              1 S1                 0.0000
     44 ****         1.0901  -2.7107   2.2236 H              1 S1                 0.0000
     45 ****        -0.1645   1.6536   3.8134 LP             1 S1                 0.0000
     46 ****        -0.9584   0.5098   4.6665 LP             1 S1                 0.0000
     47 ****        -2.6329  -0.4077  -2.0370 LP             1 S1                 0.0000
     48 ****         2.8260  -1.1842   0.4853 LP             1 S1                 0.0000
     49 ****         1.3231  -1.7116   0.1251 LP             1 S1                 0.0000
@<TRIPOS>BOND
    1    1    2 1     
    2    1   22 1     
    3    1   23 1     
    4    1   24 1     
    5    2    3 1     
    6    2    4 1     
    7    2   25 1     
    8    3   26 1     
    9    4    5 1     
   10    4   27 1     
   11    4   28 1     
   12    5    6 1     
   13    5   29 1     
   14    6   14 1     
   15    6    7 2     
   16    7    8 1     
   17    8   13 ar    
   18    8    9 ar    
   19    9   10 ar    
   20    9   30 1     
   21   10   11 ar    
   22   10   31 1     
   23   11   12 ar    
   24   11   32 1     
   25   12   13 ar    
   26   12   33 1     
   27   13   14 1     
   28   14   15 1     
   29   15   16 1     
   30   15   34 1     
   31   15   35 1     
   32   16   21 1     
   33   16   17 1     
   34   16   36 1     
   35   17   18 1     
   36   17   37 1     
   37   17   38 1     
   38   18   19 1     
   39   18   39 1     
   40   18   40 1     
   41   19   20 1     
   42   19   41 1     
   43   19   42 1     
   44   20   21 1     
   45   20   43 1     
   46   20   44 1     
   47    3   45 1     
   48    3   46 1     
   49    7   47 1     
   50   21   48 1     
   51   21   49 1     
@<TRIPOS>SUBSTRUCTURE
      1 S1             1
@<TRIPOS>SET
LONE_PAIRS      STATIC     ATOMS    <user>   **** ""
5 45 46 47 48 49
DONOR_HYDROGENS      STATIC     ATOMS    <user>   **** ""
2 26 29
ATOM$BLUE        STATIC     ATOMS    COLORGROUP SYSTEM
5 45 46 47 48 49
ATOM$RED        STATIC     ATOMS    COLORGROUP SYSTEM
2 26 29
