AV-unprocessed.smi:568|AV-procd|sdf|2958|dock5
  -GOLD-   2262023463D 1   1.00000     0.00000
 Structure written by MMmdl.
 35 36  0  0  0  0  0  0  0  0  1 V2000
  153.3790  138.4831  154.6837 C   0  0  0  0  0  0  0  0  0  0  0  0
  151.9234  138.1130  154.6922 C   0  0  0  0  0  0  0  0  0  0  0  0
  151.5715  136.8735  154.3952 N   0  0  0  0  0  0  0  0  0  0  0  0
  150.1772  136.8381  154.4872 O   0  0  0  0  0  0  0  0  0  0  0  0
  149.7381  138.0728  154.8391 C   0  0  0  0  0  0  0  0  0  0  0  0
  148.2634  138.2332  154.9902 C   0  0  0  0  0  0  0  0  0  0  0  0
  150.7935  138.9315  154.9841 C   0  0  0  0  0  0  0  0  0  0  0  0
  150.7770  140.3901  155.3635 C   0  0  0  0  0  0  0  0  0  0  0  0
  151.4857  140.5778  156.7051 C   0  0  0  0  0  0  0  0  0  0  0  0
  152.6050  140.0969  156.8812 O   0  0  0  0  0  0  0  0  0  0  0  0
  150.8215  141.2731  157.6416 N   0  0  0  0  0  0  0  0  0  0  0  0
  151.3021  141.5524  158.9913 C   0  0  0  0  0  0  0  0  0  0  0  0
  151.9713  142.9364  159.0913 C   0  0  1  0  0  0  0  0  0  0  0  0
  151.2039  144.0390  158.3908 C   0  0  0  0  0  0  0  0  0  0  0  0
  151.7999  145.2953  159.0203 C   0  0  0  0  0  0  0  0  0  0  0  0
  152.2078  144.9210  160.3332 O   0  0  0  0  0  0  0  0  0  0  0  0
  152.0692  143.5142  160.5043 C   0  0  0  0  0  0  0  0  0  0  0  0
  153.5533  139.4313  155.1918 H   0  0  0  0  0  0  0  0  0  0  0  0
  153.7509  138.5807  153.6637 H   0  0  0  0  0  0  0  0  0  0  0  0
  153.9813  137.7270  155.1877 H   0  0  0  0  0  0  0  0  0  0  0  0
  148.0174  139.1832  155.4643 H   0  0  0  0  0  0  0  0  0  0  0  0
  147.8488  137.4341  155.6051 H   0  0  0  0  0  0  0  0  0  0  0  0
  147.7709  138.2030  154.0183 H   0  0  0  0  0  0  0  0  0  0  0  0
  151.2783  141.0015  154.6125 H   0  0  0  0  0  0  0  0  0  0  0  0
  149.7583  140.7744  155.4286 H   0  0  0  0  0  0  0  0  0  0  0  0
  149.9072  141.6291  157.4034 H   0  0  0  0  0  0  0  0  0  0  0  0
  150.4409  141.5177  159.6589 H   0  0  0  0  0  0  0  0  0  0  0  0
  151.9810  140.7687  159.3319 H   0  0  0  0  0  0  0  0  0  0  0  0
  152.9735  142.8874  158.6619 H   0  0  0  0  0  0  0  0  0  0  0  0
  151.3132  144.0165  157.3062 H   0  0  0  0  0  0  0  0  0  0  0  0
  150.1410  143.9726  158.6280 H   0  0  0  0  0  0  0  0  0  0  0  0
  152.6800  145.6200  158.4639 H   0  0  0  0  0  0  0  0  0  0  0  0
  151.0907  146.1230  159.0447 H   0  0  0  0  0  0  0  0  0  0  0  0
  151.1513  143.3252  161.0631 H   0  0  0  0  0  0  0  0  0  0  0  0
  152.9025  143.0992  161.0718 H   0  0  0  0  0  0  0  0  0  0  0  0
  1  2  1  0  0  0  0
  1 18  1  0  0  0  0
  1 19  1  0  0  0  0
  1 20  1  0  0  0  0
  2  7  1  0  0  0  0
  2  3  2  0  0  0  0
  3  4  1  0  0  0  0
  4  5  1  0  0  0  0
  5  6  1  0  0  0  0
  5  7  2  0  0  0  0
  6 21  1  0  0  0  0
  6 22  1  0  0  0  0
  6 23  1  0  0  0  0
  7  8  1  0  0  0  0
  8  9  1  0  0  0  0
  8 24  1  0  0  0  0
  8 25  1  0  0  0  0
  9 10  2  0  0  0  0
  9 11  1  0  0  0  0
 11 12  1  0  0  0  0
 11 26  1  0  0  0  0
 12 13  1  0  0  0  0
 12 27  1  0  0  0  0
 12 28  1  0  0  0  0
 13 17  1  0  0  0  0
 13 14  1  0  0  0  0
 13 29  1  0  0  0  0
 14 15  1  0  0  0  0
 14 30  1  0  0  0  0
 14 31  1  0  0  0  0
 15 16  1  0  0  0  0
 15 32  1  0  0  0  0
 15 33  1  0  0  0  0
 16 17  1  0  0  0  0
 17 34  1  0  0  0  0
 17 35  1  0  0  0  0
M  END
> <s_m_source_file>
AV-unprocessed.smi

> <i_m_source_file_index>
568

> <i_lp_mmshare_version>
43012

> <i_f3d_flags>
0

> <s_epik_input>
W0NIM11jMW5vYyhbQ0gzXSljMVtDSDJdQyg9TylbTkhdW0NIMl1bQ0BASF0yW0NIMl1bQ0gyXU9bQ0gyXTI=

> <s_epik_cmdline>
J2VwaWtfcHl0aG9uJywgJy1waCcsICc3LjAnLCAnLXRuJywgJzgnLCAnLW1hJywgJzIwMCcsICctbWV0YWxfYmluZGluZycsICctaW1hZScsICc8aW5maWxlLm1hZT4nLCAnLW9tYWUnLCAnPG91dGZpbGUubWFlPic=

> <r_lp_tautomer_probability>
1

> <r_epik_Ionization_Penalty>
2.07075e-08

> <r_epik_Ionization_Penalty_Charging>
0

> <r_epik_Ionization_Penalty_Neutral>
2.07075e-08

> <r_epik_State_Penalty>
-0

> <r_epik_Charging_Adjusted_Penalty>
0

> <i_epik_Tot_Q>
0

> <i_epik_Tot_abs_Q>
0

> <r_epik_Metal_State_Penalty>
-0

> <b_epik_Metal_Only>
0

> <s_lp_Force_Field>
OPLS_2005

> <r_lp_Energy>
12.1953

> <b_lp_Chiralities_Consistent>
1

> <s_lp_Variant>
AV-unprocessed.smi:568-2

> <Gold.Version>
5.8.1

> <Gold.Id.Protein>
6NUR|6NUR_protein|mol2

> <Gold.PLP.Fitness>
36.3279

> <Gold.PLP.PLP>
-31.1604

> <Gold.PLP.part.hbond>
-2.0000

> <Gold.PLP.part.metal>
0.0000

> <Gold.PLP.part.buried>
-1.0708

> <Gold.PLP.part.nonpolar>
-29.9679

> <Gold.PLP.part.repulsive>
2.1417

> <Gold.PLP.ligand.clash>
0.0000

> <Gold.PLP.ligand.torsion>
0.4237

> <Gold.PLP.Chemscore.Hbond>
2.0000

> <Gold.PLP.Chemscore.CHOScore>
0.0000

> <Gold.PLP.Chemscore.Metal>
0.0000

> <Gold.Chemscore.Hbonds>
donor molecule, donor type, donor heavy atom, donor atom, acceptor molecule, acceptor atom, score
      P1  H  7997  8009       L1    10  1.00
      P1  H 10752 10764       L1     3  1.00

> <Gold.PLP.Chemscore.Internal.Correction>
0.0150

> <Gold.Rescore>
     Score         DG    S(hbond)    S(metal)    S(lipo)     H(rot)  DE(clash)    DE(int)     intcor
     16.77     -18.35       1.94        0.00      88.78       1.56       0.04       1.54       ----

> <Gold.Chemscore.Fitness>
16.7743

> <Gold.Chemscore.DG>
-18.3499

> <Gold.Chemscore.ZeroCoef>
-5.4800

> <Gold.Chemscore.Hbond>
1.9352

> <Gold.Chemscore.Metal>
0.0000

> <Gold.Chemscore.Lipo>
88.7808

> <Gold.Chemscore.Internal_Hbond>
0.0000

> <Gold.Chemscore.DEClash>
0.0368

> <Gold.Chemscore.DEInternal>
1.5387

> <Gold.Chemscore.Rot>
1.5551

> <Gold.Chemscore.Internal.Correction>
   9.000000E+99

> <Gold.Chemscore.Hbonds>
donor molecule, donor type, donor heavy atom, donor atom, acceptor molecule, acceptor atom, score
      P1  H  7997  8009       L1    10  0.94
      P1  H 10752 10764       L1     3  0.93

> <Gold.Chemscore.Hbond.Weighted>
-6.4635

> <Gold.Chemscore.Metal.Weighted>
-0.0000

> <Gold.Chemscore.Lipo.Weighted>
-10.3873

> <Gold.Chemscore.Internal_Hbond.Weighted>
0.0000

> <Gold.Chemscore.DEClash.Weighted>
0.0368

> <Gold.Chemscore.DEInternal.Weighted>
1.5387

> <Gold.Chemscore.Rot.Weighted>
3.9809

> <Gold.Chemscore.Internal.Correction.Weighted>
   9.000000E+99

> <Gold.Protein.RotatedTorsions>
[ 6907 6896 6895 6894 ] final  151.03 input  -60.11 | X-H torsion
[ 7974 7965 7964 7962 ] final   41.88 input  175.53 | X-H torsion
[ 8008 7997 7996 7995 ] final  173.55 input   59.86 | X-H torsion
[ 10167 10162 10161 10158 ] final -172.10 input  -65.29 | X-H torsion
[ 10718 10713 10712 10709 ] final  167.57 input   66.30 | X-H torsion
[ 10763 10752 10751 10750 ] final  -76.69 input  -60.55 | X-H torsion
[ 11005 11000 10999 10996 ] final  -41.92 input  -57.11 | X-H torsion

> <Gold.Protein.ActiveResidues>
 VAL166  LYS551  ARG553  GLY616  TRP617  ASP618  TYR619  PRO620  LYS621  CYS622 
 ASP623  PHE694  ASN695  SER759  ASP760  ASP761  ALA762  ILE779  LEU786  VAL792 
 PHE793  MET794  SER795  GLU796  ALA797  LYS798  CYS799  TRP800  GLU811  SER814 

> <Gold.Protein.RotatedAtoms>
  152.1062  133.4276  159.4609 H   0  0  0  0  0  0  0  0  0  0  0  0  # atno 6907 bound_to 6896
  150.6865  134.2702  159.4594 H   0  0  0  0  0  0  0  0  0  0  0  0  # atno 6908 bound_to 6896
  152.0566  134.9620  160.0625 H   0  0  0  0  0  0  0  0  0  0  0  0  # atno 6909 bound_to 6896
  146.0787  139.5365  142.9551 H   0  0  0  0  0  0  0  0  0  0  0  0  # atno 7974 bound_to 7965
  156.1064  140.1457  156.9398 H   0  0  0  0  0  0  0  0  0  0  0  0  # atno 8008 bound_to 7997
  154.4737  140.0901  156.7253 H   0  0  0  0  0  0  0  0  0  0  0  0  # atno 8009 bound_to 7997
  155.4671  140.3440  155.4323 H   0  0  0  0  0  0  0  0  0  0  0  0  # atno 8010 bound_to 7997
  139.5764  144.1524  152.1455 H   0  0  0  0  0  0  0  0  0  0  0  0  # atno 10167 bound_to 10162
  157.0495  131.0309  151.2685 H   0  0  0  0  0  0  0  0  0  0  0  0  # atno 10718 bound_to 10713
  154.5032  135.5789  153.6547 H   0  0  0  0  0  0  0  0  0  0  0  0  # atno 10763 bound_to 10752
  152.9882  135.6140  154.2976 H   0  0  0  0  0  0  0  0  0  0  0  0  # atno 10764 bound_to 10752
  154.2885  135.2849  155.2645 H   0  0  0  0  0  0  0  0  0  0  0  0  # atno 10765 bound_to 10752
  141.0280  133.6833  156.2524 H   0  0  0  0  0  0  0  0  0  0  0  0  # atno 11005 bound_to 11000
  145.6258  141.0314  143.1890 LP  0  0  0  0  0  0  0  0  0  0  0  0  # atno 17320 bound_to 7965
  144.7279  139.7818  143.7358 LP  0  0  0  0  0  0  0  0  0  0  0  0  # atno 17321 bound_to 7965
  140.1067  144.5492  150.6952 LP  0  0  0  0  0  0  0  0  0  0  0  0  # atno 17342 bound_to 10162
  140.7046  143.2458  151.4765 LP  0  0  0  0  0  0  0  0  0  0  0  0  # atno 17343 bound_to 10162
  157.5041  130.7898  149.7635 LP  0  0  0  0  0  0  0  0  0  0  0  0  # atno 17370 bound_to 10713
  156.0012  130.3879  150.2599 LP  0  0  0  0  0  0  0  0  0  0  0  0  # atno 17371 bound_to 10713
  140.6458  134.5119  157.5573 LP  0  0  0  0  0  0  0  0  0  0  0  0  # atno 17394 bound_to 11000
  139.9188  134.8190  156.1277 LP  0  0  0  0  0  0  0  0  0  0  0  0  # atno 17395 bound_to 11000

$$$$
