AV-unprocessed.smi:2009|AV-procd|sdf|8147|dock10
  -GOLD-   2272010383D 1   1.00000     0.00000
 Structure written by MMmdl.
 37 38  0  0  0  0  0  0  0  0  2 V2000
  152.6199  139.3182  154.3071 C   0  0  0  0  0  0  0  0  0  0  0  0
  152.0123  139.5981  155.6883 C   0  0  2  0  0  0  0  0  0  0  0  0
  151.0788  140.8349  155.6703 C   0  0  0  0  0  0  0  0  0  0  0  0
  149.7889  140.6057  155.0254 N   0  0  0  0  0  0  0  0  0  0  0  0
  148.7781  141.5159  154.7845 C   0  0  0  0  0  0  0  0  0  0  0  0
  147.7680  140.8513  154.1508 C   0  0  0  0  0  0  0  0  0  0  0  0
  148.2616  139.5225  154.0326 C   0  0  0  0  0  0  0  0  0  0  0  0
  149.4736  139.3796  154.5436 N   0  0  0  0  0  0  0  0  0  0  0  0
  153.0929  139.8004  156.6442 N   0  5  0  0  0  0  0  0  0  0  0  0
  153.0907  138.9612  158.0321 S   0  0  0  0  0  0  0  0  0  0  0  0
  151.7768  138.4016  158.3899 O   0  0  0  0  0  0  0  0  0  0  0  0
  154.2674  138.0862  158.1633 O   0  0  0  0  0  0  0  0  0  0  0  0
  153.3443  140.3022  159.1100 N   0  0  0  0  0  0  0  0  0  0  0  0
  154.2442  140.0692  160.2594 C   0  0  0  0  0  0  0  0  0  0  0  0
  154.6673  141.3863  160.9312 C   0  0  0  0  0  0  0  0  0  0  0  0
  153.4500  142.2200  161.3366 C   0  0  0  0  0  0  0  0  0  0  0  0
  152.5829  142.4683  160.1007 C   0  0  0  0  0  0  0  0  0  0  0  0
  152.1701  141.1453  159.4359 C   0  0  0  0  0  0  0  0  0  0  0  0
  151.8397  139.1444  153.5659 H   0  0  0  0  0  0  0  0  0  0  0  0
  153.2544  138.4312  154.3285 H   0  0  0  0  0  0  0  0  0  0  0  0
  153.2267  140.1554  153.9604 H   0  0  0  0  0  0  0  0  0  0  0  0
  151.4048  138.7302  155.9487 H   0  0  0  0  0  0  0  0  0  0  0  0
  150.8958  141.1854  156.6872 H   0  0  0  0  0  0  0  0  0  0  0  0
  151.5717  141.6585  155.1520 H   0  0  0  0  0  0  0  0  0  0  0  0
  148.8611  142.5480  155.0903 H   0  0  0  0  0  0  0  0  0  0  0  0
  146.8213  141.2536  153.8228 H   0  0  0  0  0  0  0  0  0  0  0  0
  147.7804  138.6636  153.5889 H   0  0  0  0  0  0  0  0  0  0  0  0
  153.7395  139.4203  160.9761 H   0  0  0  0  0  0  0  0  0  0  0  0
  155.1379  139.5408  159.9286 H   0  0  0  0  0  0  0  0  0  0  0  0
  155.2822  141.1746  161.8062 H   0  0  0  0  0  0  0  0  0  0  0  0
  155.2927  141.9604  160.2461 H   0  0  0  0  0  0  0  0  0  0  0  0
  152.8738  141.6948  162.0993 H   0  0  0  0  0  0  0  0  0  0  0  0
  153.7675  143.1671  161.7731 H   0  0  0  0  0  0  0  0  0  0  0  0
  151.6943  143.0364  160.3772 H   0  0  0  0  0  0  0  0  0  0  0  0
  153.1310  143.0806  159.3834 H   0  0  0  0  0  0  0  0  0  0  0  0
  151.6014  141.3670  158.5343 H   0  0  0  0  0  0  0  0  0  0  0  0
  151.5051  140.5836  160.0928 H   0  0  0  0  0  0  0  0  0  0  0  0
  1  2  1  0  0  0  0
  1 19  1  0  0  0  0
  1 20  1  0  0  0  0
  1 21  1  0  0  0  0
  2  3  1  0  0  0  0
  2  9  1  0  0  0  0
  2 22  1  0  0  0  0
  3  4  1  0  0  0  0
  3 23  1  0  0  0  0
  3 24  1  0  0  0  0
  4  8  1  0  0  0  0
  4  5  1  0  0  0  0
  5  6  2  0  0  0  0
  5 25  1  0  0  0  0
  6  7  1  0  0  0  0
  6 26  1  0  0  0  0
  7  8  2  0  0  0  0
  7 27  1  0  0  0  0
  9 10  1  0  0  0  0
 10 11  2  0  0  0  0
 10 12  2  0  0  0  0
 10 13  1  0  0  0  0
 13 18  1  0  0  0  0
 13 14  1  0  0  0  0
 14 15  1  0  0  0  0
 14 28  1  0  0  0  0
 14 29  1  0  0  0  0
 15 16  1  0  0  0  0
 15 30  1  0  0  0  0
 15 31  1  0  0  0  0
 16 17  1  0  0  0  0
 16 32  1  0  0  0  0
 16 33  1  0  0  0  0
 17 18  1  0  0  0  0
 17 34  1  0  0  0  0
 17 35  1  0  0  0  0
 18 36  1  0  0  0  0
 18 37  1  0  0  0  0
M  CHG  1   9  -1
M  END
> <s_m_source_file>
AV-unprocessed.smi

> <i_m_source_file_index>
2009

> <i_lp_mmshare_version>
43012

> <i_f3d_flags>
0

> <s_epik_input>
bjFbY0hdW2NIXVtjSF1uMVtDSDJdW0NAQEhdKFtDSDNdKVtOSF1TKD1PKSg9TylOMltDSDJdW0NIMl1bQ0gyXVtDSDJdW0NIMl0y

> <s_epik_cmdline>
J2VwaWtfcHl0aG9uJywgJy1waCcsICc3LjAnLCAnLXRuJywgJzgnLCAnLW1hJywgJzIwMCcsICctbWV0YWxfYmluZGluZycsICctaW1hZScsICc8aW5maWxlLm1hZT4nLCAnLW9tYWUnLCAnPG91dGZpbGUubWFlPic=

> <r_lp_tautomer_probability>
1

> <r_epik_Ionization_Penalty>
1.75622

> <r_epik_Ionization_Penalty_Charging>
1.7562

> <r_epik_Ionization_Penalty_Neutral>
2.38826e-05

> <r_epik_State_Penalty>
1.86645

> <r_epik_Charging_Adjusted_Penalty>
3.62264

> <i_epik_Tot_Q>
-1

> <i_epik_Tot_abs_Q>
1

> <r_epik_Metal_State_Penalty>
0.460135

> <b_epik_Metal_Only>
0

> <s_lp_Force_Field>
OPLS_2005

> <r_lp_Energy>
5.98775

> <b_lp_Chiralities_Consistent>
1

> <s_lp_Variant>
AV-unprocessed.smi:2009-3

> <Gold.Version>
5.8.1

> <Gold.Id.Protein>
6NUR|6NUR_protein|mol2

> <Gold.PLP.Fitness>
43.9449

> <Gold.PLP.PLP>
-36.5937

> <Gold.PLP.part.hbond>
-1.0000

> <Gold.PLP.part.metal>
0.0000

> <Gold.PLP.part.buried>
-0.1147

> <Gold.PLP.part.nonpolar>
-34.4093

> <Gold.PLP.part.repulsive>
0.1274

> <Gold.PLP.ligand.clash>
0.0000

> <Gold.PLP.ligand.torsion>
1.6003

> <Gold.PLP.Chemscore.Hbond>
2.0000

> <Gold.PLP.Chemscore.CHOScore>
1.0000

> <Gold.PLP.Chemscore.Metal>
0.0000

> <Gold.Chemscore.Hbonds>
donor molecule, donor type, donor heavy atom, donor atom, acceptor molecule, acceptor atom, score
      P1  H  7997  8010       L1     9  0.59
      L1  C     5    25       P1  8028  1.00

> <Gold.PLP.Chemscore.Internal.Correction>
1.5517

> <Gold.Rescore>
     Score         DG    S(hbond)    S(metal)    S(lipo)     H(rot)  DE(clash)    DE(int)     intcor
     13.75     -15.21       0.96        0.00      89.97       1.57       0.02       1.44       ----

> <Gold.Chemscore.Fitness>
13.7464

> <Gold.Chemscore.DG>
-15.2068

> <Gold.Chemscore.ZeroCoef>
-5.4800

> <Gold.Chemscore.Hbond>
0.9619

> <Gold.Chemscore.Metal>
0.0000

> <Gold.Chemscore.Lipo>
89.9656

> <Gold.Chemscore.Internal_Hbond>
0.0000

> <Gold.Chemscore.DEClash>
0.0230

> <Gold.Chemscore.DEInternal>
1.4374

> <Gold.Chemscore.Rot>
1.5672

> <Gold.Chemscore.Internal.Correction>
   9.000000E+99

> <Gold.Chemscore.Hbonds>
donor molecule, donor type, donor heavy atom, donor atom, acceptor molecule, acceptor atom, score
      P1  H  7997  8010       L1     9  0.01

> <Gold.Chemscore.Hbond.Weighted>
-3.2127

> <Gold.Chemscore.Metal.Weighted>
-0.0000

> <Gold.Chemscore.Lipo.Weighted>
-10.5260

> <Gold.Chemscore.Internal_Hbond.Weighted>
0.0000

> <Gold.Chemscore.DEClash.Weighted>
0.0230

> <Gold.Chemscore.DEInternal.Weighted>
1.4374

> <Gold.Chemscore.Rot.Weighted>
4.0119

> <Gold.Chemscore.Internal.Correction.Weighted>
   9.000000E+99

> <Gold.Protein.RotatedTorsions>
[ 6907 6896 6895 6894 ] final   95.81 input  -60.11 | X-H torsion
[ 7974 7965 7964 7962 ] final   53.57 input  175.53 | X-H torsion
[ 8008 7997 7996 7995 ] final   47.58 input   59.86 | X-H torsion
[ 10167 10162 10161 10158 ] final  -47.03 input  -65.29 | X-H torsion
[ 10718 10713 10712 10709 ] final -130.40 input   66.30 | X-H torsion
[ 10763 10752 10751 10750 ] final  -39.08 input  -60.55 | X-H torsion
[ 11005 11000 10999 10996 ] final -159.17 input  -57.11 | X-H torsion

> <Gold.Protein.ActiveResidues>
 VAL166  LYS551  ARG553  GLY616  TRP617  ASP618  TYR619  PRO620  LYS621  CYS622 
 ASP623  PHE694  ASN695  SER759  ASP760  ASP761  ALA762  ILE779  LEU786  VAL792 
 PHE793  MET794  SER795  GLU796  ALA797  LYS798  CYS799  TRP800  GLU811  SER814 

> <Gold.Protein.RotatedAtoms>
  152.5440  134.0982  159.8305 H   0  0  0  0  0  0  0  0  0  0  0  0  # atno 6907 bound_to 6896
  151.1063  133.5199  159.2615 H   0  0  0  0  0  0  0  0  0  0  0  0  # atno 6908 bound_to 6896
  151.1934  135.0421  159.8896 H   0  0  0  0  0  0  0  0  0  0  0  0  # atno 6909 bound_to 6896
  145.9698  139.4138  143.0197 H   0  0  0  0  0  0  0  0  0  0  0  0  # atno 7974 bound_to 7965
  155.3715  140.3424  155.4243 H   0  0  0  0  0  0  0  0  0  0  0  0  # atno 8008 bound_to 7997
  156.1660  140.1616  156.8565 H   0  0  0  0  0  0  0  0  0  0  0  0  # atno 8009 bound_to 7997
  154.5185  140.0772  156.8110 H   0  0  0  0  0  0  0  0  0  0  0  0  # atno 8010 bound_to 7997
  140.6793  143.2803  151.3867 H   0  0  0  0  0  0  0  0  0  0  0  0  # atno 10167 bound_to 10162
  156.2141  130.6937  151.0683 H   0  0  0  0  0  0  0  0  0  0  0  0  # atno 10718 bound_to 10713
  153.9234  135.6780  153.4747 H   0  0  0  0  0  0  0  0  0  0  0  0  # atno 10763 bound_to 10752
  153.1017  135.4825  154.8875 H   0  0  0  0  0  0  0  0  0  0  0  0  # atno 10764 bound_to 10752
  154.7466  135.3174  154.8590 H   0  0  0  0  0  0  0  0  0  0  0  0  # atno 10765 bound_to 10752
  140.6455  134.4506  157.5234 H   0  0  0  0  0  0  0  0  0  0  0  0  # atno 11005 bound_to 11000
  145.7922  140.9809  143.1043 LP  0  0  0  0  0  0  0  0  0  0  0  0  # atno 17320 bound_to 7965
  144.6834  139.9697  143.7482 LP  0  0  0  0  0  0  0  0  0  0  0  0  # atno 17321 bound_to 7965
  139.6104  144.1110  152.2293 LP  0  0  0  0  0  0  0  0  0  0  0  0  # atno 17342 bound_to 10162
  140.0522  144.5923  150.7327 LP  0  0  0  0  0  0  0  0  0  0  0  0  # atno 17343 bound_to 10162
  157.7054  131.0758  150.6684 LP  0  0  0  0  0  0  0  0  0  0  0  0  # atno 17370 bound_to 10713
  156.6745  130.4549  149.5647 LP  0  0  0  0  0  0  0  0  0  0  0  0  # atno 17371 bound_to 10713
  139.9065  134.8439  156.1689 LP  0  0  0  0  0  0  0  0  0  0  0  0  # atno 17394 bound_to 11000
  141.0575  133.6858  156.1889 LP  0  0  0  0  0  0  0  0  0  0  0  0  # atno 17395 bound_to 11000

$$$$
