AV-unprocessed.smi:2432|AV-procd|sdf|9588|dock5
  -GOLD-   2272013223D 1   1.00000     0.00000
 Structure written by MMmdl.
 33 34  0  0  0  0  0  0  0  0  1 V2000
  154.4678  137.4197  154.5564 C   0  0  0  0  0  0  0  0  0  0  0  0
  153.4925  138.3163  155.1569 N   0  0  0  0  0  0  0  0  0  0  0  0
  152.1635  138.1810  155.0357 C   0  0  0  0  0  0  0  0  0  0  0  0
  151.6410  137.2706  154.3913 O   0  0  0  0  0  0  0  0  0  0  0  0
  151.3026  139.2472  155.7279 C   0  0  1  0  0  0  0  0  0  0  0  0
  152.1136  140.1251  156.7078 C   0  0  0  0  0  0  0  0  0  0  0  0
  151.2720  141.1742  157.2689 N   0  0  0  0  0  0  0  0  0  0  0  0
  151.7752  141.8615  158.3573 C   0  0  0  0  0  0  0  0  0  0  0  0
  152.1049  141.1486  159.4412 N   0  0  0  0  0  0  0  0  0  0  0  0
  152.5946  141.8337  160.4973 C   0  0  0  0  0  0  0  0  0  0  0  0
  152.7534  143.2339  160.4654 C   0  0  0  0  0  0  0  0  0  0  0  0
  152.3719  143.8760  159.2686 C   0  0  0  0  0  0  0  0  0  0  0  0
  152.4892  145.3761  159.1016 C   0  0  0  0  0  0  0  0  0  0  0  0
  151.8841  143.1852  158.2148 N   0  0  0  0  0  0  0  0  0  0  0  0
  150.6122  141.9689  156.2423 C   0  0  0  0  0  0  0  0  0  0  0  0
  149.8353  141.0544  155.2819 C   0  0  0  0  0  0  0  0  0  0  0  0
  150.7189  140.0845  154.7286 O   0  0  0  0  0  0  0  0  0  0  0  0
  155.4757  137.7955  154.7317 H   0  0  0  0  0  0  0  0  0  0  0  0
  154.3157  137.3430  153.4790 H   0  0  0  0  0  0  0  0  0  0  0  0
  154.3944  136.4219  154.9907 H   0  0  0  0  0  0  0  0  0  0  0  0
  153.8457  139.0886  155.7034 H   0  0  0  0  0  0  0  0  0  0  0  0
  150.5092  138.7279  156.2689 H   0  0  0  0  0  0  0  0  0  0  0  0
  152.5136  139.5142  157.5186 H   0  0  0  0  0  0  0  0  0  0  0  0
  152.9641  140.5804  156.1978 H   0  0  0  0  0  0  0  0  0  0  0  0
  152.8617  141.2614  161.3733 H   0  0  0  0  0  0  0  0  0  0  0  0
  153.1443  143.7788  161.3120 H   0  0  0  0  0  0  0  0  0  0  0  0
  152.8549  145.8468  160.0146 H   0  0  0  0  0  0  0  0  0  0  0  0
  151.5174  145.8085  158.8615 H   0  0  0  0  0  0  0  0  0  0  0  0
  153.1816  145.6148  158.2938 H   0  0  0  0  0  0  0  0  0  0  0  0
  149.9348  142.6852  156.7084 H   0  0  0  0  0  0  0  0  0  0  0  0
  151.3597  142.5421  155.6925 H   0  0  0  0  0  0  0  0  0  0  0  0
  149.0102  140.5591  155.7967 H   0  0  0  0  0  0  0  0  0  0  0  0
  149.4005  141.6412  154.4727 H   0  0  0  0  0  0  0  0  0  0  0  0
  1  2  1  0  0  0  0
  1 18  1  0  0  0  0
  1 19  1  0  0  0  0
  1 20  1  0  0  0  0
  2  3  1  0  0  0  0
  2 21  1  0  0  0  0
  3  4  2  0  0  0  0
  3  5  1  0  0  0  0
  5 17  1  0  0  0  0
  5  6  1  0  0  0  0
  5 22  1  0  0  0  0
  6  7  1  0  0  0  0
  6 23  1  0  0  0  0
  6 24  1  0  0  0  0
  7  8  1  0  0  0  0
  7 15  1  0  0  0  0
  8 14  1  0  0  0  0
  8  9  2  0  0  0  0
  9 10  1  0  0  0  0
 10 11  2  0  0  0  0
 10 25  1  0  0  0  0
 11 12  1  0  0  0  0
 11 26  1  0  0  0  0
 12 13  1  0  0  0  0
 12 14  2  0  0  0  0
 13 27  1  0  0  0  0
 13 28  1  0  0  0  0
 13 29  1  0  0  0  0
 15 16  1  0  0  0  0
 15 30  1  0  0  0  0
 15 31  1  0  0  0  0
 16 17  1  0  0  0  0
 16 32  1  0  0  0  0
 16 33  1  0  0  0  0
M  END
> <s_m_source_file>
AV-unprocessed.smi

> <i_m_source_file_index>
2432

> <i_lp_mmshare_version>
43012

> <i_f3d_flags>
0

> <s_epik_input>
W0NIM11bTkhdQyg9TylbQ0BASF0xW0NIMl1OKFtDSDJdW0NIMl1PMSljMm5bY0hdW2NIXWMobjIpW0NIM10=

> <s_epik_cmdline>
J2VwaWtfcHl0aG9uJywgJy1waCcsICc3LjAnLCAnLXRuJywgJzgnLCAnLW1hJywgJzIwMCcsICctbWV0YWxfYmluZGluZycsICctaW1hZScsICc8aW5maWxlLm1hZT4nLCAnLW9tYWUnLCAnPG91dGZpbGUubWFlPic=

> <r_lp_tautomer_probability>
1

> <r_epik_Ionization_Penalty>
3.16085e-05

> <r_epik_Ionization_Penalty_Charging>
0

> <r_epik_Ionization_Penalty_Neutral>
3.16085e-05

> <r_epik_State_Penalty>
-0

> <r_epik_Charging_Adjusted_Penalty>
0

> <i_epik_Tot_Q>
0

> <i_epik_Tot_abs_Q>
0

> <r_epik_Metal_State_Penalty>
-0

> <b_epik_Metal_Only>
0

> <s_lp_Force_Field>
OPLS_2005

> <r_lp_Energy>
12.5177

> <b_lp_Chiralities_Consistent>
1

> <s_lp_Variant>
AV-unprocessed.smi:2432-2

> <Gold.Version>
5.8.1

> <Gold.Id.Protein>
6NUR|6NUR_protein|mol2

> <Gold.PLP.Fitness>
37.9138

> <Gold.PLP.PLP>
-32.7118

> <Gold.PLP.part.hbond>
-2.0000

> <Gold.PLP.part.metal>
0.0000

> <Gold.PLP.part.buried>
-4.1252

> <Gold.PLP.part.nonpolar>
-29.9508

> <Gold.PLP.part.repulsive>
2.5755

> <Gold.PLP.ligand.clash>
0.0000

> <Gold.PLP.ligand.torsion>
0.4345

> <Gold.PLP.Chemscore.Hbond>
1.9280

> <Gold.PLP.Chemscore.CHOScore>
0.0000

> <Gold.PLP.Chemscore.Metal>
0.0000

> <Gold.Chemscore.Hbonds>
donor molecule, donor type, donor heavy atom, donor atom, acceptor molecule, acceptor atom, score
      P1  H  7989  7998       L1    17  1.00
      P1  H 10752 10763       L1     4  0.71

> <Gold.PLP.Chemscore.Internal.Correction>
0.2870

> <Gold.Rescore>
     Score         DG    S(hbond)    S(metal)    S(lipo)     H(rot)  DE(clash)    DE(int)     intcor
     15.44     -17.50       1.61        0.00      85.37       1.31       1.63       0.42       ----

> <Gold.Chemscore.Fitness>
15.4430

> <Gold.Chemscore.DG>
-17.4960

> <Gold.Chemscore.ZeroCoef>
-5.4800

> <Gold.Chemscore.Hbond>
1.6105

> <Gold.Chemscore.Metal>
0.0000

> <Gold.Chemscore.Lipo>
85.3666

> <Gold.Chemscore.Internal_Hbond>
0.0000

> <Gold.Chemscore.DEClash>
1.6335

> <Gold.Chemscore.DEInternal>
0.4194

> <Gold.Chemscore.Rot>
1.3089

> <Gold.Chemscore.Internal.Correction>
   9.000000E+99

> <Gold.Chemscore.Hbonds>
donor molecule, donor type, donor heavy atom, donor atom, acceptor molecule, acceptor atom, score
      P1  H  7989  7998       L1    17  0.60
      P1  H 10752 10763       L1     4  0.54

> <Gold.Chemscore.Hbond.Weighted>
-5.3790

> <Gold.Chemscore.Metal.Weighted>
-0.0000

> <Gold.Chemscore.Lipo.Weighted>
-9.9879

> <Gold.Chemscore.Internal_Hbond.Weighted>
0.0000

> <Gold.Chemscore.DEClash.Weighted>
1.6335

> <Gold.Chemscore.DEInternal.Weighted>
0.4194

> <Gold.Chemscore.Rot.Weighted>
3.3509

> <Gold.Chemscore.Internal.Correction.Weighted>
   9.000000E+99

> <Gold.Protein.RotatedTorsions>
[ 6907 6896 6895 6894 ] final -125.78 input  -60.11 | X-H torsion
[ 7974 7965 7964 7962 ] final   22.99 input  175.53 | X-H torsion
[ 8008 7997 7996 7995 ] final  112.11 input   59.86 | X-H torsion
[ 10167 10162 10161 10158 ] final  109.32 input  -65.29 | X-H torsion
[ 10718 10713 10712 10709 ] final -176.32 input   66.30 | X-H torsion
[ 10763 10752 10751 10750 ] final   23.91 input  -60.55 | X-H torsion
[ 11005 11000 10999 10996 ] final  -10.83 input  -57.11 | X-H torsion

> <Gold.Protein.ActiveResidues>
 VAL166  LYS551  ARG553  GLY616  TRP617  ASP618  TYR619  PRO620  LYS621  CYS622 
 ASP623  PHE694  ASN695  SER759  ASP760  ASP761  ALA762  ILE779  LEU786  VAL792 
 PHE793  MET794  SER795  GLU796  ALA797  LYS798  CYS799  TRP800  GLU811  SER814 

> <Gold.Protein.RotatedAtoms>
  150.8902  133.7253  159.2906 H   0  0  0  0  0  0  0  0  0  0  0  0  # atno 6907 bound_to 6896
  151.4806  135.1050  159.9786 H   0  0  0  0  0  0  0  0  0  0  0  0  # atno 6908 bound_to 6896
  152.4815  133.8219  159.7113 H   0  0  0  0  0  0  0  0  0  0  0  0  # atno 6909 bound_to 6896
  146.2004  139.7807  142.8766 H   0  0  0  0  0  0  0  0  0  0  0  0  # atno 7974 bound_to 7965
  156.2170  140.3006  155.9862 H   0  0  0  0  0  0  0  0  0  0  0  0  # atno 8008 bound_to 7997
  155.2580  140.0428  157.3011 H   0  0  0  0  0  0  0  0  0  0  0  0  # atno 8009 bound_to 7997
  154.5782  140.2368  155.8100 H   0  0  0  0  0  0  0  0  0  0  0  0  # atno 8010 bound_to 7997
  139.6775  144.7121  151.1575 H   0  0  0  0  0  0  0  0  0  0  0  0  # atno 10167 bound_to 10162
  156.8130  130.9593  151.3115 H   0  0  0  0  0  0  0  0  0  0  0  0  # atno 10718 bound_to 10713
  153.0803  135.6616  154.0060 H   0  0  0  0  0  0  0  0  0  0  0  0  # atno 10763 bound_to 10752
  153.9683  135.2967  155.3430 H   0  0  0  0  0  0  0  0  0  0  0  0  # atno 10764 bound_to 10752
  154.7200  135.5168  153.8869 H   0  0  0  0  0  0  0  0  0  0  0  0  # atno 10765 bound_to 10752
  140.7488  133.8609  155.9028 H   0  0  0  0  0  0  0  0  0  0  0  0  # atno 11005 bound_to 11000
  145.3503  141.0306  143.3342 LP  0  0  0  0  0  0  0  0  0  0  0  0  # atno 17320 bound_to 7965
  144.8671  139.5092  143.6785 LP  0  0  0  0  0  0  0  0  0  0  0  0  # atno 17321 bound_to 7965
  140.7641  143.5749  150.8956 LP  0  0  0  0  0  0  0  0  0  0  0  0  # atno 17342 bound_to 10162
  139.9418  143.6373  152.3051 LP  0  0  0  0  0  0  0  0  0  0  0  0  # atno 17343 bound_to 10162
  157.6496  130.8873  149.9607 LP  0  0  0  0  0  0  0  0  0  0  0  0  # atno 17370 bound_to 10713
  156.1033  130.3654  150.0178 LP  0  0  0  0  0  0  0  0  0  0  0  0  # atno 17371 bound_to 10713
  140.9769  134.1457  157.4528 LP  0  0  0  0  0  0  0  0  0  0  0  0  # atno 17394 bound_to 11000
  139.8791  134.9997  156.5972 LP  0  0  0  0  0  0  0  0  0  0  0  0  # atno 17395 bound_to 11000

$$$$
