AV-unprocessed.smi:1457|AV-procd|sdf|5919|dock1
  -GOLD-   22720 6 03D 1   1.00000     0.00000
 Structure written by MMmdl.
 36 37  0  0  0  0  0  0  0  0  2 V2000
  142.8997  132.2583  150.4973 C   0  0  0  0  0  0  0  0  0  0  0  0
  143.3435  133.6327  150.8140 N   0  3  2  0  0  0  0  0  0  0  0  0
  144.6958  133.9273  150.2777 C   0  0  0  0  0  0  0  0  0  0  0  0
  145.0740  135.3995  150.5112 C   0  0  0  0  0  0  0  0  0  0  0  0
  144.9847  135.7650  152.0019 C   0  0  1  0  0  0  0  0  0  0  0  0
  145.2470  137.1906  152.1815 N   0  0  0  0  0  0  0  0  0  0  0  0
  146.2031  137.7192  152.9591 C   0  0  0  0  0  0  0  0  0  0  0  0
  146.9807  137.0475  153.6364 O   0  0  0  0  0  0  0  0  0  0  0  0
  146.1776  139.0619  152.9110 N   0  0  0  0  0  0  0  0  0  0  0  0
  147.0510  139.9836  153.5486 C   0  0  0  0  0  0  0  0  0  0  0  0
  148.3922  139.6951  153.8992 C   0  0  0  0  0  0  0  0  0  0  0  0
  149.1670  140.7012  154.5076 C   0  0  0  0  0  0  0  0  0  0  0  0
  148.5762  141.9588  154.7369 C   0  0  0  0  0  0  0  0  0  0  0  0
  147.3039  142.2522  154.3952 N   0  0  0  0  0  0  0  0  0  0  0  0
  146.5676  141.2830  153.8110 C   0  0  0  0  0  0  0  0  0  0  0  0
  143.5883  135.4125  152.5417 C   0  0  0  0  0  0  0  0  0  0  0  0
  143.2402  133.9405  152.2624 C   0  0  0  0  0  0  0  0  0  0  0  0
  143.5433  131.5185  150.9752 H   0  0  0  0  0  0  0  0  0  0  0  0
  142.9200  132.0855  149.4207 H   0  0  0  0  0  0  0  0  0  0  0  0
  141.8773  132.0954  150.8400 H   0  0  0  0  0  0  0  0  0  0  0  0
  145.4284  133.2716  150.7515 H   0  0  0  0  0  0  0  0  0  0  0  0
  144.7209  133.7111  149.2088 H   0  0  0  0  0  0  0  0  0  0  0  0
  146.0833  135.5844  150.1409 H   0  0  0  0  0  0  0  0  0  0  0  0
  144.4089  136.0404  149.9302 H   0  0  0  0  0  0  0  0  0  0  0  0
  145.7226  135.1690  152.5420 H   0  0  0  0  0  0  0  0  0  0  0  0
  144.6545  137.8274  151.6691 H   0  0  0  0  0  0  0  0  0  0  0  0
  145.4185  139.4757  152.3895 H   0  0  0  0  0  0  0  0  0  0  0  0
  148.8435  138.7352  153.7013 H   0  0  0  0  0  0  0  0  0  0  0  0
  150.1930  140.5138  154.7877 H   0  0  0  0  0  0  0  0  0  0  0  0
  149.1427  142.7518  155.2023 H   0  0  0  0  0  0  0  0  0  0  0  0
  145.5555  141.5544  153.5476 H   0  0  0  0  0  0  0  0  0  0  0  0
  143.5419  135.6056  153.6143 H   0  0  0  0  0  0  0  0  0  0  0  0
  142.8376  136.0555  152.0794 H   0  0  0  0  0  0  0  0  0  0  0  0
  142.2264  133.7352  152.6084 H   0  0  0  0  0  0  0  0  0  0  0  0
  143.9062  133.2839  152.8247 H   0  0  0  0  0  0  0  0  0  0  0  0
  142.7040  134.2554  150.3407 H   0  0  0  0  0  0  0  0  0  0  0  0
  1  2  1  0  0  0  0
  1 18  1  0  0  0  0
  1 19  1  0  0  0  0
  1 20  1  0  0  0  0
  2 17  1  0  0  0  0
  2  3  1  0  0  0  0
  2 36  1  0  0  0  0
  3  4  1  0  0  0  0
  3 21  1  0  0  0  0
  3 22  1  0  0  0  0
  4  5  1  0  0  0  0
  4 23  1  0  0  0  0
  4 24  1  0  0  0  0
  5  6  1  0  0  0  0
  5 16  1  0  0  0  0
  5 25  1  0  0  0  0
  6  7  1  0  0  0  0
  6 26  1  0  0  0  0
  7  8  2  0  0  0  0
  7  9  1  0  0  0  0
  9 10  1  0  0  0  0
  9 27  1  0  0  0  0
 10 15  1  0  0  0  0
 10 11  2  0  0  0  0
 11 12  1  0  0  0  0
 11 28  1  0  0  0  0
 12 13  2  0  0  0  0
 12 29  1  0  0  0  0
 13 14  1  0  0  0  0
 13 30  1  0  0  0  0
 14 15  2  0  0  0  0
 15 31  1  0  0  0  0
 16 17  1  0  0  0  0
 16 32  1  0  0  0  0
 16 33  1  0  0  0  0
 17 34  1  0  0  0  0
 17 35  1  0  0  0  0
M  CHG  1   2   1
M  END
> <s_m_source_file>
AV-unprocessed.smi

> <i_m_source_file_index>
1457

> <i_lp_mmshare_version>
43012

> <i_f3d_flags>
0

> <s_epik_input>
W0NIM11OMVtDSDJdW0NIMl1bQ0hdKFtDSDJdW0NIMl0xKVtOSF1DKD1PKVtOSF1jMltjSF1bY0hdW2NIXW5bY0hdMg==

> <s_epik_cmdline>
J2VwaWtfcHl0aG9uJywgJy1waCcsICc3LjAnLCAnLXRuJywgJzgnLCAnLW1hJywgJzIwMCcsICctbWV0YWxfYmluZGluZycsICctaW1hZScsICc8aW5maWxlLm1hZT4nLCAnLW9tYWUnLCAnPG91dGZpbGUubWFlPic=

> <r_lp_tautomer_probability>
1

> <r_epik_Ionization_Penalty>
0.00766642

> <r_epik_Ionization_Penalty_Charging>
0.00366825

> <r_epik_Ionization_Penalty_Neutral>
0.00399817

> <r_epik_State_Penalty>
-0

> <r_epik_Charging_Adjusted_Penalty>
0.00366825

> <i_epik_Tot_Q>
1

> <i_epik_Tot_abs_Q>
1

> <r_epik_Metal_State_Penalty>
-0

> <b_epik_Metal_Only>
0

> <s_lp_Force_Field>
OPLS_2005

> <r_lp_Energy>
19.7358

> <b_lp_Chiralities_Consistent>
1

> <s_lp_Variant>
AV-unprocessed.smi:1457-1

> <Gold.Version>
5.8.1

> <Gold.Id.Protein>
6NUR|6NUR_protein|mol2

> <Gold.PLP.Fitness>
38.3101

> <Gold.PLP.PLP>
-22.5079

> <Gold.PLP.part.hbond>
-2.8979

> <Gold.PLP.part.metal>
0.0000

> <Gold.PLP.part.buried>
4.2628

> <Gold.PLP.part.nonpolar>
-27.5835

> <Gold.PLP.part.repulsive>
2.7423

> <Gold.PLP.ligand.clash>
0.0000

> <Gold.PLP.ligand.torsion>
0.1564

> <Gold.PLP.Chemscore.Hbond>
3.5473

> <Gold.PLP.Chemscore.CHOScore>
1.8240

> <Gold.PLP.Chemscore.Metal>
0.0000

> <Gold.Chemscore.Hbonds>
donor molecule, donor type, donor heavy atom, donor atom, acceptor molecule, acceptor atom, score
      L1  H     2    36       P1 10186  1.82
      L1  H     6    26       P1 10171  0.70
      L1  H     9    27       P1 10175  0.94
      L1  C    13    30       P1  8028  1.00
      L1  C    15    31       P1 10175  0.83

> <Gold.PLP.Chemscore.Internal.Correction>
0.0013

> <Gold.Rescore>
     Score         DG    S(hbond)    S(metal)    S(lipo)     H(rot)  DE(clash)    DE(int)     intcor
     15.55     -20.20       2.53        0.00      75.46       1.00       3.40       1.25       ----

> <Gold.Chemscore.Fitness>
15.5530

> <Gold.Chemscore.DG>
-20.2004

> <Gold.Chemscore.ZeroCoef>
-5.4800

> <Gold.Chemscore.Hbond>
2.5304

> <Gold.Chemscore.Metal>
0.0000

> <Gold.Chemscore.Lipo>
75.4592

> <Gold.Chemscore.Internal_Hbond>
0.0000

> <Gold.Chemscore.DEClash>
3.4023

> <Gold.Chemscore.DEInternal>
1.2452

> <Gold.Chemscore.Rot>
1.0000

> <Gold.Chemscore.Internal.Correction>
   9.000000E+99

> <Gold.Chemscore.Hbonds>
donor molecule, donor type, donor heavy atom, donor atom, acceptor molecule, acceptor atom, score
      L1  H     2    36       P1 10186  0.73
      L1  H     6    26       P1 10171  0.66
      L1  H     9    27       P1 10175  0.88

> <Gold.Chemscore.Hbond.Weighted>
-8.4517

> <Gold.Chemscore.Metal.Weighted>
-0.0000

> <Gold.Chemscore.Lipo.Weighted>
-8.8287

> <Gold.Chemscore.Internal_Hbond.Weighted>
0.0000

> <Gold.Chemscore.DEClash.Weighted>
3.4023

> <Gold.Chemscore.DEInternal.Weighted>
1.2452

> <Gold.Chemscore.Rot.Weighted>
2.5600

> <Gold.Chemscore.Internal.Correction.Weighted>
   9.000000E+99

> <Gold.Protein.RotatedTorsions>
[ 6907 6896 6895 6894 ] final  -56.55 input  -60.11 | X-H torsion
[ 7974 7965 7964 7962 ] final -131.97 input  175.53 | X-H torsion
[ 8008 7997 7996 7995 ] final  -37.98 input   59.86 | X-H torsion
[ 10167 10162 10161 10158 ] final  -11.35 input  -65.29 | X-H torsion
[ 10718 10713 10712 10709 ] final -158.57 input   66.30 | X-H torsion
[ 10763 10752 10751 10750 ] final  -54.83 input  -60.55 | X-H torsion
[ 11005 11000 10999 10996 ] final   91.79 input  -57.11 | X-H torsion

> <Gold.Protein.ActiveResidues>
 VAL166  LYS551  ARG553  GLY616  TRP617  ASP618  TYR619  PRO620  LYS621  CYS622 
 ASP623  PHE694  ASN695  SER759  ASP760  ASP761  ALA762  ILE779  LEU786  VAL792 
 PHE793  MET794  SER795  GLU796  ALA797  LYS798  CYS799  TRP800  GLU811  SER814 

> <Gold.Protein.RotatedAtoms>
  150.8158  134.7339  159.6728 H   0  0  0  0  0  0  0  0  0  0  0  0  # atno 6907 bound_to 6896
  152.4277  134.5834  159.9964 H   0  0  0  0  0  0  0  0  0  0  0  0  # atno 6908 bound_to 6896
  151.6031  133.3317  159.3087 H   0  0  0  0  0  0  0  0  0  0  0  0  # atno 6909 bound_to 6896
  144.9329  140.7149  143.4895 H   0  0  0  0  0  0  0  0  0  0  0  0  # atno 7974 bound_to 7965
  154.4044  140.1590  156.2626 H   0  0  0  0  0  0  0  0  0  0  0  0  # atno 8008 bound_to 7997
  155.9023  140.3432  155.6014 H   0  0  0  0  0  0  0  0  0  0  0  0  # atno 8009 bound_to 7997
  155.7433  140.0795  157.2226 H   0  0  0  0  0  0  0  0  0  0  0  0  # atno 8010 bound_to 7997
  140.7136  143.5649  150.9155 H   0  0  0  0  0  0  0  0  0  0  0  0  # atno 10167 bound_to 10162
  156.5560  130.8626  151.2795 H   0  0  0  0  0  0  0  0  0  0  0  0  # atno 10718 bound_to 10713
  154.1810  135.6443  153.5034 H   0  0  0  0  0  0  0  0  0  0  0  0  # atno 10763 bound_to 10752
  153.0059  135.5406  154.6514 H   0  0  0  0  0  0  0  0  0  0  0  0  # atno 10764 bound_to 10752
  154.5878  135.2931  155.0639 H   0  0  0  0  0  0  0  0  0  0  0  0  # atno 10765 bound_to 10752
  139.8833  134.8695  156.3479 H   0  0  0  0  0  0  0  0  0  0  0  0  # atno 11005 bound_to 11000
  145.3113  139.1818  143.4637 LP  0  0  0  0  0  0  0  0  0  0  0  0  # atno 17320 bound_to 7965
  146.3254  140.3118  142.8627 LP  0  0  0  0  0  0  0  0  0  0  0  0  # atno 17321 bound_to 7965
  139.9375  143.6421  152.3062 LP  0  0  0  0  0  0  0  0  0  0  0  0  # atno 17342 bound_to 10162
  139.6894  144.7648  151.1466 LP  0  0  0  0  0  0  0  0  0  0  0  0  # atno 17343 bound_to 10162
  157.7378  130.9802  150.2215 LP  0  0  0  0  0  0  0  0  0  0  0  0  # atno 17370 bound_to 10713
  156.2842  130.3737  149.7905 LP  0  0  0  0  0  0  0  0  0  0  0  0  # atno 17371 bound_to 10713
  140.9614  133.7386  156.0406 LP  0  0  0  0  0  0  0  0  0  0  0  0  # atno 17394 bound_to 11000
  140.7985  134.3536  157.5446 LP  0  0  0  0  0  0  0  0  0  0  0  0  # atno 17395 bound_to 11000

$$$$
