AV-unprocessed.smi:2001|AV-procd|sdf|8102|dock10
  -GOLD-   2272010323D 1   1.00000     0.00000
 Structure written by MMmdl.
 50 51  0  0  0  0  0  0  0  0  1 V2000
  152.4344  144.0216  158.7800 C   0  0  0  0  0  0  0  0  0  0  0  0
  151.8004  144.2225  157.5289 O   0  0  0  0  0  0  0  0  0  0  0  0
  150.9187  143.1656  157.1907 C   0  0  0  0  0  0  0  0  0  0  0  0
  151.7452  141.8999  156.9181 C   0  0  0  0  0  0  0  0  0  0  0  0
  151.0608  140.9986  155.9858 N   0  0  0  0  0  0  0  0  0  0  0  0
  149.8652  141.4965  155.4946 N   0  0  0  0  0  0  0  0  0  0  0  0
  149.1597  140.7949  154.6671 C   0  0  0  0  0  0  0  0  0  0  0  0
  147.8649  141.2896  154.1227 C   0  0  0  0  0  0  0  0  0  0  0  0
  147.1528  140.5891  153.4011 O   0  0  0  0  0  0  0  0  0  0  0  0
  147.5315  142.5433  154.4781 N   0  0  0  0  0  0  0  0  0  0  0  0
  146.3064  143.2293  154.0874 C   0  0  0  0  0  0  0  0  0  0  0  0
  145.1055  142.7242  154.9076 C   0  0  0  0  0  0  0  0  0  0  0  0
  144.3531  143.7631  155.6084 N   0  0  0  0  0  0  0  0  0  0  0  0
  143.9505  144.8581  154.7293 C   0  0  0  0  0  0  0  0  0  0  0  0
  143.1777  145.9528  155.4900 C   0  0  2  0  0  0  0  0  0  0  0  0
  142.8214  147.1427  154.5928 C   0  0  0  0  0  0  0  0  0  0  0  0
  143.9815  146.4285  156.5659 O   0  0  0  0  0  0  0  0  0  0  0  0
  144.3614  145.4040  157.4803 C   0  0  2  0  0  0  0  0  0  0  0  0
  145.2076  146.0386  158.5890 C   0  0  0  0  0  0  0  0  0  0  0  0
  145.1294  144.3081  156.7166 C   0  0  0  0  0  0  0  0  0  0  0  0
  149.6079  139.4816  154.2351 C   0  0  0  0  0  0  0  0  0  0  0  0
  150.7805  139.0133  154.7161 C   0  0  0  0  0  0  0  0  0  0  0  0
  151.5978  139.7866  155.6522 C   0  0  0  0  0  0  0  0  0  0  0  0
  152.6723  139.3850  156.0979 O   0  0  0  0  0  0  0  0  0  0  0  0
  153.0925  144.8631  158.9963 H   0  0  0  0  0  0  0  0  0  0  0  0
  153.0399  143.1143  158.7739 H   0  0  0  0  0  0  0  0  0  0  0  0
  151.7034  143.9503  159.5865 H   0  0  0  0  0  0  0  0  0  0  0  0
  150.2191  142.9876  158.0091 H   0  0  0  0  0  0  0  0  0  0  0  0
  150.3348  143.4370  156.3096 H   0  0  0  0  0  0  0  0  0  0  0  0
  152.7301  142.1712  156.5334 H   0  0  0  0  0  0  0  0  0  0  0  0
  151.9354  141.3829  157.8607 H   0  0  0  0  0  0  0  0  0  0  0  0
  148.1709  143.0527  155.0714 H   0  0  0  0  0  0  0  0  0  0  0  0
  146.4663  144.2946  154.2501 H   0  0  0  0  0  0  0  0  0  0  0  0
  146.1227  143.1001  153.0194 H   0  0  0  0  0  0  0  0  0  0  0  0
  144.4289  142.2088  154.2244 H   0  0  0  0  0  0  0  0  0  0  0  0
  145.4426  141.9692  155.6200 H   0  0  0  0  0  0  0  0  0  0  0  0
  144.8319  145.2950  154.2570 H   0  0  0  0  0  0  0  0  0  0  0  0
  143.3181  144.4828  153.9255 H   0  0  0  0  0  0  0  0  0  0  0  0
  142.2560  145.5326  155.8963 H   0  0  0  0  0  0  0  0  0  0  0  0
  142.2010  146.8294  153.7528 H   0  0  0  0  0  0  0  0  0  0  0  0
  143.7176  147.6154  154.1901 H   0  0  0  0  0  0  0  0  0  0  0  0
  142.2681  147.8985  155.1506 H   0  0  0  0  0  0  0  0  0  0  0  0
  143.4617  144.9763  157.9263 H   0  0  0  0  0  0  0  0  0  0  0  0
  145.5124  145.2939  159.3247 H   0  0  0  0  0  0  0  0  0  0  0  0
  144.6463  146.8125  159.1130 H   0  0  0  0  0  0  0  0  0  0  0  0
  146.1094  146.4979  158.1831 H   0  0  0  0  0  0  0  0  0  0  0  0
  145.3949  143.5076  157.4085 H   0  0  0  0  0  0  0  0  0  0  0  0
  146.0685  144.7184  156.3412 H   0  0  0  0  0  0  0  0  0  0  0  0
  149.0253  138.8890  153.5448 H   0  0  0  0  0  0  0  0  0  0  0  0
  151.1267  138.0396  154.4016 H   0  0  0  0  0  0  0  0  0  0  0  0
  1  2  1  0  0  0  0
  1 25  1  0  0  0  0
  1 26  1  0  0  0  0
  1 27  1  0  0  0  0
  2  3  1  0  0  0  0
  3  4  1  0  0  0  0
  3 28  1  0  0  0  0
  3 29  1  0  0  0  0
  4  5  1  0  0  0  0
  4 30  1  0  0  0  0
  4 31  1  0  0  0  0
  5 23  1  0  0  0  0
  5  6  1  0  0  0  0
  6  7  2  0  0  0  0
  7  8  1  0  0  0  0
  7 21  1  0  0  0  0
  8  9  2  0  0  0  0
  8 10  1  0  0  0  0
 10 11  1  0  0  0  0
 10 32  1  0  0  0  0
 11 12  1  0  0  0  0
 11 33  1  0  0  0  0
 11 34  1  0  0  0  0
 12 13  1  0  0  0  0
 12 35  1  0  0  0  0
 12 36  1  0  0  0  0
 13 20  1  0  0  0  0
 13 14  1  0  0  0  0
 14 15  1  0  0  0  0
 14 37  1  0  0  0  0
 14 38  1  0  0  0  0
 15 16  1  0  0  0  0
 15 17  1  0  0  0  0
 15 39  1  0  0  0  0
 16 40  1  0  0  0  0
 16 41  1  0  0  0  0
 16 42  1  0  0  0  0
 17 18  1  0  0  0  0
 18 19  1  0  0  0  0
 18 20  1  0  0  0  0
 18 43  1  0  0  0  0
 19 44  1  0  0  0  0
 19 45  1  0  0  0  0
 19 46  1  0  0  0  0
 20 47  1  0  0  0  0
 20 48  1  0  0  0  0
 21 22  2  0  0  0  0
 21 49  1  0  0  0  0
 22 23  1  0  0  0  0
 22 50  1  0  0  0  0
 23 24  2  0  0  0  0
M  END
> <s_m_source_file>
AV-unprocessed.smi

> <i_m_source_file_index>
2001

> <i_lp_mmshare_version>
43012

> <i_f3d_flags>
0

> <s_epik_input>
W0NIM11PW0NIMl1bQ0gyXW4xbmMoW2NIXVtjSF1jMT1PKUMoPU8pW05IXVtDSDJdW0NIMl1OMltDSDJdW0NAQEhdKFtDSDNdKU9bQ0BASF0oW0NIM10pW0NIMl0y

> <s_epik_cmdline>
J2VwaWtfcHl0aG9uJywgJy1waCcsICc3LjAnLCAnLXRuJywgJzgnLCAnLW1hJywgJzIwMCcsICctbWV0YWxfYmluZGluZycsICctaW1hZScsICc8aW5maWxlLm1hZT4nLCAnLW9tYWUnLCAnPG91dGZpbGUubWFlPic=

> <r_lp_tautomer_probability>
1

> <r_epik_Ionization_Penalty>
0.206669

> <r_epik_Ionization_Penalty_Charging>
5.55992e-09

> <r_epik_Ionization_Penalty_Neutral>
0.206669

> <r_epik_State_Penalty>
0.196651

> <r_epik_Charging_Adjusted_Penalty>
0.196651

> <i_epik_Tot_Q>
0

> <i_epik_Tot_abs_Q>
0

> <r_epik_Metal_State_Penalty>
0.198372

> <b_epik_Metal_Only>
0

> <s_lp_Force_Field>
OPLS_2005

> <r_lp_Energy>
38.6275

> <b_lp_Chiralities_Consistent>
1

> <s_lp_Variant>
AV-unprocessed.smi:2001-1

> <Gold.Version>
5.8.1

> <Gold.Id.Protein>
6NUR|6NUR_protein|mol2

> <Gold.PLP.Fitness>
46.9743

> <Gold.PLP.PLP>
-42.7294

> <Gold.PLP.part.hbond>
-2.0000

> <Gold.PLP.part.metal>
0.0000

> <Gold.PLP.part.buried>
-5.7037

> <Gold.PLP.part.nonpolar>
-36.5168

> <Gold.PLP.part.repulsive>
0.7016

> <Gold.PLP.ligand.clash>
0.0000

> <Gold.PLP.ligand.torsion>
0.7194

> <Gold.PLP.Chemscore.Hbond>
1.8800

> <Gold.PLP.Chemscore.CHOScore>
0.0000

> <Gold.PLP.Chemscore.Metal>
0.0000

> <Gold.Chemscore.Hbonds>
donor molecule, donor type, donor heavy atom, donor atom, acceptor molecule, acceptor atom, score
      L1  H    10    32       P1  8028  0.96
      P1  H  7997  8009       L1    24  1.00

> <Gold.PLP.Chemscore.Internal.Correction>
0.0437

> <Gold.Rescore>
     Score         DG    S(hbond)    S(metal)    S(lipo)     H(rot)  DE(clash)    DE(int)     intcor
     16.23     -16.89       1.78        0.00      90.39       2.00       0.03       0.63       ----

> <Gold.Chemscore.Fitness>
16.2281

> <Gold.Chemscore.DG>
-16.8915

> <Gold.Chemscore.ZeroCoef>
-5.4800

> <Gold.Chemscore.Hbond>
1.7846

> <Gold.Chemscore.Metal>
0.0000

> <Gold.Chemscore.Lipo>
90.3943

> <Gold.Chemscore.Internal_Hbond>
0.0000

> <Gold.Chemscore.DEClash>
0.0348

> <Gold.Chemscore.DEInternal>
0.6286

> <Gold.Chemscore.Rot>
2.0020

> <Gold.Chemscore.Internal.Correction>
   9.000000E+99

> <Gold.Chemscore.Hbonds>
donor molecule, donor type, donor heavy atom, donor atom, acceptor molecule, acceptor atom, score
      L1  H    10    32       P1  8028  0.89
      P1  H  7997  8009       L1    24  1.00

> <Gold.Chemscore.Hbond.Weighted>
-5.9605

> <Gold.Chemscore.Metal.Weighted>
-0.0000

> <Gold.Chemscore.Lipo.Weighted>
-10.5761

> <Gold.Chemscore.Internal_Hbond.Weighted>
0.0000

> <Gold.Chemscore.DEClash.Weighted>
0.0348

> <Gold.Chemscore.DEInternal.Weighted>
0.6286

> <Gold.Chemscore.Rot.Weighted>
5.1252

> <Gold.Chemscore.Internal.Correction.Weighted>
   9.000000E+99

> <Gold.Protein.RotatedTorsions>
[ 6907 6896 6895 6894 ] final  -91.06 input  -60.11 | X-H torsion
[ 7974 7965 7964 7962 ] final  -11.37 input  175.53 | X-H torsion
[ 8008 7997 7996 7995 ] final -168.26 input   59.86 | X-H torsion
[ 10167 10162 10161 10158 ] final   95.56 input  -65.29 | X-H torsion
[ 10718 10713 10712 10709 ] final   80.31 input   66.30 | X-H torsion
[ 10763 10752 10751 10750 ] final -156.16 input  -60.55 | X-H torsion
[ 11005 11000 10999 10996 ] final   59.76 input  -57.11 | X-H torsion

> <Gold.Protein.ActiveResidues>
 VAL166  LYS551  ARG553  GLY616  TRP617  ASP618  TYR619  PRO620  LYS621  CYS622 
 ASP623  PHE694  ASN695  SER759  ASP760  ASP761  ALA762  ILE779  LEU786  VAL792 
 PHE793  MET794  SER795  GLU796  ALA797  LYS798  CYS799  TRP800  GLU811  SER814 

> <Gold.Protein.RotatedAtoms>
  150.6888  134.2335  159.4443 H   0  0  0  0  0  0  0  0  0  0  0  0  # atno 6907 bound_to 6896
  152.0284  134.9779  160.0581 H   0  0  0  0  0  0  0  0  0  0  0  0  # atno 6908 bound_to 6896
  152.1328  133.4383  159.4766 H   0  0  0  0  0  0  0  0  0  0  0  0  # atno 6909 bound_to 6896
  146.2189  140.2902  142.8368 H   0  0  0  0  0  0  0  0  0  0  0  0  # atno 7974 bound_to 7965
  155.8890  140.1021  157.1432 H   0  0  0  0  0  0  0  0  0  0  0  0  # atno 8008 bound_to 7997
  154.4013  140.1314  156.4356 H   0  0  0  0  0  0  0  0  0  0  0  0  # atno 8009 bound_to 7997
  155.7555  140.3464  155.5174 H   0  0  0  0  0  0  0  0  0  0  0  0  # atno 8010 bound_to 7997
  139.7977  144.6827  150.9807 H   0  0  0  0  0  0  0  0  0  0  0  0  # atno 10167 bound_to 10162
  157.6802  130.9953  150.2060 H   0  0  0  0  0  0  0  0  0  0  0  0  # atno 10718 bound_to 10713
  154.7733  135.3152  154.8144 H   0  0  0  0  0  0  0  0  0  0  0  0  # atno 10763 bound_to 10752
  153.8874  135.6829  153.4767 H   0  0  0  0  0  0  0  0  0  0  0  0  # atno 10764 bound_to 10752
  153.1351  135.4763  154.9345 H   0  0  0  0  0  0  0  0  0  0  0  0  # atno 10765 bound_to 10752
  140.0280  134.6054  155.9546 H   0  0  0  0  0  0  0  0  0  0  0  0  # atno 11005 bound_to 11000
  144.9133  140.7782  143.5794 LP  0  0  0  0  0  0  0  0  0  0  0  0  # atno 17320 bound_to 7965
  145.2834  139.1910  143.4779 LP  0  0  0  0  0  0  0  0  0  0  0  0  # atno 17321 bound_to 7965
  140.7820  143.4314  151.0688 LP  0  0  0  0  0  0  0  0  0  0  0  0  # atno 17342 bound_to 10162
  139.7988  143.8113  152.3160 LP  0  0  0  0  0  0  0  0  0  0  0  0  # atno 17343 bound_to 10162
  156.2741  130.3725  149.8002 LP  0  0  0  0  0  0  0  0  0  0  0  0  # atno 17370 bound_to 10713
  156.5710  130.8424  151.3356 LP  0  0  0  0  0  0  0  0  0  0  0  0  # atno 17371 bound_to 10713
  141.1814  133.6547  156.5037 LP  0  0  0  0  0  0  0  0  0  0  0  0  # atno 17394 bound_to 11000
  140.4273  134.7133  157.4923 LP  0  0  0  0  0  0  0  0  0  0  0  0  # atno 17395 bound_to 11000

$$$$
