AV-unprocessed.smi:937|AV-procd|sdf|4209|dock6
  -GOLD-   22720 2113D 1   1.00000     0.00000
 Structure written by MMmdl.
 45 46  0  0  0  0  0  0  0  0  1 V2000
  153.1100  140.5236  159.4652 C   0  0  0  0  0  0  0  0  0  0  0  0
  152.3490  140.3080  158.1738 C   0  0  0  0  0  0  0  0  0  0  0  0
  151.2085  141.0817  157.8734 C   0  0  0  0  0  0  0  0  0  0  0  0
  150.5343  140.8396  156.6612 C   0  0  0  0  0  0  0  0  0  0  0  0
  151.0240  139.8370  155.7996 C   0  0  0  0  0  0  0  0  0  0  0  0
  150.3296  139.5365  154.4865 C   0  0  0  0  0  0  0  0  0  0  0  0
  148.8614  139.1307  154.6902 C   0  0  0  0  0  0  0  0  0  0  0  0
  148.5894  137.8165  154.1221 N   0  0  0  0  0  0  0  0  0  0  0  0
  148.0031  136.8011  154.7785 C   0  0  0  0  0  0  0  0  0  0  0  0
  147.6433  136.8717  155.9522 O   0  0  0  0  0  0  0  0  0  0  0  0
  147.8307  135.6825  154.0520 N   0  0  0  0  0  0  0  0  0  0  0  0
  147.2306  134.4082  154.4600 C   0  0  2  0  0  0  0  0  0  0  0  0
  148.2879  133.2871  154.5580 C   0  0  0  0  0  0  0  0  0  0  0  0
  148.8278  132.8804  153.1775 C   0  0  0  0  0  0  0  0  0  0  0  0
  147.6876  132.4798  152.2284 C   0  0  0  0  0  0  0  0  0  0  0  0
  146.6411  133.6049  152.0865 C   0  0  1  0  0  0  0  0  0  0  0  0
  145.5001  133.2161  151.1237 C   0  0  0  0  0  0  0  0  0  0  0  0
  144.6719  134.2427  150.9287 F   0  0  0  0  0  0  0  0  0  0  0  0
  146.0041  132.8398  149.9484 F   0  0  0  0  0  0  0  0  0  0  0  0
  144.8080  132.1932  151.6251 F   0  0  0  0  0  0  0  0  0  0  0  0
  146.1077  134.0152  153.4789 C   0  0  0  0  0  0  0  0  0  0  0  0
  152.1714  139.1176  156.1950 C   0  0  0  0  0  0  0  0  0  0  0  0
  152.8239  139.3424  157.3559 N   0  0  0  0  0  0  0  0  0  0  0  0
  152.9714  141.5409  159.8323 H   0  0  0  0  0  0  0  0  0  0  0  0
  154.1785  140.3606  159.3203 H   0  0  0  0  0  0  0  0  0  0  0  0
  152.7564  139.8317  160.2297 H   0  0  0  0  0  0  0  0  0  0  0  0
  150.8564  141.8427  158.5544 H   0  0  0  0  0  0  0  0  0  0  0  0
  149.6563  141.4126  156.4002 H   0  0  0  0  0  0  0  0  0  0  0  0
  150.3947  140.4174  153.8462 H   0  0  0  0  0  0  0  0  0  0  0  0
  150.8702  138.7415  153.9708 H   0  0  0  0  0  0  0  0  0  0  0  0
  148.6281  139.0964  155.7548 H   0  0  0  0  0  0  0  0  0  0  0  0
  148.1936  139.8733  154.2494 H   0  0  0  0  0  0  0  0  0  0  0  0
  148.8559  137.6699  153.1595 H   0  0  0  0  0  0  0  0  0  0  0  0
  148.1709  135.7160  153.1017 H   0  0  0  0  0  0  0  0  0  0  0  0
  146.7698  134.5419  155.4400 H   0  0  0  0  0  0  0  0  0  0  0  0
  149.1120  133.5877  155.2058 H   0  0  0  0  0  0  0  0  0  0  0  0
  147.8377  132.4143  155.0324 H   0  0  0  0  0  0  0  0  0  0  0  0
  149.3941  133.7055  152.7439 H   0  0  0  0  0  0  0  0  0  0  0  0
  149.5279  132.0515  153.2847 H   0  0  0  0  0  0  0  0  0  0  0  0
  148.1033  132.2286  151.2522 H   0  0  0  0  0  0  0  0  0  0  0  0
  147.2080  131.5736  152.6004 H   0  0  0  0  0  0  0  0  0  0  0  0
  147.1446  134.4700  151.6519 H   0  0  0  0  0  0  0  0  0  0  0  0
  145.5436  133.1843  153.9046 H   0  0  0  0  0  0  0  0  0  0  0  0
  145.3999  134.8394  153.3835 H   0  0  0  0  0  0  0  0  0  0  0  0
  152.5760  138.3388  155.5653 H   0  0  0  0  0  0  0  0  0  0  0  0
  1  2  1  0  0  0  0
  1 24  1  0  0  0  0
  1 25  1  0  0  0  0
  1 26  1  0  0  0  0
  2 23  1  0  0  0  0
  2  3  2  0  0  0  0
  3  4  1  0  0  0  0
  3 27  1  0  0  0  0
  4  5  2  0  0  0  0
  4 28  1  0  0  0  0
  5  6  1  0  0  0  0
  5 22  1  0  0  0  0
  6  7  1  0  0  0  0
  6 29  1  0  0  0  0
  6 30  1  0  0  0  0
  7  8  1  0  0  0  0
  7 31  1  0  0  0  0
  7 32  1  0  0  0  0
  8  9  1  0  0  0  0
  8 33  1  0  0  0  0
  9 10  2  0  0  0  0
  9 11  1  0  0  0  0
 11 12  1  0  0  0  0
 11 34  1  0  0  0  0
 12 21  1  0  0  0  0
 12 13  1  0  0  0  0
 12 35  1  0  0  0  0
 13 14  1  0  0  0  0
 13 36  1  0  0  0  0
 13 37  1  0  0  0  0
 14 15  1  0  0  0  0
 14 38  1  0  0  0  0
 14 39  1  0  0  0  0
 15 16  1  0  0  0  0
 15 40  1  0  0  0  0
 15 41  1  0  0  0  0
 16 17  1  0  0  0  0
 16 21  1  0  0  0  0
 16 42  1  0  0  0  0
 17 18  1  0  0  0  0
 17 19  1  0  0  0  0
 17 20  1  0  0  0  0
 21 43  1  0  0  0  0
 21 44  1  0  0  0  0
 22 23  2  0  0  0  0
 22 45  1  0  0  0  0
M  END
> <s_m_source_file>
AV-unprocessed.smi

> <i_m_source_file_index>
937

> <i_lp_mmshare_version>
43012

> <i_f3d_flags>
0

> <s_epik_input>
W0NIM11jMVtjSF1bY0hdYyhbY0hdbjEpW0NIMl1bQ0gyXVtOSF1DKD1PKVtOSF1bQ0BASF0yW0NIMl1bQ0gyXVtDSDJdW0NAQEhdKEMoRikoRilGKVtDSDJdMg==

> <s_epik_cmdline>
J2VwaWtfcHl0aG9uJywgJy1waCcsICc3LjAnLCAnLXRuJywgJzgnLCAnLW1hJywgJzIwMCcsICctbWV0YWxfYmluZGluZycsICctaW1hZScsICc8aW5maWxlLm1hZT4nLCAnLW9tYWUnLCAnPG91dGZpbGUubWFlPic=

> <r_epik_Ionization_Penalty>
0.0563445

> <r_epik_Ionization_Penalty_Charging>
0

> <r_epik_Ionization_Penalty_Neutral>
0.0563445

> <r_epik_State_Penalty>
0.0485409

> <r_epik_Charging_Adjusted_Penalty>
0.0485409

> <i_epik_Tot_Q>
0

> <i_epik_Tot_abs_Q>
0

> <r_epik_Metal_State_Penalty>
0.0443056

> <b_epik_Metal_Only>
0

> <s_lp_Force_Field>
OPLS_2005

> <r_lp_Energy>
16.8022

> <b_lp_Chiralities_Consistent>
1

> <s_lp_Variant>
AV-unprocessed.smi:937-1

> <Gold.Version>
5.8.1

> <Gold.Id.Protein>
6NUR|6NUR_protein|mol2

> <Gold.PLP.Fitness>
45.8075

> <Gold.PLP.PLP>
-38.3169

> <Gold.PLP.part.hbond>
-3.0000

> <Gold.PLP.part.metal>
0.0000

> <Gold.PLP.part.buried>
-0.9923

> <Gold.PLP.part.nonpolar>
-34.7752

> <Gold.PLP.part.repulsive>
0.0279

> <Gold.PLP.ligand.clash>
0.0000

> <Gold.PLP.ligand.torsion>
0.4939

> <Gold.PLP.Chemscore.Hbond>
2.8160

> <Gold.PLP.Chemscore.CHOScore>
0.0000

> <Gold.PLP.Chemscore.Metal>
0.0000

> <Gold.Chemscore.Hbonds>
donor molecule, donor type, donor heavy atom, donor atom, acceptor molecule, acceptor atom, score
      L1  H     8    33       P1  7948  0.82
      L1  H    11    34       P1  7948  1.00
      P1  H  7997  8008       L1    23  1.00

> <Gold.PLP.Chemscore.Internal.Correction>
0.0304

> <Gold.Rescore>
     Score         DG    S(hbond)    S(metal)    S(lipo)     H(rot)  DE(clash)    DE(int)     intcor
     19.10     -19.80       2.59        0.00      83.12       1.58       0.19       0.50       ----

> <Gold.Chemscore.Fitness>
19.1018

> <Gold.Chemscore.DG>
-19.7979

> <Gold.Chemscore.ZeroCoef>
-5.4800

> <Gold.Chemscore.Hbond>
2.5899

> <Gold.Chemscore.Metal>
0.0000

> <Gold.Chemscore.Lipo>
83.1207

> <Gold.Chemscore.Internal_Hbond>
0.0000

> <Gold.Chemscore.DEClash>
0.1942

> <Gold.Chemscore.DEInternal>
0.5019

> <Gold.Chemscore.Rot>
1.5849

> <Gold.Chemscore.Internal.Correction>
   9.000000E+99

> <Gold.Chemscore.Hbonds>
donor molecule, donor type, donor heavy atom, donor atom, acceptor molecule, acceptor atom, score
      L1  H     8    33       P1  7948  0.81
      L1  H    11    34       P1  7948  0.94
      P1  H  7997  8008       L1    23  0.18

> <Gold.Chemscore.Hbond.Weighted>
-8.6502

> <Gold.Chemscore.Metal.Weighted>
-0.0000

> <Gold.Chemscore.Lipo.Weighted>
-9.7251

> <Gold.Chemscore.Internal_Hbond.Weighted>
0.0000

> <Gold.Chemscore.DEClash.Weighted>
0.1942

> <Gold.Chemscore.DEInternal.Weighted>
0.5019

> <Gold.Chemscore.Rot.Weighted>
4.0574

> <Gold.Chemscore.Internal.Correction.Weighted>
   9.000000E+99

> <Gold.Protein.RotatedTorsions>
[ 6907 6896 6895 6894 ] final  139.44 input  -60.11 | X-H torsion
[ 7974 7965 7964 7962 ] final -127.09 input  175.53 | X-H torsion
[ 8008 7997 7996 7995 ] final  -78.29 input   59.86 | X-H torsion
[ 10167 10162 10161 10158 ] final -150.39 input  -65.29 | X-H torsion
[ 10718 10713 10712 10709 ] final -141.85 input   66.30 | X-H torsion
[ 10763 10752 10751 10750 ] final -141.69 input  -60.55 | X-H torsion
[ 11005 11000 10999 10996 ] final  129.93 input  -57.11 | X-H torsion

> <Gold.Protein.ActiveResidues>
 VAL166  LYS551  ARG553  GLY616  TRP617  ASP618  TYR619  PRO620  LYS621  CYS622 
 ASP623  PHE694  ASN695  SER759  ASP760  ASP761  ALA762  ILE779  LEU786  VAL792 
 PHE793  MET794  SER795  GLU796  ALA797  LYS798  CYS799  TRP800  GLU811  SER814 

> <Gold.Protein.RotatedAtoms>
  152.2549  133.5247  159.5347 H   0  0  0  0  0  0  0  0  0  0  0  0  # atno 6907 bound_to 6896
  150.7106  134.0909  159.3940 H   0  0  0  0  0  0  0  0  0  0  0  0  # atno 6908 bound_to 6896
  151.8828  135.0447  160.0541 H   0  0  0  0  0  0  0  0  0  0  0  0  # atno 6909 bound_to 6896
  144.9806  140.7636  143.4614 H   0  0  0  0  0  0  0  0  0  0  0  0  # atno 7974 bound_to 7965
  154.5675  140.0696  156.8914 H   0  0  0  0  0  0  0  0  0  0  0  0  # atno 8008 bound_to 7997
  155.2696  140.3364  155.4248 H   0  0  0  0  0  0  0  0  0  0  0  0  # atno 8009 bound_to 7997
  156.2092  140.1752  156.7718 H   0  0  0  0  0  0  0  0  0  0  0  0  # atno 8010 bound_to 7997
  139.7358  143.8738  152.2548 H   0  0  0  0  0  0  0  0  0  0  0  0  # atno 10167 bound_to 10162
  156.3389  130.7627  151.1759 H   0  0  0  0  0  0  0  0  0  0  0  0  # atno 10718 bound_to 10713
  154.8536  135.3517  154.5908 H   0  0  0  0  0  0  0  0  0  0  0  0  # atno 10763 bound_to 10752
  153.6517  135.6994  153.5211 H   0  0  0  0  0  0  0  0  0  0  0  0  # atno 10764 bound_to 10752
  153.2888  135.4241  155.1106 H   0  0  0  0  0  0  0  0  0  0  0  0  # atno 10765 bound_to 10752
  139.9643  134.9594  156.9220 H   0  0  0  0  0  0  0  0  0  0  0  0  # atno 11005 bound_to 11000
  145.2426  139.2066  143.4984 LP  0  0  0  0  0  0  0  0  0  0  0  0  # atno 17320 bound_to 7965
  146.3407  140.2324  142.8593 LP  0  0  0  0  0  0  0  0  0  0  0  0  # atno 17321 bound_to 7965
  139.8674  144.7086  150.9028 LP  0  0  0  0  0  0  0  0  0  0  0  0  # atno 17342 bound_to 10162
  140.7778  143.3767  151.1551 LP  0  0  0  0  0  0  0  0  0  0  0  0  # atno 17343 bound_to 10162
  157.7443  131.0460  150.4871 LP  0  0  0  0  0  0  0  0  0  0  0  0  # atno 17370 bound_to 10713
  156.5049  130.4125  149.6333 LP  0  0  0  0  0  0  0  0  0  0  0  0  # atno 17371 bound_to 10713
  140.5431  134.0701  155.7347 LP  0  0  0  0  0  0  0  0  0  0  0  0  # atno 17394 bound_to 11000
  141.1322  133.9283  157.2511 LP  0  0  0  0  0  0  0  0  0  0  0  0  # atno 17395 bound_to 11000

$$$$
