AV-unprocessed.smi:569|AV-procd|sdf|2960|dock9
  -GOLD-   2262023463D 1   1.00000     0.00000
 Structure written by MMmdl.
 37 38  0  0  0  0  0  0  0  0  1 V2000
  153.2366  142.2454  161.0691 C   0  0  0  0  0  0  0  0  0  0  0  0
  152.5522  142.7300  159.8373 C   0  0  0  0  0  0  0  0  0  0  0  0
  152.1929  141.9302  158.8303 N   0  0  0  0  0  0  0  0  0  0  0  0
  151.5662  142.6215  157.7884 C   0  0  0  0  0  0  0  0  0  0  0  0
  151.0778  141.8755  156.5792 C   0  0  0  0  0  0  0  0  0  0  0  0
  149.5969  141.5303  156.7424 C   0  0  0  0  0  0  0  0  0  0  0  0
  149.2131  140.8937  157.7233 O   0  0  0  0  0  0  0  0  0  0  0  0
  148.7760  141.9737  155.7779 N   0  0  0  0  0  0  0  0  0  0  0  0
  147.3193  141.8675  155.7768 C   0  0  2  0  0  0  0  0  0  0  0  0
  146.8985  140.4231  156.1073 C   0  0  0  0  0  0  0  0  0  0  0  0
  147.2616  139.4397  154.9789 C   0  0  0  0  0  0  0  0  0  0  0  0
  146.6723  139.8801  153.6246 C   0  0  2  0  0  0  0  0  0  0  0  0
  147.0588  138.9059  152.5028 C   0  0  0  0  0  0  0  0  0  0  0  0
  147.1007  141.3217  153.2882 C   0  0  0  0  0  0  0  0  0  0  0  0
  146.7318  142.3013  154.4168 C   0  0  0  0  0  0  0  0  0  0  0  0
  151.4678  143.9721  158.0207 C   0  0  0  0  0  0  0  0  0  0  0  0
  152.1411  144.4184  159.5636 S   0  0  0  0  0  0  0  0  0  0  0  0
  153.0570  141.1794  161.2118 H   0  0  0  0  0  0  0  0  0  0  0  0
  152.8622  142.7811  161.9416 H   0  0  0  0  0  0  0  0  0  0  0  0
  154.3106  142.4128  160.9883 H   0  0  0  0  0  0  0  0  0  0  0  0
  151.2105  142.4738  155.6771 H   0  0  0  0  0  0  0  0  0  0  0  0
  151.6501  140.9588  156.4287 H   0  0  0  0  0  0  0  0  0  0  0  0
  149.1895  142.4792  155.0081 H   0  0  0  0  0  0  0  0  0  0  0  0
  146.9280  142.5232  156.5567 H   0  0  0  0  0  0  0  0  0  0  0  0
  147.3563  140.1020  157.0438 H   0  0  0  0  0  0  0  0  0  0  0  0
  145.8207  140.3937  156.2720 H   0  0  0  0  0  0  0  0  0  0  0  0
  148.3463  139.3565  154.8991 H   0  0  0  0  0  0  0  0  0  0  0  0
  146.8986  138.4440  155.2357 H   0  0  0  0  0  0  0  0  0  0  0  0
  145.5849  139.8658  153.7122 H   0  0  0  0  0  0  0  0  0  0  0  0
  148.1397  138.8731  152.3616 H   0  0  0  0  0  0  0  0  0  0  0  0
  146.6079  139.2005  151.5548 H   0  0  0  0  0  0  0  0  0  0  0  0
  146.7211  137.8939  152.7275 H   0  0  0  0  0  0  0  0  0  0  0  0
  148.1763  141.3567  153.1084 H   0  0  0  0  0  0  0  0  0  0  0  0
  146.6266  141.6434  152.3604 H   0  0  0  0  0  0  0  0  0  0  0  0
  145.6457  142.3569  154.4987 H   0  0  0  0  0  0  0  0  0  0  0  0
  147.0644  143.3074  154.1589 H   0  0  0  0  0  0  0  0  0  0  0  0
  151.0306  144.7271  157.3845 H   0  0  0  0  0  0  0  0  0  0  0  0
  1  2  1  0  0  0  0
  1 18  1  0  0  0  0
  1 19  1  0  0  0  0
  1 20  1  0  0  0  0
  2 17  1  0  0  0  0
  2  3  2  0  0  0  0
  3  4  1  0  0  0  0
  4  5  1  0  0  0  0
  4 16  2  0  0  0  0
  5  6  1  0  0  0  0
  5 21  1  0  0  0  0
  5 22  1  0  0  0  0
  6  7  2  0  0  0  0
  6  8  1  0  0  0  0
  8  9  1  0  0  0  0
  8 23  1  0  0  0  0
  9 15  1  0  0  0  0
  9 10  1  0  0  0  0
  9 24  1  0  0  0  0
 10 11  1  0  0  0  0
 10 25  1  0  0  0  0
 10 26  1  0  0  0  0
 11 12  1  0  0  0  0
 11 27  1  0  0  0  0
 11 28  1  0  0  0  0
 12 13  1  0  0  0  0
 12 14  1  0  0  0  0
 12 29  1  0  0  0  0
 13 30  1  0  0  0  0
 13 31  1  0  0  0  0
 13 32  1  0  0  0  0
 14 15  1  0  0  0  0
 14 33  1  0  0  0  0
 14 34  1  0  0  0  0
 15 35  1  0  0  0  0
 15 36  1  0  0  0  0
 16 17  1  0  0  0  0
 16 37  1  0  0  0  0
M  END
> <s_m_source_file>
AV-unprocessed.smi

> <i_m_source_file_index>
569

> <i_lp_mmshare_version>
43012

> <i_f3d_flags>
0

> <s_epik_input>
W0NIM11jMW5jKFtjSF1zMSlbQ0gyXUMoPU8pW05IXVtDQEBIXTJbQ0gyXVtDSDJdW0NAQEhdKFtDSDNdKVtDSDJdW0NIMl0y

> <s_epik_cmdline>
J2VwaWtfcHl0aG9uJywgJy1waCcsICc3LjAnLCAnLXRuJywgJzgnLCAnLW1hJywgJzIwMCcsICctbWV0YWxfYmluZGluZycsICctaW1hZScsICc8aW5maWxlLm1hZT4nLCAnLW9tYWUnLCAnPG91dGZpbGUubWFlPic=

> <r_lp_tautomer_probability>
1

> <r_epik_Ionization_Penalty>
6.63234e-05

> <r_epik_Ionization_Penalty_Charging>
0

> <r_epik_Ionization_Penalty_Neutral>
6.63234e-05

> <r_epik_State_Penalty>
-0

> <r_epik_Charging_Adjusted_Penalty>
0

> <i_epik_Tot_Q>
0

> <i_epik_Tot_abs_Q>
0

> <r_epik_Metal_State_Penalty>
-0

> <b_epik_Metal_Only>
0

> <s_lp_Force_Field>
OPLS_2005

> <r_lp_Energy>
5.61603

> <b_lp_Chiralities_Consistent>
1

> <s_lp_Variant>
AV-unprocessed.smi:569-2

> <Gold.Version>
5.8.1

> <Gold.Id.Protein>
6NUR|6NUR_protein|mol2

> <Gold.PLP.Fitness>
37.3008

> <Gold.PLP.PLP>
-35.1877

> <Gold.PLP.part.hbond>
-1.0000

> <Gold.PLP.part.metal>
0.0000

> <Gold.PLP.part.buried>
-3.3539

> <Gold.PLP.part.nonpolar>
-30.7741

> <Gold.PLP.part.repulsive>
0.1514

> <Gold.PLP.ligand.clash>
0.0000

> <Gold.PLP.ligand.torsion>
0.4454

> <Gold.PLP.Chemscore.Hbond>
0.0000

> <Gold.PLP.Chemscore.CHOScore>
1.0000

> <Gold.PLP.Chemscore.Metal>
0.0000

> <Gold.Chemscore.Hbonds>
donor molecule, donor type, donor heavy atom, donor atom, acceptor molecule, acceptor atom, score
      L1  H     8    23       P1  8028  0.01
      L1  C    16    37       P1  8028  0.55

> <Gold.PLP.Chemscore.Internal.Correction>
0.0039

> <Gold.Rescore>
     Score         DG    S(hbond)    S(metal)    S(lipo)     H(rot)  DE(clash)    DE(int)     intcor
     12.74     -14.53       0.03        0.00     104.25       1.26       0.10       1.69       ----

> <Gold.Chemscore.Fitness>
12.7396

> <Gold.Chemscore.DG>
-14.5350

> <Gold.Chemscore.ZeroCoef>
-5.4800

> <Gold.Chemscore.Hbond>
0.0266

> <Gold.Chemscore.Metal>
0.0000

> <Gold.Chemscore.Lipo>
104.2458

> <Gold.Chemscore.Internal_Hbond>
0.0000

> <Gold.Chemscore.DEClash>
0.1013

> <Gold.Chemscore.DEInternal>
1.6941

> <Gold.Chemscore.Rot>
1.2620

> <Gold.Chemscore.Internal.Correction>
   9.000000E+99

> <Gold.Chemscore.Hbonds>
donor molecule, donor type, donor heavy atom, donor atom, acceptor molecule, acceptor atom, score
      L1  H     8    23       P1  8028  0.02

> <Gold.Chemscore.Hbond.Weighted>
-0.0888

> <Gold.Chemscore.Metal.Weighted>
-0.0000

> <Gold.Chemscore.Lipo.Weighted>
-12.1968

> <Gold.Chemscore.Internal_Hbond.Weighted>
0.0000

> <Gold.Chemscore.DEClash.Weighted>
0.1013

> <Gold.Chemscore.DEInternal.Weighted>
1.6941

> <Gold.Chemscore.Rot.Weighted>
3.2306

> <Gold.Chemscore.Internal.Correction.Weighted>
   9.000000E+99

> <Gold.Protein.RotatedTorsions>
[ 6907 6896 6895 6894 ] final  -93.35 input  -60.11 | X-H torsion
[ 7974 7965 7964 7962 ] final  170.69 input  175.53 | X-H torsion
[ 8008 7997 7996 7995 ] final  152.32 input   59.86 | X-H torsion
[ 10167 10162 10161 10158 ] final  -76.39 input  -65.29 | X-H torsion
[ 10718 10713 10712 10709 ] final   15.41 input   66.30 | X-H torsion
[ 10763 10752 10751 10750 ] final -152.64 input  -60.55 | X-H torsion
[ 11005 11000 10999 10996 ] final   45.93 input  -57.11 | X-H torsion

> <Gold.Protein.ActiveResidues>
 VAL166  LYS551  ARG553  GLY616  TRP617  ASP618  TYR619  PRO620  LYS621  CYS622 
 ASP623  PHE694  ASN695  SER759  ASP760  ASP761  ALA762  ILE779  LEU786  VAL792 
 PHE793  MET794  SER795  GLU796  ALA797  LYS798  CYS799  TRP800  GLU811  SER814 

> <Gold.Protein.RotatedAtoms>
  150.6921  134.1980  159.4310 H   0  0  0  0  0  0  0  0  0  0  0  0  # atno 6907 bound_to 6896
  151.9948  134.9958  160.0572 H   0  0  0  0  0  0  0  0  0  0  0  0  # atno 6908 bound_to 6896
  152.1634  133.4561  159.4909 H   0  0  0  0  0  0  0  0  0  0  0  0  # atno 6909 bound_to 6896
  144.7316  139.9239  143.6421 H   0  0  0  0  0  0  0  0  0  0  0  0  # atno 7974 bound_to 7965
  156.2634  140.2024  156.6315 H   0  0  0  0  0  0  0  0  0  0  0  0  # atno 8008 bound_to 7997
  154.6679  140.0553  157.0158 H   0  0  0  0  0  0  0  0  0  0  0  0  # atno 8009 bound_to 7997
  155.1179  140.3222  155.4507 H   0  0  0  0  0  0  0  0  0  0  0  0  # atno 8010 bound_to 7997
  140.4861  143.2391  151.7981 H   0  0  0  0  0  0  0  0  0  0  0  0  # atno 10167 bound_to 10162
  157.0531  130.6278  149.5771 H   0  0  0  0  0  0  0  0  0  0  0  0  # atno 10718 bound_to 10713
  154.7981  135.3231  154.7618 H   0  0  0  0  0  0  0  0  0  0  0  0  # atno 10763 bound_to 10752
  153.8292  135.6881  153.4821 H   0  0  0  0  0  0  0  0  0  0  0  0  # atno 10764 bound_to 10752
  153.1683  135.4633  154.9809 H   0  0  0  0  0  0  0  0  0  0  0  0  # atno 10765 bound_to 10752
  140.1415  134.4577  155.8446 H   0  0  0  0  0  0  0  0  0  0  0  0  # atno 11005 bound_to 11000
  146.0909  139.3899  143.0406 LP  0  0  0  0  0  0  0  0  0  0  0  0  # atno 17320 bound_to 7965
  145.7712  140.9895  143.1148 LP  0  0  0  0  0  0  0  0  0  0  0  0  # atno 17321 bound_to 7965
  139.4842  144.4710  151.9425 LP  0  0  0  0  0  0  0  0  0  0  0  0  # atno 17342 bound_to 10162
  140.3796  144.2753  150.5910 LP  0  0  0  0  0  0  0  0  0  0  0  0  # atno 17343 bound_to 10162
  156.0001  130.5079  150.7632 LP  0  0  0  0  0  0  0  0  0  0  0  0  # atno 17370 bound_to 10713
  157.5014  131.0919  151.0309 LP  0  0  0  0  0  0  0  0  0  0  0  0  # atno 17371 bound_to 10713
  141.2186  133.6835  156.7256 LP  0  0  0  0  0  0  0  0  0  0  0  0  # atno 17394 bound_to 11000
  140.2716  134.8388  157.3852 LP  0  0  0  0  0  0  0  0  0  0  0  0  # atno 17395 bound_to 11000

$$$$
