AV-unprocessed.smi:3031|AV-procd|sdf|11544|dock4
  -GOLD-   2272016493D 1   1.00000     0.00000
 Structure written by MMmdl.
 47 48  0  0  0  0  0  0  0  0  2 V2000
  150.2767  143.1371  158.5078 C   0  0  0  0  0  0  0  0  0  0  0  0
  150.0229  142.2235  157.3436 C   0  0  0  0  0  0  0  0  0  0  0  0
  150.9429  141.3369  156.7148 C   0  0  0  0  0  0  0  0  0  0  0  0
  150.4071  140.6727  155.7038 N   0  0  0  0  0  0  0  0  0  0  0  0
  149.1304  141.1072  155.6536 N   0  0  0  0  0  0  0  0  0  0  0  0
  148.2329  140.5900  154.6373 C   0  0  0  0  0  0  0  0  0  0  0  0
  148.4808  139.1010  154.3076 C   0  0  1  0  0  0  0  0  0  0  0  0
  147.9386  138.2047  155.4291 C   0  0  0  0  0  0  0  0  0  0  0  0
  147.8414  138.7213  153.0269 N   0  3  0  0  0  0  0  0  0  0  0  0
  146.3864  138.4625  153.0962 C   0  0  0  0  0  0  0  0  0  0  0  0
  145.9728  137.3595  152.1080 C   0  0  1  0  0  0  0  0  0  0  0  0
  146.6024  137.6404  150.8718 O   0  0  0  0  0  0  0  0  0  0  0  0
  146.4202  135.9598  152.5820 C   0  0  0  0  0  0  0  0  0  0  0  0
  146.3352  134.9036  151.5738 N   0  0  0  0  0  0  0  0  0  0  0  0
  144.9561  134.4595  151.3970 C   0  0  0  0  0  0  0  0  0  0  0  0
  144.8387  133.3496  150.3382 C   0  0  0  0  0  0  0  0  0  0  0  0
  145.6765  132.2571  150.7005 O   0  0  0  0  0  0  0  0  0  0  0  0
  147.0421  132.6354  150.8382 C   0  0  0  0  0  0  0  0  0  0  0  0
  147.1680  133.7464  151.8954 C   0  0  0  0  0  0  0  0  0  0  0  0
  148.8685  142.0374  156.6373 C   0  0  0  0  0  0  0  0  0  0  0  0
  150.5732  142.5808  159.3971 H   0  0  0  0  0  0  0  0  0  0  0  0
  149.3914  143.7162  158.7716 H   0  0  0  0  0  0  0  0  0  0  0  0
  151.0738  143.8491  158.2932 H   0  0  0  0  0  0  0  0  0  0  0  0
  151.9801  141.1607  156.9599 H   0  0  0  0  0  0  0  0  0  0  0  0
  147.2108  140.7304  154.9921 H   0  0  0  0  0  0  0  0  0  0  0  0
  148.3340  141.2015  153.7394 H   0  0  0  0  0  0  0  0  0  0  0  0
  149.5544  138.9169  154.2396 H   0  0  0  0  0  0  0  0  0  0  0  0
  148.4143  138.4380  156.3822 H   0  0  0  0  0  0  0  0  0  0  0  0
  148.1281  137.1517  155.2183 H   0  0  0  0  0  0  0  0  0  0  0  0
  146.8627  138.3311  155.5557 H   0  0  0  0  0  0  0  0  0  0  0  0
  147.9795  139.4757  152.3697 H   0  0  0  0  0  0  0  0  0  0  0  0
  146.0840  138.1883  154.1061 H   0  0  0  0  0  0  0  0  0  0  0  0
  145.8705  139.3933  152.8574 H   0  0  0  0  0  0  0  0  0  0  0  0
  144.8894  137.3830  151.9796 H   0  0  0  0  0  0  0  0  0  0  0  0
  145.9456  137.6438  150.1917 H   0  0  0  0  0  0  0  0  0  0  0  0
  147.4241  136.0018  153.0088 H   0  0  0  0  0  0  0  0  0  0  0  0
  145.7702  135.6712  153.4091 H   0  0  0  0  0  0  0  0  0  0  0  0
  144.5610  134.0929  152.3457 H   0  0  0  0  0  0  0  0  0  0  0  0
  144.3294  135.3025  151.1038 H   0  0  0  0  0  0  0  0  0  0  0  0
  143.8086  133.0007  150.2667 H   0  0  0  0  0  0  0  0  0  0  0  0
  145.1206  133.7235  149.3527 H   0  0  0  0  0  0  0  0  0  0  0  0
  147.6263  131.7636  151.1327 H   0  0  0  0  0  0  0  0  0  0  0  0
  147.4317  132.9722  149.8764 H   0  0  0  0  0  0  0  0  0  0  0  0
  148.2144  134.0424  151.9650 H   0  0  0  0  0  0  0  0  0  0  0  0
  146.8886  133.3491  152.8723 H   0  0  0  0  0  0  0  0  0  0  0  0
  147.8952  142.4932  156.7464 H   0  0  0  0  0  0  0  0  0  0  0  0
  148.3048  137.8987  152.6676 H   0  0  0  0  0  0  0  0  0  0  0  0
  1  2  1  0  0  0  0
  1 21  1  0  0  0  0
  1 22  1  0  0  0  0
  1 23  1  0  0  0  0
  2 20  2  0  0  0  0
  2  3  1  0  0  0  0
  3  4  2  0  0  0  0
  3 24  1  0  0  0  0
  4  5  1  0  0  0  0
  5  6  1  0  0  0  0
  5 20  1  0  0  0  0
  6  7  1  0  0  0  0
  6 25  1  0  0  0  0
  6 26  1  0  0  0  0
  7  8  1  0  0  0  0
  7  9  1  0  0  0  0
  7 27  1  0  0  0  0
  8 28  1  0  0  0  0
  8 29  1  0  0  0  0
  8 30  1  0  0  0  0
  9 10  1  0  0  0  0
  9 31  1  0  0  0  0
  9 47  1  0  0  0  0
 10 11  1  0  0  0  0
 10 32  1  0  0  0  0
 10 33  1  0  0  0  0
 11 12  1  0  0  0  0
 11 13  1  0  0  0  0
 11 34  1  0  0  0  0
 12 35  1  0  0  0  0
 13 14  1  0  0  0  0
 13 36  1  0  0  0  0
 13 37  1  0  0  0  0
 14 19  1  0  0  0  0
 14 15  1  0  0  0  0
 15 16  1  0  0  0  0
 15 38  1  0  0  0  0
 15 39  1  0  0  0  0
 16 17  1  0  0  0  0
 16 40  1  0  0  0  0
 16 41  1  0  0  0  0
 17 18  1  0  0  0  0
 18 19  1  0  0  0  0
 18 42  1  0  0  0  0
 18 43  1  0  0  0  0
 19 44  1  0  0  0  0
 19 45  1  0  0  0  0
 20 46  1  0  0  0  0
M  CHG  1   9   1
M  END
> <s_m_source_file>
AV-unprocessed.smi

> <i_m_source_file_index>
3031

> <i_lp_mmshare_version>
43012

> <i_f3d_flags>
0

> <s_epik_input>
W0NIM11jMVtjSF1ubihbY0hdMSlbQ0gyXVtDQEhdKFtDSDNdKVtOSF1bQ0gyXVtDQEhdKFtPSF0pW0NIMl1OMltDSDJdW0NIMl1PW0NIMl1bQ0gyXTI=

> <s_epik_cmdline>
J2VwaWtfcHl0aG9uJywgJy1waCcsICc3LjAnLCAnLXRuJywgJzgnLCAnLW1hJywgJzIwMCcsICctbWV0YWxfYmluZGluZycsICctaW1hZScsICc8aW5maWxlLm1hZT4nLCAnLW9tYWUnLCAnPG91dGZpbGUubWFlPic=

> <r_lp_tautomer_probability>
1

> <r_epik_Ionization_Penalty>
0.108564

> <r_epik_Ionization_Penalty_Charging>
0.01811

> <r_epik_Ionization_Penalty_Neutral>
0.0904541

> <r_epik_State_Penalty>
0.141043

> <r_epik_Charging_Adjusted_Penalty>
0.159153

> <i_epik_Tot_Q>
1

> <i_epik_Tot_abs_Q>
1

> <r_epik_Metal_State_Penalty>
0.141052

> <b_epik_Metal_Only>
0

> <s_lp_Force_Field>
OPLS_2005

> <r_lp_Energy>
31.0841

> <b_lp_Chiralities_Consistent>
1

> <s_lp_Variant>
AV-unprocessed.smi:3031-4

> <Gold.Version>
5.8.1

> <Gold.Id.Protein>
6NUR|6NUR_protein|mol2

> <Gold.PLP.Fitness>
52.5186

> <Gold.PLP.PLP>
-35.2356

> <Gold.PLP.part.hbond>
-5.8548

> <Gold.PLP.part.metal>
0.0000

> <Gold.PLP.part.buried>
-2.6071

> <Gold.PLP.part.nonpolar>
-27.8716

> <Gold.PLP.part.repulsive>
0.4116

> <Gold.PLP.ligand.clash>
0.0000

> <Gold.PLP.ligand.torsion>
1.1811

> <Gold.PLP.Chemscore.Hbond>
5.7120

> <Gold.PLP.Chemscore.CHOScore>
0.7487

> <Gold.PLP.Chemscore.Metal>
0.0000

> <Gold.Chemscore.Hbonds>
donor molecule, donor type, donor heavy atom, donor atom, acceptor molecule, acceptor atom, score
      L1  H     9    31       P1  7957  0.58
      L1  H     9    47       P1  7948  2.00
      L1  H    12    35       P1 10171  0.26
      P1  H  7954  7966       L1    12  1.00
      L1  C    20    46       P1  8028  0.13

> <Gold.PLP.Chemscore.Internal.Correction>
0.2630

> <Gold.Rescore>
     Score         DG    S(hbond)    S(metal)    S(lipo)     H(rot)  DE(clash)    DE(int)     intcor
     19.28     -21.91       3.83        0.00      88.65       2.63       1.88       0.75       ----

> <Gold.Chemscore.Fitness>
19.2790

> <Gold.Chemscore.DG>
-21.9093

> <Gold.Chemscore.ZeroCoef>
-5.4800

> <Gold.Chemscore.Hbond>
3.8272

> <Gold.Chemscore.Metal>
0.0000

> <Gold.Chemscore.Lipo>
88.6457

> <Gold.Chemscore.Internal_Hbond>
0.0000

> <Gold.Chemscore.DEClash>
1.8793

> <Gold.Chemscore.DEInternal>
0.7510

> <Gold.Chemscore.Rot>
2.6270

> <Gold.Chemscore.Internal.Correction>
   9.000000E+99

> <Gold.Chemscore.Hbonds>
donor molecule, donor type, donor heavy atom, donor atom, acceptor molecule, acceptor atom, score
      L1  H     9    31       P1  7957  0.55
      L1  H     9    47       P1  7948  0.99
      L1  H    12    35       P1 10171  0.27
      P1  H  7954  7966       L1    12  0.30
      P1  H  7989  7998       L1     4  0.01

> <Gold.Chemscore.Hbond.Weighted>
-12.7829

> <Gold.Chemscore.Metal.Weighted>
-0.0000

> <Gold.Chemscore.Lipo.Weighted>
-10.3716

> <Gold.Chemscore.Internal_Hbond.Weighted>
0.0000

> <Gold.Chemscore.DEClash.Weighted>
1.8793

> <Gold.Chemscore.DEInternal.Weighted>
0.7510

> <Gold.Chemscore.Rot.Weighted>
6.7251

> <Gold.Chemscore.Internal.Correction.Weighted>
   9.000000E+99

> <Gold.Protein.RotatedTorsions>
[ 6907 6896 6895 6894 ] final  168.04 input  -60.11 | X-H torsion
[ 7974 7965 7964 7962 ] final   58.25 input  175.53 | X-H torsion
[ 8008 7997 7996 7995 ] final   35.95 input   59.86 | X-H torsion
[ 10167 10162 10161 10158 ] final  -89.59 input  -65.29 | X-H torsion
[ 10718 10713 10712 10709 ] final  -30.03 input   66.30 | X-H torsion
[ 10763 10752 10751 10750 ] final   54.85 input  -60.55 | X-H torsion
[ 11005 11000 10999 10996 ] final -101.71 input  -57.11 | X-H torsion

> <Gold.Protein.ActiveResidues>
 VAL166  LYS551  ARG553  GLY616  TRP617  ASP618  TYR619  PRO620  LYS621  CYS622 
 ASP623  PHE694  ASN695  SER759  ASP760  ASP761  ALA762  ILE779  LEU786  VAL792 
 PHE793  MET794  SER795  GLU796  ALA797  LYS798  CYS799  TRP800  GLU811  SER814 

> <Gold.Protein.RotatedAtoms>
  151.8538  133.3444  159.3681 H   0  0  0  0  0  0  0  0  0  0  0  0  # atno 6907 bound_to 6896
  150.7198  134.5273  159.5692 H   0  0  0  0  0  0  0  0  0  0  0  0  # atno 6908 bound_to 6896
  152.2772  134.7869  160.0454 H   0  0  0  0  0  0  0  0  0  0  0  0  # atno 6909 bound_to 6896
  145.9202  139.3723  143.0483 H   0  0  0  0  0  0  0  0  0  0  0  0  # atno 7974 bound_to 7965
  155.1794  140.3298  155.4378 H   0  0  0  0  0  0  0  0  0  0  0  0  # atno 8008 bound_to 7997
  156.2482  140.1929  156.6843 H   0  0  0  0  0  0  0  0  0  0  0  0  # atno 8009 bound_to 7997
  154.6282  140.0586  156.9685 H   0  0  0  0  0  0  0  0  0  0  0  0  # atno 8010 bound_to 7997
  140.3633  143.2831  151.9588 H   0  0  0  0  0  0  0  0  0  0  0  0  # atno 10167 bound_to 10162
  156.4050  130.4397  149.7294 H   0  0  0  0  0  0  0  0  0  0  0  0  # atno 10718 bound_to 10713
  152.9809  135.5730  154.4972 H   0  0  0  0  0  0  0  0  0  0  0  0  # atno 10763 bound_to 10752
  154.4497  135.2778  155.1792 H   0  0  0  0  0  0  0  0  0  0  0  0  # atno 10764 bound_to 10752
  154.3425  135.6226  153.5656 H   0  0  0  0  0  0  0  0  0  0  0  0  # atno 10765 bound_to 10752
  141.1220  133.8499  157.1266 H   0  0  0  0  0  0  0  0  0  0  0  0  # atno 11005 bound_to 11000
  145.8559  140.9502  143.0725 LP  0  0  0  0  0  0  0  0  0  0  0  0  # atno 17320 bound_to 7965
  144.6752  140.0468  143.7479 LP  0  0  0  0  0  0  0  0  0  0  0  0  # atno 17321 bound_to 7965
  139.4811  144.5973  151.7668 LP  0  0  0  0  0  0  0  0  0  0  0  0  # atno 17342 bound_to 10162
  140.5105  144.1032  150.5994 LP  0  0  0  0  0  0  0  0  0  0  0  0  # atno 17343 bound_to 10162
  156.4295  130.7808  151.2828 LP  0  0  0  0  0  0  0  0  0  0  0  0  # atno 17370 bound_to 10713
  157.7505  131.0158  150.3519 LP  0  0  0  0  0  0  0  0  0  0  0  0  # atno 17371 bound_to 10713
  140.0185  134.9957  157.0542 LP  0  0  0  0  0  0  0  0  0  0  0  0  # atno 17394 bound_to 11000
  140.4480  134.1612  155.7179 LP  0  0  0  0  0  0  0  0  0  0  0  0  # atno 17395 bound_to 11000

$$$$
