AV-unprocessed.smi:16|AV-procd|sdf|98|dock3
  -GOLD-   2262015243D 1   1.00000     0.00000
 Structure written by MMmdl.
 59 63  0  0  0  0  0  0  0  0  1 V2000
  152.4820  138.2536  154.2637 C   0  0  0  0  0  0  0  0  0  0  0  0
  151.3514  137.9785  155.2686 C   0  0  0  0  0  0  0  0  0  0  0  0
  150.2981  138.9899  155.1976 N   0  0  0  0  0  0  0  0  0  0  0  0
  150.8929  140.3201  155.3433 C   0  0  0  0  0  0  0  0  0  0  0  0
  149.7892  141.3883  155.4018 C   0  0  0  0  0  0  0  0  0  0  0  0
  148.9362  141.3534  154.1208 C   0  0  2  0  0  0  0  0  0  0  0  0
  147.8686  142.3046  154.1299 O   0  0  0  0  0  0  0  0  0  0  0  0
  146.7995  141.9941  155.0208 C   0  0  0  0  0  0  0  0  0  0  0  0
  146.2339  140.6046  154.6963 C   0  0  0  0  0  0  0  0  0  0  0  0
  147.2979  139.6112  154.7475 N   0  0  0  0  0  0  0  0  0  0  0  0
  146.8342  138.3446  154.6863 C   0  0  0  0  0  0  0  0  0  0  0  0
  146.7656  137.5861  155.8117 N   0  0  0  0  0  0  0  0  0  0  0  0
  146.2669  136.3476  155.7468 C   0  0  0  0  0  0  0  0  0  0  0  0
  145.7927  135.6920  154.6844 N   0  0  0  0  0  0  0  0  0  0  0  0
  145.8703  136.4532  153.5543 C   0  0  0  0  0  0  0  0  0  0  0  0
  146.3739  137.7801  153.4697 C   0  0  0  0  0  0  0  0  0  0  0  0
  146.2809  138.2472  152.1656 N   0  0  0  0  0  0  0  0  0  0  0  0
  145.7424  137.2526  151.5142 C   0  0  0  0  0  0  0  0  0  0  0  0
  145.4886  136.1260  152.2648 N   0  0  0  0  0  0  0  0  0  0  0  0
  144.8649  134.9184  151.8114 C   0  0  0  0  0  0  0  0  0  0  0  0
  145.0459  133.6000  152.5667 C   0  0  0  0  0  0  0  0  0  0  0  0
  144.9558  132.8311  151.2292 C   0  0  0  0  0  0  0  0  0  0  0  0
  145.9492  131.6694  151.0655 C   0  0  0  0  0  0  0  0  0  0  0  0
  147.2577  132.0602  151.4289 O   0  0  0  0  0  0  0  0  0  0  0  0
  143.5434  132.3490  150.8413 C   0  0  0  0  0  0  0  0  0  0  0  0
  143.4949  131.9208  149.4954 O   0  0  0  0  0  0  0  0  0  0  0  0
  145.3925  134.1663  150.5872 C   0  0  0  0  0  0  0  0  0  0  0  0
  148.4132  139.9265  153.8498 C   0  0  2  0  0  0  0  0  0  0  0  0
  149.5790  138.9057  153.9204 C   0  0  0  0  0  0  0  0  0  0  0  0
  149.5860  141.6356  153.2915 H   0  0  0  0  0  0  0  0  0  0  0  0
  148.0145  139.9062  152.8342 H   0  0  0  0  0  0  0  0  0  0  0  0
  153.2040  137.4371  154.2729 H   0  0  0  0  0  0  0  0  0  0  0  0
  153.0299  139.1678  154.4891 H   0  0  0  0  0  0  0  0  0  0  0  0
  152.0943  138.3353  153.2481 H   0  0  0  0  0  0  0  0  0  0  0  0
  150.9264  137.0042  155.0239 H   0  0  0  0  0  0  0  0  0  0  0  0
  151.7422  137.9021  156.2845 H   0  0  0  0  0  0  0  0  0  0  0  0
  151.4753  140.3630  156.2645 H   0  0  0  0  0  0  0  0  0  0  0  0
  151.5802  140.5209  154.5198 H   0  0  0  0  0  0  0  0  0  0  0  0
  149.1796  141.2096  156.2872 H   0  0  0  0  0  0  0  0  0  0  0  0
  150.2335  142.3762  155.5251 H   0  0  0  0  0  0  0  0  0  0  0  0
  147.1307  142.0464  156.0577 H   0  0  0  0  0  0  0  0  0  0  0  0
  146.0208  142.7484  154.9076 H   0  0  0  0  0  0  0  0  0  0  0  0
  145.4470  140.3481  155.4069 H   0  0  0  0  0  0  0  0  0  0  0  0
  145.7834  140.6103  153.7025 H   0  0  0  0  0  0  0  0  0  0  0  0
  146.2412  135.8047  156.6801 H   0  0  0  0  0  0  0  0  0  0  0  0
  145.5178  137.3146  150.4593 H   0  0  0  0  0  0  0  0  0  0  0  0
  143.8056  135.1534  151.6950 H   0  0  0  0  0  0  0  0  0  0  0  0
  146.0269  133.5233  153.0397 H   0  0  0  0  0  0  0  0  0  0  0  0
  144.2526  133.3810  153.2823 H   0  0  0  0  0  0  0  0  0  0  0  0
  145.6672  130.8271  151.6980 H   0  0  0  0  0  0  0  0  0  0  0  0
  145.9618  131.2916  150.0429 H   0  0  0  0  0  0  0  0  0  0  0  0
  147.8727  131.5818  150.8941 H   0  0  0  0  0  0  0  0  0  0  0  0
  143.2264  131.5142  151.4664 H   0  0  0  0  0  0  0  0  0  0  0  0
  142.8002  133.1331  150.9874 H   0  0  0  0  0  0  0  0  0  0  0  0
  143.3133  132.6701  148.9489 H   0  0  0  0  0  0  0  0  0  0  0  0
  144.8876  134.4126  149.6525 H   0  0  0  0  0  0  0  0  0  0  0  0
  146.4757  134.2508  150.4796 H   0  0  0  0  0  0  0  0  0  0  0  0
  150.2787  139.1051  153.1073 H   0  0  0  0  0  0  0  0  0  0  0  0
  149.2045  137.8981  153.7486 H   0  0  0  0  0  0  0  0  0  0  0  0
  1  2  1  0  0  0  0
  1 32  1  0  0  0  0
  1 33  1  0  0  0  0
  1 34  1  0  0  0  0
  2  3  1  0  0  0  0
  2 35  1  0  0  0  0
  2 36  1  0  0  0  0
  3 29  1  0  0  0  0
  3  4  1  0  0  0  0
  4  5  1  0  0  0  0
  4 37  1  0  0  0  0
  4 38  1  0  0  0  0
  5  6  1  0  0  0  0
  5 39  1  0  0  0  0
  5 40  1  0  0  0  0
  6 30  1  0  0  0  0
  6 28  1  0  0  0  0
  6  7  1  0  0  0  0
  7  8  1  0  0  0  0
  8  9  1  0  0  0  0
  8 41  1  0  0  0  0
  8 42  1  0  0  0  0
  9 10  1  0  0  0  0
  9 43  1  0  0  0  0
  9 44  1  0  0  0  0
 10 11  1  0  0  0  0
 10 28  1  0  0  0  0
 11 16  1  0  0  0  0
 11 12  2  0  0  0  0
 12 13  1  0  0  0  0
 13 14  2  0  0  0  0
 13 45  1  0  0  0  0
 14 15  1  0  0  0  0
 15 19  1  0  0  0  0
 15 16  2  0  0  0  0
 16 17  1  0  0  0  0
 17 18  2  0  0  0  0
 18 19  1  0  0  0  0
 18 46  1  0  0  0  0
 19 20  1  0  0  0  0
 20 27  1  0  0  0  0
 20 21  1  0  0  0  0
 20 47  1  0  0  0  0
 21 22  1  0  0  0  0
 21 48  1  0  0  0  0
 21 49  1  0  0  0  0
 22 23  1  0  0  0  0
 22 25  1  0  0  0  0
 22 27  1  0  0  0  0
 23 24  1  0  0  0  0
 23 50  1  0  0  0  0
 23 51  1  0  0  0  0
 24 52  1  0  0  0  0
 25 26  1  0  0  0  0
 25 53  1  0  0  0  0
 25 54  1  0  0  0  0
 26 55  1  0  0  0  0
 27 56  1  0  0  0  0
 27 57  1  0  0  0  0
 28 31  1  0  0  0  0
 28 29  1  0  0  0  0
 29 58  1  0  0  0  0
 29 59  1  0  0  0  0
M  END
> <s_m_source_file>
AV-unprocessed.smi

> <i_m_source_file_index>
16

> <i_lp_mmshare_version>
43012

> <i_f3d_flags>
0

> <s_epik_input>
W0NIM11bQ0gyXU4oW0NIMl1bQ0gyXTEpW0NIMl1bQ0BASF0oW0NAQEhdMTIpTihbQ0gyXVtDSDJdTzIpYyhuW2NIXW4zKWMoYzM0KW5bY0hdbjRbQ0hdKFtDSDJdNSlbQ0gyXUM1KFtDSDJdW09IXSlbQ0gyXVtPSF0=

> <s_epik_cmdline>
J2VwaWtfcHl0aG9uJywgJy1waCcsICc3LjAnLCAnLXRuJywgJzgnLCAnLW1hJywgJzIwMCcsICctbWV0YWxfYmluZGluZycsICctaW1hZScsICc8aW5maWxlLm1hZT4nLCAnLW9tYWUnLCAnPG91dGZpbGUubWFlPic=

> <r_lp_tautomer_probability>
1

> <r_epik_Ionization_Penalty>
2.27341

> <r_epik_Ionization_Penalty_Charging>
0

> <r_epik_Ionization_Penalty_Neutral>
2.27341

> <r_epik_State_Penalty>
2.41121

> <r_epik_Charging_Adjusted_Penalty>
2.41121

> <i_epik_Tot_Q>
0

> <i_epik_Tot_abs_Q>
0

> <r_epik_Metal_State_Penalty>
2.40177

> <b_epik_Metal_Only>
0

> <s_lp_Force_Field>
OPLS_2005

> <r_lp_Energy>
60.9337

> <b_lp_Chiralities_Consistent>
1

> <s_lp_Variant>
AV-unprocessed.smi:16-12

> <Gold.Version>
5.8.1

> <Gold.Id.Protein>
6NUR|6NUR_protein|mol2

> <Gold.PLP.Fitness>
48.4388

> <Gold.PLP.PLP>
-41.2864

> <Gold.PLP.part.hbond>
-3.5328

> <Gold.PLP.part.metal>
0.0000

> <Gold.PLP.part.buried>
-2.0803

> <Gold.PLP.part.nonpolar>
-37.6395

> <Gold.PLP.part.repulsive>
1.5286

> <Gold.PLP.ligand.clash>
0.0000

> <Gold.PLP.ligand.torsion>
0.7984

> <Gold.PLP.Chemscore.Hbond>
2.0000

> <Gold.PLP.Chemscore.CHOScore>
0.6911

> <Gold.PLP.Chemscore.Metal>
0.0000

> <Gold.Chemscore.Hbonds>
donor molecule, donor type, donor heavy atom, donor atom, acceptor molecule, acceptor atom, score
      L1  H    24    52       P1 10747  0.81
      P1  H 10785 10796       L1    26  1.00
      L1  C    18    46       P1 10171  0.79

> <Gold.PLP.Chemscore.Internal.Correction>
0.6757

> <Gold.Rescore>
     Score         DG    S(hbond)    S(metal)    S(lipo)     H(rot)  DE(clash)    DE(int)     intcor
     12.02     -15.04       1.93        0.00      98.35       3.28       1.44       1.58       ----

> <Gold.Chemscore.Fitness>
12.0154

> <Gold.Chemscore.DG>
-15.0359

> <Gold.Chemscore.ZeroCoef>
-5.4800

> <Gold.Chemscore.Hbond>
1.9282

> <Gold.Chemscore.Metal>
0.0000

> <Gold.Chemscore.Lipo>
98.3467

> <Gold.Chemscore.Internal_Hbond>
0.0000

> <Gold.Chemscore.DEClash>
1.4421

> <Gold.Chemscore.DEInternal>
1.5784

> <Gold.Chemscore.Rot>
3.2776

> <Gold.Chemscore.Internal.Correction>
   9.000000E+99

> <Gold.Chemscore.Hbonds>
donor molecule, donor type, donor heavy atom, donor atom, acceptor molecule, acceptor atom, score
      L1  H    24    52       P1 10747  0.80
      P1  H 10785 10796       L1    26  0.90

> <Gold.Chemscore.Hbond.Weighted>
-6.4401

> <Gold.Chemscore.Metal.Weighted>
-0.0000

> <Gold.Chemscore.Lipo.Weighted>
-11.5066

> <Gold.Chemscore.Internal_Hbond.Weighted>
0.0000

> <Gold.Chemscore.DEClash.Weighted>
1.4421

> <Gold.Chemscore.DEInternal.Weighted>
1.5784

> <Gold.Chemscore.Rot.Weighted>
8.3907

> <Gold.Chemscore.Internal.Correction.Weighted>
   9.000000E+99

> <Gold.Protein.RotatedTorsions>
[ 6907 6896 6895 6894 ] final    9.57 input  -60.11 | X-H torsion
[ 7974 7965 7964 7962 ] final    4.94 input  175.53 | X-H torsion
[ 8008 7997 7996 7995 ] final   38.50 input   59.86 | X-H torsion
[ 10167 10162 10161 10158 ] final  123.36 input  -65.29 | X-H torsion
[ 10718 10713 10712 10709 ] final -155.50 input   66.30 | X-H torsion
[ 10763 10752 10751 10750 ] final  115.84 input  -60.55 | X-H torsion
[ 11005 11000 10999 10996 ] final  114.66 input  -57.11 | X-H torsion

> <Gold.Protein.ActiveResidues>
 VAL166  LYS551  ARG553  GLY616  TRP617  ASP618  TYR619  PRO620  LYS621  CYS622 
 ASP623  PHE694  ASN695  SER759  ASP760  ASP761  ALA762  ILE779  LEU786  VAL792 
 PHE793  MET794  SER795  GLU796  ALA797  LYS798  CYS799  TRP800  GLU811  SER814 

> <Gold.Protein.RotatedAtoms>
  151.7243  135.0888  160.0289 H   0  0  0  0  0  0  0  0  0  0  0  0  # atno 6907 bound_to 6896
  152.3582  133.6259  159.6003 H   0  0  0  0  0  0  0  0  0  0  0  0  # atno 6908 bound_to 6896
  150.7586  133.9382  159.3489 H   0  0  0  0  0  0  0  0  0  0  0  0  # atno 6909 bound_to 6896
  146.2442  140.0459  142.8378 H   0  0  0  0  0  0  0  0  0  0  0  0  # atno 7974 bound_to 7965
  155.2213  140.3331  155.4315 H   0  0  0  0  0  0  0  0  0  0  0  0  # atno 8008 bound_to 7997
  156.2332  140.1860  156.7235 H   0  0  0  0  0  0  0  0  0  0  0  0  # atno 8009 bound_to 7997
  154.6014  140.0622  156.9358 H   0  0  0  0  0  0  0  0  0  0  0  0  # atno 8010 bound_to 7997
  139.5804  144.6983  151.3543 H   0  0  0  0  0  0  0  0  0  0  0  0  # atno 10167 bound_to 10162
  156.5138  130.8447  151.2656 H   0  0  0  0  0  0  0  0  0  0  0  0  # atno 10718 bound_to 10713
  153.5283  135.3583  155.2664 H   0  0  0  0  0  0  0  0  0  0  0  0  # atno 10763 bound_to 10752
  154.8729  135.4062  154.3181 H   0  0  0  0  0  0  0  0  0  0  0  0  # atno 10764 bound_to 10752
  153.3864  135.7070  153.6594 H   0  0  0  0  0  0  0  0  0  0  0  0  # atno 10765 bound_to 10752
  139.8987  134.9571  156.6926 H   0  0  0  0  0  0  0  0  0  0  0  0  # atno 11005 bound_to 11000
  145.1028  140.9356  143.4702 LP  0  0  0  0  0  0  0  0  0  0  0  0  # atno 17320 bound_to 7965
  145.0655  139.3072  143.5858 LP  0  0  0  0  0  0  0  0  0  0  0  0  # atno 17321 bound_to 7965
  140.7083  143.7457  150.7520 LP  0  0  0  0  0  0  0  0  0  0  0  0  # atno 17342 bound_to 10162
  140.0988  143.4807  152.2437 LP  0  0  0  0  0  0  0  0  0  0  0  0  # atno 17343 bound_to 10162
  157.7447  130.9941  150.2694 LP  0  0  0  0  0  0  0  0  0  0  0  0  # atno 17370 bound_to 10713
  156.3215  130.3786  149.7571 LP  0  0  0  0  0  0  0  0  0  0  0  0  # atno 17371 bound_to 10713
  140.7213  133.9139  155.8148 LP  0  0  0  0  0  0  0  0  0  0  0  0  # atno 17394 bound_to 11000
  141.0225  134.0869  157.4104 LP  0  0  0  0  0  0  0  0  0  0  0  0  # atno 17395 bound_to 11000

$$$$
