#       Name:                AV-unprocessed.smi:104
#       Creating user name   scv26
#       Creation time:       Thu Mar 26 17:57:19 2020


#       File generated by GOLD software.
#

@<TRIPOS>MOLECULE
AV-unprocessed.smi:104
    58    60     1
SMALL
NO_CHARGES


@<TRIPOS>ATOM
      1 ****        -2.5185   4.4843  -1.4212 C.3            1 S1                 0.0000
      2 ****        -2.2244   3.2085  -0.6422 C.2            1 S1                 0.0000
      3 ****        -3.1184   2.4120  -0.3569 O.2            1 S1                 0.0000
      4 ****        -0.9245   3.0813  -0.3353 O.3            1 S1                 0.0000
      5 ****        -0.4721   1.9367   0.3707 C.3            1 S1                 0.0000
      6 ****         1.0493   1.7812   0.1950 C.3            1 S1                 0.0000
      7 ****         1.5125   0.9168   1.2337 O.3            1 S1                 0.0000
      8 ****         2.0889  -0.2330   0.6924 C.3            1 S1                 0.0000
      9 ****         1.7342  -1.4196   1.5351 N.pl3          1 S1                 0.0000
     10 ****         2.4619  -2.5697   1.7342 C.2            1 S1                 0.0000
     11 ****         4.1552  -2.8484   0.9099 Br             1 S1                 0.0000
     12 ****         1.9345  -3.4869   2.4952 N.2            1 S1                 0.0000
     13 ****         0.7145  -2.9244   2.8486 C.ar           1 S1                 0.0000
     14 ****        -0.3775  -3.3621   3.6397 C.ar           1 S1                 0.0000
     15 ****        -0.4002  -4.5489   4.2624 N.pl3          1 S1                 0.0000
     16 ****        -1.4501  -2.5471   3.7692 N.ar           1 S1                 0.0000
     17 ****        -1.4544  -1.3598   3.1548 C.ar           1 S1                 0.0000
     18 ****        -0.5089  -0.8136   2.3861 N.ar           1 S1                 0.0000
     19 ****         0.5753  -1.6339   2.2571 C.ar           1 S1                 0.0000
     20 ****         1.5908  -0.3548  -0.7532 C.3            1 S1                 0.0000
     21 ****         0.3156  -0.9942  -0.8187 O.3            1 S1                 0.0000
     22 ****         0.2018  -2.2662  -1.2404 C.2            1 S1                 0.0000
     23 ****        -1.2386  -2.7583  -1.2079 C.3            1 S1                 0.0000
     24 ****         1.1240  -2.9981  -1.5992 O.2            1 S1                 0.0000
     25 ****         1.4990   1.1142  -1.1189 C.3            1 S1                 0.0000
     26 ****         0.6509   1.3250  -2.2433 O.3            1 S1                 0.0000
     27 ****         0.8203   2.4021  -3.0287 C.2            1 S1                 0.0000
     28 ****        -0.1910   2.4545  -4.1657 C.3            1 S1                 0.0000
     29 ****         1.6674   3.2825  -2.8792 O.2            1 S1                 0.0000
     30 ****        -1.6522   5.1467  -1.4278 H              1 S1                 0.0000
     31 ****        -3.3556   5.0171  -0.9700 H              1 S1                 0.0000
     32 ****        -2.7765   4.2435  -2.4525 H              1 S1                 0.0000
     33 ****        -0.7096   2.0790   1.4255 H              1 S1                 0.0000
     34 ****        -0.9902   1.0341   0.0446 H              1 S1                 0.0000
     35 ****         1.5302   2.7530   0.3121 H              1 S1                 0.0000
     36 ****         3.1736  -0.1448   0.7571 H              1 S1                 0.0000
     37 ****         0.3864  -5.1768   4.1781 H              1 S1                 0.0000
     38 ****        -1.2033  -4.8137   4.8141 H              1 S1                 0.0000
     39 ****        -2.3419  -0.7615   3.2995 H              1 S1                 0.0000
     40 ****         2.3354  -0.8679  -1.3632 H              1 S1                 0.0000
     41 ****        -1.7480  -2.3870  -0.3181 H              1 S1                 0.0000
     42 ****        -1.2686  -3.8481  -1.1913 H              1 S1                 0.0000
     43 ****        -1.7776  -2.4091  -2.0885 H              1 S1                 0.0000
     44 ****         2.5124   1.4498  -1.3467 H              1 S1                 0.0000
     45 ****        -0.2746   1.4802  -4.6474 H              1 S1                 0.0000
     46 ****         0.1133   3.1853  -4.9153 H              1 S1                 0.0000
     47 ****        -1.1717   2.7381  -3.7840 H              1 S1                 0.0000
     48 ****        -4.0604   2.5963  -0.6372 LP             1 S1                 0.0000
     49 ****        -2.9026   1.5807   0.1552 LP             1 S1                 0.0000
     50 ****         0.7406   0.6562   1.8136 LP             1 S1                 0.0000
     51 ****         2.1945   1.3992   1.7835 LP             1 S1                 0.0000
     52 ****         2.3134  -4.3739   2.7589 LP             1 S1                 0.0000
     53 ****        -2.2343  -2.8311   4.3209 LP             1 S1                 0.0000
     54 ****        -0.5854   0.0865   1.9572 LP             1 S1                 0.0000
     55 ****         2.0641  -2.6573  -1.5932 LP             1 S1                 0.0000
     56 ****         0.9332  -3.9335  -1.8967 LP             1 S1                 0.0000
     57 ****         2.3109   3.2327  -2.1154 LP             1 S1                 0.0000
     58 ****         1.7121   4.0476  -3.5215 LP             1 S1                 0.0000
@<TRIPOS>BOND
    1    1    2 1     
    2    1   30 1     
    3    1   31 1     
    4    1   32 1     
    5    2    3 2     
    6    2    4 1     
    7    4    5 1     
    8    5    6 1     
    9    5   33 1     
   10    5   34 1     
   11    6   25 1     
   12    6    7 1     
   13    6   35 1     
   14    7    8 1     
   15    8    9 1     
   16    8   20 1     
   17    8   36 1     
   18    9   19 1     
   19    9   10 1     
   20   10   11 1     
   21   10   12 2     
   22   12   13 1     
   23   13   19 ar    
   24   13   14 ar    
   25   14   15 1     
   26   14   16 ar    
   27   15   37 1     
   28   15   38 1     
   29   16   17 ar    
   30   17   18 ar    
   31   17   39 1     
   32   18   19 ar    
   33   20   21 1     
   34   20   25 1     
   35   20   40 1     
   36   21   22 1     
   37   22   23 1     
   38   22   24 2     
   39   23   41 1     
   40   23   42 1     
   41   23   43 1     
   42   25   26 1     
   43   25   44 1     
   44   26   27 1     
   45   27   28 1     
   46   27   29 2     
   47   28   45 1     
   48   28   46 1     
   49   28   47 1     
   50    3   48 1     
   51    3   49 1     
   52    7   50 1     
   53    7   51 1     
   54   12   52 1     
   55   16   53 1     
   56   18   54 1     
   57   24   55 1     
   58   24   56 1     
   59   29   57 1     
   60   29   58 1     
@<TRIPOS>SUBSTRUCTURE
      1 S1             1
@<TRIPOS>SET
LONE_PAIRS      STATIC     ATOMS    <user>   **** ""
11 48 49 50 51 52 53 54 55 56 57 58
DONOR_HYDROGENS      STATIC     ATOMS    <user>   **** ""
2 37 38
ATOM$BLUE        STATIC     ATOMS    COLORGROUP SYSTEM
11 48 49 50 51 52 53 54 55 56 57 58
ATOM$RED        STATIC     ATOMS    COLORGROUP SYSTEM
2 37 38
