AV-unprocessed.smi:265|AV-procd|sdf|2024|dock6
  -GOLD-   2262021223D 1   1.00000     0.00000
 Structure written by MMmdl.
 52 56  0  0  0  0  0  0  0  0  1 V2000
  157.2991  136.5966  162.7014 C   0  0  0  0  0  0  0  0  0  0  0  0
  155.8314  136.1395  162.6741 C   0  0  1  0  0  0  0  0  0  0  0  0
  155.2755  136.1383  163.9887 O   0  0  0  0  0  0  0  0  0  0  0  0
  154.0901  136.9217  164.0217 C   0  0  0  0  0  0  0  0  0  0  0  0
  153.5809  136.9051  162.5864 C   0  0  0  0  0  0  0  0  0  0  0  0
  154.8700  136.9545  161.7793 C   0  0  1  0  0  0  0  0  0  0  0  0
  155.2895  138.3073  161.6872 O   0  0  0  0  0  0  0  0  0  0  0  0
  154.7425  136.3786  160.3491 C   0  0  0  0  0  0  0  0  0  0  0  0
  154.0351  137.2574  159.4305 N   0  0  0  0  0  0  0  0  0  0  0  0
  154.5950  138.0217  158.4318 C   0  0  0  0  0  0  0  0  0  0  0  0
  153.7514  138.7359  157.7386 N   0  0  0  0  0  0  0  0  0  0  0  0
  152.5133  138.4301  158.2910 C   0  0  0  0  0  0  0  0  0  0  0  0
  151.1793  138.8471  158.0222 C   0  0  0  0  0  0  0  0  0  0  0  0
  150.8735  139.7159  157.0257 N   0  0  0  0  0  0  0  0  0  0  0  0
  150.6712  141.1193  157.3838 C   0  0  0  0  0  0  0  0  0  0  0  0
  150.7340  142.0127  156.1353 C   0  0  0  0  0  0  0  0  0  0  0  0
  149.7692  141.5337  155.0380 C   0  0  2  0  0  0  0  0  0  0  0  0
  148.4219  141.7341  155.4455 O   0  0  0  0  0  0  0  0  0  0  0  0
  147.4654  141.4860  154.4138 C   0  0  0  0  0  0  0  0  0  0  0  0
  147.7006  140.1369  153.7093 C   0  0  0  0  0  0  0  0  0  0  0  0
  146.8134  139.6441  153.0165 O   0  0  0  0  0  0  0  0  0  0  0  0
  148.9032  139.5548  153.8432 N   0  0  0  0  0  0  0  0  0  0  0  0
  149.9488  140.0282  154.7441 C   0  0  2  0  0  0  0  0  0  0  0  0
  149.9289  139.1937  156.0404 C   0  0  0  0  0  0  0  0  0  0  0  0
  150.1937  138.3340  158.8067 N   0  0  0  0  0  0  0  0  0  0  0  0
  150.4878  137.4642  159.7776 C   0  0  0  0  0  0  0  0  0  0  0  0
  151.6802  136.9819  160.1326 N   0  0  0  0  0  0  0  0  0  0  0  0
  152.6747  137.5019  159.3582 C   0  0  0  0  0  0  0  0  0  0  0  0
  149.9536  142.1191  154.1352 H   0  0  0  0  0  0  0  0  0  0  0  0
  150.9098  139.8790  154.2498 H   0  0  0  0  0  0  0  0  0  0  0  0
  157.7236  136.6116  161.6973 H   0  0  0  0  0  0  0  0  0  0  0  0
  157.9029  135.9202  163.3063 H   0  0  0  0  0  0  0  0  0  0  0  0
  157.4020  137.5951  163.1274 H   0  0  0  0  0  0  0  0  0  0  0  0
  155.8082  135.0978  162.3513 H   0  0  0  0  0  0  0  0  0  0  0  0
  153.3650  136.5227  164.7311 H   0  0  0  0  0  0  0  0  0  0  0  0
  154.3431  137.9377  164.3278 H   0  0  0  0  0  0  0  0  0  0  0  0
  153.0599  135.9640  162.4063 H   0  0  0  0  0  0  0  0  0  0  0  0
  152.8886  137.7186  162.3657 H   0  0  0  0  0  0  0  0  0  0  0  0
  154.6213  138.7967  161.2325 H   0  0  0  0  0  0  0  0  0  0  0  0
  155.7324  136.1797  159.9361 H   0  0  0  0  0  0  0  0  0  0  0  0
  154.2233  135.4196  160.3705 H   0  0  0  0  0  0  0  0  0  0  0  0
  155.6576  138.0376  158.2368 H   0  0  0  0  0  0  0  0  0  0  0  0
  149.7032  141.2306  157.8745 H   0  0  0  0  0  0  0  0  0  0  0  0
  151.4332  141.4396  158.0958 H   0  0  0  0  0  0  0  0  0  0  0  0
  150.5159  143.0470  156.4027 H   0  0  0  0  0  0  0  0  0  0  0  0
  151.7519  142.0045  155.7435 H   0  0  0  0  0  0  0  0  0  0  0  0
  146.4647  141.5084  154.8454 H   0  0  0  0  0  0  0  0  0  0  0  0
  147.5161  142.2847  153.6728 H   0  0  0  0  0  0  0  0  0  0  0  0
  149.0730  138.6901  153.3503 H   0  0  0  0  0  0  0  0  0  0  0  0
  150.1373  138.1514  155.8012 H   0  0  0  0  0  0  0  0  0  0  0  0
  148.9317  139.2144  156.4826 H   0  0  0  0  0  0  0  0  0  0  0  0
  149.6474  137.1024  160.3514 H   0  0  0  0  0  0  0  0  0  0  0  0
  1  2  1  0  0  0  0
  1 31  1  0  0  0  0
  1 32  1  0  0  0  0
  1 33  1  0  0  0  0
  2  6  1  0  0  0  0
  2  3  1  0  0  0  0
  2 34  1  0  0  0  0
  3  4  1  0  0  0  0
  4  5  1  0  0  0  0
  4 35  1  0  0  0  0
  4 36  1  0  0  0  0
  5  6  1  0  0  0  0
  5 37  1  0  0  0  0
  5 38  1  0  0  0  0
  6  7  1  0  0  0  0
  6  8  1  0  0  0  0
  7 39  1  0  0  0  0
  8  9  1  0  0  0  0
  8 40  1  0  0  0  0
  8 41  1  0  0  0  0
  9 28  1  0  0  0  0
  9 10  1  0  0  0  0
 10 11  2  0  0  0  0
 10 42  1  0  0  0  0
 11 12  1  0  0  0  0
 12 28  2  0  0  0  0
 12 13  1  0  0  0  0
 13 14  1  0  0  0  0
 13 25  2  0  0  0  0
 14 24  1  0  0  0  0
 14 15  1  0  0  0  0
 15 16  1  0  0  0  0
 15 43  1  0  0  0  0
 15 44  1  0  0  0  0
 16 17  1  0  0  0  0
 16 45  1  0  0  0  0
 16 46  1  0  0  0  0
 17 29  1  0  0  0  0
 17 23  1  0  0  0  0
 17 18  1  0  0  0  0
 18 19  1  0  0  0  0
 19 20  1  0  0  0  0
 19 47  1  0  0  0  0
 19 48  1  0  0  0  0
 20 21  2  0  0  0  0
 20 22  1  0  0  0  0
 22 23  1  0  0  0  0
 22 49  1  0  0  0  0
 23 30  1  0  0  0  0
 23 24  1  0  0  0  0
 24 50  1  0  0  0  0
 24 51  1  0  0  0  0
 25 26  1  0  0  0  0
 26 27  2  0  0  0  0
 26 52  1  0  0  0  0
 27 28  1  0  0  0  0
M  END
> <s_m_source_file>
AV-unprocessed.smi

> <i_m_source_file_index>
265

> <i_lp_mmshare_version>
43012

> <i_f3d_flags>
0

> <s_epik_input>
W0NIMl0xW0NIMl1PW0NAQEhdKFtDSDNdKVtDQEBdMShbT0hdKVtDSDJdbihbY0hdbjIpYyhjMjMpbltjSF1uYzNOKFtDSDJdW0NIMl00KVtDSDJdW0NAQEhdKFtDQEhdNDUpW05IXUMoPU8pW0NIMl1PNQ==

> <s_epik_cmdline>
J2VwaWtfcHl0aG9uJywgJy1waCcsICc3LjAnLCAnLXRuJywgJzgnLCAnLW1hJywgJzIwMCcsICctbWV0YWxfYmluZGluZycsICctaW1hZScsICc8aW5maWxlLm1hZT4nLCAnLW9tYWUnLCAnPG91dGZpbGUubWFlPic=

> <r_lp_tautomer_probability>
1

> <r_epik_Ionization_Penalty>
0.00221504

> <r_epik_Ionization_Penalty_Charging>
0

> <r_epik_Ionization_Penalty_Neutral>
0.00221504

> <r_epik_State_Penalty>
-0

> <r_epik_Charging_Adjusted_Penalty>
0

> <i_epik_Tot_Q>
0

> <i_epik_Tot_abs_Q>
0

> <r_epik_Metal_State_Penalty>
-0

> <b_epik_Metal_Only>
0

> <s_lp_Force_Field>
OPLS_2005

> <r_lp_Energy>
44.7189

> <b_lp_Chiralities_Consistent>
1

> <s_lp_Variant>
AV-unprocessed.smi:265-10

> <Gold.Version>
5.8.1

> <Gold.Id.Protein>
6NUR|6NUR_protein|mol2

> <Gold.PLP.Fitness>
36.6894

> <Gold.PLP.PLP>
-31.5707

> <Gold.PLP.part.hbond>
-3.0000

> <Gold.PLP.part.metal>
0.0000

> <Gold.PLP.part.buried>
-0.8623

> <Gold.PLP.part.nonpolar>
-27.8734

> <Gold.PLP.part.repulsive>
0.9246

> <Gold.PLP.ligand.clash>
0.0000

> <Gold.PLP.ligand.torsion>
0.6210

> <Gold.PLP.Chemscore.Hbond>
2.0000

> <Gold.PLP.Chemscore.CHOScore>
0.0000

> <Gold.PLP.Chemscore.Metal>
0.0000

> <Gold.Chemscore.Hbonds>
donor molecule, donor type, donor heavy atom, donor atom, acceptor molecule, acceptor atom, score
      P1  H  6896  6908       L1    27  1.00
      P1  H  7997  8010       L1    11  1.00

> <Gold.PLP.Chemscore.Internal.Correction>
0.3607

> <Gold.Rescore>
     Score         DG    S(hbond)    S(metal)    S(lipo)     H(rot)  DE(clash)    DE(int)     intcor
     12.86     -14.02       1.73        0.00      72.87       2.25       0.36       0.80       ----

> <Gold.Chemscore.Fitness>
12.8618

> <Gold.Chemscore.DG>
-14.0198

> <Gold.Chemscore.ZeroCoef>
-5.4800

> <Gold.Chemscore.Hbond>
1.7252

> <Gold.Chemscore.Metal>
0.0000

> <Gold.Chemscore.Lipo>
72.8681

> <Gold.Chemscore.Internal_Hbond>
0.0000

> <Gold.Chemscore.DEClash>
0.3579

> <Gold.Chemscore.DEInternal>
0.8000

> <Gold.Chemscore.Rot>
2.2453

> <Gold.Chemscore.Internal.Correction>
   9.000000E+99

> <Gold.Chemscore.Hbonds>
donor molecule, donor type, donor heavy atom, donor atom, acceptor molecule, acceptor atom, score
      P1  H  6896  6908       L1    27  0.47
      P1  H  7997  8010       L1    11  0.44

> <Gold.Chemscore.Hbond.Weighted>
-5.7621

> <Gold.Chemscore.Metal.Weighted>
-0.0000

> <Gold.Chemscore.Lipo.Weighted>
-8.5256

> <Gold.Chemscore.Internal_Hbond.Weighted>
0.0000

> <Gold.Chemscore.DEClash.Weighted>
0.3579

> <Gold.Chemscore.DEInternal.Weighted>
0.8000

> <Gold.Chemscore.Rot.Weighted>
5.7479

> <Gold.Chemscore.Internal.Correction.Weighted>
   9.000000E+99

> <Gold.Protein.RotatedTorsions>
[ 6907 6896 6895 6894 ] final -121.72 input  -60.11 | X-H torsion
[ 7974 7965 7964 7962 ] final  165.34 input  175.53 | X-H torsion
[ 8008 7997 7996 7995 ] final   26.53 input   59.86 | X-H torsion
[ 10167 10162 10161 10158 ] final   88.09 input  -65.29 | X-H torsion
[ 10718 10713 10712 10709 ] final   73.20 input   66.30 | X-H torsion
[ 10763 10752 10751 10750 ] final  -77.39 input  -60.55 | X-H torsion
[ 11005 11000 10999 10996 ] final   -6.83 input  -57.11 | X-H torsion

> <Gold.Protein.ActiveResidues>
 VAL166  LYS551  ARG553  GLY616  TRP617  ASP618  TYR619  PRO620  LYS621  CYS622 
 ASP623  PHE694  ASN695  SER759  ASP760  ASP761  ALA762  ILE779  LEU786  VAL792 
 PHE793  MET794  SER795  GLU796  ALA797  LYS798  CYS799  TRP800  GLU811  SER814 

> <Gold.Protein.RotatedAtoms>
  150.8509  133.7788  159.3025 H   0  0  0  0  0  0  0  0  0  0  0  0  # atno 6907 bound_to 6896
  151.5460  135.1066  159.9947 H   0  0  0  0  0  0  0  0  0  0  0  0  # atno 6908 bound_to 6896
  152.4552  133.7665  159.6831 H   0  0  0  0  0  0  0  0  0  0  0  0  # atno 6909 bound_to 6896
  144.7506  139.8457  143.6367 H   0  0  0  0  0  0  0  0  0  0  0  0  # atno 7974 bound_to 7965
  155.0287  140.3156  155.4766 H   0  0  0  0  0  0  0  0  0  0  0  0  # atno 8008 bound_to 7997
  156.2878  140.2184  156.5350 H   0  0  0  0  0  0  0  0  0  0  0  0  # atno 8009 bound_to 7997
  154.7389  140.0475  157.0781 H   0  0  0  0  0  0  0  0  0  0  0  0  # atno 8010 bound_to 7997
  139.8708  144.6494  150.8952 H   0  0  0  0  0  0  0  0  0  0  0  0  # atno 10167 bound_to 10162
  157.6536  130.9616  150.1035 H   0  0  0  0  0  0  0  0  0  0  0  0  # atno 10718 bound_to 10713
  154.5124  135.5765  153.6615 H   0  0  0  0  0  0  0  0  0  0  0  0  # atno 10763 bound_to 10752
  152.9899  135.6162  154.2862 H   0  0  0  0  0  0  0  0  0  0  0  0  # atno 10764 bound_to 10752
  154.2778  135.2851  155.2690 H   0  0  0  0  0  0  0  0  0  0  0  0  # atno 10765 bound_to 10752
  140.7062  133.8947  155.8718 H   0  0  0  0  0  0  0  0  0  0  0  0  # atno 11005 bound_to 11000
  146.1451  139.4519  143.0084 LP  0  0  0  0  0  0  0  0  0  0  0  0  # atno 17320 bound_to 7965
  145.6957  141.0151  143.1531 LP  0  0  0  0  0  0  0  0  0  0  0  0  # atno 17321 bound_to 7965
  140.7761  143.3666  151.1728 LP  0  0  0  0  0  0  0  0  0  0  0  0  # atno 17342 bound_to 10162
  139.7286  143.9109  152.3011 LP  0  0  0  0  0  0  0  0  0  0  0  0  # atno 17343 bound_to 10162
  156.1951  130.3657  149.8859 LP  0  0  0  0  0  0  0  0  0  0  0  0  # atno 17370 bound_to 10713
  156.6777  130.8846  151.3571 LP  0  0  0  0  0  0  0  0  0  0  0  0  # atno 17371 bound_to 10713
  141.0122  134.1004  157.4209 LP  0  0  0  0  0  0  0  0  0  0  0  0  # atno 17394 bound_to 11000
  139.8883  135.0097  156.6614 LP  0  0  0  0  0  0  0  0  0  0  0  0  # atno 17395 bound_to 11000

$$$$
