AV-unprocessed.smi:169|AV-procd|sdf|1400|dock9
  -GOLD-   2262019153D 1   1.00000     0.00000
 Structure written by MMmdl.
 56 60  0  0  0  0  0  0  0  0  2 V2000
  146.2602  141.8933  154.1227 C   0  0  0  0  0  0  0  0  0  0  0  0
  147.1031  140.7366  153.5565 C   0  0  0  0  0  0  0  0  0  0  0  0
  148.3401  140.4541  154.3298 N   0  3  2  0  0  0  0  0  0  0  0  0
  149.1305  141.6879  154.6755 C   0  0  0  0  0  0  0  0  0  0  0  0
  149.8913  141.6176  156.0436 C   0  0  0  0  0  0  0  0  0  0  0  0
  150.8375  140.4122  156.3618 C   0  0  2  0  0  0  0  0  0  0  0  0
  152.1631  140.2963  155.5405 C   0  0  0  0  0  0  0  0  0  0  0  0
  151.8888  139.1745  154.4847 C   0  0  0  0  0  0  0  0  0  0  0  0
  150.3723  138.9965  154.6437 C   0  0  3  0  0  0  0  0  0  0  0  0
  149.1351  139.3022  153.7672 C   0  0  0  0  0  0  0  0  0  0  0  0
  150.1259  139.1760  156.0668 N   0  0  0  0  0  0  0  0  0  0  0  0
  150.2947  138.0644  156.8363 C   0  0  0  0  0  0  0  0  0  0  0  0
  151.5391  137.5506  157.0269 N   0  0  0  0  0  0  0  0  0  0  0  0
  151.7171  136.4526  157.7658 C   0  0  0  0  0  0  0  0  0  0  0  0
  150.8030  135.7217  158.4042 N   0  0  0  0  0  0  0  0  0  0  0  0
  149.5523  136.2366  158.2365 C   0  0  0  0  0  0  0  0  0  0  0  0
  149.2119  137.3913  157.4748 C   0  0  0  0  0  0  0  0  0  0  0  0
  147.8402  137.6050  157.5389 N   0  0  0  0  0  0  0  0  0  0  0  0
  147.3964  136.6314  158.2858 C   0  0  0  0  0  0  0  0  0  0  0  0
  148.3584  135.7693  158.7607 N   0  0  0  0  0  0  0  0  0  0  0  0
  148.1442  134.6021  159.6053 C   0  0  0  0  0  0  0  0  0  0  0  0
  147.6499  134.9259  161.0325 C   0  0  0  0  0  0  0  0  0  0  0  0
  147.3335  133.6330  161.8018 C   0  0  0  0  0  0  0  0  0  0  0  0
  146.4741  133.8875  162.8942 O   0  0  0  0  0  0  0  0  0  0  0  0
  148.4853  135.9565  161.8073 C   0  0  0  0  0  0  0  0  0  0  0  0
  147.5091  136.9986  161.6012 O   0  0  0  0  0  0  0  0  0  0  0  0
  146.5732  136.0173  161.1081 C   0  0  0  0  0  0  0  0  0  0  0  0
  145.3609  142.0354  153.5230 H   0  0  0  0  0  0  0  0  0  0  0  0
  146.8030  142.8378  154.1149 H   0  0  0  0  0  0  0  0  0  0  0  0
  145.9381  141.6981  155.1456 H   0  0  0  0  0  0  0  0  0  0  0  0
  146.4977  139.8300  153.5255 H   0  0  0  0  0  0  0  0  0  0  0  0
  147.3720  140.9508  152.5213 H   0  0  0  0  0  0  0  0  0  0  0  0
  149.8128  141.9365  153.8609 H   0  0  0  0  0  0  0  0  0  0  0  0
  148.4464  142.5352  154.7410 H   0  0  0  0  0  0  0  0  0  0  0  0
  150.4545  142.5421  156.1740 H   0  0  0  0  0  0  0  0  0  0  0  0
  149.1329  141.6382  156.8272 H   0  0  0  0  0  0  0  0  0  0  0  0
  151.0935  140.4995  157.4177 H   0  0  0  0  0  0  0  0  0  0  0  0
  152.4181  141.2460  155.0688 H   0  0  0  0  0  0  0  0  0  0  0  0
  152.9985  140.0116  156.1812 H   0  0  0  0  0  0  0  0  0  0  0  0
  152.2331  139.4232  153.4759 H   0  0  0  0  0  0  0  0  0  0  0  0
  152.3977  138.2560  154.7803 H   0  0  0  0  0  0  0  0  0  0  0  0
  150.5303  139.9625  154.1935 H   0  0  0  0  0  0  0  0  0  0  0  0
  148.4840  138.4283  153.7644 H   0  0  0  0  0  0  0  0  0  0  0  0
  149.4053  139.4661  152.7198 H   0  0  0  0  0  0  0  0  0  0  0  0
  152.7375  136.1106  157.8593 H   0  0  0  0  0  0  0  0  0  0  0  0
  146.3458  136.5158  158.5085 H   0  0  0  0  0  0  0  0  0  0  0  0
  147.4254  133.9582  159.0966 H   0  0  0  0  0  0  0  0  0  0  0  0
  149.0705  134.0277  159.6377 H   0  0  0  0  0  0  0  0  0  0  0  0
  146.8852  132.8774  161.1572 H   0  0  0  0  0  0  0  0  0  0  0  0
  148.2462  133.1869  162.1977 H   0  0  0  0  0  0  0  0  0  0  0  0
  146.8271  134.6077  163.3943 H   0  0  0  0  0  0  0  0  0  0  0  0
  148.6084  135.7230  162.8661 H   0  0  0  0  0  0  0  0  0  0  0  0
  149.4454  136.1983  161.3541 H   0  0  0  0  0  0  0  0  0  0  0  0
  146.1507  136.2915  160.1406 H   0  0  0  0  0  0  0  0  0  0  0  0
  145.7827  135.8128  161.8319 H   0  0  0  0  0  0  0  0  0  0  0  0
  148.0038  140.1189  155.2215 H   0  0  0  0  0  0  0  0  0  0  0  0
  1  2  1  0  0  0  0
  1 28  1  0  0  0  0
  1 29  1  0  0  0  0
  1 30  1  0  0  0  0
  2  3  1  0  0  0  0
  2 31  1  0  0  0  0
  2 32  1  0  0  0  0
  3 10  1  0  0  0  0
  3  4  1  0  0  0  0
  3 56  1  0  0  0  0
  4  5  1  0  0  0  0
  4 33  1  0  0  0  0
  4 34  1  0  0  0  0
  5  6  1  0  0  0  0
  5 35  1  0  0  0  0
  5 36  1  0  0  0  0
  6 11  1  0  0  0  0
  6  7  1  0  0  0  0
  6 37  1  0  0  0  0
  7  8  1  0  0  0  0
  7 38  1  0  0  0  0
  7 39  1  0  0  0  0
  8  9  1  0  0  0  0
  8 40  1  0  0  0  0
  8 41  1  0  0  0  0
  9 10  1  0  0  0  0
  9 11  1  0  0  0  0
  9 42  1  0  0  0  0
 10 43  1  0  0  0  0
 10 44  1  0  0  0  0
 11 12  1  0  0  0  0
 12 17  1  0  0  0  0
 12 13  2  0  0  0  0
 13 14  1  0  0  0  0
 14 15  2  0  0  0  0
 14 45  1  0  0  0  0
 15 16  1  0  0  0  0
 16 20  1  0  0  0  0
 16 17  2  0  0  0  0
 17 18  1  0  0  0  0
 18 19  2  0  0  0  0
 19 20  1  0  0  0  0
 19 46  1  0  0  0  0
 20 21  1  0  0  0  0
 21 22  1  0  0  0  0
 21 47  1  0  0  0  0
 21 48  1  0  0  0  0
 22 27  1  0  0  0  0
 22 23  1  0  0  0  0
 22 25  1  0  0  0  0
 23 24  1  0  0  0  0
 23 49  1  0  0  0  0
 23 50  1  0  0  0  0
 24 51  1  0  0  0  0
 25 26  1  0  0  0  0
 25 52  1  0  0  0  0
 25 53  1  0  0  0  0
 26 27  1  0  0  0  0
 27 54  1  0  0  0  0
 27 55  1  0  0  0  0
M  CHG  1   3   1
M  END
> <s_m_source_file>
AV-unprocessed.smi

> <i_m_source_file_index>
169

> <i_lp_mmshare_version>
43012

> <i_f3d_flags>
0

> <s_epik_input>
W0NASF0xMltDSDJdW0NIMl1OKFtDSDJdW0NIM10pW0NIMl1bQ0BIXShbQ0gyXVtDSDJdMSlOMmMobltjSF1uMyljKGMzNCluW2NIXW40W0NIMl1DNShbQ0gyXVtPSF0pW0NIMl1PW0NIMl01

> <s_epik_cmdline>
J2VwaWtfcHl0aG9uJywgJy1waCcsICc3LjAnLCAnLXRuJywgJzgnLCAnLW1hJywgJzIwMCcsICctbWV0YWxfYmluZGluZycsICctaW1hZScsICc8aW5maWxlLm1hZT4nLCAnLW9tYWUnLCAnPG91dGZpbGUubWFlPic=

> <r_lp_tautomer_probability>
1

> <r_epik_Ionization_Penalty>
0.00274162

> <r_epik_Ionization_Penalty_Charging>
0.00243722

> <r_epik_Ionization_Penalty_Neutral>
0.000304399

> <r_epik_State_Penalty>
-0

> <r_epik_Charging_Adjusted_Penalty>
0.00243722

> <i_epik_Tot_Q>
1

> <i_epik_Tot_abs_Q>
1

> <r_epik_Metal_State_Penalty>
-0

> <b_epik_Metal_Only>
0

> <s_lp_Force_Field>
OPLS_2005

> <r_lp_Energy>
131.332

> <b_lp_Chiralities_Consistent>
1

> <s_lp_Variant>
AV-unprocessed.smi:169-3

> <Gold.Version>
5.8.1

> <Gold.Id.Protein>
6NUR|6NUR_protein|mol2

> <Gold.PLP.Fitness>
42.7451

> <Gold.PLP.PLP>
-38.0211

> <Gold.PLP.part.hbond>
-3.6733

> <Gold.PLP.part.metal>
0.0000

> <Gold.PLP.part.buried>
2.9917

> <Gold.PLP.part.nonpolar>
-35.6245

> <Gold.PLP.part.repulsive>
0.0989

> <Gold.PLP.ligand.clash>
0.0000

> <Gold.PLP.ligand.torsion>
0.5913

> <Gold.PLP.Chemscore.Hbond>
1.8312

> <Gold.PLP.Chemscore.CHOScore>
0.0000

> <Gold.PLP.Chemscore.Metal>
0.0000

> <Gold.Chemscore.Hbonds>
donor molecule, donor type, donor heavy atom, donor atom, acceptor molecule, acceptor atom, score
      P1  H  6896  6908       L1    15  0.58
      P1  H  6931  6943       L1    26  0.25
      P1  H  6934  6947       L1    26  0.59

> <Gold.PLP.Chemscore.Internal.Correction>
0.4130

> <Gold.Rescore>
     Score         DG    S(hbond)    S(metal)    S(lipo)     H(rot)  DE(clash)    DE(int)     intcor
     10.04     -15.61       1.75        0.00      94.09       2.62       3.21       2.36       ----

> <Gold.Chemscore.Fitness>
10.0380

> <Gold.Chemscore.DG>
-15.6101

> <Gold.Chemscore.ZeroCoef>
-5.4800

> <Gold.Chemscore.Hbond>
1.7459

> <Gold.Chemscore.Metal>
0.0000

> <Gold.Chemscore.Lipo>
94.0931

> <Gold.Chemscore.Internal_Hbond>
0.0000

> <Gold.Chemscore.DEClash>
3.2103

> <Gold.Chemscore.DEInternal>
2.3618

> <Gold.Chemscore.Rot>
2.6212

> <Gold.Chemscore.Internal.Correction>
   9.000000E+99

> <Gold.Chemscore.Hbonds>
donor molecule, donor type, donor heavy atom, donor atom, acceptor molecule, acceptor atom, score
      P1  H  6896  6908       L1    15  0.40
      P1  H  6934  6947       L1    26  0.54

> <Gold.Chemscore.Hbond.Weighted>
-5.8314

> <Gold.Chemscore.Metal.Weighted>
-0.0000

> <Gold.Chemscore.Lipo.Weighted>
-11.0089

> <Gold.Chemscore.Internal_Hbond.Weighted>
0.0000

> <Gold.Chemscore.DEClash.Weighted>
3.2103

> <Gold.Chemscore.DEInternal.Weighted>
2.3618

> <Gold.Chemscore.Rot.Weighted>
6.7102

> <Gold.Chemscore.Internal.Correction.Weighted>
   9.000000E+99

> <Gold.Protein.RotatedTorsions>
[ 6907 6896 6895 6894 ] final -175.10 input  -60.11 | X-H torsion
[ 7974 7965 7964 7962 ] final   -5.20 input  175.53 | X-H torsion
[ 8008 7997 7996 7995 ] final  -72.95 input   59.86 | X-H torsion
[ 10167 10162 10161 10158 ] final   26.25 input  -65.29 | X-H torsion
[ 10718 10713 10712 10709 ] final  -39.89 input   66.30 | X-H torsion
[ 10763 10752 10751 10750 ] final -122.28 input  -60.55 | X-H torsion
[ 11005 11000 10999 10996 ] final  -82.15 input  -57.11 | X-H torsion

> <Gold.Protein.ActiveResidues>
 VAL166  LYS551  ARG553  GLY616  TRP617  ASP618  TYR619  PRO620  LYS621  CYS622 
 ASP623  PHE694  ASN695  SER759  ASP760  ASP761  ALA762  ILE779  LEU786  VAL792 
 PHE793  MET794  SER795  GLU796  ALA797  LYS798  CYS799  TRP800  GLU811  SER814 

> <Gold.Protein.RotatedAtoms>
  151.5830  133.3375  159.3012 H   0  0  0  0  0  0  0  0  0  0  0  0  # atno 6907 bound_to 6896
  150.8302  134.7555  159.6859 H   0  0  0  0  0  0  0  0  0  0  0  0  # atno 6908 bound_to 6896
  152.4387  134.5641  159.9954 H   0  0  0  0  0  0  0  0  0  0  0  0  # atno 6909 bound_to 6896
  146.2357  140.1985  142.8333 H   0  0  0  0  0  0  0  0  0  0  0  0  # atno 7974 bound_to 7965
  154.5207  140.0788  156.8167 H   0  0  0  0  0  0  0  0  0  0  0  0  # atno 8008 bound_to 7997
  155.3582  140.3416  155.4222 H   0  0  0  0  0  0  0  0  0  0  0  0  # atno 8009 bound_to 7997
  156.1678  140.1609  156.8488 H   0  0  0  0  0  0  0  0  0  0  0  0  # atno 8010 bound_to 7997
  140.5038  144.0271  150.6344 H   0  0  0  0  0  0  0  0  0  0  0  0  # atno 10167 bound_to 10162
  156.2875  130.4224  149.8273 H   0  0  0  0  0  0  0  0  0  0  0  0  # atno 10718 bound_to 10713
  154.8686  135.4138  154.2756 H   0  0  0  0  0  0  0  0  0  0  0  0  # atno 10763 bound_to 10752
  153.3658  135.7005  153.6682 H   0  0  0  0  0  0  0  0  0  0  0  0  # atno 10764 bound_to 10752
  153.5564  135.3618  155.2753 H   0  0  0  0  0  0  0  0  0  0  0  0  # atno 10765 bound_to 10752
  141.1664  133.7231  156.8529 H   0  0  0  0  0  0  0  0  0  0  0  0  # atno 11005 bound_to 11000
  144.9801  140.8451  143.5402 LP  0  0  0  0  0  0  0  0  0  0  0  0  # atno 17320 bound_to 7965
  145.1977  139.2268  143.5209 LP  0  0  0  0  0  0  0  0  0  0  0  0  # atno 17321 bound_to 7965
  140.3575  143.2927  152.0420 LP  0  0  0  0  0  0  0  0  0  0  0  0  # atno 17342 bound_to 10162
  139.4878  144.6328  151.7036 LP  0  0  0  0  0  0  0  0  0  0  0  0  # atno 17343 bound_to 10162
  156.5698  130.8420  151.3353 LP  0  0  0  0  0  0  0  0  0  0  0  0  # atno 17370 bound_to 10713
  157.7333  130.9728  150.1969 LP  0  0  0  0  0  0  0  0  0  0  0  0  # atno 17371 bound_to 10713
  140.1903  134.8970  157.3052 LP  0  0  0  0  0  0  0  0  0  0  0  0  # atno 17394 bound_to 11000
  140.2298  134.3923  155.7527 LP  0  0  0  0  0  0  0  0  0  0  0  0  # atno 17395 bound_to 11000

$$$$
