AV-unprocessed.smi:2233|AV-procd|sdf|9040|dock9
  -GOLD-   2272012243D 1   1.00000     0.00000
 Structure written by MMmdl.
 43 44  0  0  0  0  0  0  0  0  2 V2000
  152.6282  143.2432  162.4787 C   0  0  0  0  0  0  0  0  0  0  0  0
  152.7736  142.7036  161.3929 C   0  0  0  0  0  0  0  0  0  0  0  0
  152.9596  142.0417  160.0898 C   0  0  0  0  0  0  0  0  0  0  0  0
  152.1166  142.6294  158.9432 C   0  0  0  0  0  0  0  0  0  0  0  0
  151.7377  141.6124  157.8511 C   0  0  0  0  0  0  0  0  0  0  0  0
  150.6927  142.1718  156.8691 C   0  0  0  0  0  0  0  0  0  0  0  0
  150.3061  141.1720  155.7746 C   0  0  0  0  0  0  0  0  0  0  0  0
  151.1433  140.3797  155.3433 O   0  0  0  0  0  0  0  0  0  0  0  0
  149.0284  141.2353  155.3582 N   0  0  0  0  0  0  0  0  0  0  0  0
  148.3594  140.4388  154.3839 C   0  0  0  0  0  0  0  0  0  0  0  0
  148.9368  139.2806  153.8046 C   0  0  0  0  0  0  0  0  0  0  0  0
  148.2582  138.5736  152.8761 N   0  3  0  0  0  0  0  0  0  0  0  0
  147.0261  138.9179  152.4486 C   0  0  0  0  0  0  0  0  0  0  0  0
  146.4004  140.0654  152.9717 C   0  0  0  0  0  0  0  0  0  0  0  0
  147.0703  140.8427  153.9471 C   0  0  0  0  0  0  0  0  0  0  0  0
  146.4710  141.9951  154.4815 N   0  0  0  0  0  0  0  0  0  0  0  0
  146.0254  142.9502  153.4749 C   0  0  0  0  0  0  0  0  0  0  0  0
  145.5267  144.2353  154.1578 C   0  0  0  0  0  0  0  0  0  0  0  0
  144.5028  143.9103  155.0941 O   0  0  0  0  0  0  0  0  0  0  0  0
  144.9696  143.0360  156.1182 C   0  0  0  0  0  0  0  0  0  0  0  0
  145.4550  141.7186  155.4890 C   0  0  0  0  0  0  0  0  0  0  0  0
  152.5043  143.7167  163.4268 H   0  0  0  0  0  0  0  0  0  0  0  0
  154.0202  142.0887  159.8413 H   0  0  0  0  0  0  0  0  0  0  0  0
  152.7144  140.9880  160.2250 H   0  0  0  0  0  0  0  0  0  0  0  0
  151.2031  143.0471  159.3681 H   0  0  0  0  0  0  0  0  0  0  0  0
  152.6482  143.4689  158.4922 H   0  0  0  0  0  0  0  0  0  0  0  0
  152.6310  141.3150  157.3004 H   0  0  0  0  0  0  0  0  0  0  0  0
  151.3497  140.7081  158.3223 H   0  0  0  0  0  0  0  0  0  0  0  0
  149.7985  142.4679  157.4203 H   0  0  0  0  0  0  0  0  0  0  0  0
  151.0770  143.0734  156.3911 H   0  0  0  0  0  0  0  0  0  0  0  0
  148.4387  141.8894  155.8531 H   0  0  0  0  0  0  0  0  0  0  0  0
  149.9178  138.8933  154.0333 H   0  0  0  0  0  0  0  0  0  0  0  0
  146.5838  138.2738  151.7024 H   0  0  0  0  0  0  0  0  0  0  0  0
  145.4162  140.3434  152.6236 H   0  0  0  0  0  0  0  0  0  0  0  0
  146.8458  143.1818  152.7945 H   0  0  0  0  0  0  0  0  0  0  0  0
  145.2227  142.5147  152.8785 H   0  0  0  0  0  0  0  0  0  0  0  0
  146.3453  144.7512  154.6621 H   0  0  0  0  0  0  0  0  0  0  0  0
  145.1246  144.9243  153.4149 H   0  0  0  0  0  0  0  0  0  0  0  0
  145.7703  143.5157  156.6835 H   0  0  0  0  0  0  0  0  0  0  0  0
  144.1570  142.8417  156.8182 H   0  0  0  0  0  0  0  0  0  0  0  0
  144.6132  141.1953  155.0338 H   0  0  0  0  0  0  0  0  0  0  0  0
  145.8649  141.0644  156.2596 H   0  0  0  0  0  0  0  0  0  0  0  0
  148.6991  137.7437  152.4783 H   0  0  0  0  0  0  0  0  0  0  0  0
  1  2  3  0  0  0  0
  1 22  1  0  0  0  0
  2  3  1  0  0  0  0
  3  4  1  0  0  0  0
  3 23  1  0  0  0  0
  3 24  1  0  0  0  0
  4  5  1  0  0  0  0
  4 25  1  0  0  0  0
  4 26  1  0  0  0  0
  5  6  1  0  0  0  0
  5 27  1  0  0  0  0
  5 28  1  0  0  0  0
  6  7  1  0  0  0  0
  6 29  1  0  0  0  0
  6 30  1  0  0  0  0
  7  8  2  0  0  0  0
  7  9  1  0  0  0  0
  9 10  1  0  0  0  0
  9 31  1  0  0  0  0
 10 15  1  0  0  0  0
 10 11  2  0  0  0  0
 11 12  1  0  0  0  0
 11 32  1  0  0  0  0
 12 13  2  0  0  0  0
 12 43  1  0  0  0  0
 13 14  1  0  0  0  0
 13 33  1  0  0  0  0
 14 15  2  0  0  0  0
 14 34  1  0  0  0  0
 15 16  1  0  0  0  0
 16 21  1  0  0  0  0
 16 17  1  0  0  0  0
 17 18  1  0  0  0  0
 17 35  1  0  0  0  0
 17 36  1  0  0  0  0
 18 19  1  0  0  0  0
 18 37  1  0  0  0  0
 18 38  1  0  0  0  0
 19 20  1  0  0  0  0
 20 21  1  0  0  0  0
 20 39  1  0  0  0  0
 20 40  1  0  0  0  0
 21 41  1  0  0  0  0
 21 42  1  0  0  0  0
M  CHG  1  12   1
M  END
> <s_m_source_file>
AV-unprocessed.smi

> <i_m_source_file_index>
2233

> <i_lp_mmshare_version>
43012

> <i_f3d_flags>
0

> <s_epik_input>
W0NIXSNDW0NIMl1bQ0gyXVtDSDJdW0NIMl1DKD1PKVtOSF1jMVtjSF1uW2NIXVtjSF1jMU4yW0NIMl1bQ0gyXU9bQ0gyXVtDSDJdMg==

> <s_epik_cmdline>
J2VwaWtfcHl0aG9uJywgJy1waCcsICc3LjAnLCAnLXRuJywgJzgnLCAnLW1hJywgJzIwMCcsICctbWV0YWxfYmluZGluZycsICctaW1hZScsICc8aW5maWxlLm1hZT4nLCAnLW9tYWUnLCAnPG91dGZpbGUubWFlPic=

> <r_lp_tautomer_probability>
1

> <r_epik_Ionization_Penalty>
0.153155

> <r_epik_Ionization_Penalty_Charging>
0.153154

> <r_epik_Ionization_Penalty_Neutral>
1.2848e-06

> <r_epik_State_Penalty>
0.142445

> <r_epik_Charging_Adjusted_Penalty>
0.295599

> <i_epik_Tot_Q>
1

> <i_epik_Tot_abs_Q>
1

> <r_epik_Metal_State_Penalty>
0.464899

> <b_epik_Metal_Only>
0

> <s_lp_Force_Field>
OPLS_2005

> <r_lp_Energy>
30.3927

> <b_lp_Chiralities_Consistent>
1

> <s_lp_Variant>
AV-unprocessed.smi:2233-1

> <Gold.Version>
5.8.1

> <Gold.Id.Protein>
6NUR|6NUR_protein|mol2

> <Gold.PLP.Fitness>
46.7838

> <Gold.PLP.PLP>
-39.5180

> <Gold.PLP.part.hbond>
-2.9692

> <Gold.PLP.part.metal>
0.0000

> <Gold.PLP.part.buried>
-0.6707

> <Gold.PLP.part.nonpolar>
-36.4713

> <Gold.PLP.part.repulsive>
0.5155

> <Gold.PLP.ligand.clash>
0.0000

> <Gold.PLP.ligand.torsion>
0.8821

> <Gold.PLP.Chemscore.Hbond>
2.9600

> <Gold.PLP.Chemscore.CHOScore>
0.0000

> <Gold.PLP.Chemscore.Metal>
0.0000

> <Gold.Chemscore.Hbonds>
donor molecule, donor type, donor heavy atom, donor atom, acceptor molecule, acceptor atom, score
      L1  H    12    43       P1  7948  2.00
      P1  H  7989  7998       L1     8  0.99

> <Gold.PLP.Chemscore.Internal.Correction>
0.1501

> <Gold.Rescore>
     Score         DG    S(hbond)    S(metal)    S(lipo)     H(rot)  DE(clash)    DE(int)     intcor
     16.23     -20.85       1.76        0.00     114.68       1.54       2.55       2.07       ----

> <Gold.Chemscore.Fitness>
16.2305

> <Gold.Chemscore.DG>
-20.8548

> <Gold.Chemscore.ZeroCoef>
-5.4800

> <Gold.Chemscore.Hbond>
1.7649

> <Gold.Chemscore.Metal>
0.0000

> <Gold.Chemscore.Lipo>
114.6779

> <Gold.Chemscore.Internal_Hbond>
0.0000

> <Gold.Chemscore.DEClash>
2.5541

> <Gold.Chemscore.DEInternal>
2.0702

> <Gold.Chemscore.Rot>
1.5380

> <Gold.Chemscore.Internal.Correction>
   9.000000E+99

> <Gold.Chemscore.Hbonds>
donor molecule, donor type, donor heavy atom, donor atom, acceptor molecule, acceptor atom, score
      L1  H    12    43       P1  7948  0.99
      P1  H  7989  7998       L1     8  0.69

> <Gold.Chemscore.Hbond.Weighted>
-5.8948

> <Gold.Chemscore.Metal.Weighted>
-0.0000

> <Gold.Chemscore.Lipo.Weighted>
-13.4173

> <Gold.Chemscore.Internal_Hbond.Weighted>
0.0000

> <Gold.Chemscore.DEClash.Weighted>
2.5541

> <Gold.Chemscore.DEInternal.Weighted>
2.0702

> <Gold.Chemscore.Rot.Weighted>
3.9373

> <Gold.Chemscore.Internal.Correction.Weighted>
   9.000000E+99

> <Gold.Protein.RotatedTorsions>
[ 6907 6896 6895 6894 ] final  159.34 input  -60.11 | X-H torsion
[ 7974 7965 7964 7962 ] final   91.03 input  175.53 | X-H torsion
[ 8008 7997 7996 7995 ] final  106.73 input   59.86 | X-H torsion
[ 10167 10162 10161 10158 ] final   -6.84 input  -65.29 | X-H torsion
[ 10718 10713 10712 10709 ] final   44.66 input   66.30 | X-H torsion
[ 10763 10752 10751 10750 ] final  179.92 input  -60.55 | X-H torsion
[ 11005 11000 10999 10996 ] final   99.65 input  -57.11 | X-H torsion

> <Gold.Protein.ActiveResidues>
 VAL166  LYS551  ARG553  GLY616  TRP617  ASP618  TYR619  PRO620  LYS621  CYS622 
 ASP623  PHE694  ASN695  SER759  ASP760  ASP761  ALA762  ILE779  LEU786  VAL792 
 PHE793  MET794  SER795  GLU796  ALA797  LYS798  CYS799  TRP800  GLU811  SER814 

> <Gold.Protein.RotatedAtoms>
  151.9871  133.3778  159.4129 H   0  0  0  0  0  0  0  0  0  0  0  0  # atno 6907 bound_to 6896
  150.6927  134.3977  159.5114 H   0  0  0  0  0  0  0  0  0  0  0  0  # atno 6908 bound_to 6896
  152.1704  134.8838  160.0585 H   0  0  0  0  0  0  0  0  0  0  0  0  # atno 6909 bound_to 6896
  145.5111  139.2277  143.2724 H   0  0  0  0  0  0  0  0  0  0  0  0  # atno 7974 bound_to 7965
  156.1767  140.3107  155.9071 H   0  0  0  0  0  0  0  0  0  0  0  0  # atno 8008 bound_to 7997
  155.3473  140.0469  157.3063 H   0  0  0  0  0  0  0  0  0  0  0  0  # atno 8009 bound_to 7997
  154.5297  140.2226  155.8836 H   0  0  0  0  0  0  0  0  0  0  0  0  # atno 8010 bound_to 7997
  140.7010  143.6148  150.8669 H   0  0  0  0  0  0  0  0  0  0  0  0  # atno 10167 bound_to 10162
  157.4292  130.8014  149.7587 H   0  0  0  0  0  0  0  0  0  0  0  0  # atno 10718 bound_to 10713
  154.5268  135.2797  155.1215 H   0  0  0  0  0  0  0  0  0  0  0  0  # atno 10763 bound_to 10752
  154.2750  135.6296  153.5328 H   0  0  0  0  0  0  0  0  0  0  0  0  # atno 10764 bound_to 10752
  152.9948  135.5637  154.5771 H   0  0  0  0  0  0  0  0  0  0  0  0  # atno 10765 bound_to 10752
  139.8770  134.9105  156.4637 H   0  0  0  0  0  0  0  0  0  0  0  0  # atno 11005 bound_to 11000
  146.2166  140.5918  142.9036 LP  0  0  0  0  0  0  0  0  0  0  0  0  # atno 17320 bound_to 7965
  144.7727  140.5672  143.6659 LP  0  0  0  0  0  0  0  0  0  0  0  0  # atno 17321 bound_to 7965
  139.9870  143.5888  152.2923 LP  0  0  0  0  0  0  0  0  0  0  0  0  # atno 17342 bound_to 10162
  139.6530  144.7661  151.2111 LP  0  0  0  0  0  0  0  0  0  0  0  0  # atno 17343 bound_to 10162
  155.9907  130.3943  150.3016 LP  0  0  0  0  0  0  0  0  0  0  0  0  # atno 17370 bound_to 10713
  157.1172  131.0237  151.3024 LP  0  0  0  0  0  0  0  0  0  0  0  0  # atno 17371 bound_to 10713
  140.8845  133.7893  155.9503 LP  0  0  0  0  0  0  0  0  0  0  0  0  # atno 17394 bound_to 11000
  140.8819  134.2601  157.5140 LP  0  0  0  0  0  0  0  0  0  0  0  0  # atno 17395 bound_to 11000

$$$$
