AV-unprocessed.smi:1988|AV-procd|sdf|8059|dock9
  -GOLD-   2272010263D 1   1.00000     0.00000
 Structure written by MMmdl.
 37 38  0  0  0  0  0  0  0  0  1 V2000
  145.4880  134.9759  151.1026 C   0  0  0  0  0  0  0  0  0  0  0  0
  145.2529  133.4930  151.0646 C   0  0  0  0  0  0  0  0  0  0  0  0
  144.1968  133.0163  150.4273 N   0  0  0  0  0  0  0  0  0  0  0  0
  144.2598  131.6267  150.5680 O   0  0  0  0  0  0  0  0  0  0  0  0
  145.3647  131.3174  151.2927 C   0  0  0  0  0  0  0  0  0  0  0  0
  145.6064  129.8688  151.5515 C   0  0  0  0  0  0  0  0  0  0  0  0
  146.0408  132.4550  151.6407 C   0  0  0  0  0  0  0  0  0  0  0  0
  147.3131  132.5914  152.4383 C   0  0  0  0  0  0  0  0  0  0  0  0
  147.0684  133.4647  153.6695 C   0  0  0  0  0  0  0  0  0  0  0  0
  146.3279  133.0668  154.5681 O   0  0  0  0  0  0  0  0  0  0  0  0
  147.6899  134.6543  153.6935 N   0  0  0  0  0  0  0  0  0  0  0  0
  147.6087  135.6351  154.7710 C   0  0  0  0  0  0  0  0  0  0  0  0
  148.9986  136.1442  155.2004 C   0  0  1  0  0  0  0  0  0  0  0  0
  148.9750  137.5202  155.9003 C   0  0  0  0  0  0  0  0  0  0  0  0
  150.3469  137.7757  156.5322 C   0  0  0  0  0  0  0  0  0  0  0  0
  150.9647  136.1337  157.0549 S   0  0  0  0  0  0  0  0  0  0  0  0
  152.2908  135.9100  156.4593 O   0  0  0  0  0  0  0  0  0  0  0  0
  150.7442  135.9619  158.4988 O   0  0  0  0  0  0  0  0  0  0  0  0
  149.7101  135.1589  156.1412 C   0  0  0  0  0  0  0  0  0  0  0  0
  145.8419  135.2919  152.0838 H   0  0  0  0  0  0  0  0  0  0  0  0
  144.5764  135.5345  150.8871 H   0  0  0  0  0  0  0  0  0  0  0  0
  146.2388  135.2686  150.3687 H   0  0  0  0  0  0  0  0  0  0  0  0
  146.2580  129.7277  152.4137 H   0  0  0  0  0  0  0  0  0  0  0  0
  146.0790  129.3978  150.6896 H   0  0  0  0  0  0  0  0  0  0  0  0
  144.6693  129.3484  151.7505 H   0  0  0  0  0  0  0  0  0  0  0  0
  147.6892  131.6206  152.7630 H   0  0  0  0  0  0  0  0  0  0  0  0
  148.1080  133.0355  151.8379 H   0  0  0  0  0  0  0  0  0  0  0  0
  148.2794  134.8917  152.9089 H   0  0  0  0  0  0  0  0  0  0  0  0
  146.9634  136.4700  154.4927 H   0  0  0  0  0  0  0  0  0  0  0  0
  147.1238  135.1482  155.6175 H   0  0  0  0  0  0  0  0  0  0  0  0
  149.6195  136.2443  154.3088 H   0  0  0  0  0  0  0  0  0  0  0  0
  148.7059  138.3237  155.2144 H   0  0  0  0  0  0  0  0  0  0  0  0
  148.2202  137.5079  156.6878 H   0  0  0  0  0  0  0  0  0  0  0  0
  151.0431  138.1796  155.7967 H   0  0  0  0  0  0  0  0  0  0  0  0
  150.3053  138.4541  157.3846 H   0  0  0  0  0  0  0  0  0  0  0  0
  149.0163  134.7450  156.8737 H   0  0  0  0  0  0  0  0  0  0  0  0
  150.1867  134.3336  155.6122 H   0  0  0  0  0  0  0  0  0  0  0  0
  1  2  1  0  0  0  0
  1 20  1  0  0  0  0
  1 21  1  0  0  0  0
  1 22  1  0  0  0  0
  2  7  1  0  0  0  0
  2  3  2  0  0  0  0
  3  4  1  0  0  0  0
  4  5  1  0  0  0  0
  5  6  1  0  0  0  0
  5  7  2  0  0  0  0
  6 23  1  0  0  0  0
  6 24  1  0  0  0  0
  6 25  1  0  0  0  0
  7  8  1  0  0  0  0
  8  9  1  0  0  0  0
  8 26  1  0  0  0  0
  8 27  1  0  0  0  0
  9 10  2  0  0  0  0
  9 11  1  0  0  0  0
 11 12  1  0  0  0  0
 11 28  1  0  0  0  0
 12 13  1  0  0  0  0
 12 29  1  0  0  0  0
 12 30  1  0  0  0  0
 13 19  1  0  0  0  0
 13 14  1  0  0  0  0
 13 31  1  0  0  0  0
 14 15  1  0  0  0  0
 14 32  1  0  0  0  0
 14 33  1  0  0  0  0
 15 16  1  0  0  0  0
 15 34  1  0  0  0  0
 15 35  1  0  0  0  0
 16 17  2  0  0  0  0
 16 18  2  0  0  0  0
 16 19  1  0  0  0  0
 19 36  1  0  0  0  0
 19 37  1  0  0  0  0
M  END
> <s_m_source_file>
AV-unprocessed.smi

> <i_m_source_file_index>
1988

> <i_lp_mmshare_version>
43012

> <i_f3d_flags>
0

> <s_epik_input>
W0NIM11jMW5vYyhbQ0gzXSljMVtDSDJdQyg9TylbTkhdW0NIMl1bQ0BASF0oW0NIMl0yKVtDSDJdW0NIMl1TMig9Tyk9Tw==

> <s_epik_cmdline>
J2VwaWtfcHl0aG9uJywgJy1waCcsICc3LjAnLCAnLXRuJywgJzgnLCAnLW1hJywgJzIwMCcsICctbWV0YWxfYmluZGluZycsICctaW1hZScsICc8aW5maWxlLm1hZT4nLCAnLW9tYWUnLCAnPG91dGZpbGUubWFlPic=

> <r_lp_tautomer_probability>
1

> <r_epik_Ionization_Penalty>
2.7503e-08

> <r_epik_Ionization_Penalty_Charging>
0

> <r_epik_Ionization_Penalty_Neutral>
2.7503e-08

> <r_epik_State_Penalty>
-0

> <r_epik_Charging_Adjusted_Penalty>
0

> <i_epik_Tot_Q>
0

> <i_epik_Tot_abs_Q>
0

> <r_epik_Metal_State_Penalty>
-0

> <b_epik_Metal_Only>
0

> <s_lp_Force_Field>
OPLS_2005

> <r_lp_Energy>
-1.59396

> <b_lp_Chiralities_Consistent>
1

> <s_lp_Variant>
AV-unprocessed.smi:1988-2

> <Gold.Version>
5.8.1

> <Gold.Id.Protein>
6NUR|6NUR_protein|mol2

> <Gold.PLP.Fitness>
31.0051

> <Gold.PLP.PLP>
-22.9700

> <Gold.PLP.part.hbond>
-3.2366

> <Gold.PLP.part.metal>
0.0000

> <Gold.PLP.part.buried>
-4.7389

> <Gold.PLP.part.nonpolar>
-15.5483

> <Gold.PLP.part.repulsive>
0.3980

> <Gold.PLP.ligand.clash>
0.0000

> <Gold.PLP.ligand.torsion>
0.3199

> <Gold.PLP.Chemscore.Hbond>
2.8880

> <Gold.PLP.Chemscore.CHOScore>
0.0000

> <Gold.PLP.Chemscore.Metal>
0.0000

> <Gold.Chemscore.Hbonds>
donor molecule, donor type, donor heavy atom, donor atom, acceptor molecule, acceptor atom, score
      L1  H    11    28       P1  7948  0.96
      P1  H  6896  6908       L1    18  0.72
      P1  H 10752 10764       L1    17  1.00

> <Gold.PLP.Chemscore.Internal.Correction>
0.0108

> <Gold.Rescore>
     Score         DG    S(hbond)    S(metal)    S(lipo)     H(rot)  DE(clash)    DE(int)     intcor
     16.63     -16.93       2.75        0.00      56.33       1.70       0.00       0.30       ----

> <Gold.Chemscore.Fitness>
16.6267

> <Gold.Chemscore.DG>
-16.9281

> <Gold.Chemscore.ZeroCoef>
-5.4800

> <Gold.Chemscore.Hbond>
2.7542

> <Gold.Chemscore.Metal>
0.0000

> <Gold.Chemscore.Lipo>
56.3285

> <Gold.Chemscore.Internal_Hbond>
0.0000

> <Gold.Chemscore.DEClash>
0.0048

> <Gold.Chemscore.DEInternal>
0.2966

> <Gold.Chemscore.Rot>
1.6958

> <Gold.Chemscore.Internal.Correction>
   9.000000E+99

> <Gold.Chemscore.Hbonds>
donor molecule, donor type, donor heavy atom, donor atom, acceptor molecule, acceptor atom, score
      L1  H    11    28       P1  7948  0.69
      P1  H  6896  6908       L1    18  0.71
      P1  H 10752 10764       L1    17  1.00

> <Gold.Chemscore.Hbond.Weighted>
-9.1989

> <Gold.Chemscore.Metal.Weighted>
-0.0000

> <Gold.Chemscore.Lipo.Weighted>
-6.5904

> <Gold.Chemscore.Internal_Hbond.Weighted>
0.0000

> <Gold.Chemscore.DEClash.Weighted>
0.0048

> <Gold.Chemscore.DEInternal.Weighted>
0.2966

> <Gold.Chemscore.Rot.Weighted>
4.3413

> <Gold.Chemscore.Internal.Correction.Weighted>
   9.000000E+99

> <Gold.Protein.RotatedTorsions>
[ 6907 6896 6895 6894 ] final -162.94 input  -60.11 | X-H torsion
[ 7974 7965 7964 7962 ] final  165.59 input  175.53 | X-H torsion
[ 8008 7997 7996 7995 ] final   52.96 input   59.86 | X-H torsion
[ 10167 10162 10161 10158 ] final -148.04 input  -65.29 | X-H torsion
[ 10718 10713 10712 10709 ] final  -41.17 input   66.30 | X-H torsion
[ 10763 10752 10751 10750 ] final  -10.67 input  -60.55 | X-H torsion
[ 11005 11000 10999 10996 ] final  -89.28 input  -57.11 | X-H torsion

> <Gold.Protein.ActiveResidues>
 VAL166  LYS551  ARG553  GLY616  TRP617  ASP618  TYR619  PRO620  LYS621  CYS622 
 ASP623  PHE694  ASN695  SER759  ASP760  ASP761  ALA762  ILE779  LEU786  VAL792 
 PHE793  MET794  SER795  GLU796  ALA797  LYS798  CYS799  TRP800  GLU811  SER814 

> <Gold.Protein.RotatedAtoms>
  151.3883  133.3797  159.2717 H   0  0  0  0  0  0  0  0  0  0  0  0  # atno 6907 bound_to 6896
  150.9525  134.8924  159.7691 H   0  0  0  0  0  0  0  0  0  0  0  0  # atno 6908 bound_to 6896
  152.5117  134.3839  159.9413 H   0  0  0  0  0  0  0  0  0  0  0  0  # atno 6909 bound_to 6896
  144.7496  139.8492  143.6370 H   0  0  0  0  0  0  0  0  0  0  0  0  # atno 7974 bound_to 7965
  155.4604  140.3461  155.4312 H   0  0  0  0  0  0  0  0  0  0  0  0  # atno 8008 bound_to 7997
  156.1164  140.1475  156.9296 H   0  0  0  0  0  0  0  0  0  0  0  0  # atno 8009 bound_to 7997
  154.4792  140.0875  156.7316 H   0  0  0  0  0  0  0  0  0  0  0  0  # atno 8010 bound_to 7997
  139.7568  143.8437  152.2598 H   0  0  0  0  0  0  0  0  0  0  0  0  # atno 10167 bound_to 10162
  156.2733  130.4209  149.8415 H   0  0  0  0  0  0  0  0  0  0  0  0  # atno 10718 bound_to 10713
  153.4725  135.7017  153.5985 H   0  0  0  0  0  0  0  0  0  0  0  0  # atno 10763 bound_to 10752
  153.4233  135.3820  155.2125 H   0  0  0  0  0  0  0  0  0  0  0  0  # atno 10764 bound_to 10752
  154.8724  135.3933  154.4165 H   0  0  0  0  0  0  0  0  0  0  0  0  # atno 10765 bound_to 10752
  141.1587  133.7621  156.9573 H   0  0  0  0  0  0  0  0  0  0  0  0  # atno 11005 bound_to 11000
  146.1428  139.4490  143.0098 LP  0  0  0  0  0  0  0  0  0  0  0  0  # atno 17320 bound_to 7965
  145.6991  141.0141  143.1514 LP  0  0  0  0  0  0  0  0  0  0  0  0  # atno 17321 bound_to 7965
  139.8431  144.7200  150.9306 LP  0  0  0  0  0  0  0  0  0  0  0  0  # atno 17342 bound_to 10162
  140.7803  143.3965  151.1220 LP  0  0  0  0  0  0  0  0  0  0  0  0  # atno 17343 bound_to 10162
  156.5889  130.8497  151.3403 LP  0  0  0  0  0  0  0  0  0  0  0  0  # atno 17370 bound_to 10713
  157.7291  130.9666  150.1771 LP  0  0  0  0  0  0  0  0  0  0  0  0  # atno 17371 bound_to 10713
  140.1217  134.9413  157.2212 LP  0  0  0  0  0  0  0  0  0  0  0  0  # atno 17394 bound_to 11000
  140.3064  134.3073  155.7277 LP  0  0  0  0  0  0  0  0  0  0  0  0  # atno 17395 bound_to 11000

$$$$
