AV-unprocessed.smi:2866|AV-procd|sdf|11019|dock9
  -GOLD-   2272015483D 1   1.00000     0.00000
 Structure written by MMmdl.
 41 43  0  0  0  0  0  0  0  0  1 V2000
  152.6744  143.1678  161.3307 C   0  0  0  0  0  0  0  0  0  0  0  0
  152.1257  142.7522  159.9770 C   0  0  0  0  0  0  0  0  0  0  0  0
  152.6198  141.5772  159.3668 C   0  0  0  0  0  0  0  0  0  0  0  0
  152.1358  141.1561  158.1088 C   0  0  0  0  0  0  0  0  0  0  0  0
  152.4722  140.0563  157.3380 N   0  0  0  0  0  0  0  0  0  0  0  0
  151.6788  140.2157  156.2825 C   0  0  0  0  0  0  0  0  0  0  0  0
  150.8639  141.2885  156.2808 N   0  0  0  0  0  0  0  0  0  0  0  0
  149.9149  141.6693  155.2498 C   0  0  0  0  0  0  0  0  0  0  0  0
  149.1576  140.4592  154.6712 C   0  0  2  0  0  0  0  0  0  0  0  0
  150.0129  139.7320  153.8089 O   0  0  0  0  0  0  0  0  0  0  0  0
  147.8847  140.8848  153.9151 C   0  0  0  0  0  0  0  0  0  0  0  0
  147.1518  139.7515  153.3776 N   0  0  0  0  0  0  0  0  0  0  0  0
  147.0304  139.3588  152.0624 C   0  0  0  0  0  0  0  0  0  0  0  0
  146.2437  138.2433  152.0436 C   0  0  0  0  0  0  0  0  0  0  0  0
  145.9256  138.0196  153.4149 C   0  0  0  0  0  0  0  0  0  0  0  0
  145.0802  136.9251  154.0115 C   0  0  0  0  0  0  0  0  0  0  0  0
  145.6160  135.7329  153.7496 F   0  0  0  0  0  0  0  0  0  0  0  0
  145.0021  137.0786  155.3333 F   0  0  0  0  0  0  0  0  0  0  0  0
  143.8519  136.9656  153.4957 F   0  0  0  0  0  0  0  0  0  0  0  0
  146.4790  138.9271  154.2083 N   0  0  0  0  0  0  0  0  0  0  0  0
  151.1354  141.9485  157.4738 C   0  0  0  0  0  0  0  0  0  0  0  0
  150.6372  143.1203  158.0697 C   0  0  0  0  0  0  0  0  0  0  0  0
  151.1323  143.5273  159.3263 C   0  0  0  0  0  0  0  0  0  0  0  0
  150.5887  144.7949  159.9614 C   0  0  0  0  0  0  0  0  0  0  0  0
  153.4058  142.4493  161.7018 H   0  0  0  0  0  0  0  0  0  0  0  0
  151.8716  143.2359  162.0651 H   0  0  0  0  0  0  0  0  0  0  0  0
  153.1645  144.1392  161.2610 H   0  0  0  0  0  0  0  0  0  0  0  0
  153.3773  140.9873  159.8616 H   0  0  0  0  0  0  0  0  0  0  0  0
  151.6866  139.5095  155.4650 H   0  0  0  0  0  0  0  0  0  0  0  0
  149.2120  142.3815  155.6836 H   0  0  0  0  0  0  0  0  0  0  0  0
  150.4490  142.1987  154.4592 H   0  0  0  0  0  0  0  0  0  0  0  0
  148.8743  139.7952  155.4888 H   0  0  0  0  0  0  0  0  0  0  0  0
  149.6137  139.6940  152.9531 H   0  0  0  0  0  0  0  0  0  0  0  0
  147.2166  141.4275  154.5847 H   0  0  0  0  0  0  0  0  0  0  0  0
  148.1332  141.5691  153.1020 H   0  0  0  0  0  0  0  0  0  0  0  0
  147.5057  139.9016  151.2587 H   0  0  0  0  0  0  0  0  0  0  0  0
  145.9389  137.6720  151.1793 H   0  0  0  0  0  0  0  0  0  0  0  0
  149.8799  143.7002  157.5633 H   0  0  0  0  0  0  0  0  0  0  0  0
  149.8419  145.2702  159.3247 H   0  0  0  0  0  0  0  0  0  0  0  0
  151.3914  145.5131  160.1285 H   0  0  0  0  0  0  0  0  0  0  0  0
  150.1181  144.5710  160.9190 H   0  0  0  0  0  0  0  0  0  0  0  0
  1  2  1  0  0  0  0
  1 25  1  0  0  0  0
  1 26  1  0  0  0  0
  1 27  1  0  0  0  0
  2 23  1  0  0  0  0
  2  3  2  0  0  0  0
  3  4  1  0  0  0  0
  3 28  1  0  0  0  0
  4 21  2  0  0  0  0
  4  5  1  0  0  0  0
  5  6  2  0  0  0  0
  6  7  1  0  0  0  0
  6 29  1  0  0  0  0
  7  8  1  0  0  0  0
  7 21  1  0  0  0  0
  8  9  1  0  0  0  0
  8 30  1  0  0  0  0
  8 31  1  0  0  0  0
  9 10  1  0  0  0  0
  9 11  1  0  0  0  0
  9 32  1  0  0  0  0
 10 33  1  0  0  0  0
 11 12  1  0  0  0  0
 11 34  1  0  0  0  0
 11 35  1  0  0  0  0
 12 20  1  0  0  0  0
 12 13  1  0  0  0  0
 13 14  2  0  0  0  0
 13 36  1  0  0  0  0
 14 15  1  0  0  0  0
 14 37  1  0  0  0  0
 15 16  1  0  0  0  0
 15 20  2  0  0  0  0
 16 17  1  0  0  0  0
 16 18  1  0  0  0  0
 16 19  1  0  0  0  0
 21 22  1  0  0  0  0
 22 23  2  0  0  0  0
 22 38  1  0  0  0  0
 23 24  1  0  0  0  0
 24 39  1  0  0  0  0
 24 40  1  0  0  0  0
 24 41  1  0  0  0  0
M  END
> <s_m_source_file>
AV-unprocessed.smi

> <i_m_source_file_index>
2866

> <i_lp_mmshare_version>
43012

> <i_f3d_flags>
0

> <s_epik_input>
W0NIM11jKFtjSF0xKWMoW0NIM10pW2NIXWMoYzEyKW4oW2NIXW4yKVtDSDJdW0NASF0oW09IXSlbQ0gyXW4zW2NIXVtjSF1jKG4zKUMoRikoRilG

> <s_epik_cmdline>
J2VwaWtfcHl0aG9uJywgJy1waCcsICc3LjAnLCAnLXRuJywgJzgnLCAnLW1hJywgJzIwMCcsICctbWV0YWxfYmluZGluZycsICctaW1hZScsICc8aW5maWxlLm1hZT4nLCAnLW9tYWUnLCAnPG91dGZpbGUubWFlPic=

> <r_lp_tautomer_probability>
1

> <r_epik_Ionization_Penalty>
0.1021

> <r_epik_Ionization_Penalty_Charging>
0

> <r_epik_Ionization_Penalty_Neutral>
0.1021

> <r_epik_State_Penalty>
0.0920694

> <r_epik_Charging_Adjusted_Penalty>
0.0920694

> <i_epik_Tot_Q>
0

> <i_epik_Tot_abs_Q>
0

> <r_epik_Metal_State_Penalty>
0.0784291

> <b_epik_Metal_Only>
0

> <s_lp_Force_Field>
OPLS_2005

> <r_lp_Energy>
11.3604

> <b_lp_Chiralities_Consistent>
1

> <s_lp_Variant>
AV-unprocessed.smi:2866-1

> <Gold.Version>
5.8.1

> <Gold.Id.Protein>
6NUR|6NUR_protein|mol2

> <Gold.PLP.Fitness>
56.9281

> <Gold.PLP.PLP>
-46.5772

> <Gold.PLP.part.hbond>
-3.0000

> <Gold.PLP.part.metal>
0.0000

> <Gold.PLP.part.buried>
-2.1472

> <Gold.PLP.part.nonpolar>
-41.9712

> <Gold.PLP.part.repulsive>
0.1262

> <Gold.PLP.ligand.clash>
0.0000

> <Gold.PLP.ligand.torsion>
0.5296

> <Gold.PLP.Chemscore.Hbond>
2.9120

> <Gold.PLP.Chemscore.CHOScore>
0.8776

> <Gold.PLP.Chemscore.Metal>
0.0000

> <Gold.Chemscore.Hbonds>
donor molecule, donor type, donor heavy atom, donor atom, acceptor molecule, acceptor atom, score
      L1  H    10    33       P1  7957  1.00
      P1  H  7989  7998       L1    10  0.90
      P1  H  7997  8010       L1     5  0.99
      L1  C    13    36       P1  7957  0.84

> <Gold.PLP.Chemscore.Internal.Correction>
0.0412

> <Gold.Rescore>
     Score         DG    S(hbond)    S(metal)    S(lipo)     H(rot)  DE(clash)    DE(int)     intcor
     18.89     -19.83       2.11        0.00     115.33       2.42       0.38       0.56       ----

> <Gold.Chemscore.Fitness>
18.8859

> <Gold.Chemscore.DG>
-19.8276

> <Gold.Chemscore.ZeroCoef>
-5.4800

> <Gold.Chemscore.Hbond>
2.1138

> <Gold.Chemscore.Metal>
0.0000

> <Gold.Chemscore.Lipo>
115.3314

> <Gold.Chemscore.Internal_Hbond>
0.0000

> <Gold.Chemscore.DEClash>
0.3778

> <Gold.Chemscore.DEInternal>
0.5638

> <Gold.Chemscore.Rot>
2.4243

> <Gold.Chemscore.Internal.Correction>
   9.000000E+99

> <Gold.Chemscore.Hbonds>
donor molecule, donor type, donor heavy atom, donor atom, acceptor molecule, acceptor atom, score
      L1  H    10    33       P1  7957  0.96
      P1  H  7989  7998       L1    10  0.18
      P1  H  7997  8010       L1     5  0.36

> <Gold.Chemscore.Hbond.Weighted>
-7.0601

> <Gold.Chemscore.Metal.Weighted>
-0.0000

> <Gold.Chemscore.Lipo.Weighted>
-13.4938

> <Gold.Chemscore.Internal_Hbond.Weighted>
0.0000

> <Gold.Chemscore.DEClash.Weighted>
0.3778

> <Gold.Chemscore.DEInternal.Weighted>
0.5638

> <Gold.Chemscore.Rot.Weighted>
6.2063

> <Gold.Chemscore.Internal.Correction.Weighted>
   9.000000E+99

> <Gold.Protein.RotatedTorsions>
[ 6907 6896 6895 6894 ] final -174.71 input  -60.11 | X-H torsion
[ 7974 7965 7964 7962 ] final  -32.78 input  175.53 | X-H torsion
[ 8008 7997 7996 7995 ] final   64.97 input   59.86 | X-H torsion
[ 10167 10162 10161 10158 ] final  -78.52 input  -65.29 | X-H torsion
[ 10718 10713 10712 10709 ] final   54.32 input   66.30 | X-H torsion
[ 10763 10752 10751 10750 ] final   87.05 input  -60.55 | X-H torsion
[ 11005 11000 10999 10996 ] final   -4.36 input  -57.11 | X-H torsion

> <Gold.Protein.ActiveResidues>
 VAL166  LYS551  ARG553  GLY616  TRP617  ASP618  TYR619  PRO620  LYS621  CYS622 
 ASP623  PHE694  ASN695  SER759  ASP760  ASP761  ALA762  ILE779  LEU786  VAL792 
 PHE793  MET794  SER795  GLU796  ALA797  LYS798  CYS799  TRP800  GLU811  SER814 

> <Gold.Protein.RotatedAtoms>
  151.5768  133.3383  159.3000 H   0  0  0  0  0  0  0  0  0  0  0  0  # atno 6907 bound_to 6896
  150.8336  134.7603  159.6885 H   0  0  0  0  0  0  0  0  0  0  0  0  # atno 6908 bound_to 6896
  152.4416  134.5586  159.9939 H   0  0  0  0  0  0  0  0  0  0  0  0  # atno 6909 bound_to 6896
  146.0963  140.5834  142.8841 H   0  0  0  0  0  0  0  0  0  0  0  0  # atno 7974 bound_to 7965
  155.6543  140.3497  155.4759 H   0  0  0  0  0  0  0  0  0  0  0  0  # atno 8008 bound_to 7997
  155.9821  140.1176  157.0740 H   0  0  0  0  0  0  0  0  0  0  0  0  # atno 8009 bound_to 7997
  154.4194  140.1136  156.5436 H   0  0  0  0  0  0  0  0  0  0  0  0  # atno 8010 bound_to 7997
  140.4675  143.2436  151.8256 H   0  0  0  0  0  0  0  0  0  0  0  0  # atno 10167 bound_to 10162
  157.5246  130.8588  149.8604 H   0  0  0  0  0  0  0  0  0  0  0  0  # atno 10718 bound_to 10713
  153.1630  135.4557  154.9799 H   0  0  0  0  0  0  0  0  0  0  0  0  # atno 10763 bound_to 10752
  154.7912  135.3221  154.7776 H   0  0  0  0  0  0  0  0  0  0  0  0  # atno 10764 bound_to 10752
  153.8263  135.6942  153.4875 H   0  0  0  0  0  0  0  0  0  0  0  0  # atno 10765 bound_to 10752
  140.6794  133.9167  155.8545 H   0  0  0  0  0  0  0  0  0  0  0  0  # atno 11005 bound_to 11000
  144.7398  140.4910  143.6877 LP  0  0  0  0  0  0  0  0  0  0  0  0  # atno 17320 bound_to 7965
  145.5942  139.1498  143.3165 LP  0  0  0  0  0  0  0  0  0  0  0  0  # atno 17321 bound_to 7965
  139.4814  144.4933  151.9156 LP  0  0  0  0  0  0  0  0  0  0  0  0  # atno 17342 bound_to 10162
  140.4018  144.2483  150.5892 LP  0  0  0  0  0  0  0  0  0  0  0  0  # atno 17343 bound_to 10162
  156.0378  130.3747  150.1515 LP  0  0  0  0  0  0  0  0  0  0  0  0  # atno 17370 bound_to 10713
  156.9702  130.9832  151.3460 LP  0  0  0  0  0  0  0  0  0  0  0  0  # atno 17371 bound_to 10713
  141.0329  134.0730  157.3993 LP  0  0  0  0  0  0  0  0  0  0  0  0  # atno 17394 bound_to 11000
  139.8956  135.0142  156.7012 LP  0  0  0  0  0  0  0  0  0  0  0  0  # atno 17395 bound_to 11000

$$$$
