AV-unprocessed.smi:2976|AV-procd|sdf|11364|dock9
  -GOLD-   2272016283D 1   1.00000     0.00000
 Structure written by MMmdl.
 40 41  0  0  0  0  0  0  0  0  1 V2000
  151.8144  144.1505  160.5918 C   0  0  0  0  0  0  0  0  0  0  0  0
  152.5984  143.0442  159.8611 C   0  0  1  0  0  0  0  0  0  0  0  0
  153.3670  142.1932  160.8919 C   0  0  0  0  0  0  0  0  0  0  0  0
  154.1917  141.0886  160.2223 C   0  0  0  0  0  0  0  0  0  0  0  0
  153.2944  140.1899  159.3664 C   0  0  0  0  0  0  0  0  0  0  0  0
  152.5261  141.0058  158.3116 C   0  0  1  0  0  0  0  0  0  0  0  0
  151.6589  140.0949  157.5639 N   0  0  0  0  0  0  0  0  0  0  0  0
  151.9708  139.4696  156.4177 C   0  0  0  0  0  0  0  0  0  0  0  0
  153.0554  139.5996  155.8481 O   0  0  0  0  0  0  0  0  0  0  0  0
  150.8702  138.5713  155.8328 C   0  0  0  0  0  0  0  0  0  0  0  0
  149.8092  139.3119  155.1335 N   0  0  0  0  0  0  0  0  0  0  0  0
  150.0170  140.6794  155.0852 N   0  0  0  0  0  0  0  0  0  0  0  0
  149.1619  141.4301  154.4807 C   0  0  0  0  0  0  0  0  0  0  0  0
  147.9783  140.8936  153.8464 C   0  0  0  0  0  0  0  0  0  0  0  0
  146.8673  141.9508  153.0491 Cl  0  0  0  0  0  0  0  0  0  0  0  0
  147.7803  139.5525  153.9052 C   0  0  0  0  0  0  0  0  0  0  0  0
  146.3857  138.8371  153.1719 Cl  0  0  0  0  0  0  0  0  0  0  0  0
  148.7338  138.6654  154.5861 C   0  0  0  0  0  0  0  0  0  0  0  0
  148.5900  137.4445  154.6617 O   0  0  0  0  0  0  0  0  0  0  0  0
  151.7004  142.1544  158.9542 C   0  0  2  0  0  0  0  0  0  0  0  0
  150.9691  142.9836  157.8754 C   0  0  0  0  0  0  0  0  0  0  0  0
  150.9926  143.7343  161.1754 H   0  0  0  0  0  0  0  0  0  0  0  0
  151.3999  144.8824  159.8995 H   0  0  0  0  0  0  0  0  0  0  0  0
  152.4606  144.7000  161.2770 H   0  0  0  0  0  0  0  0  0  0  0  0
  153.3374  143.5344  159.2253 H   0  0  0  0  0  0  0  0  0  0  0  0
  154.0311  142.8292  161.4788 H   0  0  0  0  0  0  0  0  0  0  0  0
  152.6659  141.7463  161.5983 H   0  0  0  0  0  0  0  0  0  0  0  0
  154.9704  141.5331  159.6010 H   0  0  0  0  0  0  0  0  0  0  0  0
  154.7006  140.4926  160.9803 H   0  0  0  0  0  0  0  0  0  0  0  0
  153.9017  139.4258  158.8791 H   0  0  0  0  0  0  0  0  0  0  0  0
  152.5912  139.6608  160.0115 H   0  0  0  0  0  0  0  0  0  0  0  0
  153.2617  141.4573  157.6431 H   0  0  0  0  0  0  0  0  0  0  0  0
  150.7419  139.9288  157.9525 H   0  0  0  0  0  0  0  0  0  0  0  0
  151.3276  137.8415  155.1622 H   0  0  0  0  0  0  0  0  0  0  0  0
  150.4397  137.9863  156.6478 H   0  0  0  0  0  0  0  0  0  0  0  0
  149.2854  142.5113  154.4156 H   0  0  0  0  0  0  0  0  0  0  0  0
  150.9379  141.6991  159.5887 H   0  0  0  0  0  0  0  0  0  0  0  0
  151.6777  143.5023  157.2290 H   0  0  0  0  0  0  0  0  0  0  0  0
  150.3080  143.7294  158.3145 H   0  0  0  0  0  0  0  0  0  0  0  0
  150.3402  142.3603  157.2401 H   0  0  0  0  0  0  0  0  0  0  0  0
  1  2  1  0  0  0  0
  1 22  1  0  0  0  0
  1 23  1  0  0  0  0
  1 24  1  0  0  0  0
  2 20  1  0  0  0  0
  2  3  1  0  0  0  0
  2 25  1  0  0  0  0
  3  4  1  0  0  0  0
  3 26  1  0  0  0  0
  3 27  1  0  0  0  0
  4  5  1  0  0  0  0
  4 28  1  0  0  0  0
  4 29  1  0  0  0  0
  5  6  1  0  0  0  0
  5 30  1  0  0  0  0
  5 31  1  0  0  0  0
  6  7  1  0  0  0  0
  6 20  1  0  0  0  0
  6 32  1  0  0  0  0
  7  8  1  0  0  0  0
  7 33  1  0  0  0  0
  8  9  2  0  0  0  0
  8 10  1  0  0  0  0
 10 11  1  0  0  0  0
 10 34  1  0  0  0  0
 10 35  1  0  0  0  0
 11 18  1  0  0  0  0
 11 12  1  0  0  0  0
 12 13  2  0  0  0  0
 13 14  1  0  0  0  0
 13 36  1  0  0  0  0
 14 15  1  0  0  0  0
 14 16  2  0  0  0  0
 16 17  1  0  0  0  0
 16 18  1  0  0  0  0
 18 19  2  0  0  0  0
 20 21  1  0  0  0  0
 20 37  1  0  0  0  0
 21 38  1  0  0  0  0
 21 39  1  0  0  0  0
 21 40  1  0  0  0  0
M  END
> <s_m_source_file>
AV-unprocessed.smi

> <i_m_source_file_index>
2976

> <i_lp_mmshare_version>
43012

> <i_f3d_flags>
0

> <s_epik_input>
W0NIM11bQ0BASF0xW0NIMl1bQ0gyXVtDSDJdW0NASF0oW0NASF0xW0NIM10pW05IXUMoPU8pW0NIMl1uMm5bY0hdYyhDbCljKENsKWMyPU8=

> <s_epik_cmdline>
J2VwaWtfcHl0aG9uJywgJy1waCcsICc3LjAnLCAnLXRuJywgJzgnLCAnLW1hJywgJzIwMCcsICctbWV0YWxfYmluZGluZycsICctaW1hZScsICc8aW5maWxlLm1hZT4nLCAnLW9tYWUnLCAnPG91dGZpbGUubWFlPic=

> <r_lp_tautomer_probability>
1

> <r_epik_Ionization_Penalty>
1.90777e-08

> <r_epik_Ionization_Penalty_Charging>
3.07942e-11

> <r_epik_Ionization_Penalty_Neutral>
1.90469e-08

> <r_epik_State_Penalty>
-0

> <r_epik_Charging_Adjusted_Penalty>
3.07942e-11

> <i_epik_Tot_Q>
0

> <i_epik_Tot_abs_Q>
0

> <r_epik_Metal_State_Penalty>
-0

> <b_epik_Metal_Only>
0

> <s_lp_Force_Field>
OPLS_2005

> <r_lp_Energy>
26.9637

> <b_lp_Chiralities_Consistent>
1

> <s_lp_Variant>
AV-unprocessed.smi:2976-6

> <Gold.Version>
5.8.1

> <Gold.Id.Protein>
6NUR|6NUR_protein|mol2

> <Gold.PLP.Fitness>
43.2778

> <Gold.PLP.PLP>
-37.8368

> <Gold.PLP.part.hbond>
-1.4208

> <Gold.PLP.part.metal>
0.0000

> <Gold.PLP.part.buried>
-4.1600

> <Gold.PLP.part.nonpolar>
-32.3126

> <Gold.PLP.part.repulsive>
0.7338

> <Gold.PLP.ligand.clash>
0.0000

> <Gold.PLP.ligand.torsion>
0.6081

> <Gold.PLP.Chemscore.Hbond>
1.2600

> <Gold.PLP.Chemscore.CHOScore>
0.9568

> <Gold.PLP.Chemscore.Metal>
0.0000

> <Gold.Chemscore.Hbonds>
donor molecule, donor type, donor heavy atom, donor atom, acceptor molecule, acceptor atom, score
      P1  H  7989  7998       L1    12  0.27
      P1  H  7997  8010       L1     9  0.99
      L1  C    13    36       P1  8028  0.96

> <Gold.PLP.Chemscore.Internal.Correction>
0.0070

> <Gold.Rescore>
     Score         DG    S(hbond)    S(metal)    S(lipo)     H(rot)  DE(clash)    DE(int)     intcor
     17.60     -18.21       0.98        0.00     113.35       1.49       0.02       0.59       ----

> <Gold.Chemscore.Fitness>
17.5985

> <Gold.Chemscore.DG>
-18.2066

> <Gold.Chemscore.ZeroCoef>
-5.4800

> <Gold.Chemscore.Hbond>
0.9791

> <Gold.Chemscore.Metal>
0.0000

> <Gold.Chemscore.Lipo>
113.3519

> <Gold.Chemscore.Internal_Hbond>
0.0000

> <Gold.Chemscore.DEClash>
0.0224

> <Gold.Chemscore.DEInternal>
0.5857

> <Gold.Chemscore.Rot>
1.4866

> <Gold.Chemscore.Internal.Correction>
   9.000000E+99

> <Gold.Chemscore.Hbonds>
donor molecule, donor type, donor heavy atom, donor atom, acceptor molecule, acceptor atom, score
      P1  H  7989  7998       L1    12  0.01
      P1  H  7997  8010       L1     9  0.88

> <Gold.Chemscore.Hbond.Weighted>
-3.2701

> <Gold.Chemscore.Metal.Weighted>
-0.0000

> <Gold.Chemscore.Lipo.Weighted>
-13.2622

> <Gold.Chemscore.Internal_Hbond.Weighted>
0.0000

> <Gold.Chemscore.DEClash.Weighted>
0.0224

> <Gold.Chemscore.DEInternal.Weighted>
0.5857

> <Gold.Chemscore.Rot.Weighted>
3.8057

> <Gold.Chemscore.Internal.Correction.Weighted>
   9.000000E+99

> <Gold.Protein.RotatedTorsions>
[ 6907 6896 6895 6894 ] final -125.85 input  -60.11 | X-H torsion
[ 7974 7965 7964 7962 ] final  -97.79 input  175.53 | X-H torsion
[ 8008 7997 7996 7995 ] final  105.91 input   59.86 | X-H torsion
[ 10167 10162 10161 10158 ] final  -22.37 input  -65.29 | X-H torsion
[ 10718 10713 10712 10709 ] final   -4.80 input   66.30 | X-H torsion
[ 10763 10752 10751 10750 ] final   52.53 input  -60.55 | X-H torsion
[ 11005 11000 10999 10996 ] final  -67.76 input  -57.11 | X-H torsion

> <Gold.Protein.ActiveResidues>
 VAL166  LYS551  ARG553  GLY616  TRP617  ASP618  TYR619  PRO620  LYS621  CYS622 
 ASP623  PHE694  ASN695  SER759  ASP760  ASP761  ALA762  ILE779  LEU786  VAL792 
 PHE793  MET794  SER795  GLU796  ALA797  LYS798  CYS799  TRP800  GLU811  SER814 

> <Gold.Protein.RotatedAtoms>
  150.8909  133.7244  159.2904 H   0  0  0  0  0  0  0  0  0  0  0  0  # atno 6907 bound_to 6896
  151.4795  135.1050  159.9783 H   0  0  0  0  0  0  0  0  0  0  0  0  # atno 6908 bound_to 6896
  152.4819  133.8229  159.7118 H   0  0  0  0  0  0  0  0  0  0  0  0  # atno 6909 bound_to 6896
  145.3291  140.9438  143.2672 H   0  0  0  0  0  0  0  0  0  0  0  0  # atno 7974 bound_to 7965
  156.1699  140.3122  155.8954 H   0  0  0  0  0  0  0  0  0  0  0  0  # atno 8008 bound_to 7997
  155.3609  140.0476  157.3063 H   0  0  0  0  0  0  0  0  0  0  0  0  # atno 8009 bound_to 7997
  154.5230  140.2204  155.8952 H   0  0  0  0  0  0  0  0  0  0  0  0  # atno 8010 bound_to 7997
  140.7285  143.4540  151.0474 H   0  0  0  0  0  0  0  0  0  0  0  0  # atno 10167 bound_to 10162
  156.7560  130.5254  149.5794 H   0  0  0  0  0  0  0  0  0  0  0  0  # atno 10718 bound_to 10713
  152.9789  135.5809  154.4594 H   0  0  0  0  0  0  0  0  0  0  0  0  # atno 10763 bound_to 10752
  154.4172  135.2771  155.2001 H   0  0  0  0  0  0  0  0  0  0  0  0  # atno 10764 bound_to 10752
  154.3765  135.6156  153.5822 H   0  0  0  0  0  0  0  0  0  0  0  0  # atno 10765 bound_to 10752
  141.1516  133.6726  156.6342 H   0  0  0  0  0  0  0  0  0  0  0  0  # atno 11005 bound_to 11000
  144.8878  139.4815  143.6692 LP  0  0  0  0  0  0  0  0  0  0  0  0  # atno 17320 bound_to 7965
  146.3053  139.7558  142.9061 LP  0  0  0  0  0  0  0  0  0  0  0  0  # atno 17321 bound_to 7965
  139.8219  143.7808  152.3177 LP  0  0  0  0  0  0  0  0  0  0  0  0  # atno 17342 bound_to 10162
  139.7894  144.7416  150.9977 LP  0  0  0  0  0  0  0  0  0  0  0  0  # atno 17343 bound_to 10162
  156.1370  130.6218  151.0414 LP  0  0  0  0  0  0  0  0  0  0  0  0  # atno 17370 bound_to 10713
  157.6756  131.0851  150.7503 LP  0  0  0  0  0  0  0  0  0  0  0  0  # atno 17371 bound_to 10713
  140.3443  134.7822  157.4421 LP  0  0  0  0  0  0  0  0  0  0  0  0  # atno 17394 bound_to 11000
  140.0912  134.5599  155.8442 LP  0  0  0  0  0  0  0  0  0  0  0  0  # atno 17395 bound_to 11000

$$$$
