AV-unprocessed.smi:1527|AV-procd|sdf|6148|dock2
  -GOLD-   22720 6293D 1   1.00000     0.00000
 Structure written by MMmdl.
 30 30  0  0  0  0  0  0  0  0  2 V2000
  153.1949  142.6074  161.7254 C   0  0  0  0  0  0  0  0  0  0  0  0
  152.9980  142.6785  160.2041 C   0  0  0  0  0  0  0  0  0  0  0  0
  151.6320  143.2524  159.7821 C   0  0  1  0  0  0  0  0  0  0  0  0
  151.5392  144.7600  160.0562 C   0  0  0  0  0  0  0  0  0  0  0  0
  151.3920  143.0042  158.3616 N   0  0  0  0  0  0  0  0  0  0  0  0
  151.4193  141.8086  157.7517 C   0  0  0  0  0  0  0  0  0  0  0  0
  151.6575  140.7534  158.3415 O   0  0  0  0  0  0  0  0  0  0  0  0
  151.1335  141.8345  156.2416 C   0  0  0  0  0  0  0  0  0  0  0  0
  151.2109  140.5195  155.5883 N   0  0  0  0  0  0  0  0  0  0  0  0
  152.5420  139.9204  155.6277 N   0  5  0  0  0  0  0  0  0  0  0  0
  152.7326  138.6930  155.0753 C   0  0  0  0  0  0  0  0  0  0  0  0
  153.8193  138.1195  155.0850 O   0  0  0  0  0  0  0  0  0  0  0  0
  151.5958  138.0419  154.4454 C   0  0  0  0  0  0  0  0  0  0  0  0
  150.3837  138.6294  154.4023 C   0  0  0  0  0  0  0  0  0  0  0  0
  150.1327  139.9423  154.9844 C   0  0  0  0  0  0  0  0  0  0  0  0
  149.0307  140.4897  154.9399 O   0  0  0  0  0  0  0  0  0  0  0  0
  154.1930  142.2439  161.9699 H   0  0  0  0  0  0  0  0  0  0  0  0
  152.4763  141.9333  162.1924 H   0  0  0  0  0  0  0  0  0  0  0  0
  153.0777  143.5902  162.1829 H   0  0  0  0  0  0  0  0  0  0  0  0
  153.7904  143.2970  159.7811 H   0  0  0  0  0  0  0  0  0  0  0  0
  153.1295  141.6835  159.7769 H   0  0  0  0  0  0  0  0  0  0  0  0
  150.8663  142.7621  160.3857 H   0  0  0  0  0  0  0  0  0  0  0  0
  151.6903  144.9762  161.1142 H   0  0  0  0  0  0  0  0  0  0  0  0
  150.5594  145.1497  159.7780 H   0  0  0  0  0  0  0  0  0  0  0  0
  152.2909  145.3141  159.4927 H   0  0  0  0  0  0  0  0  0  0  0  0
  151.1936  143.8124  157.7902 H   0  0  0  0  0  0  0  0  0  0  0  0
  150.1454  142.2684  156.0789 H   0  0  0  0  0  0  0  0  0  0  0  0
  151.8358  142.5274  155.7743 H   0  0  0  0  0  0  0  0  0  0  0  0
  151.7271  137.0666  154.0001 H   0  0  0  0  0  0  0  0  0  0  0  0
  149.5678  138.1094  153.9229 H   0  0  0  0  0  0  0  0  0  0  0  0
  1  2  1  0  0  0  0
  1 17  1  0  0  0  0
  1 18  1  0  0  0  0
  1 19  1  0  0  0  0
  2  3  1  0  0  0  0
  2 20  1  0  0  0  0
  2 21  1  0  0  0  0
  3  4  1  0  0  0  0
  3  5  1  0  0  0  0
  3 22  1  0  0  0  0
  4 23  1  0  0  0  0
  4 24  1  0  0  0  0
  4 25  1  0  0  0  0
  5  6  1  0  0  0  0
  5 26  1  0  0  0  0
  6  7  2  0  0  0  0
  6  8  1  0  0  0  0
  8 27  1  0  0  0  0
  8 28  1  0  0  0  0
  8  9  1  0  0  0  0
  9 10  1  0  0  0  0
  9 15  1  0  0  0  0
 10 11  1  0  0  0  0
 11 12  2  0  0  0  0
 11 13  1  0  0  0  0
 13 29  1  0  0  0  0
 13 14  2  0  0  0  0
 14 30  1  0  0  0  0
 14 15  1  0  0  0  0
 15 16  2  0  0  0  0
M  CHG  1  10  -1
M  END
> <s_m_source_file>
AV-unprocessed.smi

> <i_m_source_file_index>
1527

> <i_lp_mmshare_version>
43012

> <i_f3d_flags>
0

> <s_epik_input>
W0NIM11bQ0gyXVtDQEhdKFtDSDNdKVtOSF1DKD1PKVtDSDJdbjFbbkhdYyg9TylbY0hdW2NIXWMxPU8=

> <s_epik_cmdline>
J2VwaWtfcHl0aG9uJywgJy1waCcsICc3LjAnLCAnLXRuJywgJzgnLCAnLW1hJywgJzIwMCcsICctbWV0YWxfYmluZGluZycsICctaW1hZScsICc8aW5maWxlLm1hZT4nLCAnLW9tYWUnLCAnPG91dGZpbGUubWFlPic=

> <r_lp_tautomer_probability>
1

> <r_epik_Ionization_Penalty>
0.0984334

> <r_epik_Ionization_Penalty_Charging>
0.0984334

> <r_epik_Ionization_Penalty_Neutral>
1.93017e-08

> <r_epik_State_Penalty>
0.0346952

> <r_epik_Charging_Adjusted_Penalty>
0.133129

> <i_epik_Tot_Q>
-1

> <i_epik_Tot_abs_Q>
1

> <r_epik_Metal_State_Penalty>
0.0346952

> <b_epik_Metal_Only>
0

> <s_lp_Force_Field>
OPLS_2005

> <r_lp_Energy>
18.954

> <b_lp_Chiralities_Consistent>
1

> <s_lp_Variant>
AV-unprocessed.smi:1527-2

> <Gold.Version>
5.8.1

> <Gold.Id.Protein>
6NUR|6NUR_protein|mol2

> <Gold.PLP.Fitness>
43.3188

> <Gold.PLP.PLP>
-37.4991

> <Gold.PLP.part.hbond>
-2.2529

> <Gold.PLP.part.metal>
0.0000

> <Gold.PLP.part.buried>
-4.6296

> <Gold.PLP.part.nonpolar>
-29.5891

> <Gold.PLP.part.repulsive>
0.1414

> <Gold.PLP.ligand.clash>
0.0000

> <Gold.PLP.ligand.torsion>
0.1015

> <Gold.PLP.Chemscore.Hbond>
2.0000

> <Gold.PLP.Chemscore.CHOScore>
0.0000

> <Gold.PLP.Chemscore.Metal>
0.0000

> <Gold.Chemscore.Hbonds>
donor molecule, donor type, donor heavy atom, donor atom, acceptor molecule, acceptor atom, score
      P1  H  7997  8009       L1    10  1.50

> <Gold.PLP.Chemscore.Internal.Correction>
0.0228

> <Gold.Rescore>
     Score         DG    S(hbond)    S(metal)    S(lipo)     H(rot)  DE(clash)    DE(int)     intcor
      8.87     -10.47       0.56        0.00      69.31       1.94       0.33       1.27       ----

> <Gold.Chemscore.Fitness>
8.8712

> <Gold.Chemscore.DG>
-10.4654

> <Gold.Chemscore.ZeroCoef>
-5.4800

> <Gold.Chemscore.Hbond>
0.5553

> <Gold.Chemscore.Metal>
0.0000

> <Gold.Chemscore.Lipo>
69.3146

> <Gold.Chemscore.Internal_Hbond>
0.0000

> <Gold.Chemscore.DEClash>
0.3263

> <Gold.Chemscore.DEInternal>
1.2678

> <Gold.Chemscore.Rot>
1.9449

> <Gold.Chemscore.Internal.Correction>
   9.000000E+99

> <Gold.Chemscore.Hbonds>
donor molecule, donor type, donor heavy atom, donor atom, acceptor molecule, acceptor atom, score
      P1  H  7997  8009       L1    10  0.09

> <Gold.Chemscore.Hbond.Weighted>
-1.8546

> <Gold.Chemscore.Metal.Weighted>
-0.0000

> <Gold.Chemscore.Lipo.Weighted>
-8.1098

> <Gold.Chemscore.Internal_Hbond.Weighted>
0.0000

> <Gold.Chemscore.DEClash.Weighted>
0.3263

> <Gold.Chemscore.DEInternal.Weighted>
1.2678

> <Gold.Chemscore.Rot.Weighted>
4.9791

> <Gold.Chemscore.Internal.Correction.Weighted>
   9.000000E+99

> <Gold.Protein.RotatedTorsions>
[ 6907 6896 6895 6894 ] final   51.79 input  -60.11 | X-H torsion
[ 7974 7965 7964 7962 ] final   87.53 input  175.53 | X-H torsion
[ 8008 7997 7996 7995 ] final -147.63 input   59.86 | X-H torsion
[ 10167 10162 10161 10158 ] final   53.34 input  -65.29 | X-H torsion
[ 10718 10713 10712 10709 ] final   61.87 input   66.30 | X-H torsion
[ 10763 10752 10751 10750 ] final  173.64 input  -60.55 | X-H torsion
[ 11005 11000 10999 10996 ] final   -7.85 input  -57.11 | X-H torsion

> <Gold.Protein.ActiveResidues>
 VAL166  LYS551  ARG553  GLY616  TRP617  ASP618  TYR619  PRO620  LYS621  CYS622 
 ASP623  PHE694  ASN695  SER759  ASP760  ASP761  ALA762  ILE779  LEU786  VAL792 
 PHE793  MET794  SER795  GLU796  ALA797  LYS798  CYS799  TRP800  GLU811  SER814 

> <Gold.Protein.RotatedAtoms>
  152.3164  134.7435  160.0324 H   0  0  0  0  0  0  0  0  0  0  0  0  # atno 6907 bound_to 6896
  151.7898  133.3353  159.3504 H   0  0  0  0  0  0  0  0  0  0  0  0  # atno 6908 bound_to 6896
  150.7346  134.5784  159.5970 H   0  0  0  0  0  0  0  0  0  0  0  0  # atno 6909 bound_to 6896
  145.5578  139.2301  143.2476 H   0  0  0  0  0  0  0  0  0  0  0  0  # atno 7974 bound_to 7965
  155.5787  140.0641  157.2788 H   0  0  0  0  0  0  0  0  0  0  0  0  # atno 8008 bound_to 7997
  154.4339  140.1856  156.1000 H   0  0  0  0  0  0  0  0  0  0  0  0  # atno 8009 bound_to 7997
  156.0321  140.3305  155.7155 H   0  0  0  0  0  0  0  0  0  0  0  0  # atno 8010 bound_to 7997
  140.2418  144.3575  150.6378 H   0  0  0  0  0  0  0  0  0  0  0  0  # atno 10167 bound_to 10162
  157.5860  130.9019  149.9516 H   0  0  0  0  0  0  0  0  0  0  0  0  # atno 10718 bound_to 10713
  154.4429  135.2762  155.1835 H   0  0  0  0  0  0  0  0  0  0  0  0  # atno 10763 bound_to 10752
  154.3694  135.6112  153.5735 H   0  0  0  0  0  0  0  0  0  0  0  0  # atno 10764 bound_to 10752
  152.9842  135.5853  154.4760 H   0  0  0  0  0  0  0  0  0  0  0  0  # atno 10765 bound_to 10752
  140.7172  133.8859  155.8794 H   0  0  0  0  0  0  0  0  0  0  0  0  # atno 11005 bound_to 11000
  146.1872  140.6402  142.9162 LP  0  0  0  0  0  0  0  0  0  0  0  0  # atno 17320 bound_to 7965
  144.7498  140.5161  143.6810 LP  0  0  0  0  0  0  0  0  0  0  0  0  # atno 17321 bound_to 7965
  140.6108  143.2169  151.6890 LP  0  0  0  0  0  0  0  0  0  0  0  0  # atno 17342 bound_to 10162
  139.5075  144.3644  152.0531 LP  0  0  0  0  0  0  0  0  0  0  0  0  # atno 17343 bound_to 10162
  156.0909  130.3663  150.0397 LP  0  0  0  0  0  0  0  0  0  0  0  0  # atno 17370 bound_to 10713
  156.8528  130.9465  151.3624 LP  0  0  0  0  0  0  0  0  0  0  0  0  # atno 17371 bound_to 10713
  141.0034  134.1118  157.4294 LP  0  0  0  0  0  0  0  0  0  0  0  0  # atno 17394 bound_to 11000
  139.8857  135.0075  156.6451 LP  0  0  0  0  0  0  0  0  0  0  0  0  # atno 17395 bound_to 11000

$$$$
