AV-unprocessed.smi:924|AV-procd|sdf|4179|dock9
  -GOLD-   22720 2 83D 1   1.00000     0.00000
 Structure written by MMmdl.
 46 49  0  0  0  0  0  0  0  0  1 V2000
  149.8211  135.1783  158.4467 O   0  0  0  0  0  0  0  0  0  0  0  0
  149.0508  135.9435  157.8645 C   0  0  0  0  0  0  0  0  0  0  0  0
  149.5810  137.0956  156.9993 C   0  0  0  0  0  0  0  0  0  0  0  0
  150.8987  137.5841  157.4318 N   0  0  0  0  0  0  0  0  0  0  0  0
  151.0528  138.1365  158.6954 C   0  0  0  0  0  0  0  0  0  0  0  0
  152.2278  138.6248  159.1582 C   0  0  0  0  0  0  0  0  0  0  0  0
  153.4224  138.5903  158.3215 C   0  0  0  0  0  0  0  0  0  0  0  0
  154.5315  139.0044  158.6515 O   0  0  0  0  0  0  0  0  0  0  0  0
  153.2261  138.0312  157.0559 N   0  0  0  0  0  0  0  0  0  0  0  0
  152.0168  137.5301  156.5711 C   0  0  0  0  0  0  0  0  0  0  0  0
  151.9523  137.0666  155.4330 O   0  0  0  0  0  0  0  0  0  0  0  0
  147.7153  135.8271  157.9255 N   0  0  0  0  0  0  0  0  0  0  0  0
  146.9820  134.7873  158.6441 C   0  0  0  0  0  0  0  0  0  0  0  0
  146.7110  135.1410  160.1287 C   0  0  0  0  0  0  0  0  0  0  0  0
  145.5704  136.1880  160.2560 C   0  0  0  0  0  0  0  0  0  0  0  0
  145.3450  136.5611  161.7374 C   0  0  1  0  0  0  0  0  0  0  0  0
  144.9557  135.2985  162.5347 C   0  0  0  0  0  0  0  0  0  0  0  0
  146.0962  134.2635  162.4370 C   0  0  2  0  0  0  0  0  0  0  0  0
  147.3916  134.8612  163.0228 C   0  0  0  0  0  0  0  0  0  0  0  0
  147.7731  136.1239  162.2233 C   0  0  2  0  0  0  0  0  0  0  0  0
  146.6385  137.1643  162.3229 C   0  0  0  0  0  0  0  0  0  0  0  0
  148.0001  135.7474  160.7436 C   0  0  0  0  0  0  0  0  0  0  0  0
  146.3228  133.8851  160.9579 C   0  0  0  0  0  0  0  0  0  0  0  0
  154.0246  137.9899  156.4395 H   0  0  0  0  0  0  0  0  0  0  0  0
  149.6428  136.7557  155.9640 H   0  0  0  0  0  0  0  0  0  0  0  0
  148.8437  137.9004  156.9914 H   0  0  0  0  0  0  0  0  0  0  0  0
  150.1915  138.1867  159.3469 H   0  0  0  0  0  0  0  0  0  0  0  0
  152.2838  139.0445  160.1521 H   0  0  0  0  0  0  0  0  0  0  0  0
  147.1607  136.5014  157.4183 H   0  0  0  0  0  0  0  0  0  0  0  0
  146.0453  134.5556  158.1340 H   0  0  0  0  0  0  0  0  0  0  0  0
  147.5795  133.8766  158.5894 H   0  0  0  0  0  0  0  0  0  0  0  0
  145.8136  137.0827  159.6814 H   0  0  0  0  0  0  0  0  0  0  0  0
  144.6414  135.7999  159.8368 H   0  0  0  0  0  0  0  0  0  0  0  0
  144.5410  137.2945  161.8069 H   0  0  0  0  0  0  0  0  0  0  0  0
  144.7649  135.5537  163.5778 H   0  0  0  0  0  0  0  0  0  0  0  0
  144.0279  134.8768  162.1456 H   0  0  0  0  0  0  0  0  0  0  0  0
  145.8230  133.3706  163.0005 H   0  0  0  0  0  0  0  0  0  0  0  0
  147.2519  135.1078  164.0761 H   0  0  0  0  0  0  0  0  0  0  0  0
  148.1987  134.1287  162.9815 H   0  0  0  0  0  0  0  0  0  0  0  0
  148.6899  136.5482  162.6337 H   0  0  0  0  0  0  0  0  0  0  0  0
  146.9101  138.0734  161.7845 H   0  0  0  0  0  0  0  0  0  0  0  0
  146.4832  137.4566  163.3621 H   0  0  0  0  0  0  0  0  0  0  0  0
  148.8252  135.0377  160.6672 H   0  0  0  0  0  0  0  0  0  0  0  0
  148.3070  136.6313  160.1826 H   0  0  0  0  0  0  0  0  0  0  0  0
  145.4134  133.4285  160.5670 H   0  0  0  0  0  0  0  0  0  0  0  0
  147.1027  133.1263  160.8818 H   0  0  0  0  0  0  0  0  0  0  0  0
  1  2  2  0  0  0  0
  2  3  1  0  0  0  0
  2 12  1  0  0  0  0
  3  4  1  0  0  0  0
  3 25  1  0  0  0  0
  3 26  1  0  0  0  0
  4 10  1  0  0  0  0
  4  5  1  0  0  0  0
  5  6  2  0  0  0  0
  5 27  1  0  0  0  0
  6  7  1  0  0  0  0
  6 28  1  0  0  0  0
  7  8  2  0  0  0  0
  7  9  1  0  0  0  0
  9 24  1  0  0  0  0
  9 10  1  0  0  0  0
 10 11  2  0  0  0  0
 12 13  1  0  0  0  0
 12 29  1  0  0  0  0
 13 14  1  0  0  0  0
 13 30  1  0  0  0  0
 13 31  1  0  0  0  0
 14 22  1  0  0  0  0
 14 23  1  0  0  0  0
 14 15  1  0  0  0  0
 15 16  1  0  0  0  0
 15 32  1  0  0  0  0
 15 33  1  0  0  0  0
 16 21  1  0  0  0  0
 16 17  1  0  0  0  0
 16 34  1  0  0  0  0
 17 18  1  0  0  0  0
 17 35  1  0  0  0  0
 17 36  1  0  0  0  0
 18 19  1  0  0  0  0
 18 23  1  0  0  0  0
 18 37  1  0  0  0  0
 19 20  1  0  0  0  0
 19 38  1  0  0  0  0
 19 39  1  0  0  0  0
 20 21  1  0  0  0  0
 20 22  1  0  0  0  0
 20 40  1  0  0  0  0
 21 41  1  0  0  0  0
 21 42  1  0  0  0  0
 22 43  1  0  0  0  0
 22 44  1  0  0  0  0
 23 45  1  0  0  0  0
 23 46  1  0  0  0  0
M  END
> <s_m_source_file>
AV-unprocessed.smi

> <i_m_source_file_index>
924

> <i_lp_mmshare_version>
43012

> <i_f3d_flags>
0

> <s_epik_input>
Tz1jMVtuSF1jKD1PKVtjSF1bY0hdbjFbQ0gyXUMoPU8pW05IXVtDSDJdQzIzW0NIMl1bQ0BIXTRbQ0gyXVtDQEBIXShbQ0gyXTMpW0NIMl1bQ0BIXShbQ0gyXTQpW0NIMl0y

> <s_epik_cmdline>
J2VwaWtfcHl0aG9uJywgJy1waCcsICc3LjAnLCAnLXRuJywgJzgnLCAnLW1hJywgJzIwMCcsICctbWV0YWxfYmluZGluZycsICctaW1hZScsICc8aW5maWxlLm1hZT4nLCAnLW9tYWUnLCAnPG91dGZpbGUubWFlPic=

> <r_lp_tautomer_probability>
0.999537

> <r_epik_Ionization_Penalty>
0.00304541

> <r_epik_Ionization_Penalty_Charging>
0.00304539

> <r_epik_Ionization_Penalty_Neutral>
1.85865e-08

> <r_epik_State_Penalty>
0.00214042

> <r_epik_Charging_Adjusted_Penalty>
0.00518582

> <i_epik_Tot_Q>
0

> <i_epik_Tot_abs_Q>
0

> <r_epik_Metal_State_Penalty>
0.361861

> <b_epik_Metal_Only>
0

> <s_lp_Force_Field>
OPLS_2005

> <r_lp_Energy>
33.277

> <b_lp_Chiralities_Consistent>
1

> <s_lp_Variant>
AV-unprocessed.smi:924-1

> <Gold.Version>
5.8.1

> <Gold.Id.Protein>
6NUR|6NUR_protein|mol2

> <Gold.PLP.Fitness>
38.5530

> <Gold.PLP.PLP>
-31.0601

> <Gold.PLP.part.hbond>
-2.9337

> <Gold.PLP.part.metal>
0.0000

> <Gold.PLP.part.buried>
-3.8869

> <Gold.PLP.part.nonpolar>
-23.8331

> <Gold.PLP.part.repulsive>
0.2220

> <Gold.PLP.ligand.clash>
0.0000

> <Gold.PLP.ligand.torsion>
0.7461

> <Gold.PLP.Chemscore.Hbond>
2.9920

> <Gold.PLP.Chemscore.CHOScore>
0.0000

> <Gold.PLP.Chemscore.Metal>
0.0000

> <Gold.Chemscore.Hbonds>
donor molecule, donor type, donor heavy atom, donor atom, acceptor molecule, acceptor atom, score
      P1  H  6896  6907       L1     1  0.96
      P1  H  7997  8008       L1     8  1.00
      P1  H 10752 10765       L1    11  0.98

> <Gold.PLP.Chemscore.Internal.Correction>
0.0091

> <Gold.Rescore>
     Score         DG    S(hbond)    S(metal)    S(lipo)     H(rot)  DE(clash)    DE(int)     intcor
     18.72     -19.47       2.76        0.00      83.36       1.94       0.02       0.73       ----

> <Gold.Chemscore.Fitness>
18.7165

> <Gold.Chemscore.DG>
-19.4670

> <Gold.Chemscore.ZeroCoef>
-5.4800

> <Gold.Chemscore.Hbond>
2.7557

> <Gold.Chemscore.Metal>
0.0000

> <Gold.Chemscore.Lipo>
83.3600

> <Gold.Chemscore.Internal_Hbond>
0.0000

> <Gold.Chemscore.DEClash>
0.0192

> <Gold.Chemscore.DEInternal>
0.7313

> <Gold.Chemscore.Rot>
1.9415

> <Gold.Chemscore.Internal.Correction>
   9.000000E+99

> <Gold.Chemscore.Hbonds>
donor molecule, donor type, donor heavy atom, donor atom, acceptor molecule, acceptor atom, score
      P1  H  6896  6907       L1     1  0.89
      P1  H  7997  8008       L1     8  0.55
      P1  H 10752 10765       L1    11  0.92

> <Gold.Chemscore.Hbond.Weighted>
-9.2041

> <Gold.Chemscore.Metal.Weighted>
-0.0000

> <Gold.Chemscore.Lipo.Weighted>
-9.7531

> <Gold.Chemscore.Internal_Hbond.Weighted>
0.0000

> <Gold.Chemscore.DEClash.Weighted>
0.0192

> <Gold.Chemscore.DEInternal.Weighted>
0.7313

> <Gold.Chemscore.Rot.Weighted>
4.9701

> <Gold.Chemscore.Internal.Correction.Weighted>
   9.000000E+99

> <Gold.Protein.RotatedTorsions>
[ 6907 6896 6895 6894 ] final  -81.59 input  -60.11 | X-H torsion
[ 7974 7965 7964 7962 ] final  133.30 input  175.53 | X-H torsion
[ 8008 7997 7996 7995 ] final -120.07 input   59.86 | X-H torsion
[ 10167 10162 10161 10158 ] final   27.58 input  -65.29 | X-H torsion
[ 10718 10713 10712 10709 ] final  -89.22 input   66.30 | X-H torsion
[ 10763 10752 10751 10750 ] final -178.87 input  -60.55 | X-H torsion
[ 11005 11000 10999 10996 ] final  -43.34 input  -57.11 | X-H torsion

> <Gold.Protein.ActiveResidues>
 VAL166  LYS551  ARG553  GLY616  TRP617  ASP618  TYR619  PRO620  LYS621  CYS622 
 ASP623  PHE694  ASN695  SER759  ASP760  ASP761  ALA762  ILE779  LEU786  VAL792 
 PHE793  MET794  SER795  GLU796  ALA797  LYS798  CYS799  TRP800  GLU811  SER814 

> <Gold.Protein.RotatedAtoms>
  150.6909  134.3794  159.5026 H   0  0  0  0  0  0  0  0  0  0  0  0  # atno 6907 bound_to 6896
  152.1598  134.8918  160.0551 H   0  0  0  0  0  0  0  0  0  0  0  0  # atno 6908 bound_to 6896
  151.9984  133.3782  159.4209 H   0  0  0  0  0  0  0  0  0  0  0  0  # atno 6909 bound_to 6896
  144.9879  139.4437  143.5354 H   0  0  0  0  0  0  0  0  0  0  0  0  # atno 7974 bound_to 7965
  155.1258  140.0399  157.2762 H   0  0  0  0  0  0  0  0  0  0  0  0  # atno 8008 bound_to 7997
  154.6579  140.2584  155.7115 H   0  0  0  0  0  0  0  0  0  0  0  0  # atno 8009 bound_to 7997
  156.2606  140.2823  156.1040 H   0  0  0  0  0  0  0  0  0  0  0  0  # atno 8010 bound_to 7997
  140.4926  144.0443  150.6302 H   0  0  0  0  0  0  0  0  0  0  0  0  # atno 10167 bound_to 10162
  155.9984  130.4864  150.5138 H   0  0  0  0  0  0  0  0  0  0  0  0  # atno 10718 bound_to 10713
  154.5423  135.2807  155.1084 H   0  0  0  0  0  0  0  0  0  0  0  0  # atno 10763 bound_to 10752
  154.2562  135.6330  153.5262 H   0  0  0  0  0  0  0  0  0  0  0  0  # atno 10764 bound_to 10752
  152.9982  135.5594  154.5965 H   0  0  0  0  0  0  0  0  0  0  0  0  # atno 10765 bound_to 10752
  141.0377  133.6793  156.2719 H   0  0  0  0  0  0  0  0  0  0  0  0  # atno 11005 bound_to 11000
  146.3424  139.9192  142.8769 LP  0  0  0  0  0  0  0  0  0  0  0  0  # atno 17320 bound_to 7965
  145.2327  140.9979  143.3981 LP  0  0  0  0  0  0  0  0  0  0  0  0  # atno 17321 bound_to 7965
  140.3716  143.2851  152.0271 LP  0  0  0  0  0  0  0  0  0  0  0  0  # atno 17342 bound_to 10162
  139.4854  144.6225  151.7227 LP  0  0  0  0  0  0  0  0  0  0  0  0  # atno 17343 bound_to 10162
  157.3108  131.0663  151.2002 LP  0  0  0  0  0  0  0  0  0  0  0  0  # atno 17370 bound_to 10713
  157.2949  130.6814  149.6133 LP  0  0  0  0  0  0  0  0  0  0  0  0  # atno 17371 bound_to 10713
  140.6292  134.5281  157.5557 LP  0  0  0  0  0  0  0  0  0  0  0  0  # atno 17394 bound_to 11000
  139.9252  134.8069  156.1089 LP  0  0  0  0  0  0  0  0  0  0  0  0  # atno 17395 bound_to 11000

$$$$
