AV-unprocessed.smi:2967|AV-procd|sdf|11327|dock2
  -GOLD-   2272016233D 1   1.00000     0.00000
 Structure written by MMmdl.
 37 38  0  0  0  0  0  0  0  0  2 V2000
  149.6635  141.3925  157.5704 O   0  0  0  0  0  0  0  0  0  0  0  0
  150.7776  141.3217  157.0522 C   0  0  0  0  0  0  0  0  0  0  0  0
  150.8978  140.8172  155.6034 C   0  0  0  0  0  0  0  0  0  0  0  0
  150.7413  139.3600  155.4382 N   0  0  0  0  0  0  0  0  0  0  0  0
  149.4474  138.8266  155.5733 C   0  0  0  0  0  0  0  0  0  0  0  0
  149.2026  137.5102  155.4303 C   0  0  0  0  0  0  0  0  0  0  0  0
  150.3230  136.6289  155.1265 C   0  0  0  0  0  0  0  0  0  0  0  0
  150.1183  135.4242  154.9919 O   0  0  0  0  0  0  0  0  0  0  0  0
  151.5595  137.1941  155.0038 N   0  5  0  0  0  0  0  0  0  0  0  0
  151.7934  138.5351  155.1503 C   0  0  0  0  0  0  0  0  0  0  0  0
  152.9155  139.0258  155.0241 O   0  0  0  0  0  0  0  0  0  0  0  0
  151.9037  141.6756  157.6951 N   0  0  0  0  0  0  0  0  0  0  0  0
  151.9942  142.1567  159.0706 C   0  0  0  0  0  0  0  0  0  0  0  0
  152.3255  143.6649  159.0941 C   0  0  0  0  0  0  0  0  0  0  0  0
  151.7699  144.3805  160.3385 C   0  0  0  0  0  0  0  0  0  0  0  0
  152.4926  144.0628  161.6555 C   0  0  0  0  0  0  0  0  0  0  0  0
  152.5354  142.5702  162.0239 C   0  0  0  0  0  0  0  0  0  0  0  0
  153.5376  141.7793  161.1686 C   0  0  0  0  0  0  0  0  0  0  0  0
  153.0110  141.2663  159.8158 C   0  0  0  0  0  0  0  0  0  0  0  0
  150.1659  141.3468  154.9914 H   0  0  0  0  0  0  0  0  0  0  0  0
  151.8676  141.1330  155.2164 H   0  0  0  0  0  0  0  0  0  0  0  0
  148.6733  139.5476  155.7925 H   0  0  0  0  0  0  0  0  0  0  0  0
  148.2021  137.1170  155.5352 H   0  0  0  0  0  0  0  0  0  0  0  0
  152.7739  141.5804  157.1912 H   0  0  0  0  0  0  0  0  0  0  0  0
  151.0193  142.0085  159.5388 H   0  0  0  0  0  0  0  0  0  0  0  0
  153.3991  143.8291  158.9947 H   0  0  0  0  0  0  0  0  0  0  0  0
  151.8729  144.1458  158.2259 H   0  0  0  0  0  0  0  0  0  0  0  0
  151.8275  145.4568  160.1724 H   0  0  0  0  0  0  0  0  0  0  0  0
  150.7070  144.1581  160.4422 H   0  0  0  0  0  0  0  0  0  0  0  0
  153.5061  144.4651  161.6253 H   0  0  0  0  0  0  0  0  0  0  0  0
  151.9874  144.6029  162.4570 H   0  0  0  0  0  0  0  0  0  0  0  0
  152.8531  142.4975  163.0645 H   0  0  0  0  0  0  0  0  0  0  0  0
  151.5416  142.1226  161.9847 H   0  0  0  0  0  0  0  0  0  0  0  0
  154.4265  142.3889  161.0023 H   0  0  0  0  0  0  0  0  0  0  0  0
  153.8874  140.9180  161.7389 H   0  0  0  0  0  0  0  0  0  0  0  0
  152.5486  140.2901  159.9694 H   0  0  0  0  0  0  0  0  0  0  0  0
  153.8748  141.0779  159.1762 H   0  0  0  0  0  0  0  0  0  0  0  0
  1  2  2  0  0  0  0
  2  3  1  0  0  0  0
  2 12  1  0  0  0  0
  3  4  1  0  0  0  0
  3 20  1  0  0  0  0
  3 21  1  0  0  0  0
  4 10  1  0  0  0  0
  4  5  1  0  0  0  0
  5  6  2  0  0  0  0
  5 22  1  0  0  0  0
  6  7  1  0  0  0  0
  6 23  1  0  0  0  0
  7  8  2  0  0  0  0
  7  9  1  0  0  0  0
  9 10  1  0  0  0  0
 10 11  2  0  0  0  0
 12 13  1  0  0  0  0
 12 24  1  0  0  0  0
 13 19  1  0  0  0  0
 13 14  1  0  0  0  0
 13 25  1  0  0  0  0
 14 15  1  0  0  0  0
 14 26  1  0  0  0  0
 14 27  1  0  0  0  0
 15 16  1  0  0  0  0
 15 28  1  0  0  0  0
 15 29  1  0  0  0  0
 16 17  1  0  0  0  0
 16 30  1  0  0  0  0
 16 31  1  0  0  0  0
 17 18  1  0  0  0  0
 17 32  1  0  0  0  0
 17 33  1  0  0  0  0
 18 19  1  0  0  0  0
 18 34  1  0  0  0  0
 18 35  1  0  0  0  0
 19 36  1  0  0  0  0
 19 37  1  0  0  0  0
M  CHG  1   9  -1
M  END
> <s_m_source_file>
AV-unprocessed.smi

> <i_m_source_file_index>
2967

> <i_lp_mmshare_version>
43012

> <i_f3d_flags>
0

> <s_epik_input>
W0NIMl0xW0NIMl1bQ0gyXVtDSDJdW0NIMl1bQ0gyXVtDSF0xW05IXUMoPU8pW0NIMl1uMltjSF1bY0hdYyg9TylbbkhdYzI9Tw==

> <s_epik_cmdline>
J2VwaWtfcHl0aG9uJywgJy1waCcsICc3LjAnLCAnLXRuJywgJzgnLCAnLW1hJywgJzIwMCcsICctbWV0YWxfYmluZGluZycsICctaW1hZScsICc8aW5maWxlLm1hZT4nLCAnLW9tYWUnLCAnPG91dGZpbGUubWFlPic=

> <r_lp_tautomer_probability>
0.999537

> <r_epik_Ionization_Penalty>
3.09244

> <r_epik_Ionization_Penalty_Charging>
2.84692e-08

> <r_epik_Ionization_Penalty_Neutral>
3.09244

> <r_epik_State_Penalty>
3.09149

> <r_epik_Charging_Adjusted_Penalty>
3.09149

> <i_epik_Tot_Q>
-1

> <i_epik_Tot_abs_Q>
1

> <r_epik_Metal_State_Penalty>
0.461034

> <b_epik_Metal_Only>
1

> <s_lp_Force_Field>
OPLS_2005

> <r_lp_Energy>
23.2827

> <b_lp_Chiralities_Consistent>
1

> <s_lp_Variant>
AV-unprocessed.smi:2967-2

> <Gold.Version>
5.8.1

> <Gold.Id.Protein>
6NUR|6NUR_protein|mol2

> <Gold.PLP.Fitness>
47.6586

> <Gold.PLP.PLP>
-39.4778

> <Gold.PLP.part.hbond>
-2.0000

> <Gold.PLP.part.metal>
0.0000

> <Gold.PLP.part.buried>
-4.7512

> <Gold.PLP.part.nonpolar>
-32.7703

> <Gold.PLP.part.repulsive>
0.3731

> <Gold.PLP.ligand.clash>
0.0000

> <Gold.PLP.ligand.torsion>
0.4195

> <Gold.PLP.Chemscore.Hbond>
3.0000

> <Gold.PLP.Chemscore.CHOScore>
0.0000

> <Gold.PLP.Chemscore.Metal>
0.0000

> <Gold.Chemscore.Hbonds>
donor molecule, donor type, donor heavy atom, donor atom, acceptor molecule, acceptor atom, score
      P1  H  7997  8010       L1    11  0.78
      P1  H 10752 10764       L1     9  1.40

> <Gold.PLP.Chemscore.Internal.Correction>
0.0198

> <Gold.Rescore>
     Score         DG    S(hbond)    S(metal)    S(lipo)     H(rot)  DE(clash)    DE(int)     intcor
     16.68     -17.10       1.58        0.00      90.48       1.65       0.07       0.34       ----

> <Gold.Chemscore.Fitness>
16.6790

> <Gold.Chemscore.DG>
-17.0964

> <Gold.Chemscore.ZeroCoef>
-5.4800

> <Gold.Chemscore.Hbond>
1.5769

> <Gold.Chemscore.Metal>
0.0000

> <Gold.Chemscore.Lipo>
90.4784

> <Gold.Chemscore.Internal_Hbond>
0.0000

> <Gold.Chemscore.DEClash>
0.0727

> <Gold.Chemscore.DEInternal>
0.3447

> <Gold.Chemscore.Rot>
1.6549

> <Gold.Chemscore.Internal.Correction>
   9.000000E+99

> <Gold.Chemscore.Hbonds>
donor molecule, donor type, donor heavy atom, donor atom, acceptor molecule, acceptor atom, score
      P1  H  7997  8010       L1    11  0.77
      P1  H 10752 10764       L1     9  0.40

> <Gold.Chemscore.Hbond.Weighted>
-5.2669

> <Gold.Chemscore.Metal.Weighted>
-0.0000

> <Gold.Chemscore.Lipo.Weighted>
-10.5860

> <Gold.Chemscore.Internal_Hbond.Weighted>
0.0000

> <Gold.Chemscore.DEClash.Weighted>
0.0727

> <Gold.Chemscore.DEInternal.Weighted>
0.3447

> <Gold.Chemscore.Rot.Weighted>
4.2364

> <Gold.Chemscore.Internal.Correction.Weighted>
   9.000000E+99

> <Gold.Protein.RotatedTorsions>
[ 6907 6896 6895 6894 ] final    4.79 input  -60.11 | X-H torsion
[ 7974 7965 7964 7962 ] final  101.12 input  175.53 | X-H torsion
[ 8008 7997 7996 7995 ] final   94.65 input   59.86 | X-H torsion
[ 10167 10162 10161 10158 ] final -104.54 input  -65.29 | X-H torsion
[ 10718 10713 10712 10709 ] final -162.08 input   66.30 | X-H torsion
[ 10763 10752 10751 10750 ] final  -56.09 input  -60.55 | X-H torsion
[ 11005 11000 10999 10996 ] final  -65.15 input  -57.11 | X-H torsion

> <Gold.Protein.ActiveResidues>
 VAL166  LYS551  ARG553  GLY616  TRP617  ASP618  TYR619  PRO620  LYS621  CYS622 
 ASP623  PHE694  ASN695  SER759  ASP760  ASP761  ALA762  ILE779  LEU786  VAL792 
 PHE793  MET794  SER795  GLU796  ALA797  LYS798  CYS799  TRP800  GLU811  SER814 

> <Gold.Protein.RotatedAtoms>
  151.6471  135.1006  160.0152 H   0  0  0  0  0  0  0  0  0  0  0  0  # atno 6907 bound_to 6896
  152.4022  133.6830  159.6334 H   0  0  0  0  0  0  0  0  0  0  0  0  # atno 6908 bound_to 6896
  150.7920  133.8689  159.3294 H   0  0  0  0  0  0  0  0  0  0  0  0  # atno 6909 bound_to 6896
  145.3765  139.2388  143.3427 H   0  0  0  0  0  0  0  0  0  0  0  0  # atno 7974 bound_to 7965
  156.0602  140.3297  155.7453 H   0  0  0  0  0  0  0  0  0  0  0  0  # atno 8008 bound_to 7997
  155.5466  140.0606  157.2876 H   0  0  0  0  0  0  0  0  0  0  0  0  # atno 8009 bound_to 7997
  154.4478  140.1901  156.0633 H   0  0  0  0  0  0  0  0  0  0  0  0  # atno 8010 bound_to 7997
  140.2082  143.3766  152.1072 H   0  0  0  0  0  0  0  0  0  0  0  0  # atno 10167 bound_to 10162
  156.6053  130.8828  151.2924 H   0  0  0  0  0  0  0  0  0  0  0  0  # atno 10718 bound_to 10713
  154.2012  135.6410  153.5087 H   0  0  0  0  0  0  0  0  0  0  0  0  # atno 10763 bound_to 10752
  153.0011  135.5452  154.6313 H   0  0  0  0  0  0  0  0  0  0  0  0  # atno 10764 bound_to 10752
  154.5727  135.2918  155.0785 H   0  0  0  0  0  0  0  0  0  0  0  0  # atno 10765 bound_to 10752
  141.1446  133.6677  156.5943 H   0  0  0  0  0  0  0  0  0  0  0  0  # atno 11005 bound_to 11000
  146.2862  140.4425  142.8757 LP  0  0  0  0  0  0  0  0  0  0  0  0  # atno 17320 bound_to 7965
  144.8539  140.7041  143.6151 LP  0  0  0  0  0  0  0  0  0  0  0  0  # atno 17321 bound_to 7965
  139.5190  144.7014  151.5483 LP  0  0  0  0  0  0  0  0  0  0  0  0  # atno 17342 bound_to 10162
  140.6342  143.9017  150.6632 LP  0  0  0  0  0  0  0  0  0  0  0  0  # atno 17343 bound_to 10162
  157.7269  130.9635  150.1674 LP  0  0  0  0  0  0  0  0  0  0  0  0  # atno 17370 bound_to 10713
  156.2435  130.3693  149.8311 LP  0  0  0  0  0  0  0  0  0  0  0  0  # atno 17371 bound_to 10713
  140.3739  134.7582  157.4616 LP  0  0  0  0  0  0  0  0  0  0  0  0  # atno 17394 bound_to 11000
  140.0690  134.5890  155.8663 LP  0  0  0  0  0  0  0  0  0  0  0  0  # atno 17395 bound_to 11000

$$$$
