AV-unprocessed.smi:187|AV-procd|sdf|1470|dock7
  -GOLD-   2262019283D 1   1.00000     0.00000
 Structure written by MMmdl.
 53 56  0  0  0  0  0  0  0  0  1 V2000
  150.0895  138.0758  154.7813 C   0  0  0  0  0  0  0  0  0  0  0  0
  149.0617  139.1510  154.3697 C   0  0  2  0  0  0  0  0  0  0  0  0
  149.5832  140.5468  154.7705 C   0  0  0  0  0  0  0  0  0  0  0  0
  148.5686  141.6554  154.4405 C   0  0  0  0  0  0  0  0  0  0  0  0
  147.1711  141.3624  155.0263 C   0  0  2  0  0  0  0  0  0  0  0  0
  147.1055  141.5921  156.5487 C   0  0  0  0  0  0  0  0  0  0  0  0
  147.6863  142.6999  157.0175 N   0  0  0  0  0  0  0  0  0  0  0  0
  146.5356  140.7972  157.2939 O   0  0  0  0  0  0  0  0  0  0  0  0
  146.7275  139.9401  154.6215 C   0  0  0  0  0  0  0  0  0  0  0  0
  147.7302  138.9243  154.9500 N   0  0  0  0  0  0  0  0  0  0  0  0
  147.2396  137.6743  154.7957 C   0  0  0  0  0  0  0  0  0  0  0  0
  147.3486  136.7713  155.8056 N   0  0  0  0  0  0  0  0  0  0  0  0
  146.8474  135.5420  155.6525 C   0  0  0  0  0  0  0  0  0  0  0  0
  146.2112  135.0250  154.5990 N   0  0  0  0  0  0  0  0  0  0  0  0
  146.1000  135.9326  153.5856 C   0  0  0  0  0  0  0  0  0  0  0  0
  146.5873  137.2688  153.6029 C   0  0  0  0  0  0  0  0  0  0  0  0
  146.2957  137.9024  152.4028 N   0  0  0  0  0  0  0  0  0  0  0  0
  145.6671  136.9910  151.7118 C   0  0  0  0  0  0  0  0  0  0  0  0
  145.5028  135.7776  152.3441 N   0  0  0  0  0  0  0  0  0  0  0  0
  144.8454  134.6185  151.8081 C   0  0  0  0  0  0  0  0  0  0  0  0
  145.3965  133.2102  152.0468 C   0  0  0  0  0  0  0  0  0  0  0  0
  144.8919  132.7865  150.6469 C   0  0  0  0  0  0  0  0  0  0  0  0
  145.8251  131.8972  149.8016 C   0  0  0  0  0  0  0  0  0  0  0  0
  147.1791  132.2944  149.8900 O   0  0  0  0  0  0  0  0  0  0  0  0
  143.4950  132.1387  150.6199 C   0  0  0  0  0  0  0  0  0  0  0  0
  142.9645  132.0968  149.3104 O   0  0  0  0  0  0  0  0  0  0  0  0
  144.8909  134.2970  150.3118 C   0  0  0  0  0  0  0  0  0  0  0  0
  151.0776  138.3077  154.3831 H   0  0  0  0  0  0  0  0  0  0  0  0
  149.8210  137.0879  154.4058 H   0  0  0  0  0  0  0  0  0  0  0  0
  150.1772  138.0085  155.8663 H   0  0  0  0  0  0  0  0  0  0  0  0
  148.9585  139.1269  153.2838 H   0  0  0  0  0  0  0  0  0  0  0  0
  149.8139  140.5627  155.8361 H   0  0  0  0  0  0  0  0  0  0  0  0
  150.5235  140.7531  154.2581 H   0  0  0  0  0  0  0  0  0  0  0  0
  148.9396  142.6171  154.7974 H   0  0  0  0  0  0  0  0  0  0  0  0
  148.4860  141.7485  153.3570 H   0  0  0  0  0  0  0  0  0  0  0  0
  146.4685  142.0611  154.5693 H   0  0  0  0  0  0  0  0  0  0  0  0
  147.6711  142.8980  158.0073 H   0  0  0  0  0  0  0  0  0  0  0  0
  148.1387  143.3366  156.3775 H   0  0  0  0  0  0  0  0  0  0  0  0
  145.7840  139.6950  155.1125 H   0  0  0  0  0  0  0  0  0  0  0  0
  146.5327  139.9171  153.5480 H   0  0  0  0  0  0  0  0  0  0  0  0
  146.9710  134.8779  156.4951 H   0  0  0  0  0  0  0  0  0  0  0  0
  145.3021  137.1839  150.7134 H   0  0  0  0  0  0  0  0  0  0  0  0
  143.8077  134.6689  152.1432 H   0  0  0  0  0  0  0  0  0  0  0  0
  146.4826  133.1904  152.1424 H   0  0  0  0  0  0  0  0  0  0  0  0
  144.9306  132.6859  152.8816 H   0  0  0  0  0  0  0  0  0  0  0  0
  145.7686  130.8555  150.1185 H   0  0  0  0  0  0  0  0  0  0  0  0
  145.5375  131.9222  148.7501 H   0  0  0  0  0  0  0  0  0  0  0  0
  147.7191  131.5197  149.9188 H   0  0  0  0  0  0  0  0  0  0  0  0
  143.5266  131.1167  150.9984 H   0  0  0  0  0  0  0  0  0  0  0  0
  142.7994  132.6801  151.2621 H   0  0  0  0  0  0  0  0  0  0  0  0
  142.4555  132.8802  149.1669 H   0  0  0  0  0  0  0  0  0  0  0  0
  144.0182  134.6399  149.7554 H   0  0  0  0  0  0  0  0  0  0  0  0
  145.8077  134.6442  149.8343 H   0  0  0  0  0  0  0  0  0  0  0  0
  1  2  1  0  0  0  0
  1 28  1  0  0  0  0
  1 29  1  0  0  0  0
  1 30  1  0  0  0  0
  2 10  1  0  0  0  0
  2  3  1  0  0  0  0
  2 31  1  0  0  0  0
  3  4  1  0  0  0  0
  3 32  1  0  0  0  0
  3 33  1  0  0  0  0
  4  5  1  0  0  0  0
  4 34  1  0  0  0  0
  4 35  1  0  0  0  0
  5  6  1  0  0  0  0
  5  9  1  0  0  0  0
  5 36  1  0  0  0  0
  6  7  1  0  0  0  0
  6  8  2  0  0  0  0
  7 37  1  0  0  0  0
  7 38  1  0  0  0  0
  9 10  1  0  0  0  0
  9 39  1  0  0  0  0
  9 40  1  0  0  0  0
 10 11  1  0  0  0  0
 11 16  1  0  0  0  0
 11 12  2  0  0  0  0
 12 13  1  0  0  0  0
 13 14  2  0  0  0  0
 13 41  1  0  0  0  0
 14 15  1  0  0  0  0
 15 19  1  0  0  0  0
 15 16  2  0  0  0  0
 16 17  1  0  0  0  0
 17 18  2  0  0  0  0
 18 19  1  0  0  0  0
 18 42  1  0  0  0  0
 19 20  1  0  0  0  0
 20 27  1  0  0  0  0
 20 21  1  0  0  0  0
 20 43  1  0  0  0  0
 21 22  1  0  0  0  0
 21 44  1  0  0  0  0
 21 45  1  0  0  0  0
 22 23  1  0  0  0  0
 22 25  1  0  0  0  0
 22 27  1  0  0  0  0
 23 24  1  0  0  0  0
 23 46  1  0  0  0  0
 23 47  1  0  0  0  0
 24 48  1  0  0  0  0
 25 26  1  0  0  0  0
 25 49  1  0  0  0  0
 25 50  1  0  0  0  0
 26 51  1  0  0  0  0
 27 52  1  0  0  0  0
 27 53  1  0  0  0  0
M  END
> <s_m_source_file>
AV-unprocessed.smi

> <i_m_source_file_index>
187

> <i_lp_mmshare_version>
43012

> <i_f3d_flags>
0

> <s_epik_input>
W0NIM11bQ0BASF0xW0NIMl1bQ0gyXVtDQEBIXShDKD1PKVtOSDJdKVtDSDJdTjFjKG5bY0hdbjIpYyhjMjMpbltjSF1uM1tDSF0oW0NIMl00KVtDSDJdQzQoW0NIMl1bT0hdKVtDSDJdW09IXQ==

> <s_epik_cmdline>
J2VwaWtfcHl0aG9uJywgJy1waCcsICc3LjAnLCAnLXRuJywgJzgnLCAnLW1hJywgJzIwMCcsICctbWV0YWxfYmluZGluZycsICctaW1hZScsICc8aW5maWxlLm1hZT4nLCAnLW9tYWUnLCAnPG91dGZpbGUubWFlPic=

> <r_lp_tautomer_probability>
1

> <r_epik_Ionization_Penalty>
0.0017711

> <r_epik_Ionization_Penalty_Charging>
0

> <r_epik_Ionization_Penalty_Neutral>
0.0017711

> <r_epik_State_Penalty>
0.00107211

> <r_epik_Charging_Adjusted_Penalty>
0.00107211

> <i_epik_Tot_Q>
0

> <i_epik_Tot_abs_Q>
0

> <r_epik_Metal_State_Penalty>
-0

> <b_epik_Metal_Only>
0

> <s_lp_Force_Field>
OPLS_2005

> <r_lp_Energy>
40.7321

> <b_lp_Chiralities_Consistent>
1

> <s_lp_Variant>
AV-unprocessed.smi:187-3

> <Gold.Version>
5.8.1

> <Gold.Id.Protein>
6NUR|6NUR_protein|mol2

> <Gold.PLP.Fitness>
49.5267

> <Gold.PLP.PLP>
-37.5231

> <Gold.PLP.part.hbond>
-6.4135

> <Gold.PLP.part.metal>
0.0000

> <Gold.PLP.part.buried>
0.8612

> <Gold.PLP.part.nonpolar>
-31.3632

> <Gold.PLP.part.repulsive>
0.4842

> <Gold.PLP.ligand.clash>
0.0000

> <Gold.PLP.ligand.torsion>
1.5524

> <Gold.PLP.Chemscore.Hbond>
3.8285

> <Gold.PLP.Chemscore.CHOScore>
1.0000

> <Gold.PLP.Chemscore.Metal>
0.0000

> <Gold.Chemscore.Hbonds>
donor molecule, donor type, donor heavy atom, donor atom, acceptor molecule, acceptor atom, score
      L1  H     7    38       P1  8028  1.00
      L1  H    24    48       P1 10747  0.80
      L1  H    26    51       P1 10186  0.73
      P1  H 10785 10796       L1    26  0.96
      L1  C    18    42       P1 10171  1.00

> <Gold.PLP.Chemscore.Internal.Correction>
0.6230

> <Gold.Rescore>
     Score         DG    S(hbond)    S(metal)    S(lipo)     H(rot)  DE(clash)    DE(int)     intcor
     14.32     -16.28       3.47        0.00      80.71       3.99       0.21       1.75       ----

> <Gold.Chemscore.Fitness>
14.3225

> <Gold.Chemscore.DG>
-16.2821

> <Gold.Chemscore.ZeroCoef>
-5.4800

> <Gold.Chemscore.Hbond>
3.4651

> <Gold.Chemscore.Metal>
0.0000

> <Gold.Chemscore.Lipo>
80.7145

> <Gold.Chemscore.Internal_Hbond>
0.0000

> <Gold.Chemscore.DEClash>
0.2058

> <Gold.Chemscore.DEInternal>
1.7538

> <Gold.Chemscore.Rot>
3.9902

> <Gold.Chemscore.Internal.Correction>
   9.000000E+99

> <Gold.Chemscore.Hbonds>
donor molecule, donor type, donor heavy atom, donor atom, acceptor molecule, acceptor atom, score
      L1  H     7    38       P1  8028  0.26
      L1  H    24    48       P1 10747  0.75
      L1  H    26    51       P1 10186  0.72
      P1  H 10785 10796       L1    26  0.40

> <Gold.Chemscore.Hbond.Weighted>
-11.5733

> <Gold.Chemscore.Metal.Weighted>
-0.0000

> <Gold.Chemscore.Lipo.Weighted>
-9.4436

> <Gold.Chemscore.Internal_Hbond.Weighted>
0.0000

> <Gold.Chemscore.DEClash.Weighted>
0.2058

> <Gold.Chemscore.DEInternal.Weighted>
1.7538

> <Gold.Chemscore.Rot.Weighted>
10.2148

> <Gold.Chemscore.Internal.Correction.Weighted>
   9.000000E+99

> <Gold.Protein.RotatedTorsions>
[ 6907 6896 6895 6894 ] final  126.33 input  -60.11 | X-H torsion
[ 7974 7965 7964 7962 ] final  -12.42 input  175.53 | X-H torsion
[ 8008 7997 7996 7995 ] final  144.95 input   59.86 | X-H torsion
[ 10167 10162 10161 10158 ] final   64.26 input  -65.29 | X-H torsion
[ 10718 10713 10712 10709 ] final  -15.42 input   66.30 | X-H torsion
[ 10763 10752 10751 10750 ] final   47.43 input  -60.55 | X-H torsion
[ 11005 11000 10999 10996 ] final  -23.02 input  -57.11 | X-H torsion

> <Gold.Protein.ActiveResidues>
 VAL166  LYS551  ARG553  GLY616  TRP617  ASP618  TYR619  PRO620  LYS621  CYS622 
 ASP623  PHE694  ASN695  SER759  ASP760  ASP761  ALA762  ILE779  LEU786  VAL792 
 PHE793  MET794  SER795  GLU796  ALA797  LYS798  CYS799  TRP800  GLU811  SER814 

> <Gold.Protein.RotatedAtoms>
  152.3913  133.6683  159.6239 H   0  0  0  0  0  0  0  0  0  0  0  0  # atno 6907 bound_to 6896
  150.7821  133.8949  159.3333 H   0  0  0  0  0  0  0  0  0  0  0  0  # atno 6908 bound_to 6896
  151.6735  135.0974  160.0254 H   0  0  0  0  0  0  0  0  0  0  0  0  # atno 6909 bound_to 6896
  146.2152  140.3055  142.8378 H   0  0  0  0  0  0  0  0  0  0  0  0  # atno 7974 bound_to 7965
  156.2895  140.2222  156.5136 H   0  0  0  0  0  0  0  0  0  0  0  0  # atno 8008 bound_to 7997
  154.7588  140.0475  157.0977 H   0  0  0  0  0  0  0  0  0  0  0  0  # atno 8009 bound_to 7997
  155.0017  140.3102  155.4868 H   0  0  0  0  0  0  0  0  0  0  0  0  # atno 8010 bound_to 7997
  140.1241  144.4704  150.6903 H   0  0  0  0  0  0  0  0  0  0  0  0  # atno 10167 bound_to 10162
  156.6020  130.4826  149.6236 H   0  0  0  0  0  0  0  0  0  0  0  0  # atno 10718 bound_to 10713
  152.9800  135.5976  154.3762 H   0  0  0  0  0  0  0  0  0  0  0  0  # atno 10763 bound_to 10752
  154.3430  135.2767  155.2414 H   0  0  0  0  0  0  0  0  0  0  0  0  # atno 10764 bound_to 10752
  154.4487  135.5995  153.6232 H   0  0  0  0  0  0  0  0  0  0  0  0  # atno 10765 bound_to 10752
  140.8712  133.7719  156.0189 H   0  0  0  0  0  0  0  0  0  0  0  0  # atno 11005 bound_to 11000
  144.9026  140.7661  143.5857 LP  0  0  0  0  0  0  0  0  0  0  0  0  # atno 17320 bound_to 7965
  145.2982  139.1859  143.4704 LP  0  0  0  0  0  0  0  0  0  0  0  0  # atno 17321 bound_to 7965
  140.6855  143.2348  151.5271 LP  0  0  0  0  0  0  0  0  0  0  0  0  # atno 17342 bound_to 10162
  139.5553  144.2290  152.1602 LP  0  0  0  0  0  0  0  0  0  0  0  0  # atno 17343 bound_to 10162
  156.2461  130.6880  151.1601 LP  0  0  0  0  0  0  0  0  0  0  0  0  # atno 17370 bound_to 10713
  157.7277  131.0637  150.5854 LP  0  0  0  0  0  0  0  0  0  0  0  0  # atno 17371 bound_to 10713
  140.8571  134.2885  157.5250 LP  0  0  0  0  0  0  0  0  0  0  0  0  # atno 17394 bound_to 11000
  139.8712  134.9498  156.4038 LP  0  0  0  0  0  0  0  0  0  0  0  0  # atno 17395 bound_to 11000

$$$$
