AV-unprocessed.smi:1984|AV-procd|sdf|8040|dock5
  -GOLD-   2272010233D 1   1.00000     0.00000
 Structure written by MMmdl.
 38 39  0  0  0  0  0  0  0  0  1 V2000
  153.9732  140.1752  161.0805 C   0  0  0  0  0  0  0  0  0  0  0  0
  153.3879  141.5399  160.8665 C   0  0  0  0  0  0  0  0  0  0  0  0
  152.9111  142.4571  161.8438 C   0  0  0  0  0  0  0  0  0  0  0  0
  152.4733  143.5284  161.1173 C   0  0  0  0  0  0  0  0  0  0  0  0
  151.8554  144.8095  161.5723 C   0  0  0  0  0  0  0  0  0  0  0  0
  152.6950  143.2280  159.7845 N   0  0  0  0  0  0  0  0  0  0  0  0
  152.3806  144.0120  158.5970 C   0  0  0  0  0  0  0  0  0  0  0  0
  151.4642  143.2342  157.6489 C   0  0  0  0  0  0  0  0  0  0  0  0
  151.4346  143.5146  156.4511 O   0  0  0  0  0  0  0  0  0  0  0  0
  150.7464  142.2386  158.1921 N   0  0  0  0  0  0  0  0  0  0  0  0
  149.9923  141.2432  157.4408 C   0  0  0  0  0  0  0  0  0  0  0  0
  150.8547  140.6102  156.3299 C   0  0  2  0  0  0  0  0  0  0  0  0
  150.0222  139.8072  155.3127 C   0  0  0  0  0  0  0  0  0  0  0  0
  150.9830  139.0129  154.4221 C   0  0  0  0  0  0  0  0  0  0  0  0
  152.3739  138.5284  155.5108 S   0  0  0  0  0  0  0  0  0  0  0  0
  152.1675  137.1513  155.9842 O   0  0  0  0  0  0  0  0  0  0  0  0
  153.6410  138.9316  154.8824 O   0  0  0  0  0  0  0  0  0  0  0  0
  151.9642  139.6883  156.8686 C   0  0  0  0  0  0  0  0  0  0  0  0
  153.2615  142.0097  159.6367 N   0  0  0  0  0  0  0  0  0  0  0  0
  154.2469  140.0239  162.1248 H   0  0  0  0  0  0  0  0  0  0  0  0
  154.8710  140.0294  160.4790 H   0  0  0  0  0  0  0  0  0  0  0  0
  153.2587  139.3981  160.8084 H   0  0  0  0  0  0  0  0  0  0  0  0
  152.8887  142.3428  162.9175 H   0  0  0  0  0  0  0  0  0  0  0  0
  151.6914  144.8014  162.6500 H   0  0  0  0  0  0  0  0  0  0  0  0
  150.8921  144.9729  161.0894 H   0  0  0  0  0  0  0  0  0  0  0  0
  152.5019  145.6554  161.3382 H   0  0  0  0  0  0  0  0  0  0  0  0
  151.9025  144.9476  158.8871 H   0  0  0  0  0  0  0  0  0  0  0  0
  153.3105  144.2730  158.0895 H   0  0  0  0  0  0  0  0  0  0  0  0
  150.8209  142.0938  159.1886 H   0  0  0  0  0  0  0  0  0  0  0  0
  149.6607  140.4752  158.1401 H   0  0  0  0  0  0  0  0  0  0  0  0
  149.0908  141.6918  157.0203 H   0  0  0  0  0  0  0  0  0  0  0  0
  151.3437  141.4105  155.7721 H   0  0  0  0  0  0  0  0  0  0  0  0
  149.3764  139.1093  155.8469 H   0  0  0  0  0  0  0  0  0  0  0  0
  149.3734  140.4532  154.7205 H   0  0  0  0  0  0  0  0  0  0  0  0
  150.5256  138.1307  153.9745 H   0  0  0  0  0  0  0  0  0  0  0  0
  151.3815  139.6433  153.6267 H   0  0  0  0  0  0  0  0  0  0  0  0
  152.8567  140.2348  157.1755 H   0  0  0  0  0  0  0  0  0  0  0  0
  151.6116  139.0986  157.7150 H   0  0  0  0  0  0  0  0  0  0  0  0
  1  2  1  0  0  0  0
  1 20  1  0  0  0  0
  1 21  1  0  0  0  0
  1 22  1  0  0  0  0
  2 19  2  0  0  0  0
  2  3  1  0  0  0  0
  3  4  2  0  0  0  0
  3 23  1  0  0  0  0
  4  5  1  0  0  0  0
  4  6  1  0  0  0  0
  5 24  1  0  0  0  0
  5 25  1  0  0  0  0
  5 26  1  0  0  0  0
  6  7  1  0  0  0  0
  6 19  1  0  0  0  0
  7  8  1  0  0  0  0
  7 27  1  0  0  0  0
  7 28  1  0  0  0  0
  8  9  2  0  0  0  0
  8 10  1  0  0  0  0
 10 11  1  0  0  0  0
 10 29  1  0  0  0  0
 11 12  1  0  0  0  0
 11 30  1  0  0  0  0
 11 31  1  0  0  0  0
 12 18  1  0  0  0  0
 12 13  1  0  0  0  0
 12 32  1  0  0  0  0
 13 14  1  0  0  0  0
 13 33  1  0  0  0  0
 13 34  1  0  0  0  0
 14 15  1  0  0  0  0
 14 35  1  0  0  0  0
 14 36  1  0  0  0  0
 15 16  2  0  0  0  0
 15 17  2  0  0  0  0
 15 18  1  0  0  0  0
 18 37  1  0  0  0  0
 18 38  1  0  0  0  0
M  END
> <s_m_source_file>
AV-unprocessed.smi

> <i_m_source_file_index>
1984

> <i_lp_mmshare_version>
43012

> <i_f3d_flags>
0

> <s_epik_input>
W0NIM11jMVtjSF1jKFtDSDNdKW4objEpW0NIMl1DKD1PKVtOSF1bQ0gyXVtDQEBIXShbQ0gyXTIpW0NIMl1bQ0gyXVMyKD1PKT1P

> <s_epik_cmdline>
J2VwaWtfcHl0aG9uJywgJy1waCcsICc3LjAnLCAnLXRuJywgJzgnLCAnLW1hJywgJzIwMCcsICctbWV0YWxfYmluZGluZycsICctaW1hZScsICc8aW5maWxlLm1hZT4nLCAnLW9tYWUnLCAnPG91dGZpbGUubWFlPic=

> <r_lp_tautomer_probability>
1

> <r_epik_Ionization_Penalty>
0.000335865

> <r_epik_Ionization_Penalty_Charging>
0

> <r_epik_Ionization_Penalty_Neutral>
0.000335865

> <r_epik_State_Penalty>
-0

> <r_epik_Charging_Adjusted_Penalty>
0

> <i_epik_Tot_Q>
0

> <i_epik_Tot_abs_Q>
0

> <r_epik_Metal_State_Penalty>
-0

> <b_epik_Metal_Only>
0

> <s_lp_Force_Field>
OPLS_2005

> <r_lp_Energy>
1.39039

> <b_lp_Chiralities_Consistent>
1

> <s_lp_Variant>
AV-unprocessed.smi:1984-1

> <Gold.Version>
5.8.1

> <Gold.Id.Protein>
6NUR|6NUR_protein|mol2

> <Gold.PLP.Fitness>
44.7040

> <Gold.PLP.PLP>
-40.0088

> <Gold.PLP.part.hbond>
-2.0000

> <Gold.PLP.part.metal>
0.0000

> <Gold.PLP.part.buried>
-1.3477

> <Gold.PLP.part.nonpolar>
-38.8076

> <Gold.PLP.part.repulsive>
1.9483

> <Gold.PLP.ligand.clash>
0.0000

> <Gold.PLP.ligand.torsion>
0.4536

> <Gold.PLP.Chemscore.Hbond>
1.8640

> <Gold.PLP.Chemscore.CHOScore>
0.0000

> <Gold.PLP.Chemscore.Metal>
0.0000

> <Gold.Chemscore.Hbonds>
donor molecule, donor type, donor heavy atom, donor atom, acceptor molecule, acceptor atom, score
      P1  H  7997  8009       L1    17  1.00
      P1  H 10752 10763       L1    16  0.69

> <Gold.PLP.Chemscore.Internal.Correction>
0.0103

> <Gold.Rescore>
     Score         DG    S(hbond)    S(metal)    S(lipo)     H(rot)  DE(clash)    DE(int)     intcor
     12.60     -18.56       1.76        0.00      98.34       1.68       3.06       2.90       ----

> <Gold.Chemscore.Fitness>
12.6018

> <Gold.Chemscore.DG>
-18.5559

> <Gold.Chemscore.ZeroCoef>
-5.4800

> <Gold.Chemscore.Hbond>
1.7575

> <Gold.Chemscore.Metal>
0.0000

> <Gold.Chemscore.Lipo>
98.3368

> <Gold.Chemscore.Internal_Hbond>
0.0000

> <Gold.Chemscore.DEClash>
3.0579

> <Gold.Chemscore.DEInternal>
2.8962

> <Gold.Chemscore.Rot>
1.6795

> <Gold.Chemscore.Internal.Correction>
   9.000000E+99

> <Gold.Chemscore.Hbonds>
donor molecule, donor type, donor heavy atom, donor atom, acceptor molecule, acceptor atom, score
      P1  H  7997  8009       L1    17  0.84
      P1  H 10752 10763       L1    16  0.65

> <Gold.Chemscore.Hbond.Weighted>
-5.8700

> <Gold.Chemscore.Metal.Weighted>
-0.0000

> <Gold.Chemscore.Lipo.Weighted>
-11.5054

> <Gold.Chemscore.Internal_Hbond.Weighted>
0.0000

> <Gold.Chemscore.DEClash.Weighted>
3.0579

> <Gold.Chemscore.DEInternal.Weighted>
2.8962

> <Gold.Chemscore.Rot.Weighted>
4.2995

> <Gold.Chemscore.Internal.Correction.Weighted>
   9.000000E+99

> <Gold.Protein.RotatedTorsions>
[ 6907 6896 6895 6894 ] final    3.86 input  -60.11 | X-H torsion
[ 7974 7965 7964 7962 ] final   32.20 input  175.53 | X-H torsion
[ 8008 7997 7996 7995 ] final -127.98 input   59.86 | X-H torsion
[ 10167 10162 10161 10158 ] final -144.19 input  -65.29 | X-H torsion
[ 10718 10713 10712 10709 ] final  -66.03 input   66.30 | X-H torsion
[ 10763 10752 10751 10750 ] final   82.96 input  -60.55 | X-H torsion
[ 11005 11000 10999 10996 ] final   16.87 input  -57.11 | X-H torsion

> <Gold.Protein.ActiveResidues>
 VAL166  LYS551  ARG553  GLY616  TRP617  ASP618  TYR619  PRO620  LYS621  CYS622 
 ASP623  PHE694  ASN695  SER759  ASP760  ASP761  ALA762  ILE779  LEU786  VAL792 
 PHE793  MET794  SER795  GLU796  ALA797  LYS798  CYS799  TRP800  GLU811  SER814 

> <Gold.Protein.RotatedAtoms>
  151.6319  135.1022  160.0123 H   0  0  0  0  0  0  0  0  0  0  0  0  # atno 6907 bound_to 6896
  152.4102  133.6947  159.6399 H   0  0  0  0  0  0  0  0  0  0  0  0  # atno 6908 bound_to 6896
  150.7993  133.8555  159.3258 H   0  0  0  0  0  0  0  0  0  0  0  0  # atno 6909 bound_to 6896
  146.1501  139.6557  142.9104 H   0  0  0  0  0  0  0  0  0  0  0  0  # atno 7974 bound_to 7965
  155.2551  140.0434  157.2991 H   0  0  0  0  0  0  0  0  0  0  0  0  # atno 8008 bound_to 7997
  154.5745  140.2383  155.8113 H   0  0  0  0  0  0  0  0  0  0  0  0  # atno 8009 bound_to 7997
  156.2147  140.2988  155.9821 H   0  0  0  0  0  0  0  0  0  0  0  0  # atno 8010 bound_to 7997
  139.7922  143.7950  152.2651 H   0  0  0  0  0  0  0  0  0  0  0  0  # atno 10167 bound_to 10162
  156.0635  130.4256  150.1650 H   0  0  0  0  0  0  0  0  0  0  0  0  # atno 10718 bound_to 10713
  153.1249  135.4709  154.9255 H   0  0  0  0  0  0  0  0  0  0  0  0  # atno 10763 bound_to 10752
  154.7610  135.3131  154.8380 H   0  0  0  0  0  0  0  0  0  0  0  0  # atno 10764 bound_to 10752
  153.8936  135.6882  153.4813 H   0  0  0  0  0  0  0  0  0  0  0  0  # atno 10765 bound_to 10752
  140.4423  134.1309  155.7692 H   0  0  0  0  0  0  0  0  0  0  0  0  # atno 11005 bound_to 11000
  145.4843  141.0438  143.2628 LP  0  0  0  0  0  0  0  0  0  0  0  0  # atno 17320 bound_to 7965
  144.7894  139.6359  143.7120 LP  0  0  0  0  0  0  0  0  0  0  0  0  # atno 17321 bound_to 7965
  139.8044  144.7361  150.9781 LP  0  0  0  0  0  0  0  0  0  0  0  0  # atno 17342 bound_to 10162
  140.7820  143.4312  151.0691 LP  0  0  0  0  0  0  0  0  0  0  0  0  # atno 17343 bound_to 10162
  156.9714  130.9836  151.3458 LP  0  0  0  0  0  0  0  0  0  0  0  0  # atno 17370 bound_to 10713
  157.5661  130.8279  149.8329 LP  0  0  0  0  0  0  0  0  0  0  0  0  # atno 17371 bound_to 10713
  141.1700  133.8627  157.1599 LP  0  0  0  0  0  0  0  0  0  0  0  0  # atno 17394 bound_to 11000
  140.0062  135.0007  157.0297 LP  0  0  0  0  0  0  0  0  0  0  0  0  # atno 17395 bound_to 11000

$$$$
