#       Name:                AV-unprocessed.smi:3130
#       Creating user name   scv26
#       Creation time:       Fri Mar 27 17:31:08 2020


#       File generated by GOLD software.
#

@<TRIPOS>MOLECULE
AV-unprocessed.smi:3130
    43    43     1
SMALL
NO_CHARGES


@<TRIPOS>ATOM
      1 ****        -5.3021   5.3268   0.8180 C.3            1 S1                 0.0000
      2 ****        -4.5322   4.2710   0.0785 C.2            1 S1                 0.0000
      3 ****        -3.9696   4.3499  -1.2273 C.2            1 S1                 0.0000
      4 ****        -3.3543   3.2359  -1.5900 N.2            1 S1                 0.0000
      5 ****        -3.4983   2.4110  -0.5316 N.pl3          1 S1                 0.0000
      6 ****        -2.9456   1.0711  -0.5825 C.3            1 S1                 0.0000
      7 ****        -1.4104   1.0822  -0.5398 C.3            1 S1                 0.0000
      8 ****        -0.8692  -0.2902  -0.5738 N.4            1 S1                 1.0000
      9 ****         0.6053  -0.3540  -0.5617 C.3            1 S1                 0.0000
     10 ****         1.0947  -1.8121  -0.5840 C.3            1 S1                 0.0000
     11 ****         2.6212  -1.9263  -0.5360 C.2            1 S1                 0.0000
     12 ****         3.3261  -1.0969  -1.1111 O.2            1 S1                 0.0000
     13 ****         3.1181  -2.9658   0.1528 N.am           1 S1                 0.0000
     14 ****         4.5362  -3.2710   0.3220 C.3            1 S1                 0.0000
     15 ****         4.7069  -4.7755   0.5713 C.3            1 S1                 0.0000
     16 ****         5.1351  -2.4363   1.4652 C.3            1 S1                 0.0000
     17 ****        -4.2079   3.0088   0.4883 C.2            1 S1                 0.0000
     18 ****        -5.2980   6.2795   0.2878 H              1 S1                 0.0000
     19 ****        -4.8854   5.5094   1.8088 H              1 S1                 0.0000
     20 ****        -6.3450   5.0401   0.9547 H              1 S1                 0.0000
     21 ****        -3.9926   5.1789  -1.9194 H              1 S1                 0.0000
     22 ****        -3.3445   0.5003   0.2572 H              1 S1                 0.0000
     23 ****        -3.3009   0.5864  -1.4931 H              1 S1                 0.0000
     24 ****        -1.0148   1.6416  -1.3887 H              1 S1                 0.0000
     25 ****        -1.0650   1.5820   0.3664 H              1 S1                 0.0000
     26 ****        -1.2207  -0.7939   0.2281 H              1 S1                 0.0000
     27 ****         0.9871   0.1891  -1.4277 H              1 S1                 0.0000
     28 ****         0.9775   0.1538   0.3298 H              1 S1                 0.0000
     29 ****         0.6667  -2.3547   0.2605 H              1 S1                 0.0000
     30 ****         0.7434  -2.3111  -1.4879 H              1 S1                 0.0000
     31 ****         2.4653  -3.5990   0.5915 H              1 S1                 0.0000
     32 ****         5.0649  -3.0258  -0.6009 H              1 S1                 0.0000
     33 ****         5.7598  -5.0389   0.6754 H              1 S1                 0.0000
     34 ****         4.3030  -5.3599  -0.2561 H              1 S1                 0.0000
     35 ****         4.1950  -5.0884   1.4820 H              1 S1                 0.0000
     36 ****         6.1948  -2.6573   1.5964 H              1 S1                 0.0000
     37 ****         4.6337  -2.6407   2.4117 H              1 S1                 0.0000
     38 ****         5.0472  -1.3679   1.2651 H              1 S1                 0.0000
     39 ****        -4.4235   2.4927   1.4124 H              1 S1                 0.0000
     40 ****        -1.2019  -0.7444  -1.4125 H              1 S1                 0.0000
     41 ****        -2.8875   3.0476  -2.4541 LP             1 S1                 0.0000
     42 ****         2.9025  -0.3431  -1.6134 LP             1 S1                 0.0000
     43 ****         4.3223  -1.1770  -1.0760 LP             1 S1                 0.0000
@<TRIPOS>BOND
    1    1    2 1     
    2    1   18 1     
    3    1   19 1     
    4    1   20 1     
    5    2   17 2     
    6    2    3 1     
    7    3    4 2     
    8    3   21 1     
    9    4    5 1     
   10    5    6 1     
   11    5   17 1     
   12    6    7 1     
   13    6   22 1     
   14    6   23 1     
   15    7    8 1     
   16    7   24 1     
   17    7   25 1     
   18    8    9 1     
   19    8   26 1     
   20    8   40 1     
   21    9   10 1     
   22    9   27 1     
   23    9   28 1     
   24   10   11 1     
   25   10   29 1     
   26   10   30 1     
   27   11   12 2     
   28   11   13 am    
   29   13   14 1     
   30   13   31 1     
   31   14   15 1     
   32   14   16 1     
   33   14   32 1     
   34   15   33 1     
   35   15   34 1     
   36   15   35 1     
   37   16   36 1     
   38   16   37 1     
   39   16   38 1     
   40   17   39 1     
   41    4   41 1     
   42   12   42 1     
   43   12   43 1     
@<TRIPOS>SUBSTRUCTURE
      1 S1             1
@<TRIPOS>SET
LONE_PAIRS      STATIC     ATOMS    <user>   **** ""
3 41 42 43
DONOR_HYDROGENS      STATIC     ATOMS    <user>   **** ""
3 26 40 31
ATOM$BLUE        STATIC     ATOMS    COLORGROUP SYSTEM
3 41 42 43
ATOM$RED        STATIC     ATOMS    COLORGROUP SYSTEM
3 26 40 31
