AV-unprocessed.smi:3280|AV-procd|sdf|12553|dock8
  -GOLD-   2272018473D 1   1.00000     0.00000
 Structure written by MMmdl.
 39 40  0  0  0  0  0  0  0  0  2 V2000
  145.5452  143.4904  153.3531 C   0  0  0  0  0  0  0  0  0  0  0  0
  145.7875  142.3318  154.3316 C   0  0  0  0  0  0  0  0  0  0  0  0
  145.2937  142.6359  155.7539 C   0  0  0  0  0  0  0  0  0  0  0  0
  147.2188  141.8890  154.3239 C   0  0  0  0  0  0  0  0  0  0  0  0
  147.8249  141.5339  153.1964 N   0  0  0  0  0  0  0  0  0  0  0  0
  149.1221  141.2031  153.6130 O   0  0  0  0  0  0  0  0  0  0  0  0
  149.1354  141.3839  154.9548 C   0  0  0  0  0  0  0  0  0  0  0  0
  150.4079  141.1600  155.7001 C   0  0  0  0  0  0  0  0  0  0  0  0
  150.4169  141.8666  157.0614 C   0  0  0  0  0  0  0  0  0  0  0  0
  151.0271  143.2075  156.9610 N   0  3  0  0  0  0  0  0  0  0  0  0
  151.6261  143.7109  158.2163 C   0  0  1  0  0  0  0  0  0  0  0  0
  150.5576  144.4520  159.0424 C   0  0  0  0  0  0  0  0  0  0  0  0
  151.1227  145.0576  160.3379 C   0  0  0  0  0  0  0  0  0  0  0  0
  151.7054  143.9929  161.2777 C   0  0  0  0  0  0  0  0  0  0  0  0
  153.0919  143.1216  160.4990 S   0  0  0  0  0  0  0  0  0  0  0  0
  152.2430  142.5421  159.0045 C   0  0  0  0  0  0  0  0  0  0  0  0
  147.9849  141.8311  155.4500 N   0  0  0  0  0  0  0  0  0  0  0  0
  145.8410  143.2162  152.3400 H   0  0  0  0  0  0  0  0  0  0  0  0
  146.1123  144.3771  153.6380 H   0  0  0  0  0  0  0  0  0  0  0  0
  144.4908  143.7663  153.3258 H   0  0  0  0  0  0  0  0  0  0  0  0
  145.1871  141.4948  153.9708 H   0  0  0  0  0  0  0  0  0  0  0  0
  145.4118  141.7683  156.4039 H   0  0  0  0  0  0  0  0  0  0  0  0
  144.2375  142.9062  155.7526 H   0  0  0  0  0  0  0  0  0  0  0  0
  145.8468  143.4636  156.1988 H   0  0  0  0  0  0  0  0  0  0  0  0
  150.5483  140.0863  155.8321 H   0  0  0  0  0  0  0  0  0  0  0  0
  151.2373  141.5121  155.0853 H   0  0  0  0  0  0  0  0  0  0  0  0
  149.3979  141.9635  157.4386 H   0  0  0  0  0  0  0  0  0  0  0  0
  150.9764  141.2719  157.7851 H   0  0  0  0  0  0  0  0  0  0  0  0
  151.7494  143.1772  156.2556 H   0  0  0  0  0  0  0  0  0  0  0  0
  152.4225  144.4175  157.9745 H   0  0  0  0  0  0  0  0  0  0  0  0
  150.1239  145.2518  158.4406 H   0  0  0  0  0  0  0  0  0  0  0  0
  149.7380  143.7740  159.2850 H   0  0  0  0  0  0  0  0  0  0  0  0
  151.8891  145.7958  160.0980 H   0  0  0  0  0  0  0  0  0  0  0  0
  150.3307  145.5987  160.8567 H   0  0  0  0  0  0  0  0  0  0  0  0
  152.0573  144.4552  162.2003 H   0  0  0  0  0  0  0  0  0  0  0  0
  150.9392  143.2684  161.5552 H   0  0  0  0  0  0  0  0  0  0  0  0
  151.4746  141.8233  159.2920 H   0  0  0  0  0  0  0  0  0  0  0  0
  152.9666  142.0071  158.3885 H   0  0  0  0  0  0  0  0  0  0  0  0
  150.3171  143.8614  156.6633 H   0  0  0  0  0  0  0  0  0  0  0  0
  1  2  1  0  0  0  0
  1 18  1  0  0  0  0
  1 19  1  0  0  0  0
  1 20  1  0  0  0  0
  2  3  1  0  0  0  0
  2  4  1  0  0  0  0
  2 21  1  0  0  0  0
  3 22  1  0  0  0  0
  3 23  1  0  0  0  0
  3 24  1  0  0  0  0
  4 17  1  0  0  0  0
  4  5  2  0  0  0  0
  5  6  1  0  0  0  0
  6  7  1  0  0  0  0
  7  8  1  0  0  0  0
  7 17  2  0  0  0  0
  8  9  1  0  0  0  0
  8 25  1  0  0  0  0
  8 26  1  0  0  0  0
  9 10  1  0  0  0  0
  9 27  1  0  0  0  0
  9 28  1  0  0  0  0
 10 11  1  0  0  0  0
 10 29  1  0  0  0  0
 10 39  1  0  0  0  0
 11 16  1  0  0  0  0
 11 12  1  0  0  0  0
 11 30  1  0  0  0  0
 12 13  1  0  0  0  0
 12 31  1  0  0  0  0
 12 32  1  0  0  0  0
 13 14  1  0  0  0  0
 13 33  1  0  0  0  0
 13 34  1  0  0  0  0
 14 15  1  0  0  0  0
 14 35  1  0  0  0  0
 14 36  1  0  0  0  0
 15 16  1  0  0  0  0
 16 37  1  0  0  0  0
 16 38  1  0  0  0  0
M  CHG  1  10   1
M  END
> <s_m_source_file>
AV-unprocessed.smi

> <i_m_source_file_index>
3280

> <i_lp_mmshare_version>
43012

> <i_f3d_flags>
0

> <s_epik_input>
W0NIM11bQ0hdKFtDSDNdKWMxbm9jKG4xKVtDSDJdW0NIMl1bTkhdW0NAQEhdMltDSDJdW0NIMl1bQ0gyXVNbQ0gyXTI=

> <s_epik_cmdline>
J2VwaWtfcHl0aG9uJywgJy1waCcsICc3LjAnLCAnLXRuJywgJzgnLCAnLW1hJywgJzIwMCcsICctbWV0YWxfYmluZGluZycsICctaW1hZScsICc8aW5maWxlLm1hZT4nLCAnLW9tYWUnLCAnPG91dGZpbGUubWFlPic=

> <r_lp_tautomer_probability>
1

> <r_epik_Ionization_Penalty>
0.0103043

> <r_epik_Ionization_Penalty_Charging>
0.0103043

> <r_epik_Ionization_Penalty_Neutral>
2.61801e-13

> <r_epik_State_Penalty>
0.0078728

> <r_epik_Charging_Adjusted_Penalty>
0.0181771

> <i_epik_Tot_Q>
1

> <i_epik_Tot_abs_Q>
1

> <r_epik_Metal_State_Penalty>
0.0078728

> <b_epik_Metal_Only>
0

> <s_lp_Force_Field>
OPLS_2005

> <r_lp_Energy>
2.51022

> <b_lp_Chiralities_Consistent>
1

> <s_lp_Variant>
AV-unprocessed.smi:3280-2

> <Gold.Version>
5.8.1

> <Gold.Id.Protein>
6NUR|6NUR_protein|mol2

> <Gold.PLP.Fitness>
44.9106

> <Gold.PLP.PLP>
-38.3479

> <Gold.PLP.part.hbond>
-2.1846

> <Gold.PLP.part.metal>
0.0000

> <Gold.PLP.part.buried>
-5.4251

> <Gold.PLP.part.nonpolar>
-34.0428

> <Gold.PLP.part.repulsive>
2.6493

> <Gold.PLP.ligand.clash>
0.0000

> <Gold.PLP.ligand.torsion>
0.9600

> <Gold.PLP.Chemscore.Hbond>
2.8000

> <Gold.PLP.Chemscore.CHOScore>
0.0000

> <Gold.PLP.Chemscore.Metal>
0.0000

> <Gold.Chemscore.Hbonds>
donor molecule, donor type, donor heavy atom, donor atom, acceptor molecule, acceptor atom, score
      L1  H    10    39       P1  8028  2.00
      P1  H  8011  8017       L1     6  0.42

> <Gold.PLP.Chemscore.Internal.Correction>
0.0828

> <Gold.Rescore>
     Score         DG    S(hbond)    S(metal)    S(lipo)     H(rot)  DE(clash)    DE(int)     intcor
     15.76     -16.80       1.50        0.00      92.55       1.76       0.03       1.02       ----

> <Gold.Chemscore.Fitness>
15.7586

> <Gold.Chemscore.DG>
-16.8039

> <Gold.Chemscore.ZeroCoef>
-5.4800

> <Gold.Chemscore.Hbond>
1.4953

> <Gold.Chemscore.Metal>
0.0000

> <Gold.Chemscore.Lipo>
92.5479

> <Gold.Chemscore.Internal_Hbond>
0.0000

> <Gold.Chemscore.DEClash>
0.0289

> <Gold.Chemscore.DEInternal>
1.0164

> <Gold.Chemscore.Rot>
1.7572

> <Gold.Chemscore.Internal.Correction>
   9.000000E+99

> <Gold.Chemscore.Hbonds>
donor molecule, donor type, donor heavy atom, donor atom, acceptor molecule, acceptor atom, score
      L1  H    10    39       P1  8028  0.99
      P1  H  8011  8017       L1     6  0.01

> <Gold.Chemscore.Hbond.Weighted>
-4.9941

> <Gold.Chemscore.Metal.Weighted>
-0.0000

> <Gold.Chemscore.Lipo.Weighted>
-10.8281

> <Gold.Chemscore.Internal_Hbond.Weighted>
0.0000

> <Gold.Chemscore.DEClash.Weighted>
0.0289

> <Gold.Chemscore.DEInternal.Weighted>
1.0164

> <Gold.Chemscore.Rot.Weighted>
4.4984

> <Gold.Chemscore.Internal.Correction.Weighted>
   9.000000E+99

> <Gold.Protein.RotatedTorsions>
[ 6907 6896 6895 6894 ] final   14.81 input  -60.11 | X-H torsion
[ 7974 7965 7964 7962 ] final  137.43 input  175.53 | X-H torsion
[ 8008 7997 7996 7995 ] final   79.82 input   59.86 | X-H torsion
[ 10167 10162 10161 10158 ] final  -36.80 input  -65.29 | X-H torsion
[ 10718 10713 10712 10709 ] final -143.78 input   66.30 | X-H torsion
[ 10763 10752 10751 10750 ] final   80.97 input  -60.55 | X-H torsion
[ 11005 11000 10999 10996 ] final   17.56 input  -57.11 | X-H torsion

> <Gold.Protein.ActiveResidues>
 VAL166  LYS551  ARG553  GLY616  TRP617  ASP618  TYR619  PRO620  LYS621  CYS622 
 ASP623  PHE694  ASN695  SER759  ASP760  ASP761  ALA762  ILE779  LEU786  VAL792 
 PHE793  MET794  SER795  GLU796  ALA797  LYS798  CYS799  TRP800  GLU811  SER814 

> <Gold.Protein.RotatedAtoms>
  151.8082  135.0689  160.0409 H   0  0  0  0  0  0  0  0  0  0  0  0  # atno 6907 bound_to 6896
  152.3040  133.5680  159.5645 H   0  0  0  0  0  0  0  0  0  0  0  0  # atno 6908 bound_to 6896
  150.7287  134.0166  159.3729 H   0  0  0  0  0  0  0  0  0  0  0  0  # atno 6909 bound_to 6896
  144.9468  139.4865  143.5545 H   0  0  0  0  0  0  0  0  0  0  0  0  # atno 7974 bound_to 7965
  155.8750  140.3447  155.5847 H   0  0  0  0  0  0  0  0  0  0  0  0  # atno 8008 bound_to 7997
  155.7785  140.0855  157.2091 H   0  0  0  0  0  0  0  0  0  0  0  0  # atno 8009 bound_to 7997
  154.4020  140.1505  156.3011 H   0  0  0  0  0  0  0  0  0  0  0  0  # atno 8010 bound_to 7997
  140.7134  143.3384  151.2411 H   0  0  0  0  0  0  0  0  0  0  0  0  # atno 10167 bound_to 10162
  156.3620  130.7743  151.1912 H   0  0  0  0  0  0  0  0  0  0  0  0  # atno 10718 bound_to 10713
  153.1077  135.4783  154.8981 H   0  0  0  0  0  0  0  0  0  0  0  0  # atno 10763 bound_to 10752
  154.7448  135.3091  154.8667 H   0  0  0  0  0  0  0  0  0  0  0  0  # atno 10764 bound_to 10752
  153.9265  135.6849  153.4800 H   0  0  0  0  0  0  0  0  0  0  0  0  # atno 10765 bound_to 10752
  140.4346  134.1384  155.7684 H   0  0  0  0  0  0  0  0  0  0  0  0  # atno 11005 bound_to 11000
  146.3306  139.8526  142.8870 LP  0  0  0  0  0  0  0  0  0  0  0  0  # atno 17320 bound_to 7965
  145.2905  141.0165  143.3666 LP  0  0  0  0  0  0  0  0  0  0  0  0  # atno 17321 bound_to 7965
  139.6886  143.9732  152.2847 LP  0  0  0  0  0  0  0  0  0  0  0  0  # atno 17342 bound_to 10162
  139.9385  144.6696  150.8290 LP  0  0  0  0  0  0  0  0  0  0  0  0  # atno 17343 bound_to 10162
  157.7474  131.0397  150.4563 LP  0  0  0  0  0  0  0  0  0  0  0  0  # atno 17370 bound_to 10713
  156.4776  130.4066  149.6481 LP  0  0  0  0  0  0  0  0  0  0  0  0  # atno 17371 bound_to 10713
  141.1731  133.8569  157.1508 LP  0  0  0  0  0  0  0  0  0  0  0  0  # atno 17394 bound_to 11000
  140.0111  134.9988  157.0396 LP  0  0  0  0  0  0  0  0  0  0  0  0  # atno 17395 bound_to 11000

$$$$
