AV-unprocessed.smi:2924|AV-procd|sdf|11219|dock5
  -GOLD-   2272016113D 1   1.00000     0.00000
 Structure written by MMmdl.
 29 31  0  0  0  0  0  0  0  0  1 V2000
  154.0598  140.2943  159.8769 N   0  0  0  0  0  0  0  0  0  0  0  0
  153.4051  141.2012  159.5812 C   0  0  0  0  0  0  0  0  0  0  0  0
  152.5809  142.3444  159.2077 C   0  0  0  0  0  0  0  0  0  0  0  0
  152.8222  143.5910  159.8224 C   0  0  0  0  0  0  0  0  0  0  0  0
  152.0262  144.6959  159.4689 C   0  0  0  0  0  0  0  0  0  0  0  0
  151.0157  144.5081  158.5085 C   0  0  0  0  0  0  0  0  0  0  0  0
  150.7755  143.3220  157.9122 N   0  0  0  0  0  0  0  0  0  0  0  0
  151.5364  142.2520  158.2490 C   0  0  0  0  0  0  0  0  0  0  0  0
  151.2642  141.0292  157.6089 N   0  0  0  0  0  0  0  0  0  0  0  0
  151.3578  140.8948  156.1582 C   0  0  1  0  0  0  0  0  0  0  0  0
  152.2354  139.7186  155.7235 C   0  0  0  0  0  0  0  0  0  0  0  0
  151.2937  138.9522  154.7838 C   0  0  1  0  0  0  0  0  0  0  0  0
  150.2164  138.1891  155.5651 C   0  0  0  0  0  0  0  0  0  0  0  0
  149.3115  139.3258  156.0359 C   0  0  0  0  0  0  0  0  0  0  0  0
  150.0243  140.5608  155.4587 C   0  0  2  0  0  0  0  0  0  0  0  0
  150.5215  140.0141  154.2486 O   0  0  0  0  0  0  0  0  0  0  0  0
  153.6059  143.7050  160.5577 H   0  0  0  0  0  0  0  0  0  0  0  0
  152.1860  145.6629  159.9226 H   0  0  0  0  0  0  0  0  0  0  0  0
  150.3836  145.3317  158.2107 H   0  0  0  0  0  0  0  0  0  0  0  0
  150.7416  140.3271  158.1129 H   0  0  0  0  0  0  0  0  0  0  0  0
  151.7731  141.8105  155.7349 H   0  0  0  0  0  0  0  0  0  0  0  0
  153.1118  140.0815  155.1858 H   0  0  0  0  0  0  0  0  0  0  0  0
  152.5810  139.0964  156.5502 H   0  0  0  0  0  0  0  0  0  0  0  0
  151.8091  138.3482  154.0367 H   0  0  0  0  0  0  0  0  0  0  0  0
  149.6683  137.5103  154.9107 H   0  0  0  0  0  0  0  0  0  0  0  0
  150.6325  137.6090  156.3895 H   0  0  0  0  0  0  0  0  0  0  0  0
  148.3169  139.2209  155.6009 H   0  0  0  0  0  0  0  0  0  0  0  0
  149.2004  139.3618  157.1198 H   0  0  0  0  0  0  0  0  0  0  0  0
  149.3688  141.4210  155.3192 H   0  0  0  0  0  0  0  0  0  0  0  0
  1  2  3  0  0  0  0
  2  3  1  0  0  0  0
  3  8  1  0  0  0  0
  3  4  2  0  0  0  0
  4  5  1  0  0  0  0
  4 17  1  0  0  0  0
  5  6  2  0  0  0  0
  5 18  1  0  0  0  0
  6  7  1  0  0  0  0
  6 19  1  0  0  0  0
  7  8  2  0  0  0  0
  8  9  1  0  0  0  0
  9 10  1  0  0  0  0
  9 20  1  0  0  0  0
 10 15  1  0  0  0  0
 10 11  1  0  0  0  0
 10 21  1  0  0  0  0
 11 12  1  0  0  0  0
 11 22  1  0  0  0  0
 11 23  1  0  0  0  0
 12 16  1  0  0  0  0
 12 13  1  0  0  0  0
 12 24  1  0  0  0  0
 13 14  1  0  0  0  0
 13 25  1  0  0  0  0
 13 26  1  0  0  0  0
 14 15  1  0  0  0  0
 14 27  1  0  0  0  0
 14 28  1  0  0  0  0
 15 16  1  0  0  0  0
 15 29  1  0  0  0  0
M  END
> <s_m_source_file>
AV-unprocessed.smi

> <i_m_source_file_index>
2924

> <i_lp_mmshare_version>
43012

> <i_f3d_flags>
0

> <s_epik_input>
TiNDYzFbY0hdW2NIXVtjSF1uYzFbTkhdW0NASF0oW0NIMl1bQ0BASF0yMylbQ0BASF0oTzMpW0NIMl1bQ0gyXTI=

> <s_epik_cmdline>
J2VwaWtfcHl0aG9uJywgJy1waCcsICc3LjAnLCAnLXRuJywgJzgnLCAnLW1hJywgJzIwMCcsICctbWV0YWxfYmluZGluZycsICctaW1hZScsICc8aW5maWxlLm1hZT4nLCAnLW9tYWUnLCAnPG91dGZpbGUubWFlPic=

> <r_lp_tautomer_probability>
1

> <r_epik_Ionization_Penalty>
2.11559e-05

> <r_epik_Ionization_Penalty_Charging>
0

> <r_epik_Ionization_Penalty_Neutral>
2.11559e-05

> <r_epik_State_Penalty>
-0

> <r_epik_Charging_Adjusted_Penalty>
0

> <i_epik_Tot_Q>
0

> <i_epik_Tot_abs_Q>
0

> <r_epik_Metal_State_Penalty>
-0

> <b_epik_Metal_Only>
0

> <s_lp_Force_Field>
OPLS_2005

> <r_lp_Energy>
42.6424

> <b_lp_Chiralities_Consistent>
1

> <s_lp_Variant>
AV-unprocessed.smi:2924-2

> <Gold.Version>
5.8.1

> <Gold.Id.Protein>
6NUR|6NUR_protein|mol2

> <Gold.PLP.Fitness>
38.3140

> <Gold.PLP.PLP>
-33.5581

> <Gold.PLP.part.hbond>
-1.0000

> <Gold.PLP.part.metal>
0.0000

> <Gold.PLP.part.buried>
-5.0485

> <Gold.PLP.part.nonpolar>
-28.7677

> <Gold.PLP.part.repulsive>
0.3495

> <Gold.PLP.ligand.clash>
0.0000

> <Gold.PLP.ligand.torsion>
0.6004

> <Gold.PLP.Chemscore.Hbond>
1.0000

> <Gold.PLP.Chemscore.CHOScore>
0.9823

> <Gold.PLP.Chemscore.Metal>
0.0000

> <Gold.Chemscore.Hbonds>
donor molecule, donor type, donor heavy atom, donor atom, acceptor molecule, acceptor atom, score
      P1  H  7989  7998       L1    16  1.00
      L1  C     6    19       P1  8029  0.51

> <Gold.PLP.Chemscore.Internal.Correction>
0.0098

> <Gold.Rescore>
     Score         DG    S(hbond)    S(metal)    S(lipo)     H(rot)  DE(clash)    DE(int)     intcor
     14.79     -15.27       0.81        0.00      82.43       1.00       0.00       0.47       ----

> <Gold.Chemscore.Fitness>
14.7897

> <Gold.Chemscore.DG>
-15.2651

> <Gold.Chemscore.ZeroCoef>
-5.4800

> <Gold.Chemscore.Hbond>
0.8087

> <Gold.Chemscore.Metal>
0.0000

> <Gold.Chemscore.Lipo>
82.4286

> <Gold.Chemscore.Internal_Hbond>
0.0000

> <Gold.Chemscore.DEClash>
0.0024

> <Gold.Chemscore.DEInternal>
0.4730

> <Gold.Chemscore.Rot>
1.0000

> <Gold.Chemscore.Internal.Correction>
   9.000000E+99

> <Gold.Chemscore.Hbonds>
donor molecule, donor type, donor heavy atom, donor atom, acceptor molecule, acceptor atom, score
      P1  H  7989  7998       L1    16  0.32

> <Gold.Chemscore.Hbond.Weighted>
-2.7009

> <Gold.Chemscore.Metal.Weighted>
-0.0000

> <Gold.Chemscore.Lipo.Weighted>
-9.6441

> <Gold.Chemscore.Internal_Hbond.Weighted>
0.0000

> <Gold.Chemscore.DEClash.Weighted>
0.0024

> <Gold.Chemscore.DEInternal.Weighted>
0.4730

> <Gold.Chemscore.Rot.Weighted>
2.5600

> <Gold.Chemscore.Internal.Correction.Weighted>
   9.000000E+99

> <Gold.Protein.RotatedTorsions>
[ 6907 6896 6895 6894 ] final  146.72 input  -60.11 | X-H torsion
[ 7974 7965 7964 7962 ] final -142.92 input  175.53 | X-H torsion
[ 8008 7997 7996 7995 ] final   18.78 input   59.86 | X-H torsion
[ 10167 10162 10161 10158 ] final  -74.25 input  -65.29 | X-H torsion
[ 10718 10713 10712 10709 ] final  -49.52 input   66.30 | X-H torsion
[ 10763 10752 10751 10750 ] final    5.93 input  -60.55 | X-H torsion
[ 11005 11000 10999 10996 ] final  172.46 input  -57.11 | X-H torsion

> <Gold.Protein.ActiveResidues>
 VAL166  LYS551  ARG553  GLY616  TRP617  ASP618  TYR619  PRO620  LYS621  CYS622 
 ASP623  PHE694  ASN695  SER759  ASP760  ASP761  ALA762  ILE779  LEU786  VAL792 
 PHE793  MET794  SER795  GLU796  ALA797  LYS798  CYS799  TRP800  GLU811  SER814 

> <Gold.Protein.RotatedAtoms>
  152.1642  133.4601  159.4876 H   0  0  0  0  0  0  0  0  0  0  0  0  # atno 6907 bound_to 6896
  150.6911  134.2033  159.4340 H   0  0  0  0  0  0  0  0  0  0  0  0  # atno 6908 bound_to 6896
  151.9937  134.9965  160.0613 H   0  0  0  0  0  0  0  0  0  0  0  0  # atno 6909 bound_to 6896
  144.8407  140.5898  143.5454 H   0  0  0  0  0  0  0  0  0  0  0  0  # atno 7974 bound_to 7965
  154.9110  140.3014  155.5266 H   0  0  0  0  0  0  0  0  0  0  0  0  # atno 8008 bound_to 7997
  156.3015  140.2389  156.4085 H   0  0  0  0  0  0  0  0  0  0  0  0  # atno 8009 bound_to 7997
  154.8425  140.0413  157.1540 H   0  0  0  0  0  0  0  0  0  0  0  0  # atno 8010 bound_to 7997
  140.5043  143.2355  151.7701 H   0  0  0  0  0  0  0  0  0  0  0  0  # atno 10167 bound_to 10162
  156.1885  130.4152  149.9405 H   0  0  0  0  0  0  0  0  0  0  0  0  # atno 10718 bound_to 10713
  153.2536  135.6916  153.7652 H   0  0  0  0  0  0  0  0  0  0  0  0  # atno 10763 bound_to 10752
  153.6738  135.3340  155.3161 H   0  0  0  0  0  0  0  0  0  0  0  0  # atno 10764 bound_to 10752
  154.8404  135.4506  154.1502 H   0  0  0  0  0  0  0  0  0  0  0  0  # atno 10765 bound_to 10752
  140.3299  134.7366  157.4126 H   0  0  0  0  0  0  0  0  0  0  0  0  # atno 11005 bound_to 11000
  145.4700  139.1504  143.3819 LP  0  0  0  0  0  0  0  0  0  0  0  0  # atno 17320 bound_to 7965
  146.2700  140.4833  142.8818 LP  0  0  0  0  0  0  0  0  0  0  0  0  # atno 17321 bound_to 7965
  139.4879  144.4480  151.9688 LP  0  0  0  0  0  0  0  0  0  0  0  0  # atno 17342 bound_to 10162
  140.3569  144.3020  150.5939 LP  0  0  0  0  0  0  0  0  0  0  0  0  # atno 17343 bound_to 10162
  156.7152  130.8985  151.3613 LP  0  0  0  0  0  0  0  0  0  0  0  0  # atno 17370 bound_to 10713
  157.6914  130.9237  150.0525 LP  0  0  0  0  0  0  0  0  0  0  0  0  # atno 17371 bound_to 10713
  140.0869  134.5654  155.8483 LP  0  0  0  0  0  0  0  0  0  0  0  0  # atno 17394 bound_to 11000
  141.2066  133.6656  156.6252 LP  0  0  0  0  0  0  0  0  0  0  0  0  # atno 17395 bound_to 11000

$$$$
