#       Name:                AV-unprocessed.smi:1145
#       Creating user name   scv26
#       Creation time:       Fri Mar 27 03:45:46 2020


#       File generated by GOLD software.
#

@<TRIPOS>MOLECULE
AV-unprocessed.smi:1145
    41    42     1
SMALL
NO_CHARGES


@<TRIPOS>ATOM
      1 ****        -0.3119  -3.1658   2.1325 C.3            1 S1                 0.0000
      2 ****         0.1959  -2.3692   0.9230 C.3            1 S1                 0.0000
      3 ****         1.7386  -2.3542   0.8672 C.3            1 S1                 0.0000
      4 ****         2.2486  -1.7328  -0.3431 N.pl3          1 S1                 0.0000
      5 ****         2.3056  -2.2588  -1.6166 C.2            1 S1                 0.0000
      6 ****         2.8438  -1.3013  -2.4276 C.2            1 S1                 0.0000
      7 ****         3.0892  -0.2110  -1.5468 C.2            1 S1                 0.0000
      8 ****         2.7369  -0.4739  -0.2989 N.2            1 S1                 0.0000
      9 ****        -0.3324  -1.0076   0.9933 N.am           1 S1                 0.0000
     10 ****        -0.8061  -0.2954  -0.0419 C.2            1 S1                 0.0000
     11 ****        -0.9032  -0.7438  -1.1849 O.2            1 S1                 0.0000
     12 ****        -1.2042   1.1558   0.2566 C.3            1 S1                 0.0000
     13 ****        -0.2837   2.1344  -0.4907 C.3            1 S1                 0.0000
     14 ****        -0.6323   3.5919  -0.1501 C.3            1 S1                 0.0000
     15 ****        -2.1396   3.8860  -0.1895 C.2            1 S1                 0.0000
     16 ****        -2.5265   5.0510  -0.2484 O.2            1 S1                 0.0000
     17 ****        -3.0069   2.8604  -0.1216 N.am           1 S1                 0.0000
     18 ****        -2.6709   1.4363  -0.1345 C.3            1 S1                 0.0000
     19 ****         0.0477  -4.1947   2.1025 H              1 S1                 0.0000
     20 ****        -1.4016  -3.1996   2.1514 H              1 S1                 0.0000
     21 ****         0.0254  -2.7233   3.0706 H              1 S1                 0.0000
     22 ****        -0.1799  -2.8688   0.0282 H              1 S1                 0.0000
     23 ****         2.1494  -1.8382   1.7368 H              1 S1                 0.0000
     24 ****         2.1232  -3.3742   0.9024 H              1 S1                 0.0000
     25 ****         1.9555  -3.2564  -1.8378 H              1 S1                 0.0000
     26 ****         3.0306  -1.3684  -3.4891 H              1 S1                 0.0000
     27 ****         3.5105   0.7568  -1.7754 H              1 S1                 0.0000
     28 ****        -0.2884  -0.5528   1.8937 H              1 S1                 0.0000
     29 ****        -1.0937   1.3347   1.3281 H              1 S1                 0.0000
     30 ****         0.7598   1.9425  -0.2360 H              1 S1                 0.0000
     31 ****        -0.3685   1.9843  -1.5685 H              1 S1                 0.0000
     32 ****        -0.2778   3.8246   0.8546 H              1 S1                 0.0000
     33 ****        -0.1112   4.2681  -0.8287 H              1 S1                 0.0000
     34 ****        -3.9908   3.0883  -0.1176 H              1 S1                 0.0000
     35 ****        -2.8839   1.0629  -1.1374 H              1 S1                 0.0000
     36 ****        -3.3467   0.9137   0.5433 H              1 S1                 0.0000
     37 ****         2.8146   0.1249   0.4982 LP             1 S1                 0.0000
     38 ****        -0.6218  -1.6836  -1.3789 LP             1 S1                 0.0000
     39 ****        -1.2635  -0.1681  -1.9189 LP             1 S1                 0.0000
     40 ****        -1.8621   5.7980  -0.2703 LP             1 S1                 0.0000
     41 ****        -3.5058   5.2519  -0.2744 LP             1 S1                 0.0000
@<TRIPOS>BOND
    1    1    2 1     
    2    1   19 1     
    3    1   20 1     
    4    1   21 1     
    5    2    3 1     
    6    2    9 1     
    7    2   22 1     
    8    3    4 1     
    9    3   23 1     
   10    3   24 1     
   11    4    8 1     
   12    4    5 1     
   13    5    6 2     
   14    5   25 1     
   15    6    7 1     
   16    6   26 1     
   17    7    8 2     
   18    7   27 1     
   19    9   10 am    
   20    9   28 1     
   21   10   11 2     
   22   10   12 1     
   23   12   18 1     
   24   12   13 1     
   25   12   29 1     
   26   13   14 1     
   27   13   30 1     
   28   13   31 1     
   29   14   15 1     
   30   14   32 1     
   31   14   33 1     
   32   15   16 2     
   33   15   17 am    
   34   17   18 1     
   35   17   34 1     
   36   18   35 1     
   37   18   36 1     
   38    8   37 1     
   39   11   38 1     
   40   11   39 1     
   41   16   40 1     
   42   16   41 1     
@<TRIPOS>SUBSTRUCTURE
      1 S1             1
@<TRIPOS>SET
LONE_PAIRS      STATIC     ATOMS    <user>   **** ""
5 37 38 39 40 41
DONOR_HYDROGENS      STATIC     ATOMS    <user>   **** ""
2 28 34
ATOM$BLUE        STATIC     ATOMS    COLORGROUP SYSTEM
5 37 38 39 40 41
ATOM$RED        STATIC     ATOMS    COLORGROUP SYSTEM
2 28 34
