AV-unprocessed.smi:876|AV-procd|sdf|4024|dock2
  -GOLD-   22720 1513D 1   1.00000     0.00000
 Structure written by MMmdl.
 40 41  0  0  0  0  0  0  0  0  1 V2000
  148.4290  135.8952  160.2345 C   0  0  0  0  0  0  0  0  0  0  0  0
  147.5190  134.7568  160.2627 N   0  0  0  0  0  0  0  0  0  0  0  0
  147.3731  133.9726  161.4848 C   0  0  0  0  0  0  0  0  0  0  0  0
  146.8121  134.3816  159.0972 C   0  0  0  0  0  0  0  0  0  0  0  0
  145.8493  133.3420  159.1179 C   0  0  0  0  0  0  0  0  0  0  0  0
  145.1696  133.0051  157.9315 C   0  0  0  0  0  0  0  0  0  0  0  0
  145.4606  133.7201  156.7470 C   0  0  0  0  0  0  0  0  0  0  0  0
  144.8597  133.4675  155.4838 N   0  0  0  0  0  0  0  0  0  0  0  0
  145.1402  134.0226  154.2923 C   0  0  0  0  0  0  0  0  0  0  0  0
  146.0170  134.8605  154.0824 O   0  0  0  0  0  0  0  0  0  0  0  0
  144.3444  133.5324  153.3316 N   0  0  0  0  0  0  0  0  0  0  0  0
  144.3991  133.9194  151.9265 C   0  0  1  0  0  0  0  0  0  0  0  0
  145.7408  133.5829  151.3365 C   0  0  0  0  0  0  0  0  0  0  0  0
  145.6513  132.7721  150.2849 C   0  0  0  0  0  0  0  0  0  0  0  0
  144.2312  132.3786  149.9668 C   0  0  2  0  0  0  0  0  0  0  0  0
  143.8218  132.7399  148.5285 C   0  0  0  0  0  0  0  0  0  0  0  0
  142.5777  132.1559  148.2028 O   0  0  0  0  0  0  0  0  0  0  0  0
  143.4012  133.1259  151.0418 C   0  0  0  0  0  0  0  0  0  0  0  0
  146.4421  134.7274  156.8202 C   0  0  0  0  0  0  0  0  0  0  0  0
  147.0952  135.0537  157.9546 N   0  0  0  0  0  0  0  0  0  0  0  0
  144.2384  134.9941  151.8253 H   0  0  0  0  0  0  0  0  0  0  0  0
  144.1350  131.3022  150.1171 H   0  0  0  0  0  0  0  0  0  0  0  0
  147.8868  136.8135  160.0070 H   0  0  0  0  0  0  0  0  0  0  0  0
  149.2032  135.7492  159.4805 H   0  0  0  0  0  0  0  0  0  0  0  0
  148.9244  136.0315  161.1958 H   0  0  0  0  0  0  0  0  0  0  0  0
  147.7093  132.9477  161.3239 H   0  0  0  0  0  0  0  0  0  0  0  0
  146.3305  133.9493  161.8037 H   0  0  0  0  0  0  0  0  0  0  0  0
  147.9606  134.3932  162.3007 H   0  0  0  0  0  0  0  0  0  0  0  0
  145.6212  132.7916  160.0179 H   0  0  0  0  0  0  0  0  0  0  0  0
  144.4532  132.1991  157.9559 H   0  0  0  0  0  0  0  0  0  0  0  0
  144.1609  132.7389  155.4781 H   0  0  0  0  0  0  0  0  0  0  0  0
  143.6525  132.8436  153.5885 H   0  0  0  0  0  0  0  0  0  0  0  0
  146.6618  133.9820  151.7357 H   0  0  0  0  0  0  0  0  0  0  0  0
  146.4903  132.4074  149.7102 H   0  0  0  0  0  0  0  0  0  0  0  0
  143.7334  133.8213  148.4208 H   0  0  0  0  0  0  0  0  0  0  0  0
  144.5745  132.4041  147.8141 H   0  0  0  0  0  0  0  0  0  0  0  0
  142.3112  132.4716  147.3527 H   0  0  0  0  0  0  0  0  0  0  0  0
  142.8198  132.4122  151.6273 H   0  0  0  0  0  0  0  0  0  0  0  0
  142.6834  133.8096  150.5865 H   0  0  0  0  0  0  0  0  0  0  0  0
  146.7120  135.2953  155.9417 H   0  0  0  0  0  0  0  0  0  0  0  0
  1  2  1  0  0  0  0
  1 23  1  0  0  0  0
  1 24  1  0  0  0  0
  1 25  1  0  0  0  0
  2  3  1  0  0  0  0
  2  4  1  0  0  0  0
  3 26  1  0  0  0  0
  3 27  1  0  0  0  0
  3 28  1  0  0  0  0
  4 20  1  0  0  0  0
  4  5  2  0  0  0  0
  5  6  1  0  0  0  0
  5 29  1  0  0  0  0
  6  7  2  0  0  0  0
  6 30  1  0  0  0  0
  7  8  1  0  0  0  0
  7 19  1  0  0  0  0
  8  9  1  0  0  0  0
  8 31  1  0  0  0  0
  9 10  2  0  0  0  0
  9 11  1  0  0  0  0
 11 12  1  0  0  0  0
 11 32  1  0  0  0  0
 12 21  1  0  0  0  0
 12 18  1  0  0  0  0
 12 13  1  0  0  0  0
 13 14  2  0  0  0  0
 13 33  1  0  0  0  0
 14 15  1  0  0  0  0
 14 34  1  0  0  0  0
 15 22  1  0  0  0  0
 15 16  1  0  0  0  0
 15 18  1  0  0  0  0
 16 17  1  0  0  0  0
 16 35  1  0  0  0  0
 16 36  1  0  0  0  0
 17 37  1  0  0  0  0
 18 38  1  0  0  0  0
 18 39  1  0  0  0  0
 19 20  2  0  0  0  0
 19 40  1  0  0  0  0
M  END
> <s_m_source_file>
AV-unprocessed.smi

> <i_m_source_file_index>
876

> <i_lp_mmshare_version>
43012

> <i_f3d_flags>
0

> <s_epik_input>
W0NIM11OKFtDSDNdKWMxW2NIXVtjSF1jKFtjSF1uMSlbTkhdQyg9TylbTkhdW0NAQEhdMltDSF09W0NIXVtDQEBIXShbQ0gyXTIpW0NIMl1bT0hd

> <s_epik_cmdline>
J2VwaWtfcHl0aG9uJywgJy1waCcsICc3LjAnLCAnLXRuJywgJzgnLCAnLW1hJywgJzIwMCcsICctbWV0YWxfYmluZGluZycsICctaW1hZScsICc8aW5maWxlLm1hZT4nLCAnLW9tYWUnLCAnPG91dGZpbGUubWFlPic=

> <r_lp_tautomer_probability>
1

> <r_epik_Ionization_Penalty>
0.617998

> <r_epik_Ionization_Penalty_Charging>
0

> <r_epik_Ionization_Penalty_Neutral>
0.617998

> <r_epik_State_Penalty>
0.632637

> <r_epik_Charging_Adjusted_Penalty>
0.632637

> <i_epik_Tot_Q>
0

> <i_epik_Tot_abs_Q>
0

> <r_epik_Metal_State_Penalty>
0.305596

> <b_epik_Metal_Only>
0

> <s_lp_Force_Field>
OPLS_2005

> <r_lp_Energy>
20.6708

> <b_lp_Chiralities_Consistent>
1

> <s_lp_Variant>
AV-unprocessed.smi:876-6

> <Gold.Version>
5.8.1

> <Gold.Id.Protein>
6NUR|6NUR_protein|mol2

> <Gold.PLP.Fitness>
41.5644

> <Gold.PLP.PLP>
-31.0756

> <Gold.PLP.part.hbond>
-5.7168

> <Gold.PLP.part.metal>
0.0000

> <Gold.PLP.part.buried>
-4.1342

> <Gold.PLP.part.nonpolar>
-21.5250

> <Gold.PLP.part.repulsive>
0.0731

> <Gold.PLP.ligand.clash>
0.0000

> <Gold.PLP.ligand.torsion>
0.0943

> <Gold.PLP.Chemscore.Hbond>
3.5544

> <Gold.PLP.Chemscore.CHOScore>
0.0000

> <Gold.PLP.Chemscore.Metal>
0.0000

> <Gold.Chemscore.Hbonds>
donor molecule, donor type, donor heavy atom, donor atom, acceptor molecule, acceptor atom, score
      L1  H     8    31       P1 10957  1.00
      L1  H    11    32       P1 10957  1.00
      L1  H    17    37       P1 10195  1.00
      P1  H 10785 10796       L1    17  0.41

> <Gold.PLP.Chemscore.Internal.Correction>
0.0144

> <Gold.Rescore>
     Score         DG    S(hbond)    S(metal)    S(lipo)     H(rot)  DE(clash)    DE(int)     intcor
     16.83     -18.33       2.85        0.00      67.92       1.80       0.01       1.49       ----

> <Gold.Chemscore.Fitness>
16.8329

> <Gold.Chemscore.DG>
-18.3312

> <Gold.Chemscore.ZeroCoef>
-5.4800

> <Gold.Chemscore.Hbond>
2.8466

> <Gold.Chemscore.Metal>
0.0000

> <Gold.Chemscore.Lipo>
67.9173

> <Gold.Chemscore.Internal_Hbond>
0.0000

> <Gold.Chemscore.DEClash>
0.0077

> <Gold.Chemscore.DEInternal>
1.4906

> <Gold.Chemscore.Rot>
1.7980

> <Gold.Chemscore.Internal.Correction>
   9.000000E+99

> <Gold.Chemscore.Hbonds>
donor molecule, donor type, donor heavy atom, donor atom, acceptor molecule, acceptor atom, score
      L1  H     8    31       P1 10957  0.99
      L1  H    11    32       P1 10957  0.77
      L1  H    17    37       P1 10195  0.95
      P1  H 10785 10796       L1    17  0.05

> <Gold.Chemscore.Hbond.Weighted>
-9.5078

> <Gold.Chemscore.Metal.Weighted>
-0.0000

> <Gold.Chemscore.Lipo.Weighted>
-7.9463

> <Gold.Chemscore.Internal_Hbond.Weighted>
0.0000

> <Gold.Chemscore.DEClash.Weighted>
0.0077

> <Gold.Chemscore.DEInternal.Weighted>
1.4906

> <Gold.Chemscore.Rot.Weighted>
4.6029

> <Gold.Chemscore.Internal.Correction.Weighted>
   9.000000E+99

> <Gold.Protein.RotatedTorsions>
[ 6907 6896 6895 6894 ] final  -83.67 input  -60.11 | X-H torsion
[ 7974 7965 7964 7962 ] final  173.73 input  175.53 | X-H torsion
[ 8008 7997 7996 7995 ] final  138.69 input   59.86 | X-H torsion
[ 10167 10162 10161 10158 ] final   21.32 input  -65.29 | X-H torsion
[ 10718 10713 10712 10709 ] final -148.10 input   66.30 | X-H torsion
[ 10763 10752 10751 10750 ] final  113.43 input  -60.55 | X-H torsion
[ 11005 11000 10999 10996 ] final  -68.12 input  -57.11 | X-H torsion

> <Gold.Protein.ActiveResidues>
 VAL166  LYS551  ARG553  GLY616  TRP617  ASP618  TYR619  PRO620  LYS621  CYS622 
 ASP623  PHE694  ASN695  SER759  ASP760  ASP761  ALA762  ILE779  LEU786  VAL792 
 PHE793  MET794  SER795  GLU796  ALA797  LYS798  CYS799  TRP800  GLU811  SER814 

> <Gold.Protein.RotatedAtoms>
  150.6883  134.3476  159.4894 H   0  0  0  0  0  0  0  0  0  0  0  0  # atno 6907 bound_to 6896
  152.1322  134.9124  160.0567 H   0  0  0  0  0  0  0  0  0  0  0  0  # atno 6908 bound_to 6896
  152.0289  133.3894  159.4326 H   0  0  0  0  0  0  0  0  0  0  0  0  # atno 6909 bound_to 6896
  144.7237  139.9691  143.6436 H   0  0  0  0  0  0  0  0  0  0  0  0  # atno 7974 bound_to 7965
  156.2995  140.2387  156.4115 H   0  0  0  0  0  0  0  0  0  0  0  0  # atno 8008 bound_to 7997
  154.8437  140.0427  157.1578 H   0  0  0  0  0  0  0  0  0  0  0  0  # atno 8009 bound_to 7997
  154.9075  140.2985  155.5288 H   0  0  0  0  0  0  0  0  0  0  0  0  # atno 8010 bound_to 7997
  140.5436  143.9634  150.6534 H   0  0  0  0  0  0  0  0  0  0  0  0  # atno 10167 bound_to 10162
  156.4160  130.8005  151.2225 H   0  0  0  0  0  0  0  0  0  0  0  0  # atno 10718 bound_to 10713
  153.4923  135.3656  155.2498 H   0  0  0  0  0  0  0  0  0  0  0  0  # atno 10763 bound_to 10752
  154.8751  135.3980  154.3574 H   0  0  0  0  0  0  0  0  0  0  0  0  # atno 10764 bound_to 10752
  153.4196  135.7080  153.6369 H   0  0  0  0  0  0  0  0  0  0  0  0  # atno 10765 bound_to 10752
  141.1524  133.6734  156.6397 H   0  0  0  0  0  0  0  0  0  0  0  0  # atno 11005 bound_to 11000
  146.0577  139.3572  143.0601 LP  0  0  0  0  0  0  0  0  0  0  0  0  # atno 17320 bound_to 7965
  145.8134  140.9715  143.0937 LP  0  0  0  0  0  0  0  0  0  0  0  0  # atno 17321 bound_to 7965
  140.3041  143.3241  152.0943 LP  0  0  0  0  0  0  0  0  0  0  0  0  # atno 17342 bound_to 10162
  139.4998  144.6678  151.6315 LP  0  0  0  0  0  0  0  0  0  0  0  0  # atno 17343 bound_to 10162
  157.7508  131.0243  150.3870 LP  0  0  0  0  0  0  0  0  0  0  0  0  # atno 17370 bound_to 10713
  156.4178  130.3947  149.6846 LP  0  0  0  0  0  0  0  0  0  0  0  0  # atno 17371 bound_to 10713
  140.3403  134.7855  157.4392 LP  0  0  0  0  0  0  0  0  0  0  0  0  # atno 17394 bound_to 11000
  140.0944  134.5558  155.8413 LP  0  0  0  0  0  0  0  0  0  0  0  0  # atno 17395 bound_to 11000

$$$$
