AV-unprocessed.smi:2489|AV-procd|sdf|9799|dock1
  -GOLD-   2272013433D 1   1.00000     0.00000
 Structure written by MMmdl.
 33 34  0  0  0  0  0  0  0  0  1 V2000
  151.3252  138.1939  154.3231 C   0  0  0  0  0  0  0  0  0  0  0  0
  151.8478  139.4609  154.6967 O   0  0  0  0  0  0  0  0  0  0  0  0
  151.6554  139.8688  155.9968 C   0  0  0  0  0  0  0  0  0  0  0  0
  152.0987  139.0979  157.1559 C   0  0  0  0  0  0  0  0  0  0  0  0
  151.8529  139.5912  158.3787 C   0  0  0  0  0  0  0  0  0  0  0  0
  151.1984  140.7991  158.5721 N   0  0  0  0  0  0  0  0  0  0  0  0
  150.7484  141.5940  157.5027 C   0  0  0  0  0  0  0  0  0  0  0  0
  150.1323  142.7346  157.6164 N   0  0  0  0  0  0  0  0  0  0  0  0
  149.8329  143.3085  158.8490 C   0  0  0  0  0  0  0  0  0  0  0  0
  148.7640  143.3231  159.4663 O   0  0  0  0  0  0  0  0  0  0  0  0
  151.0563  144.0004  159.4674 C   0  0  2  0  0  0  0  0  0  0  0  0
  152.2978  143.9421  158.5604 C   0  0  0  0  0  0  0  0  0  0  0  0
  153.3990  143.4871  159.4968 C   0  0  0  0  0  0  0  0  0  0  0  0
  152.6343  142.6144  160.4845 C   0  0  1  0  0  0  0  0  0  0  0  0
  153.3492  142.4050  161.8232 C   0  0  0  0  0  0  0  0  0  0  0  0
  151.4204  143.3283  160.6747 O   0  0  0  0  0  0  0  0  0  0  0  0
  151.0185  141.0493  156.1792 C   0  0  0  0  0  0  0  0  0  0  0  0
  151.5519  138.0084  153.2733 H   0  0  0  0  0  0  0  0  0  0  0  0
  150.2406  138.1585  154.4347 H   0  0  0  0  0  0  0  0  0  0  0  0
  151.7772  137.3880  154.9029 H   0  0  0  0  0  0  0  0  0  0  0  0
  152.6133  138.1535  157.0635 H   0  0  0  0  0  0  0  0  0  0  0  0
  152.1449  139.0885  159.2889 H   0  0  0  0  0  0  0  0  0  0  0  0
  150.8216  145.0342  159.7270 H   0  0  0  0  0  0  0  0  0  0  0  0
  152.1759  143.2149  157.7558 H   0  0  0  0  0  0  0  0  0  0  0  0
  152.5227  144.9056  158.1026 H   0  0  0  0  0  0  0  0  0  0  0  0
  154.2014  142.9534  158.9868 H   0  0  0  0  0  0  0  0  0  0  0  0
  153.8313  144.3491  160.0068 H   0  0  0  0  0  0  0  0  0  0  0  0
  152.4049  141.6514  160.0252 H   0  0  0  0  0  0  0  0  0  0  0  0
  154.2956  141.8819  161.6847 H   0  0  0  0  0  0  0  0  0  0  0  0
  152.7364  141.8116  162.5020 H   0  0  0  0  0  0  0  0  0  0  0  0
  153.5601  143.3570  162.3113 H   0  0  0  0  0  0  0  0  0  0  0  0
  150.7085  141.5847  155.2931 H   0  0  0  0  0  0  0  0  0  0  0  0
  151.0585  141.0870  159.5303 H   0  0  0  0  0  0  0  0  0  0  0  0
  1  2  1  0  0  0  0
  1 18  1  0  0  0  0
  1 19  1  0  0  0  0
  1 20  1  0  0  0  0
  2  3  1  0  0  0  0
  3 17  2  0  0  0  0
  3  4  1  0  0  0  0
  4  5  2  0  0  0  0
  4 21  1  0  0  0  0
  5  6  1  0  0  0  0
  5 22  1  0  0  0  0
  6  7  1  0  0  0  0
  6 33  1  0  0  0  0
  7  8  2  0  0  0  0
  7 17  1  0  0  0  0
  8  9  1  0  0  0  0
  9 10  2  0  0  0  0
  9 11  1  0  0  0  0
 11 16  1  0  0  0  0
 11 12  1  0  0  0  0
 11 23  1  0  0  0  0
 12 13  1  0  0  0  0
 12 24  1  0  0  0  0
 12 25  1  0  0  0  0
 13 14  1  0  0  0  0
 13 26  1  0  0  0  0
 13 27  1  0  0  0  0
 14 15  1  0  0  0  0
 14 16  1  0  0  0  0
 14 28  1  0  0  0  0
 15 29  1  0  0  0  0
 15 30  1  0  0  0  0
 15 31  1  0  0  0  0
 17 32  1  0  0  0  0
M  END
> <s_m_source_file>
AV-unprocessed.smi

> <i_m_source_file_index>
2489

> <i_lp_mmshare_version>
43012

> <i_f3d_flags>
0

> <s_epik_input>
W0NIM11PYzFbY0hdW2NIXW5jKFtjSF0xKVtOSF1DKD1PKVtDQEBIXTJbQ0gyXVtDSDJdW0NASF0oTzIpW0NIM10=

> <s_epik_cmdline>
J2VwaWtfcHl0aG9uJywgJy1waCcsICc3LjAnLCAnLXRuJywgJzgnLCAnLW1hJywgJzIwMCcsICctbWV0YWxfYmluZGluZycsICctaW1hZScsICc8aW5maWxlLm1hZT4nLCAnLW9tYWUnLCAnPG91dGZpbGUubWFlPic=

> <r_epik_Ionization_Penalty>
0.410206

> <r_epik_Ionization_Penalty_Charging>
0.410206

> <r_epik_Ionization_Penalty_Neutral>
6.57528e-13

> <r_epik_State_Penalty>
1.30987

> <r_epik_Charging_Adjusted_Penalty>
1.72007

> <i_epik_Tot_Q>
0

> <i_epik_Tot_abs_Q>
0

> <r_epik_Metal_State_Penalty>
1.32171

> <b_epik_Metal_Only>
0

> <s_lp_Force_Field>
OPLS_2005

> <r_lp_Energy>
36.165

> <b_lp_Chiralities_Consistent>
1

> <s_lp_Variant>
AV-unprocessed.smi:2489-5

> <Gold.Version>
5.8.1

> <Gold.Id.Protein>
6NUR|6NUR_protein|mol2

> <Gold.PLP.Fitness>
39.0797

> <Gold.PLP.PLP>
-36.6838

> <Gold.PLP.part.hbond>
-2.9006

> <Gold.PLP.part.metal>
0.0000

> <Gold.PLP.part.buried>
-6.3528

> <Gold.PLP.part.nonpolar>
-28.6225

> <Gold.PLP.part.repulsive>
1.1117

> <Gold.PLP.ligand.clash>
0.0000

> <Gold.PLP.ligand.torsion>
0.7575

> <Gold.PLP.Chemscore.Hbond>
1.2982

> <Gold.PLP.Chemscore.CHOScore>
0.0000

> <Gold.PLP.Chemscore.Metal>
0.0000

> <Gold.Chemscore.Hbonds>
donor molecule, donor type, donor heavy atom, donor atom, acceptor molecule, acceptor atom, score
      P1  H  6933  6944       L1    10  0.29
      P1  H  7989  7998       L1     2  1.00

> <Gold.PLP.Chemscore.Internal.Correction>
0.0163

> <Gold.Rescore>
     Score         DG    S(hbond)    S(metal)    S(lipo)     H(rot)  DE(clash)    DE(int)     intcor
     16.49     -17.41       1.45        0.00      87.37       1.23       0.06       0.85       ----

> <Gold.Chemscore.Fitness>
16.4924

> <Gold.Chemscore.DG>
-17.4067

> <Gold.Chemscore.ZeroCoef>
-5.4800

> <Gold.Chemscore.Hbond>
1.4501

> <Gold.Chemscore.Metal>
0.0000

> <Gold.Chemscore.Lipo>
87.3748

> <Gold.Chemscore.Internal_Hbond>
0.0000

> <Gold.Chemscore.DEClash>
0.0601

> <Gold.Chemscore.DEInternal>
0.8542

> <Gold.Chemscore.Rot>
1.2264

> <Gold.Chemscore.Internal.Correction>
   9.000000E+99

> <Gold.Chemscore.Hbonds>
donor molecule, donor type, donor heavy atom, donor atom, acceptor molecule, acceptor atom, score
      P1  H  6933  6944       L1    10  0.29
      P1  H  7989  7998       L1     2  0.74

> <Gold.Chemscore.Hbond.Weighted>
-4.8434

> <Gold.Chemscore.Metal.Weighted>
-0.0000

> <Gold.Chemscore.Lipo.Weighted>
-10.2229

> <Gold.Chemscore.Internal_Hbond.Weighted>
0.0000

> <Gold.Chemscore.DEClash.Weighted>
0.0601

> <Gold.Chemscore.DEInternal.Weighted>
0.8542

> <Gold.Chemscore.Rot.Weighted>
3.1396

> <Gold.Chemscore.Internal.Correction.Weighted>
   9.000000E+99

> <Gold.Protein.RotatedTorsions>
[ 6907 6896 6895 6894 ] final  136.15 input  -60.11 | X-H torsion
[ 7974 7965 7964 7962 ] final   88.79 input  175.53 | X-H torsion
[ 8008 7997 7996 7995 ] final -147.32 input   59.86 | X-H torsion
[ 10167 10162 10161 10158 ] final -175.60 input  -65.29 | X-H torsion
[ 10718 10713 10712 10709 ] final  170.52 input   66.30 | X-H torsion
[ 10763 10752 10751 10750 ] final  -73.52 input  -60.55 | X-H torsion
[ 11005 11000 10999 10996 ] final  153.18 input  -57.11 | X-H torsion

> <Gold.Protein.ActiveResidues>
 VAL166  LYS551  ARG553  GLY616  TRP617  ASP618  TYR619  PRO620  LYS621  CYS622 
 ASP623  PHE694  ASN695  SER759  ASP760  ASP761  ALA762  ILE779  LEU786  VAL792 
 PHE793  MET794  SER795  GLU796  ALA797  LYS798  CYS799  TRP800  GLU811  SER814 

> <Gold.Protein.RotatedAtoms>
  152.2925  133.5575  159.5566 H   0  0  0  0  0  0  0  0  0  0  0  0  # atno 6907 bound_to 6896
  150.7242  134.0408  159.3774 H   0  0  0  0  0  0  0  0  0  0  0  0  # atno 6908 bound_to 6896
  151.8312  135.0621  160.0488 H   0  0  0  0  0  0  0  0  0  0  0  0  # atno 6909 bound_to 6896
  145.5409  139.2288  143.2566 H   0  0  0  0  0  0  0  0  0  0  0  0  # atno 7974 bound_to 7965
  155.5737  140.0636  157.2800 H   0  0  0  0  0  0  0  0  0  0  0  0  # atno 8008 bound_to 7997
  154.4353  140.1864  156.0951 H   0  0  0  0  0  0  0  0  0  0  0  0  # atno 8009 bound_to 7997
  156.0357  140.3301  155.7192 H   0  0  0  0  0  0  0  0  0  0  0  0  # atno 8010 bound_to 7997
  139.5572  144.1959  152.1180 H   0  0  0  0  0  0  0  0  0  0  0  0  # atno 10167 bound_to 10162
  157.0069  131.0192  151.2814 H   0  0  0  0  0  0  0  0  0  0  0  0  # atno 10718 bound_to 10713
  154.4605  135.5894  153.6253 H   0  0  0  0  0  0  0  0  0  0  0  0  # atno 10763 bound_to 10752
  152.9823  135.6043  154.3491 H   0  0  0  0  0  0  0  0  0  0  0  0  # atno 10764 bound_to 10752
  154.3363  135.2842  155.2425 H   0  0  0  0  0  0  0  0  0  0  0  0  # atno 10765 bound_to 10752
  140.1374  134.8762  157.2285 H   0  0  0  0  0  0  0  0  0  0  0  0  # atno 11005 bound_to 11000
  146.1981  140.6229  142.9115 LP  0  0  0  0  0  0  0  0  0  0  0  0  # atno 17320 bound_to 7965
  144.7577  140.5348  143.6757 LP  0  0  0  0  0  0  0  0  0  0  0  0  # atno 17321 bound_to 7965
  140.1465  144.5154  150.6713 LP  0  0  0  0  0  0  0  0  0  0  0  0  # atno 17342 bound_to 10162
  140.6847  143.2344  151.5292 LP  0  0  0  0  0  0  0  0  0  0  0  0  # atno 17343 bound_to 10162
  157.5349  130.8082  149.7960 LP  0  0  0  0  0  0  0  0  0  0  0  0  # atno 17370 bound_to 10713
  156.0150  130.3817  150.2139 LP  0  0  0  0  0  0  0  0  0  0  0  0  # atno 17371 bound_to 10713
  140.2765  134.3399  155.7356 LP  0  0  0  0  0  0  0  0  0  0  0  0  # atno 17394 bound_to 11000
  141.2180  133.7453  156.9300 LP  0  0  0  0  0  0  0  0  0  0  0  0  # atno 17395 bound_to 11000

$$$$
