AV-unprocessed.smi:1400|AV-procd|sdf|5687|dock6
  -GOLD-   22720 5313D 1   1.00000     0.00000
 Structure written by MMmdl.
 33 34  0  0  0  0  0  0  0  0  2 V2000
  152.2397  144.6759  161.6644 C   0  0  0  0  0  0  0  0  0  0  0  0
  152.2729  143.2258  161.1763 C   0  0  0  0  0  0  0  0  0  0  0  0
  151.9694  142.3401  161.9761 O   0  0  0  0  0  0  0  0  0  0  0  0
  152.6270  142.9658  159.8946 N   0  0  0  0  0  0  0  0  0  0  0  0
  152.6029  141.6143  159.3227 C   0  0  0  0  0  0  0  0  0  0  0  0
  151.4575  141.5276  158.2977 C   0  0  0  0  0  0  0  0  0  0  0  0
  151.5955  142.6127  157.2085 C   0  0  0  0  0  0  0  0  0  0  0  0
  150.4072  142.6101  156.3590 N   0  0  0  0  0  0  0  0  0  0  0  0
  150.0641  141.6536  155.4837 C   0  0  0  0  0  0  0  0  0  0  0  0
  150.7866  140.6648  155.3377 O   0  0  0  0  0  0  0  0  0  0  0  0
  148.9050  141.9019  154.8321 N   0  5  0  0  0  0  0  0  0  0  0  0
  148.2296  140.8947  154.2546 C   0  0  0  0  0  0  0  0  0  0  0  0
  148.6502  139.6247  154.2823 N   0  0  0  0  0  0  0  0  0  0  0  0
  147.7980  138.7428  153.6149 C   0  0  0  0  0  0  0  0  0  0  0  0
  146.7072  139.3568  153.0585 C   0  0  0  0  0  0  0  0  0  0  0  0
  146.7190  141.0717  153.3564 S   0  0  0  0  0  0  0  0  0  0  0  0
  151.8195  144.0090  157.8329 C   0  0  0  0  0  0  0  0  0  0  0  0
  152.9476  143.9774  158.8792 C   0  0  0  0  0  0  0  0  0  0  0  0
  151.5553  145.2722  161.0603 H   0  0  0  0  0  0  0  0  0  0  0  0
  153.2339  145.1212  161.6199 H   0  0  0  0  0  0  0  0  0  0  0  0
  151.8987  144.7252  162.6991 H   0  0  0  0  0  0  0  0  0  0  0  0
  153.5578  141.4101  158.8363 H   0  0  0  0  0  0  0  0  0  0  0  0
  152.4826  140.8367  160.0781 H   0  0  0  0  0  0  0  0  0  0  0  0
  151.4415  140.5378  157.8400 H   0  0  0  0  0  0  0  0  0  0  0  0
  150.5047  141.6435  158.8169 H   0  0  0  0  0  0  0  0  0  0  0  0
  152.4681  142.3605  156.6027 H   0  0  0  0  0  0  0  0  0  0  0  0
  149.7865  143.4016  156.4427 H   0  0  0  0  0  0  0  0  0  0  0  0
  148.0464  137.6924  153.5850 H   0  0  0  0  0  0  0  0  0  0  0  0
  145.9034  138.9091  152.4941 H   0  0  0  0  0  0  0  0  0  0  0  0
  152.0568  144.7360  157.0554 H   0  0  0  0  0  0  0  0  0  0  0  0
  150.8995  144.3542  158.3074 H   0  0  0  0  0  0  0  0  0  0  0  0
  153.1013  144.9750  159.2879 H   0  0  0  0  0  0  0  0  0  0  0  0
  153.8908  143.7136  158.3986 H   0  0  0  0  0  0  0  0  0  0  0  0
  1  2  1  0  0  0  0
  1 19  1  0  0  0  0
  1 20  1  0  0  0  0
  1 21  1  0  0  0  0
  2  3  2  0  0  0  0
  2  4  1  0  0  0  0
  4 18  1  0  0  0  0
  4  5  1  0  0  0  0
  5  6  1  0  0  0  0
  5 22  1  0  0  0  0
  5 23  1  0  0  0  0
  6  7  1  0  0  0  0
  6 24  1  0  0  0  0
  6 25  1  0  0  0  0
  7  8  1  0  0  0  0
  7 17  1  0  0  0  0
  7 26  1  0  0  0  0
  8  9  1  0  0  0  0
  8 27  1  0  0  0  0
  9 10  2  0  0  0  0
  9 11  1  0  0  0  0
 11 12  1  0  0  0  0
 12 16  1  0  0  0  0
 12 13  2  0  0  0  0
 13 14  1  0  0  0  0
 14 15  2  0  0  0  0
 14 28  1  0  0  0  0
 15 16  1  0  0  0  0
 15 29  1  0  0  0  0
 17 18  1  0  0  0  0
 17 30  1  0  0  0  0
 17 31  1  0  0  0  0
 18 32  1  0  0  0  0
 18 33  1  0  0  0  0
M  CHG  1  11  -1
M  END
> <s_m_source_file>
AV-unprocessed.smi

> <i_m_source_file_index>
1400

> <i_lp_mmshare_version>
43012

> <i_f3d_flags>
0

> <s_epik_input>
W0NIM11DKD1PKU4xW0NIMl1bQ0gyXVtDSF0oW0NIMl1bQ0gyXTEpW05IXUMoPU8pW05IXWMybltjSF1bY0hdczI=

> <s_epik_cmdline>
J2VwaWtfcHl0aG9uJywgJy1waCcsICc3LjAnLCAnLXRuJywgJzgnLCAnLW1hJywgJzIwMCcsICctbWV0YWxfYmluZGluZycsICctaW1hZScsICc8aW5maWxlLm1hZT4nLCAnLW9tYWUnLCAnPG91dGZpbGUubWFlPic=

> <r_lp_tautomer_probability>
1

> <r_epik_Ionization_Penalty>
6.84544

> <r_epik_Ionization_Penalty_Charging>
5.78648

> <r_epik_Ionization_Penalty_Neutral>
1.05897

> <r_epik_State_Penalty>
5.78644

> <r_epik_Charging_Adjusted_Penalty>
11.5729

> <i_epik_Tot_Q>
-1

> <i_epik_Tot_abs_Q>
1

> <r_epik_Metal_State_Penalty>
1.75808

> <b_epik_Metal_Only>
1

> <s_lp_Force_Field>
OPLS_2005

> <r_lp_Energy>
18.2538

> <b_lp_Chiralities_Consistent>
1

> <s_lp_Variant>
AV-unprocessed.smi:1400-2

> <Gold.Version>
5.8.1

> <Gold.Id.Protein>
6NUR|6NUR_protein|mol2

> <Gold.PLP.Fitness>
47.0114

> <Gold.PLP.PLP>
-35.2193

> <Gold.PLP.part.hbond>
-3.4346

> <Gold.PLP.part.metal>
0.0000

> <Gold.PLP.part.buried>
-2.3750

> <Gold.PLP.part.nonpolar>
-31.2339

> <Gold.PLP.part.repulsive>
1.7944

> <Gold.PLP.ligand.clash>
0.0000

> <Gold.PLP.ligand.torsion>
0.2164

> <Gold.PLP.Chemscore.Hbond>
2.7920

> <Gold.PLP.Chemscore.CHOScore>
1.2778

> <Gold.PLP.Chemscore.Metal>
0.0000

> <Gold.Chemscore.Hbonds>
donor molecule, donor type, donor heavy atom, donor atom, acceptor molecule, acceptor atom, score
      L1  H     8    27       P1  8028  0.99
      P1  H  6933  6945       L1     3  0.91
      P1  H  7989  7998       L1    10  0.90
      L1  C    14    28       P1  7948  1.00
      L1  C    15    29       P1 10175  0.36

> <Gold.PLP.Chemscore.Internal.Correction>
0.0155

> <Gold.Rescore>
     Score         DG    S(hbond)    S(metal)    S(lipo)     H(rot)  DE(clash)    DE(int)     intcor
     15.41     -20.08       2.14        0.00      85.61       1.00       2.81       1.86       ----

> <Gold.Chemscore.Fitness>
15.4125

> <Gold.Chemscore.DG>
-20.0806

> <Gold.Chemscore.ZeroCoef>
-5.4800

> <Gold.Chemscore.Hbond>
2.1389

> <Gold.Chemscore.Metal>
0.0000

> <Gold.Chemscore.Lipo>
85.6123

> <Gold.Chemscore.Internal_Hbond>
0.0000

> <Gold.Chemscore.DEClash>
2.8056

> <Gold.Chemscore.DEInternal>
1.8625

> <Gold.Chemscore.Rot>
1.0000

> <Gold.Chemscore.Internal.Correction>
   9.000000E+99

> <Gold.Chemscore.Hbonds>
donor molecule, donor type, donor heavy atom, donor atom, acceptor molecule, acceptor atom, score
      L1  H     8    27       P1  8028  0.93
      P1  H  6933  6945       L1     3  0.81
      P1  H  7989  7998       L1    10  0.41

> <Gold.Chemscore.Hbond.Weighted>
-7.1439

> <Gold.Chemscore.Metal.Weighted>
-0.0000

> <Gold.Chemscore.Lipo.Weighted>
-10.0166

> <Gold.Chemscore.Internal_Hbond.Weighted>
0.0000

> <Gold.Chemscore.DEClash.Weighted>
2.8056

> <Gold.Chemscore.DEInternal.Weighted>
1.8625

> <Gold.Chemscore.Rot.Weighted>
2.5600

> <Gold.Chemscore.Internal.Correction.Weighted>
   9.000000E+99

> <Gold.Protein.RotatedTorsions>
[ 6907 6896 6895 6894 ] final  136.41 input  -60.11 | X-H torsion
[ 7974 7965 7964 7962 ] final   93.34 input  175.53 | X-H torsion
[ 8008 7997 7996 7995 ] final  138.79 input   59.86 | X-H torsion
[ 10167 10162 10161 10158 ] final  138.77 input  -65.29 | X-H torsion
[ 10718 10713 10712 10709 ] final -156.80 input   66.30 | X-H torsion
[ 10763 10752 10751 10750 ] final  159.28 input  -60.55 | X-H torsion
[ 11005 11000 10999 10996 ] final   93.51 input  -57.11 | X-H torsion

> <Gold.Protein.ActiveResidues>
 VAL166  LYS551  ARG553  GLY616  TRP617  ASP618  TYR619  PRO620  LYS621  CYS622 
 ASP623  PHE694  ASN695  SER759  ASP760  ASP761  ALA762  ILE779  LEU786  VAL792 
 PHE793  MET794  SER795  GLU796  ALA797  LYS798  CYS799  TRP800  GLU811  SER814 

> <Gold.Protein.RotatedAtoms>
  152.2897  133.5549  159.5549 H   0  0  0  0  0  0  0  0  0  0  0  0  # atno 6907 bound_to 6896
  150.7230  134.0446  159.3786 H   0  0  0  0  0  0  0  0  0  0  0  0  # atno 6908 bound_to 6896
  151.8353  135.0608  160.0492 H   0  0  0  0  0  0  0  0  0  0  0  0  # atno 6909 bound_to 6896
  145.4802  139.2279  143.2887 H   0  0  0  0  0  0  0  0  0  0  0  0  # atno 7974 bound_to 7965
  156.2995  140.2384  156.4131 H   0  0  0  0  0  0  0  0  0  0  0  0  # atno 8008 bound_to 7997
  154.8423  140.0428  157.1569 H   0  0  0  0  0  0  0  0  0  0  0  0  # atno 8009 bound_to 7997
  154.9089  140.2987  155.5280 H   0  0  0  0  0  0  0  0  0  0  0  0  # atno 8010 bound_to 7997
  139.5100  144.6334  151.5759 H   0  0  0  0  0  0  0  0  0  0  0  0  # atno 10167 bound_to 10162
  156.5315  130.8523  151.2717 H   0  0  0  0  0  0  0  0  0  0  0  0  # atno 10718 bound_to 10713
  154.2294  135.2779  155.2895 H   0  0  0  0  0  0  0  0  0  0  0  0  # atno 10763 bound_to 10752
  154.5637  135.5639  153.7034 H   0  0  0  0  0  0  0  0  0  0  0  0  # atno 10764 bound_to 10752
  153.0024  135.6304  154.2435 H   0  0  0  0  0  0  0  0  0  0  0  0  # atno 10765 bound_to 10752
  139.8809  134.8794  156.3728 H   0  0  0  0  0  0  0  0  0  0  0  0  # atno 11005 bound_to 11000
  146.2345  140.5588  142.8960 LP  0  0  0  0  0  0  0  0  0  0  0  0  # atno 17320 bound_to 7965
  144.7893  140.6000  143.6552 LP  0  0  0  0  0  0  0  0  0  0  0  0  # atno 17321 bound_to 7965
  140.6074  143.9498  150.6429 LP  0  0  0  0  0  0  0  0  0  0  0  0  # atno 17342 bound_to 10162
  140.2730  143.3443  152.1221 LP  0  0  0  0  0  0  0  0  0  0  0  0  # atno 17343 bound_to 10162
  157.7421  130.9883  150.2491 LP  0  0  0  0  0  0  0  0  0  0  0  0  # atno 17370 bound_to 10713
  156.3056  130.3764  149.7709 LP  0  0  0  0  0  0  0  0  0  0  0  0  # atno 17371 bound_to 10713
  140.9452  133.7488  156.0199 LP  0  0  0  0  0  0  0  0  0  0  0  0  # atno 17394 bound_to 11000
  140.8172  134.3331  157.5393 LP  0  0  0  0  0  0  0  0  0  0  0  0  # atno 17395 bound_to 11000

$$$$
