AV-unprocessed.smi:652|AV-procd|sdf|3196|dock4
  -GOLD-   22720 0123D 1   1.00000     0.00000
 Structure written by MMmdl.
 47 48  0  0  0  0  0  0  0  0  1 V2000
  152.5000  142.7222  161.0816 C   0  0  0  0  0  0  0  0  0  0  0  0
  152.4840  143.7385  159.9288 C   0  0  0  0  0  0  0  0  0  0  0  0
  151.3845  144.7922  160.1161 C   0  0  0  0  0  0  0  0  0  0  0  0
  152.2902  143.0563  158.6531 N   0  0  0  0  0  0  0  0  0  0  0  0
  151.3472  142.1358  158.3984 C   0  0  0  0  0  0  0  0  0  0  0  0
  150.5369  141.7435  159.2382 O   0  0  0  0  0  0  0  0  0  0  0  0
  151.3113  141.5731  156.9739 C   0  0  0  0  0  0  0  0  0  0  0  0
  150.1948  140.5291  156.7605 C   0  0  0  0  0  0  0  0  0  0  0  0
  150.5558  139.1395  157.0510 N   0  0  0  0  0  0  0  0  0  0  0  0
  151.5781  139.0300  158.0878 C   0  0  0  0  0  0  0  0  0  0  0  0
  151.9241  137.5637  158.3933 C   0  0  0  0  0  0  0  0  0  0  0  0
  150.7394  136.8654  158.7585 O   0  0  0  0  0  0  0  0  0  0  0  0
  149.7373  136.8924  157.7446 C   0  0  1  0  0  0  0  0  0  0  0  0
  148.5080  136.1056  158.2300 C   0  0  0  0  0  0  0  0  0  0  0  0
  147.7527  136.8275  159.2480 N   0  0  0  0  0  0  0  0  0  0  0  0
  147.5625  136.2880  160.5285 C   0  0  0  0  0  0  0  0  0  0  0  0
  147.4944  134.8877  160.6714 C   0  0  0  0  0  0  0  0  0  0  0  0
  147.2993  134.3713  161.9641 C   0  0  0  0  0  0  0  0  0  0  0  0
  147.1847  135.2962  163.0177 C   0  0  0  0  0  0  0  0  0  0  0  0
  147.2529  136.6324  162.8239 N   0  0  0  0  0  0  0  0  0  0  0  0
  147.4376  137.1214  161.5924 N   0  0  0  0  0  0  0  0  0  0  0  0
  149.3868  138.3647  157.4516 C   0  0  0  0  0  0  0  0  0  0  0  0
  152.6411  143.2211  162.0407 H   0  0  0  0  0  0  0  0  0  0  0  0
  153.3115  142.0031  160.9644 H   0  0  0  0  0  0  0  0  0  0  0  0
  151.5652  142.1628  161.1315 H   0  0  0  0  0  0  0  0  0  0  0  0
  153.4429  144.2598  159.9117 H   0  0  0  0  0  0  0  0  0  0  0  0
  151.5199  145.3366  161.0510 H   0  0  0  0  0  0  0  0  0  0  0  0
  150.3944  144.3355  160.1374 H   0  0  0  0  0  0  0  0  0  0  0  0
  151.3980  145.5224  159.3061 H   0  0  0  0  0  0  0  0  0  0  0  0
  152.9110  143.3160  157.9004 H   0  0  0  0  0  0  0  0  0  0  0  0
  151.2138  142.3854  156.2528 H   0  0  0  0  0  0  0  0  0  0  0  0
  152.2777  141.1108  156.7713 H   0  0  0  0  0  0  0  0  0  0  0  0
  149.3253  140.8121  157.3553 H   0  0  0  0  0  0  0  0  0  0  0  0
  149.8717  140.5984  155.7208 H   0  0  0  0  0  0  0  0  0  0  0  0
  152.4867  139.5470  157.7801 H   0  0  0  0  0  0  0  0  0  0  0  0
  151.2332  139.5170  159.0013 H   0  0  0  0  0  0  0  0  0  0  0  0
  152.3860  137.0860  157.5279 H   0  0  0  0  0  0  0  0  0  0  0  0
  152.6399  137.5046  159.2130 H   0  0  0  0  0  0  0  0  0  0  0  0
  150.1274  136.4288  156.8362 H   0  0  0  0  0  0  0  0  0  0  0  0
  147.8741  135.8160  157.3910 H   0  0  0  0  0  0  0  0  0  0  0  0
  148.8408  135.1740  158.6882 H   0  0  0  0  0  0  0  0  0  0  0  0
  147.1287  137.5582  158.9386 H   0  0  0  0  0  0  0  0  0  0  0  0
  147.5901  134.2294  159.8203 H   0  0  0  0  0  0  0  0  0  0  0  0
  147.2402  133.3078  162.1420 H   0  0  0  0  0  0  0  0  0  0  0  0
  147.0333  134.9604  164.0329 H   0  0  0  0  0  0  0  0  0  0  0  0
  148.9329  138.8133  158.3370 H   0  0  0  0  0  0  0  0  0  0  0  0
  148.6343  138.4038  156.6631 H   0  0  0  0  0  0  0  0  0  0  0  0
  1  2  1  0  0  0  0
  1 23  1  0  0  0  0
  1 24  1  0  0  0  0
  1 25  1  0  0  0  0
  2  3  1  0  0  0  0
  2  4  1  0  0  0  0
  2 26  1  0  0  0  0
  3 27  1  0  0  0  0
  3 28  1  0  0  0  0
  3 29  1  0  0  0  0
  4  5  1  0  0  0  0
  4 30  1  0  0  0  0
  5  6  2  0  0  0  0
  5  7  1  0  0  0  0
  7  8  1  0  0  0  0
  7 31  1  0  0  0  0
  7 32  1  0  0  0  0
  8  9  1  0  0  0  0
  8 33  1  0  0  0  0
  8 34  1  0  0  0  0
  9 22  1  0  0  0  0
  9 10  1  0  0  0  0
 10 11  1  0  0  0  0
 10 35  1  0  0  0  0
 10 36  1  0  0  0  0
 11 12  1  0  0  0  0
 11 37  1  0  0  0  0
 11 38  1  0  0  0  0
 12 13  1  0  0  0  0
 13 14  1  0  0  0  0
 13 22  1  0  0  0  0
 13 39  1  0  0  0  0
 14 15  1  0  0  0  0
 14 40  1  0  0  0  0
 14 41  1  0  0  0  0
 15 16  1  0  0  0  0
 15 42  1  0  0  0  0
 16 21  1  0  0  0  0
 16 17  2  0  0  0  0
 17 18  1  0  0  0  0
 17 43  1  0  0  0  0
 18 19  2  0  0  0  0
 18 44  1  0  0  0  0
 19 20  1  0  0  0  0
 19 45  1  0  0  0  0
 20 21  2  0  0  0  0
 22 46  1  0  0  0  0
 22 47  1  0  0  0  0
M  END
> <s_m_source_file>
AV-unprocessed.smi

> <i_m_source_file_index>
652

> <i_lp_mmshare_version>
43012

> <i_f3d_flags>
0

> <s_epik_input>
W0NIM11bQ0hdKFtDSDNdKVtOSF1DKD1PKVtDSDJdW0NIMl1OMVtDSDJdW0NIMl1PW0NASF0oW0NIMl0xKVtDSDJdW05IXWMyW2NIXVtjSF1bY0hdbm4y

> <s_epik_cmdline>
J2VwaWtfcHl0aG9uJywgJy1waCcsICc3LjAnLCAnLXRuJywgJzgnLCAnLW1hJywgJzIwMCcsICctbWV0YWxfYmluZGluZycsICctaW1hZScsICc8aW5maWxlLm1hZT4nLCAnLW9tYWUnLCAnPG91dGZpbGUubWFlPic=

> <r_lp_tautomer_probability>
0.999978

> <r_epik_Ionization_Penalty>
0.428793

> <r_epik_Ionization_Penalty_Charging>
0

> <r_epik_Ionization_Penalty_Neutral>
0.428793

> <r_epik_State_Penalty>
0.437051

> <r_epik_Charging_Adjusted_Penalty>
0.437051

> <i_epik_Tot_Q>
0

> <i_epik_Tot_abs_Q>
0

> <r_epik_Metal_State_Penalty>
0.432371

> <b_epik_Metal_Only>
0

> <s_lp_Force_Field>
OPLS_2005

> <r_lp_Energy>
21.7245

> <b_lp_Chiralities_Consistent>
1

> <s_lp_Variant>
AV-unprocessed.smi:652-5

> <Gold.Version>
5.8.1

> <Gold.Id.Protein>
6NUR|6NUR_protein|mol2

> <Gold.PLP.Fitness>
45.9607

> <Gold.PLP.PLP>
-39.4669

> <Gold.PLP.part.hbond>
-4.2299

> <Gold.PLP.part.metal>
0.0000

> <Gold.PLP.part.buried>
-6.9351

> <Gold.PLP.part.nonpolar>
-28.3259

> <Gold.PLP.part.repulsive>
0.1997

> <Gold.PLP.ligand.clash>
0.0000

> <Gold.PLP.ligand.torsion>
0.9670

> <Gold.PLP.Chemscore.Hbond>
2.7513

> <Gold.PLP.Chemscore.CHOScore>
0.0000

> <Gold.PLP.Chemscore.Metal>
0.0000

> <Gold.Chemscore.Hbonds>
donor molecule, donor type, donor heavy atom, donor atom, acceptor molecule, acceptor atom, score
      P1  H  6896  6909       L1    12  0.76
      P1  H  6931  6943       L1    21  0.96
      P1  H  6934  6947       L1    21  0.86

> <Gold.PLP.Chemscore.Internal.Correction>
0.1740

> <Gold.Rescore>
     Score         DG    S(hbond)    S(metal)    S(lipo)     H(rot)  DE(clash)    DE(int)     intcor
     13.78     -16.04       1.85        0.00      85.71       2.20       0.00       2.25       ----

> <Gold.Chemscore.Fitness>
13.7848

> <Gold.Chemscore.DG>
-16.0377

> <Gold.Chemscore.ZeroCoef>
-5.4800

> <Gold.Chemscore.Hbond>
1.8458

> <Gold.Chemscore.Metal>
0.0000

> <Gold.Chemscore.Lipo>
85.7101

> <Gold.Chemscore.Internal_Hbond>
0.0000

> <Gold.Chemscore.DEClash>
0.0000

> <Gold.Chemscore.DEInternal>
2.2529

> <Gold.Chemscore.Rot>
2.2013

> <Gold.Chemscore.Internal.Correction>
   9.000000E+99

> <Gold.Chemscore.Hbonds>
donor molecule, donor type, donor heavy atom, donor atom, acceptor molecule, acceptor atom, score
      P1  H  6896  6909       L1    12  0.60
      P1  H  6931  6943       L1    21  0.20
      P1  H  6934  6947       L1    21  0.59

> <Gold.Chemscore.Hbond.Weighted>
-6.1650

> <Gold.Chemscore.Metal.Weighted>
-0.0000

> <Gold.Chemscore.Lipo.Weighted>
-10.0281

> <Gold.Chemscore.Internal_Hbond.Weighted>
0.0000

> <Gold.Chemscore.DEClash.Weighted>
0.0000

> <Gold.Chemscore.DEInternal.Weighted>
2.2529

> <Gold.Chemscore.Rot.Weighted>
5.6354

> <Gold.Chemscore.Internal.Correction.Weighted>
   9.000000E+99

> <Gold.Protein.RotatedTorsions>
[ 6907 6896 6895 6894 ] final   93.76 input  -60.11 | X-H torsion
[ 7974 7965 7964 7962 ] final -155.14 input  175.53 | X-H torsion
[ 8008 7997 7996 7995 ] final   23.44 input   59.86 | X-H torsion
[ 10167 10162 10161 10158 ] final  174.18 input  -65.29 | X-H torsion
[ 10718 10713 10712 10709 ] final -116.63 input   66.30 | X-H torsion
[ 10763 10752 10751 10750 ] final   92.68 input  -60.55 | X-H torsion
[ 11005 11000 10999 10996 ] final  -71.91 input  -57.11 | X-H torsion

> <Gold.Protein.ActiveResidues>
 VAL166  LYS551  ARG553  GLY616  TRP617  ASP618  TYR619  PRO620  LYS621  CYS622 
 ASP623  PHE694  ASN695  SER759  ASP760  ASP761  ALA762  ILE779  LEU786  VAL792 
 PHE793  MET794  SER795  GLU796  ALA797  LYS798  CYS799  TRP800  GLU811  SER814 

> <Gold.Protein.RotatedAtoms>
  152.5452  134.1297  159.8433 H   0  0  0  0  0  0  0  0  0  0  0  0  # atno 6907 bound_to 6896
  151.1344  133.5007  159.2606 H   0  0  0  0  0  0  0  0  0  0  0  0  # atno 6908 bound_to 6896
  151.1640  135.0297  159.8777 H   0  0  0  0  0  0  0  0  0  0  0  0  # atno 6909 bound_to 6896
  144.7655  140.4291  143.5945 H   0  0  0  0  0  0  0  0  0  0  0  0  # atno 7974 bound_to 7965
  154.9810  140.3102  155.4946 H   0  0  0  0  0  0  0  0  0  0  0  0  # atno 8008 bound_to 7997
  156.2953  140.2266  156.4849 H   0  0  0  0  0  0  0  0  0  0  0  0  # atno 8009 bound_to 7997
  154.7789  140.0447  157.1099 H   0  0  0  0  0  0  0  0  0  0  0  0  # atno 8010 bound_to 7997
  139.5133  144.3176  152.0233 H   0  0  0  0  0  0  0  0  0  0  0  0  # atno 10167 bound_to 10162
  156.0977  130.6146  150.9060 H   0  0  0  0  0  0  0  0  0  0  0  0  # atno 10718 bound_to 10713
  153.2219  135.4352  155.0498 H   0  0  0  0  0  0  0  0  0  0  0  0  # atno 10763 bound_to 10752
  154.8254  135.3358  154.6915 H   0  0  0  0  0  0  0  0  0  0  0  0  # atno 10764 bound_to 10752
  153.7346  135.7009  153.5037 H   0  0  0  0  0  0  0  0  0  0  0  0  # atno 10765 bound_to 10752
  141.1600  133.6831  156.6977 H   0  0  0  0  0  0  0  0  0  0  0  0  # atno 11005 bound_to 11000
  145.6484  139.1561  143.2876 LP  0  0  0  0  0  0  0  0  0  0  0  0  # atno 17320 bound_to 7965
  146.1758  140.6575  142.9212 LP  0  0  0  0  0  0  0  0  0  0  0  0  # atno 17321 bound_to 7965
  140.2618  144.4058  150.6183 LP  0  0  0  0  0  0  0  0  0  0  0  0  # atno 17342 bound_to 10162
  140.6151  143.2172  151.6807 LP  0  0  0  0  0  0  0  0  0  0  0  0  # atno 17343 bound_to 10162
  157.6141  131.0934  150.8742 LP  0  0  0  0  0  0  0  0  0  0  0  0  # atno 17370 bound_to 10713
  156.8877  130.5202  149.5287 LP  0  0  0  0  0  0  0  0  0  0  0  0  # atno 17371 bound_to 10713
  140.2982  134.8185  157.4075 LP  0  0  0  0  0  0  0  0  0  0  0  0  # atno 17394 bound_to 11000
  140.1285  134.5126  155.8124 LP  0  0  0  0  0  0  0  0  0  0  0  0  # atno 17395 bound_to 11000

$$$$
