AV-unprocessed.smi:1487|AV-procd|sdf|6015|dock10
  -GOLD-   22720 6113D 1   1.00000     0.00000
 Structure written by MMmdl.
 49 51  0  0  0  0  0  0  0  0  3 V2000
  146.0045  130.0521  152.4965 C   0  0  0  0  0  0  0  0  0  0  0  0
  145.9367  131.5264  152.1355 C   0  0  0  0  0  0  0  0  0  0  0  0
  144.7766  132.0103  151.4898 C   0  0  0  0  0  0  0  0  0  0  0  0
  144.7438  133.3635  151.1745 C   0  0  0  0  0  0  0  0  0  0  0  0
  143.7593  134.1313  150.5497 N   0  3  0  0  0  0  0  0  0  0  0  0
  144.1806  135.4227  150.4565 C   0  0  0  0  0  0  0  0  0  0  0  0
  145.4189  135.4929  151.0169 N   0  0  0  0  0  0  0  0  0  0  0  0
  146.3151  136.6495  151.1589 C   0  0  0  0  0  0  0  0  0  0  0  0
  145.9155  137.5902  152.3137 C   0  0  2  0  0  0  0  0  0  0  0  0
  144.5687  137.9612  152.0990 O   0  0  0  0  0  0  0  0  0  0  0  0
  146.7875  138.8636  152.4031 C   0  0  0  0  0  0  0  0  0  0  0  0
  146.2769  139.8619  153.3787 N   0  3  1  0  0  0  0  0  0  0  0  0
  146.4087  139.4293  154.7968 C   0  0  0  0  0  0  0  0  0  0  0  0
  145.7540  140.4434  155.7504 C   0  0  0  0  0  0  0  0  0  0  0  0
  146.3463  141.8445  155.5552 C   0  0  0  0  0  0  0  0  0  0  0  0
  146.2260  142.2577  154.0814 C   0  0  1  0  0  0  0  0  0  0  0  0
  146.8624  143.5022  153.8874 O   0  0  0  0  0  0  0  0  0  0  0  0
  146.8732  141.2061  153.1620 C   0  0  0  0  0  0  0  0  0  0  0  0
  145.8140  134.2291  151.4752 C   0  0  0  0  0  0  0  0  0  0  0  0
  146.9654  133.7666  152.1094 C   0  0  0  0  0  0  0  0  0  0  0  0
  147.0167  132.3939  152.4415 C   0  0  0  0  0  0  0  0  0  0  0  0
  148.2586  131.8632  153.1377 C   0  0  0  0  0  0  0  0  0  0  0  0
  145.0916  129.5284  152.2113 H   0  0  0  0  0  0  0  0  0  0  0  0
  146.1380  129.9260  153.5713 H   0  0  0  0  0  0  0  0  0  0  0  0
  146.8383  129.5707  151.9847 H   0  0  0  0  0  0  0  0  0  0  0  0
  143.9511  131.3552  151.2520 H   0  0  0  0  0  0  0  0  0  0  0  0
  143.6326  136.2419  150.0132 H   0  0  0  0  0  0  0  0  0  0  0  0
  147.3421  136.3011  151.2694 H   0  0  0  0  0  0  0  0  0  0  0  0
  146.2819  137.1919  150.2129 H   0  0  0  0  0  0  0  0  0  0  0  0
  145.9657  137.0235  153.2428 H   0  0  0  0  0  0  0  0  0  0  0  0
  144.5059  138.9042  152.0862 H   0  0  0  0  0  0  0  0  0  0  0  0
  147.8151  138.6136  152.6688 H   0  0  0  0  0  0  0  0  0  0  0  0
  146.8302  139.3157  151.4108 H   0  0  0  0  0  0  0  0  0  0  0  0
  145.9383  138.4587  154.9463 H   0  0  0  0  0  0  0  0  0  0  0  0
  147.4643  139.3096  155.0455 H   0  0  0  0  0  0  0  0  0  0  0  0
  144.6780  140.4719  155.5737 H   0  0  0  0  0  0  0  0  0  0  0  0
  145.8892  140.1242  156.7843 H   0  0  0  0  0  0  0  0  0  0  0  0
  145.8327  142.5621  156.1964 H   0  0  0  0  0  0  0  0  0  0  0  0
  147.3938  141.8437  155.8611 H   0  0  0  0  0  0  0  0  0  0  0  0
  145.1732  142.3717  153.8187 H   0  0  0  0  0  0  0  0  0  0  0  0
  147.5559  143.5904  154.5238 H   0  0  0  0  0  0  0  0  0  0  0  0
  147.9495  141.1562  153.3381 H   0  0  0  0  0  0  0  0  0  0  0  0
  146.7353  141.5058  152.1220 H   0  0  0  0  0  0  0  0  0  0  0  0
  147.7912  134.4217  152.3436 H   0  0  0  0  0  0  0  0  0  0  0  0
  148.9975  132.6501  153.2920 H   0  0  0  0  0  0  0  0  0  0  0  0
  148.7271  131.0794  152.5421 H   0  0  0  0  0  0  0  0  0  0  0  0
  148.0029  131.4508  154.1141 H   0  0  0  0  0  0  0  0  0  0  0  0
  145.2899  139.9634  153.1906 H   0  0  0  0  0  0  0  0  0  0  0  0
  142.8671  133.7995  150.2054 H   0  0  0  0  0  0  0  0  0  0  0  0
  1  2  1  0  0  0  0
  1 23  1  0  0  0  0
  1 24  1  0  0  0  0
  1 25  1  0  0  0  0
  2 21  1  0  0  0  0
  2  3  2  0  0  0  0
  3  4  1  0  0  0  0
  3 26  1  0  0  0  0
  4 19  2  0  0  0  0
  4  5  1  0  0  0  0
  5  6  2  0  0  0  0
  5 49  1  0  0  0  0
  6  7  1  0  0  0  0
  6 27  1  0  0  0  0
  7  8  1  0  0  0  0
  7 19  1  0  0  0  0
  8  9  1  0  0  0  0
  8 28  1  0  0  0  0
  8 29  1  0  0  0  0
  9 10  1  0  0  0  0
  9 11  1  0  0  0  0
  9 30  1  0  0  0  0
 10 31  1  0  0  0  0
 11 12  1  0  0  0  0
 11 32  1  0  0  0  0
 11 33  1  0  0  0  0
 12 18  1  0  0  0  0
 12 13  1  0  0  0  0
 12 48  1  0  0  0  0
 13 14  1  0  0  0  0
 13 34  1  0  0  0  0
 13 35  1  0  0  0  0
 14 15  1  0  0  0  0
 14 36  1  0  0  0  0
 14 37  1  0  0  0  0
 15 16  1  0  0  0  0
 15 38  1  0  0  0  0
 15 39  1  0  0  0  0
 16 17  1  0  0  0  0
 16 18  1  0  0  0  0
 16 40  1  0  0  0  0
 17 41  1  0  0  0  0
 18 42  1  0  0  0  0
 18 43  1  0  0  0  0
 19 20  1  0  0  0  0
 20 21  2  0  0  0  0
 20 44  1  0  0  0  0
 21 22  1  0  0  0  0
 22 45  1  0  0  0  0
 22 46  1  0  0  0  0
 22 47  1  0  0  0  0
M  CHG  1   5   1
M  CHG  1  12   1
M  END
> <s_m_source_file>
AV-unprocessed.smi

> <i_m_source_file_index>
1487

> <i_lp_mmshare_version>
43012

> <i_f3d_flags>
0

> <s_epik_input>
W0NIM11jKFtjSF0xKWMoW0NIM10pW2NIXWMoYzEyKW4oW2NIXW4yKVtDSDJdW0NASF0oW09IXSlbQ0gyXU4zW0NIMl1bQ0gyXVtDSDJdW0NAQEhdKFtPSF0pW0NIMl0z

> <s_epik_cmdline>
J2VwaWtfcHl0aG9uJywgJy1waCcsICc3LjAnLCAnLXRuJywgJzgnLCAnLW1hJywgJzIwMCcsICctbWV0YWxfYmluZGluZycsICctaW1hZScsICc8aW5maWxlLm1hZT4nLCAnLW9tYWUnLCAnPG91dGZpbGUubWFlPic=

> <r_epik_Ionization_Penalty>
1.1857

> <r_epik_Ionization_Penalty_Charging>
1.1857

> <r_epik_Ionization_Penalty_Neutral>
1.75578e-06

> <r_epik_State_Penalty>
1.26953

> <r_epik_Charging_Adjusted_Penalty>
2.45524

> <i_epik_Tot_Q>
2

> <i_epik_Tot_abs_Q>
2

> <r_epik_Metal_State_Penalty>
5.28243

> <b_epik_Metal_Only>
0

> <s_lp_Force_Field>
OPLS_2005

> <r_lp_Energy>
33.096

> <b_lp_Chiralities_Consistent>
1

> <s_lp_Variant>
AV-unprocessed.smi:1487-9

> <Gold.Version>
5.8.1

> <Gold.Id.Protein>
6NUR|6NUR_protein|mol2

> <Gold.PLP.Fitness>
58.7228

> <Gold.PLP.PLP>
-39.0863

> <Gold.PLP.part.hbond>
-5.6733

> <Gold.PLP.part.metal>
0.0000

> <Gold.PLP.part.buried>
1.9745

> <Gold.PLP.part.nonpolar>
-34.9179

> <Gold.PLP.part.repulsive>
0.0100

> <Gold.PLP.ligand.clash>
0.0000

> <Gold.PLP.ligand.torsion>
0.3764

> <Gold.PLP.Chemscore.Hbond>
5.7840

> <Gold.PLP.Chemscore.CHOScore>
1.0000

> <Gold.PLP.Chemscore.Metal>
0.0000

> <Gold.Chemscore.Hbonds>
donor molecule, donor type, donor heavy atom, donor atom, acceptor molecule, acceptor atom, score
      L1  H     5    49       P1 10186  1.57
      L1  H    10    31       P1 10175  1.00
      L1  H    12    48       P1 10175  2.00
      L1  H    17    41       P1  8028  0.95
      L1  C     6    27       P1 10171  1.00

> <Gold.PLP.Chemscore.Internal.Correction>
0.0374

> <Gold.Rescore>
     Score         DG    S(hbond)    S(metal)    S(lipo)     H(rot)  DE(clash)    DE(int)     intcor
     18.69     -20.41       3.29        0.00      93.75       2.74       1.29       0.43       ----

> <Gold.Chemscore.Fitness>
18.6888

> <Gold.Chemscore.DG>
-20.4137

> <Gold.Chemscore.ZeroCoef>
-5.4800

> <Gold.Chemscore.Hbond>
3.2859

> <Gold.Chemscore.Metal>
0.0000

> <Gold.Chemscore.Lipo>
93.7524

> <Gold.Chemscore.Internal_Hbond>
0.0000

> <Gold.Chemscore.DEClash>
1.2905

> <Gold.Chemscore.DEInternal>
0.4345

> <Gold.Chemscore.Rot>
2.7384

> <Gold.Chemscore.Internal.Correction>
   9.000000E+99

> <Gold.Chemscore.Hbonds>
donor molecule, donor type, donor heavy atom, donor atom, acceptor molecule, acceptor atom, score
      L1  H     5    49       P1 10186  0.74
      L1  H    10    31       P1 10175  0.96
      L1  H    12    48       P1 10175  1.00
      L1  H    17    41       P1  8028  0.19

> <Gold.Chemscore.Hbond.Weighted>
-10.9751

> <Gold.Chemscore.Metal.Weighted>
-0.0000

> <Gold.Chemscore.Lipo.Weighted>
-10.9690

> <Gold.Chemscore.Internal_Hbond.Weighted>
0.0000

> <Gold.Chemscore.DEClash.Weighted>
1.2905

> <Gold.Chemscore.DEInternal.Weighted>
0.4345

> <Gold.Chemscore.Rot.Weighted>
7.0103

> <Gold.Chemscore.Internal.Correction.Weighted>
   9.000000E+99

> <Gold.Protein.RotatedTorsions>
[ 6907 6896 6895 6894 ] final  -23.41 input  -60.11 | X-H torsion
[ 7974 7965 7964 7962 ] final   76.65 input  175.53 | X-H torsion
[ 8008 7997 7996 7995 ] final   79.14 input   59.86 | X-H torsion
[ 10167 10162 10161 10158 ] final -158.76 input  -65.29 | X-H torsion
[ 10718 10713 10712 10709 ] final  -47.94 input   66.30 | X-H torsion
[ 10763 10752 10751 10750 ] final  -32.18 input  -60.55 | X-H torsion
[ 11005 11000 10999 10996 ] final  -20.57 input  -57.11 | X-H torsion

> <Gold.Protein.ActiveResidues>
 VAL166  LYS551  ARG553  GLY616  TRP617  ASP618  TYR619  PRO620  LYS621  CYS622 
 ASP623  PHE694  ASN695  SER759  ASP760  ASP761  ALA762  ILE779  LEU786  VAL792 
 PHE793  MET794  SER795  GLU796  ALA797  LYS798  CYS799  TRP800  GLU811  SER814 

> <Gold.Protein.RotatedAtoms>
  151.2044  135.0455  159.8885 H   0  0  0  0  0  0  0  0  0  0  0  0  # atno 6907 bound_to 6896
  152.5430  134.0814  159.8247 H   0  0  0  0  0  0  0  0  0  0  0  0  # atno 6908 bound_to 6896
  151.0959  133.5232  159.2644 H   0  0  0  0  0  0  0  0  0  0  0  0  # atno 6909 bound_to 6896
  145.7001  139.2580  143.1710 H   0  0  0  0  0  0  0  0  0  0  0  0  # atno 7974 bound_to 7965
  155.8656  140.3451  155.5786 H   0  0  0  0  0  0  0  0  0  0  0  0  # atno 8008 bound_to 7997
  155.7885  140.0868  157.2041 H   0  0  0  0  0  0  0  0  0  0  0  0  # atno 8009 bound_to 7997
  154.4014  140.1487  156.3122 H   0  0  0  0  0  0  0  0  0  0  0  0  # atno 8010 bound_to 7997
  139.6667  143.9817  152.2259 H   0  0  0  0  0  0  0  0  0  0  0  0  # atno 10167 bound_to 10162
  156.2036  130.4157  149.9208 H   0  0  0  0  0  0  0  0  0  0  0  0  # atno 10718 bound_to 10713
  153.8095  135.6883  153.4843 H   0  0  0  0  0  0  0  0  0  0  0  0  # atno 10763 bound_to 10752
  153.1637  135.4569  154.9806 H   0  0  0  0  0  0  0  0  0  0  0  0  # atno 10764 bound_to 10752
  154.7973  135.3324  154.7577 H   0  0  0  0  0  0  0  0  0  0  0  0  # atno 10765 bound_to 10752
  140.8477  133.7879  155.9931 H   0  0  0  0  0  0  0  0  0  0  0  0  # atno 11005 bound_to 11000
  146.0806  140.7769  142.9643 LP  0  0  0  0  0  0  0  0  0  0  0  0  # atno 17320 bound_to 7965
  144.6971  140.3482  143.7186 LP  0  0  0  0  0  0  0  0  0  0  0  0  # atno 17321 bound_to 7965
  139.9570  144.6583  150.8116 LP  0  0  0  0  0  0  0  0  0  0  0  0  # atno 17342 bound_to 10162
  140.7602  143.3146  151.2764 LP  0  0  0  0  0  0  0  0  0  0  0  0  # atno 17343 bound_to 10162
  156.6910  130.8895  151.3588 LP  0  0  0  0  0  0  0  0  0  0  0  0  # atno 17370 bound_to 10713
  157.6999  130.9322  150.0755 LP  0  0  0  0  0  0  0  0  0  0  0  0  # atno 17371 bound_to 10713
  140.8825  134.2594  157.5137 LP  0  0  0  0  0  0  0  0  0  0  0  0  # atno 17394 bound_to 11000
  139.8703  134.9622  156.4420 LP  0  0  0  0  0  0  0  0  0  0  0  0  # atno 17395 bound_to 11000

$$$$
