AV-unprocessed.smi:3292|AV-procd|sdf|12624|dock8
  -GOLD-   2272018553D 1   1.00000     0.00000
 Structure written by MMmdl.
 39 40  0  0  0  0  0  0  0  0  2 V2000
  146.8596  132.9815  149.9883 C   0  0  0  0  0  0  0  0  0  0  0  0
  146.1089  134.3227  149.9551 C   0  0  1  0  0  0  0  0  0  0  0  0
  145.1729  134.5237  151.1668 C   0  0  0  0  0  0  0  0  0  0  0  0
  144.6371  133.2625  151.6866 N   0  0  0  0  0  0  0  0  0  0  0  0
  145.2926  132.3457  152.4674 C   0  0  0  0  0  0  0  0  0  0  0  0
  144.4045  131.3286  152.7050 C   0  0  0  0  0  0  0  0  0  0  0  0
  143.2466  131.6656  152.0566 N   0  3  0  0  0  0  0  0  0  0  0  0
  143.3909  132.8407  151.4351 C   0  0  0  0  0  0  0  0  0  0  0  0
  147.0754  135.4145  149.8803 N   0  0  0  0  0  0  0  0  0  0  0  0
  147.0923  136.3625  148.9322 C   0  0  0  0  0  0  0  0  0  0  0  0
  146.2885  136.4177  148.0011 O   0  0  0  0  0  0  0  0  0  0  0  0
  148.0794  137.2476  149.1289 N   0  0  0  0  0  0  0  0  0  0  0  0
  148.3503  138.4097  148.2884 C   0  0  0  0  0  0  0  0  0  0  0  0
  149.8424  138.5168  147.9200 C   0  0  1  0  0  0  0  0  0  0  0  0
  150.1614  139.6717  146.9933 C   0  0  0  0  0  0  0  0  0  0  0  0
  151.6704  139.8122  147.1703 C   0  0  0  0  0  0  0  0  0  0  0  0
  151.9451  139.4066  148.5081 O   0  0  0  0  0  0  0  0  0  0  0  0
  150.7850  138.8178  149.0875 C   0  0  0  0  0  0  0  0  0  0  0  0
  146.1714  132.1369  149.9521 H   0  0  0  0  0  0  0  0  0  0  0  0
  147.4594  132.8847  150.8938 H   0  0  0  0  0  0  0  0  0  0  0  0
  147.5300  132.8870  149.1336 H   0  0  0  0  0  0  0  0  0  0  0  0
  145.5069  134.3348  149.0443 H   0  0  0  0  0  0  0  0  0  0  0  0
  145.6945  135.0377  151.9760 H   0  0  0  0  0  0  0  0  0  0  0  0
  144.3193  135.1472  150.8968 H   0  0  0  0  0  0  0  0  0  0  0  0
  146.3155  132.4835  152.7877 H   0  0  0  0  0  0  0  0  0  0  0  0
  144.5075  130.4140  153.2708 H   0  0  0  0  0  0  0  0  0  0  0  0
  142.6458  133.3492  150.8492 H   0  0  0  0  0  0  0  0  0  0  0  0
  147.7779  135.4533  150.6046 H   0  0  0  0  0  0  0  0  0  0  0  0
  148.6864  137.1134  149.9246 H   0  0  0  0  0  0  0  0  0  0  0  0
  147.7595  138.3022  147.3785 H   0  0  0  0  0  0  0  0  0  0  0  0
  148.0042  139.3265  148.7691 H   0  0  0  0  0  0  0  0  0  0  0  0
  150.1643  137.5914  147.4391 H   0  0  0  0  0  0  0  0  0  0  0  0
  149.8718  139.4845  145.9589 H   0  0  0  0  0  0  0  0  0  0  0  0
  149.6600  140.5804  147.3297 H   0  0  0  0  0  0  0  0  0  0  0  0
  152.1970  139.1409  146.4910 H   0  0  0  0  0  0  0  0  0  0  0  0
  152.0192  140.8275  146.9811 H   0  0  0  0  0  0  0  0  0  0  0  0
  150.3376  139.5433  149.7682 H   0  0  0  0  0  0  0  0  0  0  0  0
  151.0381  137.9265  149.6619 H   0  0  0  0  0  0  0  0  0  0  0  0
  142.4020  131.1075  152.0460 H   0  0  0  0  0  0  0  0  0  0  0  0
  1  2  1  0  0  0  0
  1 19  1  0  0  0  0
  1 20  1  0  0  0  0
  1 21  1  0  0  0  0
  2  3  1  0  0  0  0
  2  9  1  0  0  0  0
  2 22  1  0  0  0  0
  3  4  1  0  0  0  0
  3 23  1  0  0  0  0
  3 24  1  0  0  0  0
  4  8  1  0  0  0  0
  4  5  1  0  0  0  0
  5  6  2  0  0  0  0
  5 25  1  0  0  0  0
  6  7  1  0  0  0  0
  6 26  1  0  0  0  0
  7  8  2  0  0  0  0
  7 39  1  0  0  0  0
  8 27  1  0  0  0  0
  9 10  1  0  0  0  0
  9 28  1  0  0  0  0
 10 11  2  0  0  0  0
 10 12  1  0  0  0  0
 12 13  1  0  0  0  0
 12 29  1  0  0  0  0
 13 14  1  0  0  0  0
 13 30  1  0  0  0  0
 13 31  1  0  0  0  0
 14 18  1  0  0  0  0
 14 15  1  0  0  0  0
 14 32  1  0  0  0  0
 15 16  1  0  0  0  0
 15 33  1  0  0  0  0
 15 34  1  0  0  0  0
 16 17  1  0  0  0  0
 16 35  1  0  0  0  0
 16 36  1  0  0  0  0
 17 18  1  0  0  0  0
 18 37  1  0  0  0  0
 18 38  1  0  0  0  0
M  CHG  1   7   1
M  END
> <s_m_source_file>
AV-unprocessed.smi

> <i_m_source_file_index>
3292

> <i_lp_mmshare_version>
43012

> <i_f3d_flags>
0

> <s_epik_input>
W2NIXTFuW2NIXVtjSF1uMVtDSDJdW0NAQEhdKFtDSDNdKVtOSF1DKD1PKVtOSF1bQ0gyXVtDQEBIXTJbQ0gyXVtDSDJdT1tDSDJdMg==

> <s_epik_cmdline>
J2VwaWtfcHl0aG9uJywgJy1waCcsICc3LjAnLCAnLXRuJywgJzgnLCAnLW1hJywgJzIwMCcsICctbWV0YWxfYmluZGluZycsICctaW1hZScsICc8aW5maWxlLm1hZT4nLCAnLW9tYWUnLCAnPG91dGZpbGUubWFlPic=

> <r_lp_tautomer_probability>
1

> <r_epik_Ionization_Penalty>
0.255703

> <r_epik_Ionization_Penalty_Charging>
0

> <r_epik_Ionization_Penalty_Neutral>
0.255703

> <r_epik_State_Penalty>
0.247169

> <r_epik_Charging_Adjusted_Penalty>
0.247169

> <i_epik_Tot_Q>
1

> <i_epik_Tot_abs_Q>
1

> <r_epik_Metal_State_Penalty>
0.536791

> <b_epik_Metal_Only>
0

> <s_lp_Force_Field>
OPLS_2005

> <r_lp_Energy>
19.2817

> <b_lp_Chiralities_Consistent>
1

> <s_lp_Variant>
AV-unprocessed.smi:3292-4

> <Gold.Version>
5.8.1

> <Gold.Id.Protein>
6NUR|6NUR_protein|mol2

> <Gold.PLP.Fitness>
43.9842

> <Gold.PLP.PLP>
-28.9392

> <Gold.PLP.part.hbond>
-5.0000

> <Gold.PLP.part.metal>
0.0000

> <Gold.PLP.part.buried>
-1.3950

> <Gold.PLP.part.nonpolar>
-23.1865

> <Gold.PLP.part.repulsive>
0.2416

> <Gold.PLP.ligand.clash>
0.0000

> <Gold.PLP.ligand.torsion>
0.7085

> <Gold.PLP.Chemscore.Hbond>
3.9760

> <Gold.PLP.Chemscore.CHOScore>
1.4834

> <Gold.PLP.Chemscore.Metal>
0.0000

> <Gold.Chemscore.Hbonds>
donor molecule, donor type, donor heavy atom, donor atom, acceptor molecule, acceptor atom, score
      L1  H     9    28       P1  7948  0.55
      L1  C     8    27       P1 10186  1.00

> <Gold.PLP.Chemscore.Internal.Correction>
0.0838

> <Gold.Rescore>
     Score         DG    S(hbond)    S(metal)    S(lipo)     H(rot)  DE(clash)    DE(int)     intcor
     17.97     -19.15       3.79        0.00      57.69       2.24       0.38       0.80       ----

> <Gold.Chemscore.Fitness>
17.9699

> <Gold.Chemscore.DG>
-19.1528

> <Gold.Chemscore.ZeroCoef>
-5.4800

> <Gold.Chemscore.Hbond>
3.7872

> <Gold.Chemscore.Metal>
0.0000

> <Gold.Chemscore.Lipo>
57.6879

> <Gold.Chemscore.Internal_Hbond>
0.0000

> <Gold.Chemscore.DEClash>
0.3809

> <Gold.Chemscore.DEInternal>
0.8021

> <Gold.Chemscore.Rot>
2.2367

> <Gold.Chemscore.Internal.Correction>
   9.000000E+99

> <Gold.Chemscore.Hbonds>
donor molecule, donor type, donor heavy atom, donor atom, acceptor molecule, acceptor atom, score
      L1  H     9    28       P1  7948  0.03

> <Gold.Chemscore.Hbond.Weighted>
-12.6492

> <Gold.Chemscore.Metal.Weighted>
-0.0000

> <Gold.Chemscore.Lipo.Weighted>
-6.7495

> <Gold.Chemscore.Internal_Hbond.Weighted>
0.0000

> <Gold.Chemscore.DEClash.Weighted>
0.3809

> <Gold.Chemscore.DEInternal.Weighted>
0.8021

> <Gold.Chemscore.Rot.Weighted>
5.7259

> <Gold.Chemscore.Internal.Correction.Weighted>
   9.000000E+99

> <Gold.Protein.RotatedTorsions>
[ 6907 6896 6895 6894 ] final -176.81 input  -60.11 | X-H torsion
[ 7974 7965 7964 7962 ] final  127.43 input  175.53 | X-H torsion
[ 8008 7997 7996 7995 ] final  116.91 input   59.86 | X-H torsion
[ 10167 10162 10161 10158 ] final  103.23 input  -65.29 | X-H torsion
[ 10718 10713 10712 10709 ] final  130.64 input   66.30 | X-H torsion
[ 10763 10752 10751 10750 ] final  -88.83 input  -60.55 | X-H torsion
[ 11005 11000 10999 10996 ] final   28.62 input  -57.11 | X-H torsion

> <Gold.Protein.ActiveResidues>
 VAL166  LYS551  ARG553  GLY616  TRP617  ASP618  TYR619  PRO620  LYS621  CYS622 
 ASP623  PHE694  ASN695  SER759  ASP760  ASP761  ALA762  ILE779  LEU786  VAL792 
 PHE793  MET794  SER795  GLU796  ALA797  LYS798  CYS799  TRP800  GLU811  SER814 

> <Gold.Protein.RotatedAtoms>
  151.6108  133.3347  159.3066 H   0  0  0  0  0  0  0  0  0  0  0  0  # atno 6907 bound_to 6896
  150.8157  134.7342  159.6740 H   0  0  0  0  0  0  0  0  0  0  0  0  # atno 6908 bound_to 6896
  152.4253  134.5884  160.0019 H   0  0  0  0  0  0  0  0  0  0  0  0  # atno 6909 bound_to 6896
  145.0507  139.3885  143.5055 H   0  0  0  0  0  0  0  0  0  0  0  0  # atno 7974 bound_to 7965
  156.2465  140.2907  156.0596 H   0  0  0  0  0  0  0  0  0  0  0  0  # atno 8008 bound_to 7997
  155.1791  140.0404  157.2896 H   0  0  0  0  0  0  0  0  0  0  0  0  # atno 8009 bound_to 7997
  154.6272  140.2490  155.7484 H   0  0  0  0  0  0  0  0  0  0  0  0  # atno 8010 bound_to 7997
  139.7281  144.7042  151.0765 H   0  0  0  0  0  0  0  0  0  0  0  0  # atno 10167 bound_to 10162
  157.5043  131.1095  150.9384 H   0  0  0  0  0  0  0  0  0  0  0  0  # atno 10718 bound_to 10713
  154.6488  135.5363  153.7876 H   0  0  0  0  0  0  0  0  0  0  0  0  # atno 10763 bound_to 10752
  153.0374  135.6477  154.1049 H   0  0  0  0  0  0  0  0  0  0  0  0  # atno 10764 bound_to 10752
  154.0967  135.2936  155.3240 H   0  0  0  0  0  0  0  0  0  0  0  0  # atno 10765 bound_to 10752
  140.3136  134.2622  155.7729 H   0  0  0  0  0  0  0  0  0  0  0  0  # atno 11005 bound_to 11000
  146.3517  140.0155  142.8663 LP  0  0  0  0  0  0  0  0  0  0  0  0  # atno 17320 bound_to 7965
  145.1531  140.9633  143.4421 LP  0  0  0  0  0  0  0  0  0  0  0  0  # atno 17321 bound_to 7965
  140.7766  143.5078  150.9690 LP  0  0  0  0  0  0  0  0  0  0  0  0  # atno 17342 bound_to 10162
  139.8766  143.7125  152.3161 LP  0  0  0  0  0  0  0  0  0  0  0  0  # atno 17343 bound_to 10162
  157.0044  130.5612  149.5314 LP  0  0  0  0  0  0  0  0  0  0  0  0  # atno 17370 bound_to 10713
  156.0248  130.5342  150.8377 LP  0  0  0  0  0  0  0  0  0  0  0  0  # atno 17371 bound_to 10713
  141.2102  133.7725  156.9944 LP  0  0  0  0  0  0  0  0  0  0  0  0  # atno 17394 bound_to 11000
  140.1003  134.9539  157.1913 LP  0  0  0  0  0  0  0  0  0  0  0  0  # atno 17395 bound_to 11000

$$$$
