AV-unprocessed.smi:527|AV-procd|sdf|2823|dock5
  -GOLD-   2262023303D 1   1.00000     0.00000
 Structure written by MMmdl.
 43 44  0  0  0  0  0  0  0  0  2 V2000
  152.2290  138.5942  154.5783 C   0  0  0  0  0  0  0  0  0  0  0  0
  150.7367  138.2365  154.4598 C   0  0  2  0  0  0  0  0  0  0  0  0
  149.8980  139.5281  154.3644 C   0  0  0  0  0  0  0  0  0  0  0  0
  148.3972  139.2366  154.2342 C   0  0  0  0  0  0  0  0  0  0  0  0
  147.9058  138.3659  155.3989 C   0  0  0  0  0  0  0  0  0  0  0  0
  148.7131  137.0570  155.5151 C   0  0  1  0  0  0  0  0  0  0  0  0
  148.4230  136.1610  154.3940 N   0  0  0  0  0  0  0  0  0  0  0  0
  147.5479  135.1453  154.4131 C   0  0  0  0  0  0  0  0  0  0  0  0
  146.8488  134.8707  155.3907 O   0  0  0  0  0  0  0  0  0  0  0  0
  147.5408  134.4936  153.2345 N   0  0  0  0  0  0  0  0  0  0  0  0
  146.8740  133.3622  152.9271 C   0  0  0  0  0  0  0  0  0  0  0  0
  146.1574  132.7247  153.7010 O   0  0  0  0  0  0  0  0  0  0  0  0
  147.0302  132.8706  151.4876 C   0  0  0  0  0  0  0  0  0  0  0  0
  145.7234  132.6981  150.8456 N   0  0  0  0  0  0  0  0  0  0  0  0
  145.2126  131.5518  150.2914 C   0  0  0  0  0  0  0  0  0  0  0  0
  143.9705  131.8721  149.8065 C   0  0  0  0  0  0  0  0  0  0  0  0
  143.7760  133.1991  150.0835 N   0  3  0  0  0  0  0  0  0  0  0  0
  144.8423  133.6995  150.7159 C   0  0  0  0  0  0  0  0  0  0  0  0
  150.2343  137.3392  155.6260 C   0  0  1  0  0  0  0  0  0  0  0  0
  151.0361  136.0296  155.7711 C   0  0  0  0  0  0  0  0  0  0  0  0
  152.4449  139.0880  155.5263 H   0  0  0  0  0  0  0  0  0  0  0  0
  152.5338  139.2687  153.7777 H   0  0  0  0  0  0  0  0  0  0  0  0
  152.8641  137.7117  154.5063 H   0  0  0  0  0  0  0  0  0  0  0  0
  150.6085  137.6886  153.5252 H   0  0  0  0  0  0  0  0  0  0  0  0
  150.0694  140.1433  155.2488 H   0  0  0  0  0  0  0  0  0  0  0  0
  150.2243  140.1228  153.5105 H   0  0  0  0  0  0  0  0  0  0  0  0
  147.8387  140.1728  154.2116 H   0  0  0  0  0  0  0  0  0  0  0  0
  148.1988  138.7372  153.2852 H   0  0  0  0  0  0  0  0  0  0  0  0
  148.0006  138.9280  156.3288 H   0  0  0  0  0  0  0  0  0  0  0  0
  146.8422  138.1538  155.2841 H   0  0  0  0  0  0  0  0  0  0  0  0
  148.4042  136.5545  156.4337 H   0  0  0  0  0  0  0  0  0  0  0  0
  148.9316  136.3346  153.5396 H   0  0  0  0  0  0  0  0  0  0  0  0
  148.0933  134.9029  152.4958 H   0  0  0  0  0  0  0  0  0  0  0  0
  147.6170  133.5748  150.8953 H   0  0  0  0  0  0  0  0  0  0  0  0
  147.5548  131.9138  151.4705 H   0  0  0  0  0  0  0  0  0  0  0  0
  145.7563  130.6180  150.2821 H   0  0  0  0  0  0  0  0  0  0  0  0
  143.2302  131.2716  149.2978 H   0  0  0  0  0  0  0  0  0  0  0  0
  144.9692  134.7139  151.0512 H   0  0  0  0  0  0  0  0  0  0  0  0
  150.3819  137.8988  156.5511 H   0  0  0  0  0  0  0  0  0  0  0  0
  151.0575  135.4634  154.8397 H   0  0  0  0  0  0  0  0  0  0  0  0
  150.6013  135.3892  156.5392 H   0  0  0  0  0  0  0  0  0  0  0  0
  152.0671  136.2209  156.0677 H   0  0  0  0  0  0  0  0  0  0  0  0
  142.9470  133.7283  149.8431 H   0  0  0  0  0  0  0  0  0  0  0  0
  1  2  1  0  0  0  0
  1 21  1  0  0  0  0
  1 22  1  0  0  0  0
  1 23  1  0  0  0  0
  2 19  1  0  0  0  0
  2  3  1  0  0  0  0
  2 24  1  0  0  0  0
  3  4  1  0  0  0  0
  3 25  1  0  0  0  0
  3 26  1  0  0  0  0
  4  5  1  0  0  0  0
  4 27  1  0  0  0  0
  4 28  1  0  0  0  0
  5  6  1  0  0  0  0
  5 29  1  0  0  0  0
  5 30  1  0  0  0  0
  6  7  1  0  0  0  0
  6 19  1  0  0  0  0
  6 31  1  0  0  0  0
  7  8  1  0  0  0  0
  7 32  1  0  0  0  0
  8  9  2  0  0  0  0
  8 10  1  0  0  0  0
 10 11  1  0  0  0  0
 10 33  1  0  0  0  0
 11 12  2  0  0  0  0
 11 13  1  0  0  0  0
 13 14  1  0  0  0  0
 13 34  1  0  0  0  0
 13 35  1  0  0  0  0
 14 18  1  0  0  0  0
 14 15  1  0  0  0  0
 15 16  2  0  0  0  0
 15 36  1  0  0  0  0
 16 17  1  0  0  0  0
 16 37  1  0  0  0  0
 17 18  2  0  0  0  0
 17 43  1  0  0  0  0
 18 38  1  0  0  0  0
 19 20  1  0  0  0  0
 19 39  1  0  0  0  0
 20 40  1  0  0  0  0
 20 41  1  0  0  0  0
 20 42  1  0  0  0  0
M  CHG  1  17   1
M  END
> <s_m_source_file>
AV-unprocessed.smi

> <i_m_source_file_index>
527

> <i_lp_mmshare_version>
43012

> <i_f3d_flags>
0

> <s_epik_input>
W0NIM11bQ0BASF0xW0NIMl1bQ0gyXVtDSDJdW0NASF0oW0NASF0xW0NIM10pW05IXUMoPU8pW05IXUMoPU8pW0NIMl1uMltjSF1bY0hdbltjSF0y

> <s_epik_cmdline>
J2VwaWtfcHl0aG9uJywgJy1waCcsICc3LjAnLCAnLXRuJywgJzgnLCAnLW1hJywgJzIwMCcsICctbWV0YWxfYmluZGluZycsICctaW1hZScsICc8aW5maWxlLm1hZT4nLCAnLW9tYWUnLCAnPG91dGZpbGUubWFlPic=

> <r_lp_tautomer_probability>
1

> <r_epik_Ionization_Penalty>
0.816441

> <r_epik_Ionization_Penalty_Charging>
0

> <r_epik_Ionization_Penalty_Neutral>
0.816441

> <r_epik_State_Penalty>
0.849034

> <r_epik_Charging_Adjusted_Penalty>
0.849034

> <i_epik_Tot_Q>
1

> <i_epik_Tot_abs_Q>
1

> <r_epik_Metal_State_Penalty>
0.984327

> <b_epik_Metal_Only>
0

> <s_lp_Force_Field>
OPLS_2005

> <r_lp_Energy>
15.5075

> <b_lp_Chiralities_Consistent>
1

> <s_lp_Variant>
AV-unprocessed.smi:527-9

> <Gold.Version>
5.8.1

> <Gold.Id.Protein>
6NUR|6NUR_protein|mol2

> <Gold.PLP.Fitness>
44.3127

> <Gold.PLP.PLP>
-33.1230

> <Gold.PLP.part.hbond>
-3.0000

> <Gold.PLP.part.metal>
0.0000

> <Gold.PLP.part.buried>
-3.7315

> <Gold.PLP.part.nonpolar>
-27.0278

> <Gold.PLP.part.repulsive>
0.1847

> <Gold.PLP.ligand.clash>
0.0000

> <Gold.PLP.ligand.torsion>
0.3332

> <Gold.PLP.Chemscore.Hbond>
3.9440

> <Gold.PLP.Chemscore.CHOScore>
0.0000

> <Gold.PLP.Chemscore.Metal>
0.0000

> <Gold.Chemscore.Hbonds>
donor molecule, donor type, donor heavy atom, donor atom, acceptor molecule, acceptor atom, score
      L1  H     7    32       P1  7948  0.96
      L1  H    10    33       P1  7948  1.00
      L1  H    17    43       P1 10186  1.76

> <Gold.PLP.Chemscore.Internal.Correction>
0.0240

> <Gold.Rescore>
     Score         DG    S(hbond)    S(metal)    S(lipo)     H(rot)  DE(clash)    DE(int)     intcor
     16.98     -18.76       2.86        0.00      69.17       1.71       0.10       1.68       ----

> <Gold.Chemscore.Fitness>
16.9844

> <Gold.Chemscore.DG>
-18.7648

> <Gold.Chemscore.ZeroCoef>
-5.4800

> <Gold.Chemscore.Hbond>
2.8615

> <Gold.Chemscore.Metal>
0.0000

> <Gold.Chemscore.Lipo>
69.1696

> <Gold.Chemscore.Internal_Hbond>
0.0000

> <Gold.Chemscore.DEClash>
0.1036

> <Gold.Chemscore.DEInternal>
1.6768

> <Gold.Chemscore.Rot>
1.7052

> <Gold.Chemscore.Internal.Correction>
   9.000000E+99

> <Gold.Chemscore.Hbonds>
donor molecule, donor type, donor heavy atom, donor atom, acceptor molecule, acceptor atom, score
      L1  H     7    32       P1  7948  0.92
      L1  H    10    33       P1  7948  0.67
      L1  H    17    43       P1 10186  0.86

> <Gold.Chemscore.Hbond.Weighted>
-9.5572

> <Gold.Chemscore.Metal.Weighted>
-0.0000

> <Gold.Chemscore.Lipo.Weighted>
-8.0928

> <Gold.Chemscore.Internal_Hbond.Weighted>
0.0000

> <Gold.Chemscore.DEClash.Weighted>
0.1036

> <Gold.Chemscore.DEInternal.Weighted>
1.6768

> <Gold.Chemscore.Rot.Weighted>
4.3653

> <Gold.Chemscore.Internal.Correction.Weighted>
   9.000000E+99

> <Gold.Protein.RotatedTorsions>
[ 6907 6896 6895 6894 ] final   31.65 input  -60.11 | X-H torsion
[ 7974 7965 7964 7962 ] final  -87.73 input  175.53 | X-H torsion
[ 8008 7997 7996 7995 ] final  -23.41 input   59.86 | X-H torsion
[ 10167 10162 10161 10158 ] final -172.15 input  -65.29 | X-H torsion
[ 10718 10713 10712 10709 ] final   73.21 input   66.30 | X-H torsion
[ 10763 10752 10751 10750 ] final  101.92 input  -60.55 | X-H torsion
[ 11005 11000 10999 10996 ] final  -82.14 input  -57.11 | X-H torsion

> <Gold.Protein.ActiveResidues>
 VAL166  LYS551  ARG553  GLY616  TRP617  ASP618  TYR619  PRO620  LYS621  CYS622 
 ASP623  PHE694  ASN695  SER759  ASP760  ASP761  ALA762  ILE779  LEU786  VAL792 
 PHE793  MET794  SER795  GLU796  ALA797  LYS798  CYS799  TRP800  GLU811  SER814 

> <Gold.Protein.RotatedAtoms>
  152.0633  134.9580  160.0574 H   0  0  0  0  0  0  0  0  0  0  0  0  # atno 6907 bound_to 6896
  152.0935  133.4208  159.4563 H   0  0  0  0  0  0  0  0  0  0  0  0  # atno 6908 bound_to 6896
  150.6837  134.2763  159.4652 H   0  0  0  0  0  0  0  0  0  0  0  0  # atno 6909 bound_to 6896
  145.4626  140.9561  143.1961 H   0  0  0  0  0  0  0  0  0  0  0  0  # atno 7974 bound_to 7965
  154.4587  140.1981  156.0305 H   0  0  0  0  0  0  0  0  0  0  0  0  # atno 8008 bound_to 7997
  156.0798  140.3273  155.7651 H   0  0  0  0  0  0  0  0  0  0  0  0  # atno 8009 bound_to 7997
  155.5130  140.0563  157.2911 H   0  0  0  0  0  0  0  0  0  0  0  0  # atno 8010 bound_to 7997
  139.5761  144.1529  152.1452 H   0  0  0  0  0  0  0  0  0  0  0  0  # atno 10167 bound_to 10162
  157.6537  130.9617  150.1037 H   0  0  0  0  0  0  0  0  0  0  0  0  # atno 10718 bound_to 10713
  153.3328  135.4028  155.1509 H   0  0  0  0  0  0  0  0  0  0  0  0  # atno 10763 bound_to 10752
  154.8627  135.3615  154.5447 H   0  0  0  0  0  0  0  0  0  0  0  0  # atno 10764 bound_to 10752
  153.5887  135.7074  153.5491 H   0  0  0  0  0  0  0  0  0  0  0  0  # atno 10765 bound_to 10752
  141.1664  133.7230  156.8528 H   0  0  0  0  0  0  0  0  0  0  0  0  # atno 11005 bound_to 11000
  144.7993  139.6172  143.7078 LP  0  0  0  0  0  0  0  0  0  0  0  0  # atno 17320 bound_to 7965
  146.2442  139.6064  142.9471 LP  0  0  0  0  0  0  0  0  0  0  0  0  # atno 17321 bound_to 7965
  140.1072  144.5488  150.6949 LP  0  0  0  0  0  0  0  0  0  0  0  0  # atno 17342 bound_to 10162
  140.7043  143.2457  151.4771 LP  0  0  0  0  0  0  0  0  0  0  0  0  # atno 17343 bound_to 10162
  156.1953  130.3657  149.8857 LP  0  0  0  0  0  0  0  0  0  0  0  0  # atno 17370 bound_to 10713
  156.6775  130.8845  151.3571 LP  0  0  0  0  0  0  0  0  0  0  0  0  # atno 17371 bound_to 10713
  140.1904  134.8970  157.3053 LP  0  0  0  0  0  0  0  0  0  0  0  0  # atno 17394 bound_to 11000
  140.2297  134.3924  155.7527 LP  0  0  0  0  0  0  0  0  0  0  0  0  # atno 17395 bound_to 11000

$$$$
