AV-unprocessed.smi:1669|AV-procd|sdf|6692|dock2
  -GOLD-   22720 7423D 1   1.00000     0.00000
 Structure written by MMmdl.
 49 51  0  0  0  0  0  0  0  0  3 V2000
  146.1421  136.9458  150.5834 C   0  0  0  0  0  0  0  0  0  0  0  0
  146.3131  136.9199  152.0551 N   0  3  2  0  0  0  0  0  0  0  0  0
  145.5799  135.7979  152.6962 C   0  0  0  0  0  0  0  0  0  0  0  0
  145.6594  134.5267  151.8707 C   0  0  0  0  0  0  0  0  0  0  0  0
  144.4897  133.9904  151.2915 C   0  0  0  0  0  0  0  0  0  0  0  0
  144.5566  132.8101  150.5257 C   0  0  0  0  0  0  0  0  0  0  0  0
  145.7927  132.1631  150.3350 C   0  0  0  0  0  0  0  0  0  0  0  0
  146.9624  132.6966  150.9095 C   0  0  0  0  0  0  0  0  0  0  0  0
  146.8969  133.8772  151.6750 C   0  0  0  0  0  0  0  0  0  0  0  0
  146.0171  138.2367  152.6751 C   0  0  0  0  0  0  0  0  0  0  0  0
  147.2775  138.9007  153.2645 C   0  0  1  0  0  0  0  0  0  0  0  0
  148.4153  138.3690  152.6143 O   0  0  0  0  0  0  0  0  0  0  0  0
  147.2537  140.4313  153.0816 C   0  0  0  0  0  0  0  0  0  0  0  0
  147.6240  141.1631  154.3032 N   0  0  0  0  0  0  0  0  0  0  0  0
  146.9241  142.0813  155.0312 C   0  0  0  0  0  0  0  0  0  0  0  0
  145.5457  142.5858  154.7420 C   0  0  0  0  0  0  0  0  0  0  0  0
  144.5612  141.5748  154.7907 O   0  0  0  0  0  0  0  0  0  0  0  0
  147.7180  142.4527  156.0765 N   0  3  0  0  0  0  0  0  0  0  0  0
  148.9300  141.7641  156.0208 C   0  0  0  0  0  0  0  0  0  0  0  0
  150.0414  141.8048  156.8569 C   0  0  0  0  0  0  0  0  0  0  0  0
  151.1214  140.9646  156.5149 C   0  0  0  0  0  0  0  0  0  0  0  0
  151.0703  140.1279  155.3809 C   0  0  0  0  0  0  0  0  0  0  0  0
  149.9381  140.0962  154.5399 C   0  0  0  0  0  0  0  0  0  0  0  0
  148.8754  140.9308  154.8851 C   0  0  0  0  0  0  0  0  0  0  0  0
  145.1018  137.1332  150.3142 H   0  0  0  0  0  0  0  0  0  0  0  0
  146.4481  136.0018  150.1328 H   0  0  0  0  0  0  0  0  0  0  0  0
  146.7567  137.7285  150.1374 H   0  0  0  0  0  0  0  0  0  0  0  0
  145.9967  135.5752  153.6783 H   0  0  0  0  0  0  0  0  0  0  0  0
  144.5395  136.0793  152.8671 H   0  0  0  0  0  0  0  0  0  0  0  0
  143.5380  134.4813  151.4346 H   0  0  0  0  0  0  0  0  0  0  0  0
  143.6599  132.4008  150.0838 H   0  0  0  0  0  0  0  0  0  0  0  0
  145.8437  131.2576  149.7480 H   0  0  0  0  0  0  0  0  0  0  0  0
  147.9105  132.2002  150.7625 H   0  0  0  0  0  0  0  0  0  0  0  0
  147.7990  134.2797  152.1122 H   0  0  0  0  0  0  0  0  0  0  0  0
  145.5864  138.9124  151.9341 H   0  0  0  0  0  0  0  0  0  0  0  0
  145.2537  138.1067  153.4440 H   0  0  0  0  0  0  0  0  0  0  0  0
  147.3656  138.6741  154.3264 H   0  0  0  0  0  0  0  0  0  0  0  0
  148.9549  139.0864  152.3173 H   0  0  0  0  0  0  0  0  0  0  0  0
  147.9459  140.7298  152.2932 H   0  0  0  0  0  0  0  0  0  0  0  0
  146.2664  140.7703  152.7653 H   0  0  0  0  0  0  0  0  0  0  0  0
  145.2872  143.3618  155.4625 H   0  0  0  0  0  0  0  0  0  0  0  0
  145.5337  143.0440  153.7529 H   0  0  0  0  0  0  0  0  0  0  0  0
  144.3590  141.3078  153.9066 H   0  0  0  0  0  0  0  0  0  0  0  0
  150.0820  142.4440  157.7269 H   0  0  0  0  0  0  0  0  0  0  0  0
  152.0057  140.9609  157.1358 H   0  0  0  0  0  0  0  0  0  0  0  0
  151.9167  139.4963  155.1524 H   0  0  0  0  0  0  0  0  0  0  0  0
  149.9094  139.4504  153.6749 H   0  0  0  0  0  0  0  0  0  0  0  0
  147.2967  136.7575  152.2194 H   0  0  0  0  0  0  0  0  0  0  0  0
  147.4419  143.1293  156.7769 H   0  0  0  0  0  0  0  0  0  0  0  0
  1  2  1  0  0  0  0
  1 25  1  0  0  0  0
  1 26  1  0  0  0  0
  1 27  1  0  0  0  0
  2  3  1  0  0  0  0
  2 10  1  0  0  0  0
  2 48  1  0  0  0  0
  3  4  1  0  0  0  0
  3 28  1  0  0  0  0
  3 29  1  0  0  0  0
  4  9  1  0  0  0  0
  4  5  2  0  0  0  0
  5  6  1  0  0  0  0
  5 30  1  0  0  0  0
  6  7  2  0  0  0  0
  6 31  1  0  0  0  0
  7  8  1  0  0  0  0
  7 32  1  0  0  0  0
  8  9  2  0  0  0  0
  8 33  1  0  0  0  0
  9 34  1  0  0  0  0
 10 11  1  0  0  0  0
 10 35  1  0  0  0  0
 10 36  1  0  0  0  0
 11 12  1  0  0  0  0
 11 13  1  0  0  0  0
 11 37  1  0  0  0  0
 12 38  1  0  0  0  0
 13 14  1  0  0  0  0
 13 39  1  0  0  0  0
 13 40  1  0  0  0  0
 14 24  1  0  0  0  0
 14 15  1  0  0  0  0
 15 16  1  0  0  0  0
 15 18  2  0  0  0  0
 16 17  1  0  0  0  0
 16 41  1  0  0  0  0
 16 42  1  0  0  0  0
 17 43  1  0  0  0  0
 18 19  1  0  0  0  0
 18 49  1  0  0  0  0
 19 24  2  0  0  0  0
 19 20  1  0  0  0  0
 20 21  2  0  0  0  0
 20 44  1  0  0  0  0
 21 22  1  0  0  0  0
 21 45  1  0  0  0  0
 22 23  2  0  0  0  0
 22 46  1  0  0  0  0
 23 24  1  0  0  0  0
 23 47  1  0  0  0  0
M  CHG  1   2   1
M  CHG  1  18   1
M  END
> <s_m_source_file>
AV-unprocessed.smi

> <i_m_source_file_index>
1669

> <i_lp_mmshare_version>
43012

> <i_f3d_flags>
0

> <s_epik_input>
W2NIXTFbY0hdW2NIXVtjSF1bY0hdYzFbQ0gyXU4oW0NIM10pW0NIMl1bQ0BIXShbT0hdKVtDSDJdbihjKG4yKVtDSDJdW09IXSljKGMyMylbY0hdW2NIXVtjSF1bY0hdMw==

> <s_epik_cmdline>
J2VwaWtfcHl0aG9uJywgJy1waCcsICc3LjAnLCAnLXRuJywgJzgnLCAnLW1hJywgJzIwMCcsICctbWV0YWxfYmluZGluZycsICctaW1hZScsICc8aW5maWxlLm1hZT4nLCAnLW9tYWUnLCAnPG91dGZpbGUubWFlPic=

> <r_epik_Ionization_Penalty>
1.57484

> <r_epik_Ionization_Penalty_Charging>
1.57398

> <r_epik_Ionization_Penalty_Neutral>
0.000858917

> <r_epik_State_Penalty>
1.64997

> <r_epik_Charging_Adjusted_Penalty>
3.22395

> <i_epik_Tot_Q>
2

> <i_epik_Tot_abs_Q>
2

> <r_epik_Metal_State_Penalty>
5.70481

> <b_epik_Metal_Only>
0

> <s_lp_Force_Field>
OPLS_2005

> <r_lp_Energy>
22.4556

> <b_lp_Chiralities_Consistent>
1

> <s_lp_Variant>
AV-unprocessed.smi:1669-10

> <Gold.Version>
5.8.1

> <Gold.Id.Protein>
6NUR|6NUR_protein|mol2

> <Gold.PLP.Fitness>
53.7952

> <Gold.PLP.PLP>
-45.3495

> <Gold.PLP.part.hbond>
-4.0064

> <Gold.PLP.part.metal>
0.0000

> <Gold.PLP.part.buried>
5.4445

> <Gold.PLP.part.nonpolar>
-45.9954

> <Gold.PLP.part.repulsive>
0.0871

> <Gold.PLP.ligand.clash>
0.0000

> <Gold.PLP.ligand.torsion>
2.0637

> <Gold.PLP.Chemscore.Hbond>
4.0000

> <Gold.PLP.Chemscore.CHOScore>
0.0000

> <Gold.PLP.Chemscore.Metal>
0.0000

> <Gold.Chemscore.Hbonds>
donor molecule, donor type, donor heavy atom, donor atom, acceptor molecule, acceptor atom, score
      L1  H     2    48       P1  7948  2.00
      L1  H    12    38       P1  7957  1.00
      L1  H    17    43       P1 10175  1.00

> <Gold.PLP.Chemscore.Internal.Correction>
0.5732

> <Gold.Rescore>
     Score         DG    S(hbond)    S(metal)    S(lipo)     H(rot)  DE(clash)    DE(int)     intcor
     15.31     -19.87       2.71        0.00     117.13       3.27       2.64       1.91       ----

> <Gold.Chemscore.Fitness>
15.3093

> <Gold.Chemscore.DG>
-19.8658

> <Gold.Chemscore.ZeroCoef>
-5.4800

> <Gold.Chemscore.Hbond>
2.7118

> <Gold.Chemscore.Metal>
0.0000

> <Gold.Chemscore.Lipo>
117.1293

> <Gold.Chemscore.Internal_Hbond>
0.0000

> <Gold.Chemscore.DEClash>
2.6442

> <Gold.Chemscore.DEInternal>
1.9123

> <Gold.Chemscore.Rot>
3.2718

> <Gold.Chemscore.Internal.Correction>
   9.000000E+99

> <Gold.Chemscore.Hbonds>
donor molecule, donor type, donor heavy atom, donor atom, acceptor molecule, acceptor atom, score
      L1  H     2    48       P1  7948  0.99
      L1  H    12    38       P1  7957  0.94
      L1  H    17    43       P1 10175  0.40

> <Gold.Chemscore.Hbond.Weighted>
-9.0576

> <Gold.Chemscore.Metal.Weighted>
-0.0000

> <Gold.Chemscore.Lipo.Weighted>
-13.7041

> <Gold.Chemscore.Internal_Hbond.Weighted>
0.0000

> <Gold.Chemscore.DEClash.Weighted>
2.6442

> <Gold.Chemscore.DEInternal.Weighted>
1.9123

> <Gold.Chemscore.Rot.Weighted>
8.3759

> <Gold.Chemscore.Internal.Correction.Weighted>
   9.000000E+99

> <Gold.Protein.RotatedTorsions>
[ 6907 6896 6895 6894 ] final  176.97 input  -60.11 | X-H torsion
[ 7974 7965 7964 7962 ] final -120.50 input  175.53 | X-H torsion
[ 8008 7997 7996 7995 ] final -138.99 input   59.86 | X-H torsion
[ 10167 10162 10161 10158 ] final   38.86 input  -65.29 | X-H torsion
[ 10718 10713 10712 10709 ] final   75.19 input   66.30 | X-H torsion
[ 10763 10752 10751 10750 ] final   71.25 input  -60.55 | X-H torsion
[ 11005 11000 10999 10996 ] final    6.51 input  -57.11 | X-H torsion

> <Gold.Protein.ActiveResidues>
 VAL166  LYS551  ARG553  GLY616  TRP617  ASP618  TYR619  PRO620  LYS621  CYS622 
 ASP623  PHE694  ASN695  SER759  ASP760  ASP761  ALA762  ILE779  LEU786  VAL792 
 PHE793  MET794  SER795  GLU796  ALA797  LYS798  CYS799  TRP800  GLU811  SER814 

> <Gold.Protein.RotatedAtoms>
  151.7115  133.3312  159.3291 H   0  0  0  0  0  0  0  0  0  0  0  0  # atno 6907 bound_to 6896
  150.7692  134.6528  159.6306 H   0  0  0  0  0  0  0  0  0  0  0  0  # atno 6908 bound_to 6896
  152.3708  134.6739  160.0228 H   0  0  0  0  0  0  0  0  0  0  0  0  # atno 6909 bound_to 6896
  145.0507  140.8216  143.4211 H   0  0  0  0  0  0  0  0  0  0  0  0  # atno 7974 bound_to 7965
  155.4375  140.0529  157.3013 H   0  0  0  0  0  0  0  0  0  0  0  0  # atno 8008 bound_to 7997
  154.4833  140.2090  155.9671 H   0  0  0  0  0  0  0  0  0  0  0  0  # atno 8009 bound_to 7997
  156.1237  140.3184  155.8251 H   0  0  0  0  0  0  0  0  0  0  0  0  # atno 8010 bound_to 7997
  140.3896  144.1870  150.6131 H   0  0  0  0  0  0  0  0  0  0  0  0  # atno 10167 bound_to 10162
  157.6624  130.9714  150.1319 H   0  0  0  0  0  0  0  0  0  0  0  0  # atno 10718 bound_to 10713
  153.0388  135.5144  154.7565 H   0  0  0  0  0  0  0  0  0  0  0  0  # atno 10763 bound_to 10752
  154.6519  135.2926  154.9978 H   0  0  0  0  0  0  0  0  0  0  0  0  # atno 10764 bound_to 10752
  154.0859  135.6657  153.4897 H   0  0  0  0  0  0  0  0  0  0  0  0  # atno 10765 bound_to 10752
  140.5587  134.0213  155.7963 H   0  0  0  0  0  0  0  0  0  0  0  0  # atno 11005 bound_to 11000
  145.1531  139.2502  143.5430 LP  0  0  0  0  0  0  0  0  0  0  0  0  # atno 17320 bound_to 7965
  146.3517  140.1239  142.8599 LP  0  0  0  0  0  0  0  0  0  0  0  0  # atno 17321 bound_to 7965
  140.4853  143.2365  151.8896 LP  0  0  0  0  0  0  0  0  0  0  0  0  # atno 17342 bound_to 10162
  139.4790  144.5225  151.8782 LP  0  0  0  0  0  0  0  0  0  0  0  0  # atno 17343 bound_to 10162
  156.2163  130.3670  149.8609 LP  0  0  0  0  0  0  0  0  0  0  0  0  # atno 17370 bound_to 10713
  156.6474  130.8729  151.3525 LP  0  0  0  0  0  0  0  0  0  0  0  0  # atno 17371 bound_to 10713
  141.1128  133.9589  157.2879 LP  0  0  0  0  0  0  0  0  0  0  0  0  # atno 17394 bound_to 11000
  139.9419  135.0190  156.8733 LP  0  0  0  0  0  0  0  0  0  0  0  0  # atno 17395 bound_to 11000

$$$$
