AV-unprocessed.smi:1|AV-procd|sdf|17|dock2
  -GOLD-   2262015113D 1   1.00000     0.00000
 Structure written by MMmdl.
 56 61  0  0  0  0  0  0  0  0  2 V2000
  150.3122  131.5137  155.1836 O   0  0  0  0  0  0  0  0  0  0  0  0
  149.3424  131.6611  154.4366 C   0  0  0  0  0  0  0  0  0  0  0  0
  148.6962  132.8142  154.1277 N   0  5  0  0  0  0  0  0  0  0  0  0
  149.0572  133.9601  154.7248 C   0  0  0  0  0  0  0  0  0  0  0  0
  150.2468  134.0531  155.3730 N   0  0  0  0  0  0  0  0  0  0  0  0
  150.6080  135.1986  155.9635 C   0  0  0  0  0  0  0  0  0  0  0  0
  149.9421  136.3558  156.0326 N   0  0  0  0  0  0  0  0  0  0  0  0
  148.7390  136.2683  155.3947 C   0  0  0  0  0  0  0  0  0  0  0  0
  148.2301  135.1165  154.7290 C   0  0  0  0  0  0  0  0  0  0  0  0
  146.9772  135.3743  154.1925 N   0  0  0  0  0  0  0  0  0  0  0  0
  146.7899  136.6452  154.5433 C   0  0  0  0  0  0  0  0  0  0  0  0
  147.7759  137.2486  155.2409 N   0  0  0  0  0  0  0  0  0  0  0  0
  147.8653  138.6542  155.7514 C   0  0  2  0  0  0  0  0  0  0  0  0
  149.1103  139.1806  155.4028 O   0  0  0  0  0  0  0  0  0  0  0  0
  149.9934  139.1169  156.5160 C   0  0  1  0  0  0  0  0  0  0  0  0
  151.1186  140.1438  156.3601 C   0  0  0  0  0  0  0  0  0  0  0  0
  151.4467  140.6736  157.6337 O   0  0  0  0  0  0  0  0  0  0  0  0
  152.5743  140.2788  158.2555 C   0  0  0  0  0  0  0  0  0  0  0  0
  153.2932  139.3643  157.8473 O   0  0  0  0  0  0  0  0  0  0  0  0
  152.8622  141.0619  159.4917 C   0  0  0  0  0  0  0  0  0  0  0  0
  153.7578  140.5348  160.4514 C   0  0  0  0  0  0  0  0  0  0  0  0
  154.0483  141.2489  161.6300 C   0  0  0  0  0  0  0  0  0  0  0  0
  153.4464  142.4990  161.8636 C   0  0  0  0  0  0  0  0  0  0  0  0
  152.5539  143.0344  160.9167 C   0  0  0  0  0  0  0  0  0  0  0  0
  152.2624  142.3221  159.7367 C   0  0  0  0  0  0  0  0  0  0  0  0
  149.0676  139.4063  157.6973 C   0  0  2  0  0  0  0  0  0  0  0  0
  149.5498  138.8320  158.8991 O   0  0  0  0  0  0  0  0  0  0  0  0
  148.8649  137.3200  159.0881 S   0  0  0  0  0  0  0  0  0  0  0  0
  149.8682  136.3104  158.7171 O   0  0  0  0  0  0  0  0  0  0  0  0
  148.1540  137.2952  160.3752 O   0  0  0  0  0  0  0  0  0  0  0  0
  147.7339  137.4034  157.8637 O   0  0  0  0  0  0  0  0  0  0  0  0
  147.7644  138.7030  157.2899 C   0  0  2  0  0  0  0  0  0  0  0  0
  148.7167  130.4424  153.8130 C   0  0  0  0  0  0  0  0  0  0  0  0
  149.4413  129.2295  153.7660 C   0  0  0  0  0  0  0  0  0  0  0  0
  148.8850  128.0857  153.1609 C   0  0  0  0  0  0  0  0  0  0  0  0
  147.6009  128.1452  152.5877 C   0  0  0  0  0  0  0  0  0  0  0  0
  146.8749  129.3505  152.6172 C   0  0  0  0  0  0  0  0  0  0  0  0
  147.4304  130.4946  153.2224 C   0  0  0  0  0  0  0  0  0  0  0  0
  151.5714  135.1862  156.4513 H   0  0  0  0  0  0  0  0  0  0  0  0
  145.8826  137.1629  154.2708 H   0  0  0  0  0  0  0  0  0  0  0  0
  147.0646  139.1868  155.2367 H   0  0  0  0  0  0  0  0  0  0  0  0
  150.4022  138.1089  156.6011 H   0  0  0  0  0  0  0  0  0  0  0  0
  151.9921  139.6848  155.8947 H   0  0  0  0  0  0  0  0  0  0  0  0
  150.7894  140.9585  155.7138 H   0  0  0  0  0  0  0  0  0  0  0  0
  154.2311  139.5761  160.2947 H   0  0  0  0  0  0  0  0  0  0  0  0
  154.7333  140.8361  162.3556 H   0  0  0  0  0  0  0  0  0  0  0  0
  153.6689  143.0460  162.7680 H   0  0  0  0  0  0  0  0  0  0  0  0
  152.0914  143.9939  161.0956 H   0  0  0  0  0  0  0  0  0  0  0  0
  151.5735  142.7622  159.0306 H   0  0  0  0  0  0  0  0  0  0  0  0
  148.9015  140.4782  157.8119 H   0  0  0  0  0  0  0  0  0  0  0  0
  146.8812  139.2644  157.5958 H   0  0  0  0  0  0  0  0  0  0  0  0
  150.4293  129.1681  154.1996 H   0  0  0  0  0  0  0  0  0  0  0  0
  149.4458  127.1632  153.1354 H   0  0  0  0  0  0  0  0  0  0  0  0
  147.1746  127.2687  152.1229 H   0  0  0  0  0  0  0  0  0  0  0  0
  145.8919  129.3997  152.1726 H   0  0  0  0  0  0  0  0  0  0  0  0
  146.8612  131.4131  153.2245 H   0  0  0  0  0  0  0  0  0  0  0  0
  1  2  2  0  0  0  0
  2  3  1  0  0  0  0
  2 33  1  0  0  0  0
  3  4  1  0  0  0  0
  4  9  1  0  0  0  0
  4  5  2  0  0  0  0
  5  6  1  0  0  0  0
  6  7  2  0  0  0  0
  6 39  1  0  0  0  0
  7  8  1  0  0  0  0
  8 12  1  0  0  0  0
  8  9  2  0  0  0  0
  9 10  1  0  0  0  0
 10 11  2  0  0  0  0
 11 12  1  0  0  0  0
 11 40  1  0  0  0  0
 12 13  1  0  0  0  0
 13 32  1  0  0  0  0
 13 14  1  0  0  0  0
 13 41  1  0  0  0  0
 14 15  1  0  0  0  0
 15 16  1  0  0  0  0
 15 26  1  0  0  0  0
 15 42  1  0  0  0  0
 16 17  1  0  0  0  0
 16 43  1  0  0  0  0
 16 44  1  0  0  0  0
 17 18  1  0  0  0  0
 18 19  2  0  0  0  0
 18 20  1  0  0  0  0
 20 25  1  0  0  0  0
 20 21  2  0  0  0  0
 21 22  1  0  0  0  0
 21 45  1  0  0  0  0
 22 23  2  0  0  0  0
 22 46  1  0  0  0  0
 23 24  1  0  0  0  0
 23 47  1  0  0  0  0
 24 25  2  0  0  0  0
 24 48  1  0  0  0  0
 25 49  1  0  0  0  0
 26 32  1  0  0  0  0
 26 27  1  0  0  0  0
 26 50  1  0  0  0  0
 27 28  1  0  0  0  0
 28 29  2  0  0  0  0
 28 30  2  0  0  0  0
 28 31  1  0  0  0  0
 31 32  1  0  0  0  0
 32 51  1  0  0  0  0
 33 38  1  0  0  0  0
 33 34  2  0  0  0  0
 34 35  1  0  0  0  0
 34 52  1  0  0  0  0
 35 36  2  0  0  0  0
 35 53  1  0  0  0  0
 36 37  1  0  0  0  0
 36 54  1  0  0  0  0
 37 38  2  0  0  0  0
 37 55  1  0  0  0  0
 38 56  1  0  0  0  0
M  CHG  1   3  -1
M  END
> <s_m_source_file>
AV-unprocessed.smi

> <i_m_source_file_index>
1

> <i_lp_mmshare_version>
43012

> <i_f3d_flags>
0

> <s_epik_input>
W2NIXTFbY0hdW2NIXVtjSF1bY0hdYzFDKD1PKVtOSF1jKG5bY0hdbjIpYyhjMjMpbltjSF1uM1tDQEBIXShbQ0BIXShbQ0BIXTQ1KU9TKE81KSg9Tyk9TylPW0NASF00W0NIMl1PQyg9TyljNltjSF1bY0hdW2NIXVtjSF1bY0hdNg==

> <s_epik_cmdline>
J2VwaWtfcHl0aG9uJywgJy1waCcsICc3LjAnLCAnLXRuJywgJzgnLCAnLW1hJywgJzIwMCcsICctbWV0YWxfYmluZGluZycsICctaW1hZScsICc8aW5maWxlLm1hZT4nLCAnLW9tYWUnLCAnPG91dGZpbGUubWFlPic=

> <r_lp_tautomer_probability>
1

> <r_epik_Ionization_Penalty>
4.39121

> <r_epik_Ionization_Penalty_Charging>
3.39398

> <r_epik_Ionization_Penalty_Neutral>
0.997232

> <r_epik_State_Penalty>
3.39839

> <r_epik_Charging_Adjusted_Penalty>
6.79237

> <i_epik_Tot_Q>
-1

> <i_epik_Tot_abs_Q>
1

> <r_epik_Metal_State_Penalty>
0.497663

> <b_epik_Metal_Only>
1

> <s_epik_Chemistry_Notes>
This compound has an ester and may undergo hydrolysis at high or low pH. This compound contains an acetal/aminal-like group ( X-CH(R)-Y where X, Y are N, S, or O) that may be acid/base labile, releasing an aldehyde.

> <s_lp_Force_Field>
OPLS_2005

> <r_lp_Energy>
42.9132

> <b_lp_Chiralities_Consistent>
1

> <s_lp_Variant>
AV-unprocessed.smi:1-17

> <Gold.Version>
5.8.1

> <Gold.Id.Protein>
6NUR|6NUR_protein|mol2

> <Gold.PLP.Fitness>
59.7197

> <Gold.PLP.PLP>
-52.2319

> <Gold.PLP.part.hbond>
-5.5086

> <Gold.PLP.part.metal>
0.0000

> <Gold.PLP.part.buried>
-6.8980

> <Gold.PLP.part.nonpolar>
-39.6938

> <Gold.PLP.part.repulsive>
0.3530

> <Gold.PLP.ligand.clash>
0.0000

> <Gold.PLP.ligand.torsion>
1.3648

> <Gold.PLP.Chemscore.Hbond>
3.2498

> <Gold.PLP.Chemscore.CHOScore>
0.0000

> <Gold.PLP.Chemscore.Metal>
0.0000

> <Gold.Chemscore.Hbonds>
donor molecule, donor type, donor heavy atom, donor atom, acceptor molecule, acceptor atom, score
      P1  H  6896  6907       L1    29  1.00
      P1  H  6931  6943       L1    30  0.67
      P1  H  6934  6947       L1    30  0.63
      P1  H  7997  8010       L1    19  1.00

> <Gold.PLP.Chemscore.Internal.Correction>
0.4679

> <Gold.Rescore>
     Score         DG    S(hbond)    S(metal)    S(lipo)     H(rot)  DE(clash)    DE(int)     intcor
     13.04     -22.64       3.13        0.00     103.42       2.11       0.09       9.51       ----

> <Gold.Chemscore.Fitness>
13.0352

> <Gold.Chemscore.DG>
-22.6379

> <Gold.Chemscore.ZeroCoef>
-5.4800

> <Gold.Chemscore.Hbond>
3.1342

> <Gold.Chemscore.Metal>
0.0000

> <Gold.Chemscore.Lipo>
103.4224

> <Gold.Chemscore.Internal_Hbond>
0.0000

> <Gold.Chemscore.DEClash>
0.0896

> <Gold.Chemscore.DEInternal>
9.5131

> <Gold.Chemscore.Rot>
2.1136

> <Gold.Chemscore.Internal.Correction>
   9.000000E+99

> <Gold.Chemscore.Hbonds>
donor molecule, donor type, donor heavy atom, donor atom, acceptor molecule, acceptor atom, score
      P1  H  6896  6907       L1    29  0.96
      P1  H  6931  6943       L1    30  0.59
      P1  H  6934  6947       L1    30  0.56
      P1  H  7997  8010       L1    19  0.65

> <Gold.Chemscore.Hbond.Weighted>
-10.4683

> <Gold.Chemscore.Metal.Weighted>
-0.0000

> <Gold.Chemscore.Lipo.Weighted>
-12.1004

> <Gold.Chemscore.Internal_Hbond.Weighted>
0.0000

> <Gold.Chemscore.DEClash.Weighted>
0.0896

> <Gold.Chemscore.DEInternal.Weighted>
9.5131

> <Gold.Chemscore.Rot.Weighted>
5.4107

> <Gold.Chemscore.Internal.Correction.Weighted>
   9.000000E+99

> <Gold.Protein.RotatedTorsions>
[ 6907 6896 6895 6894 ] final  -54.62 input  -60.11 | X-H torsion
[ 7974 7965 7964 7962 ] final  -99.96 input  175.53 | X-H torsion
[ 8008 7997 7996 7995 ] final   44.65 input   59.86 | X-H torsion
[ 10167 10162 10161 10158 ] final  -62.82 input  -65.29 | X-H torsion
[ 10718 10713 10712 10709 ] final  -71.21 input   66.30 | X-H torsion
[ 10763 10752 10751 10750 ] final  -55.26 input  -60.55 | X-H torsion
[ 11005 11000 10999 10996 ] final  -52.58 input  -57.11 | X-H torsion

> <Gold.Protein.ActiveResidues>
 VAL166  LYS551  ARG553  GLY616  TRP617  ASP618  TYR619  PRO620  LYS621  CYS622 
 ASP623  PHE694  ASN695  SER759  ASP760  ASP761  ALA762  ILE779  LEU786  VAL792 
 PHE793  MET794  SER795  GLU796  ALA797  LYS798  CYS799  TRP800  GLU811  SER814 

> <Gold.Protein.RotatedAtoms>
  150.8322  134.7580  159.6862 H   0  0  0  0  0  0  0  0  0  0  0  0  # atno 6907 bound_to 6896
  152.4425  134.5559  159.9890 H   0  0  0  0  0  0  0  0  0  0  0  0  # atno 6908 bound_to 6896
  151.5718  133.3351  159.3027 H   0  0  0  0  0  0  0  0  0  0  0  0  # atno 6909 bound_to 6896
  145.3008  140.9377  143.2825 H   0  0  0  0  0  0  0  0  0  0  0  0  # atno 7974 bound_to 7965
  155.3228  140.3398  155.4241 H   0  0  0  0  0  0  0  0  0  0  0  0  # atno 8008 bound_to 7997
  156.1900  140.1694  156.8147 H   0  0  0  0  0  0  0  0  0  0  0  0  # atno 8009 bound_to 7997
  154.5431  140.0721  156.8527 H   0  0  0  0  0  0  0  0  0  0  0  0  # atno 8010 bound_to 7997
  140.5913  143.2342  151.6133 H   0  0  0  0  0  0  0  0  0  0  0  0  # atno 10167 bound_to 10162
  156.0373  130.4347  150.2409 H   0  0  0  0  0  0  0  0  0  0  0  0  # atno 10718 bound_to 10713
  154.1880  135.6432  153.5052 H   0  0  0  0  0  0  0  0  0  0  0  0  # atno 10763 bound_to 10752
  153.0042  135.5422  154.6445 H   0  0  0  0  0  0  0  0  0  0  0  0  # atno 10764 bound_to 10752
  154.5826  135.2926  155.0690 H   0  0  0  0  0  0  0  0  0  0  0  0  # atno 10765 bound_to 10752
  141.0932  133.6629  156.4046 H   0  0  0  0  0  0  0  0  0  0  0  0  # atno 11005 bound_to 11000
  144.9095  139.4546  143.6594 LP  0  0  0  0  0  0  0  0  0  0  0  0  # atno 17320 bound_to 7965
  146.3153  139.7895  142.8988 LP  0  0  0  0  0  0  0  0  0  0  0  0  # atno 17321 bound_to 7965
  139.5229  144.3148  152.0962 LP  0  0  0  0  0  0  0  0  0  0  0  0  # atno 17342 bound_to 10162
  140.2313  144.4365  150.6299 LP  0  0  0  0  0  0  0  0  0  0  0  0  # atno 17343 bound_to 10162
  157.0508  131.0062  151.3254 LP  0  0  0  0  0  0  0  0  0  0  0  0  # atno 17370 bound_to 10713
  157.5142  130.7957  149.7738 LP  0  0  0  0  0  0  0  0  0  0  0  0  # atno 17371 bound_to 10713
  140.5203  134.6311  157.5315 LP  0  0  0  0  0  0  0  0  0  0  0  0  # atno 17394 bound_to 11000
  139.9762  134.7211  155.9945 LP  0  0  0  0  0  0  0  0  0  0  0  0  # atno 17395 bound_to 11000

$$$$
