AV-unprocessed.smi:191|AV-procd|sdf|1493|dock1
  -GOLD-   2262019313D 1   1.00000     0.00000
 Structure written by MMmdl.
 46 48  0  0  0  0  0  0  0  0  1 V2000
  147.7763  133.1145  158.3511 C   0  0  0  0  0  0  0  0  0  0  0  0
  146.5583  133.9010  158.8527 C   0  0  0  0  0  0  0  0  0  0  0  0
  146.9363  135.1056  159.5877 N   0  0  0  0  0  0  0  0  0  0  0  0
  147.8480  134.9339  160.7194 C   0  0  0  0  0  0  0  0  0  0  0  0
  147.3530  135.5972  162.0201 C   0  0  2  0  0  0  0  0  0  0  0  0
  146.3163  134.7180  162.7288 C   0  0  0  0  0  0  0  0  0  0  0  0
  146.8092  136.9425  161.7697 C   0  0  0  0  0  0  0  0  0  0  0  0
  146.3818  137.9994  161.5733 N   0  0  0  0  0  0  0  0  0  0  0  0
  147.2787  136.1179  158.7616 C   0  0  0  0  0  0  0  0  0  0  0  0
  146.2826  136.7159  158.0640 N   0  0  0  0  0  0  0  0  0  0  0  0
  146.5637  137.7243  157.2332 C   0  0  0  0  0  0  0  0  0  0  0  0
  147.7487  138.2752  156.9596 N   0  0  0  0  0  0  0  0  0  0  0  0
  148.7520  137.6747  157.6618 C   0  0  0  0  0  0  0  0  0  0  0  0
  148.6066  136.5944  158.5768 C   0  0  0  0  0  0  0  0  0  0  0  0
  149.8452  136.2401  159.0965 N   0  0  0  0  0  0  0  0  0  0  0  0
  150.6775  137.0614  158.5171 C   0  0  0  0  0  0  0  0  0  0  0  0
  150.1055  137.9643  157.6483 N   0  0  0  0  0  0  0  0  0  0  0  0
  150.8009  138.9832  156.8762 C   0  0  0  0  0  0  0  0  0  0  0  0
  150.9054  138.6753  155.3676 C   0  0  0  0  0  0  0  0  0  0  0  0
  149.8062  139.4090  154.5794 C   0  0  0  0  0  0  0  0  0  0  0  0
  149.6646  138.8808  153.2760 O   0  0  0  0  0  0  0  0  0  0  0  0
  152.3120  138.7830  154.7622 C   0  0  0  0  0  0  0  0  0  0  0  0
  152.2138  137.4750  154.1599 O   0  0  0  0  0  0  0  0  0  0  0  0
  151.0685  137.1951  154.9924 C   0  0  0  0  0  0  0  0  0  0  0  0
  147.4610  132.1974  157.8535 H   0  0  0  0  0  0  0  0  0  0  0  0
  148.4297  132.8343  159.1780 H   0  0  0  0  0  0  0  0  0  0  0  0
  148.3653  133.6876  157.6354 H   0  0  0  0  0  0  0  0  0  0  0  0
  145.9261  134.1774  158.0079 H   0  0  0  0  0  0  0  0  0  0  0  0
  145.9588  133.2480  159.4896 H   0  0  0  0  0  0  0  0  0  0  0  0
  147.9926  133.8696  160.9023 H   0  0  0  0  0  0  0  0  0  0  0  0
  148.8281  135.3304  160.4520 H   0  0  0  0  0  0  0  0  0  0  0  0
  148.1918  135.7304  162.7036 H   0  0  0  0  0  0  0  0  0  0  0  0
  145.9873  135.1775  163.6612 H   0  0  0  0  0  0  0  0  0  0  0  0
  146.7308  133.7388  162.9703 H   0  0  0  0  0  0  0  0  0  0  0  0
  145.4357  134.5644  162.1044 H   0  0  0  0  0  0  0  0  0  0  0  0
  145.7184  138.1505  156.7133 H   0  0  0  0  0  0  0  0  0  0  0  0
  151.7395  137.0358  158.7143 H   0  0  0  0  0  0  0  0  0  0  0  0
  150.2930  139.9352  157.0355 H   0  0  0  0  0  0  0  0  0  0  0  0
  151.7933  139.1094  157.3106 H   0  0  0  0  0  0  0  0  0  0  0  0
  148.8442  139.3105  155.0839 H   0  0  0  0  0  0  0  0  0  0  0  0
  150.0017  140.4793  154.5146 H   0  0  0  0  0  0  0  0  0  0  0  0
  149.9219  139.5439  152.6532 H   0  0  0  0  0  0  0  0  0  0  0  0
  152.4219  139.5787  154.0244 H   0  0  0  0  0  0  0  0  0  0  0  0
  153.1115  138.8274  155.5040 H   0  0  0  0  0  0  0  0  0  0  0  0
  151.3343  136.5467  155.8284 H   0  0  0  0  0  0  0  0  0  0  0  0
  150.2292  136.7824  154.4313 H   0  0  0  0  0  0  0  0  0  0  0  0
  1  2  1  0  0  0  0
  1 25  1  0  0  0  0
  1 26  1  0  0  0  0
  1 27  1  0  0  0  0
  2  3  1  0  0  0  0
  2 28  1  0  0  0  0
  2 29  1  0  0  0  0
  3  4  1  0  0  0  0
  3  9  1  0  0  0  0
  4  5  1  0  0  0  0
  4 30  1  0  0  0  0
  4 31  1  0  0  0  0
  5  6  1  0  0  0  0
  5  7  1  0  0  0  0
  5 32  1  0  0  0  0
  6 33  1  0  0  0  0
  6 34  1  0  0  0  0
  6 35  1  0  0  0  0
  7  8  3  0  0  0  0
  9 14  1  0  0  0  0
  9 10  2  0  0  0  0
 10 11  1  0  0  0  0
 11 12  2  0  0  0  0
 11 36  1  0  0  0  0
 12 13  1  0  0  0  0
 13 17  1  0  0  0  0
 13 14  2  0  0  0  0
 14 15  1  0  0  0  0
 15 16  2  0  0  0  0
 16 17  1  0  0  0  0
 16 37  1  0  0  0  0
 17 18  1  0  0  0  0
 18 19  1  0  0  0  0
 18 38  1  0  0  0  0
 18 39  1  0  0  0  0
 19 24  1  0  0  0  0
 19 20  1  0  0  0  0
 19 22  1  0  0  0  0
 20 21  1  0  0  0  0
 20 40  1  0  0  0  0
 20 41  1  0  0  0  0
 21 42  1  0  0  0  0
 22 23  1  0  0  0  0
 22 43  1  0  0  0  0
 22 44  1  0  0  0  0
 23 24  1  0  0  0  0
 24 45  1  0  0  0  0
 24 46  1  0  0  0  0
M  END
> <s_m_source_file>
AV-unprocessed.smi

> <i_m_source_file_index>
191

> <i_lp_mmshare_version>
43012

> <i_f3d_flags>
0

> <s_epik_input>
TiNDW0NAQEhdKFtDSDNdKVtDSDJdTihbQ0gyXVtDSDNdKWMobltjSF1uMSljKGMxMiluW2NIXW4yW0NIMl1DMyhbQ0gyXVtPSF0pW0NIMl1PW0NIMl0z

> <s_epik_cmdline>
J2VwaWtfcHl0aG9uJywgJy1waCcsICc3LjAnLCAnLXRuJywgJzgnLCAnLW1hJywgJzIwMCcsICctbWV0YWxfYmluZGluZycsICctaW1hZScsICc8aW5maWxlLm1hZT4nLCAnLW9tYWUnLCAnPG91dGZpbGUubWFlPic=

> <r_lp_tautomer_probability>
1

> <r_epik_Ionization_Penalty>
0.000569684

> <r_epik_Ionization_Penalty_Charging>
0

> <r_epik_Ionization_Penalty_Neutral>
0.000569684

> <r_epik_State_Penalty>
0.000286009

> <r_epik_Charging_Adjusted_Penalty>
0.000286009

> <i_epik_Tot_Q>
0

> <i_epik_Tot_abs_Q>
0

> <r_epik_Metal_State_Penalty>
-0

> <b_epik_Metal_Only>
0

> <s_lp_Force_Field>
OPLS_2005

> <r_lp_Energy>
28.3961

> <b_lp_Chiralities_Consistent>
1

> <s_lp_Variant>
AV-unprocessed.smi:191-1

> <Gold.Version>
5.8.1

> <Gold.Id.Protein>
6NUR|6NUR_protein|mol2

> <Gold.PLP.Fitness>
40.1810

> <Gold.PLP.PLP>
-32.9044

> <Gold.PLP.part.hbond>
-4.4016

> <Gold.PLP.part.metal>
0.0000

> <Gold.PLP.part.buried>
-4.9005

> <Gold.PLP.part.nonpolar>
-23.0930

> <Gold.PLP.part.repulsive>
0.1597

> <Gold.PLP.ligand.clash>
0.0000

> <Gold.PLP.ligand.torsion>
2.4961

> <Gold.PLP.Chemscore.Hbond>
3.7440

> <Gold.PLP.Chemscore.CHOScore>
0.0000

> <Gold.PLP.Chemscore.Metal>
0.0000

> <Gold.Chemscore.Hbonds>
donor molecule, donor type, donor heavy atom, donor atom, acceptor molecule, acceptor atom, score
      L1  H    21    42       P1  7957  0.82
      P1  H  6896  6909       L1    15  1.00
      P1  H  6934  6947       L1     8  0.65
      P1  H 10752 10765       L1    23  0.80

> <Gold.PLP.Chemscore.Internal.Correction>
1.0368

> <Gold.Rescore>
     Score         DG    S(hbond)    S(metal)    S(lipo)     H(rot)  DE(clash)    DE(int)     intcor
     11.42     -16.01       3.58        0.00      62.89       3.43       0.30       4.29       ----

> <Gold.Chemscore.Fitness>
11.4184

> <Gold.Chemscore.DG>
-16.0086

> <Gold.Chemscore.ZeroCoef>
-5.4800

> <Gold.Chemscore.Hbond>
3.5784

> <Gold.Chemscore.Metal>
0.0000

> <Gold.Chemscore.Lipo>
62.8918

> <Gold.Chemscore.Internal_Hbond>
0.0000

> <Gold.Chemscore.DEClash>
0.3023

> <Gold.Chemscore.DEInternal>
4.2880

> <Gold.Chemscore.Rot>
3.4303

> <Gold.Chemscore.Internal.Correction>
   9.000000E+99

> <Gold.Chemscore.Hbonds>
donor molecule, donor type, donor heavy atom, donor atom, acceptor molecule, acceptor atom, score
      L1  H    21    42       P1  7957  0.79
      P1  H  6896  6909       L1    15  0.55
      P1  H  6934  6947       L1     8  0.61
      P1  H 10752 10765       L1    23  0.27

> <Gold.Chemscore.Hbond.Weighted>
-11.9520

> <Gold.Chemscore.Metal.Weighted>
-0.0000

> <Gold.Chemscore.Lipo.Weighted>
-7.3583

> <Gold.Chemscore.Internal_Hbond.Weighted>
0.0000

> <Gold.Chemscore.DEClash.Weighted>
0.3023

> <Gold.Chemscore.DEInternal.Weighted>
4.2880

> <Gold.Chemscore.Rot.Weighted>
8.7817

> <Gold.Chemscore.Internal.Correction.Weighted>
   9.000000E+99

> <Gold.Protein.RotatedTorsions>
[ 6907 6896 6895 6894 ] final   69.27 input  -60.11 | X-H torsion
[ 7974 7965 7964 7962 ] final   59.95 input  175.53 | X-H torsion
[ 8008 7997 7996 7995 ] final  -22.80 input   59.86 | X-H torsion
[ 10167 10162 10161 10158 ] final -175.21 input  -65.29 | X-H torsion
[ 10718 10713 10712 10709 ] final -139.64 input   66.30 | X-H torsion
[ 10763 10752 10751 10750 ] final  143.62 input  -60.55 | X-H torsion
[ 11005 11000 10999 10996 ] final  -48.14 input  -57.11 | X-H torsion

> <Gold.Protein.ActiveResidues>
 VAL166  LYS551  ARG553  GLY616  TRP617  ASP618  TYR619  PRO620  LYS621  CYS622 
 ASP623  PHE694  ASN695  SER759  ASP760  ASP761  ALA762  ILE779  LEU786  VAL792 
 PHE793  MET794  SER795  GLU796  ALA797  LYS798  CYS799  TRP800  GLU811  SER814 

> <Gold.Protein.RotatedAtoms>
  152.4675  134.5040  159.9733 H   0  0  0  0  0  0  0  0  0  0  0  0  # atno 6907 bound_to 6896
  151.5074  133.3486  159.2887 H   0  0  0  0  0  0  0  0  0  0  0  0  # atno 6908 bound_to 6896
  150.8667  134.8061  159.7186 H   0  0  0  0  0  0  0  0  0  0  0  0  # atno 6909 bound_to 6896
  145.9015  139.3585  143.0590 H   0  0  0  0  0  0  0  0  0  0  0  0  # atno 7974 bound_to 7965
  154.4622  140.1998  156.0213 H   0  0  0  0  0  0  0  0  0  0  0  0  # atno 8008 bound_to 7997
  156.0862  140.3264  155.7728 H   0  0  0  0  0  0  0  0  0  0  0  0  # atno 8009 bound_to 7997
  155.5032  140.0555  157.2926 H   0  0  0  0  0  0  0  0  0  0  0  0  # atno 8010 bound_to 7997
  139.5593  144.1911  152.1211 H   0  0  0  0  0  0  0  0  0  0  0  0  # atno 10167 bound_to 10162
  156.3131  130.7493  151.1573 H   0  0  0  0  0  0  0  0  0  0  0  0  # atno 10718 bound_to 10713
  153.9753  135.2946  155.3424 H   0  0  0  0  0  0  0  0  0  0  0  0  # atno 10763 bound_to 10752
  154.7299  135.5072  153.8950 H   0  0  0  0  0  0  0  0  0  0  0  0  # atno 10764 bound_to 10752
  153.0880  135.6699  154.0023 H   0  0  0  0  0  0  0  0  0  0  0  0  # atno 10765 bound_to 10752
  141.0683  133.6687  156.3398 H   0  0  0  0  0  0  0  0  0  0  0  0  # atno 11005 bound_to 11000
  145.8785  140.9377  143.0613 LP  0  0  0  0  0  0  0  0  0  0  0  0  # atno 17320 bound_to 7965
  144.6736  140.0749  143.7471 LP  0  0  0  0  0  0  0  0  0  0  0  0  # atno 17321 bound_to 7965
  140.1421  144.5192  150.6738 LP  0  0  0  0  0  0  0  0  0  0  0  0  # atno 17342 bound_to 10162
  140.6870  143.2355  151.5233 LP  0  0  0  0  0  0  0  0  0  0  0  0  # atno 17343 bound_to 10162
  157.7395  131.0528  150.5225 LP  0  0  0  0  0  0  0  0  0  0  0  0  # atno 17370 bound_to 10713
  156.5367  130.4198  149.6174 LP  0  0  0  0  0  0  0  0  0  0  0  0  # atno 17371 bound_to 10713
  140.5728  134.5824  157.5461 LP  0  0  0  0  0  0  0  0  0  0  0  0  # atno 17394 bound_to 11000
  139.9498  134.7638  156.0476 LP  0  0  0  0  0  0  0  0  0  0  0  0  # atno 17395 bound_to 11000

$$$$
