AV-unprocessed.smi:3032|AV-procd|sdf|11559|dock7
  -GOLD-   2272016523D 1   1.00000     0.00000
 Structure written by MMmdl.
 37 38  0  0  0  0  0  0  0  0  1 V2000
  152.7381  142.8968  161.7785 C   0  0  0  0  0  0  0  0  0  0  0  0
  152.6875  143.2174  160.2779 C   0  0  2  0  0  0  0  0  0  0  0  0
  152.2452  144.6722  160.0274 C   0  0  0  0  0  0  0  0  0  0  0  0
  152.1889  144.9940  158.5259 C   0  0  0  0  0  0  0  0  0  0  0  0
  151.2749  144.0102  157.7792 C   0  0  0  0  0  0  0  0  0  0  0  0
  151.7177  142.5508  158.0116 C   0  0  2  0  0  0  0  0  0  0  0  0
  150.7873  141.5782  157.2752 C   0  0  0  0  0  0  0  0  0  0  0  0
  150.9343  140.3618  157.3986 O   0  0  0  0  0  0  0  0  0  0  0  0
  149.8214  142.1282  156.5239 N   0  0  0  0  0  0  0  0  0  0  0  0
  148.7991  141.3856  155.7920 C   0  0  0  0  0  0  0  0  0  0  0  0
  149.3183  140.7939  154.4656 C   0  0  0  0  0  0  0  0  0  0  0  0
  150.2209  139.6136  154.6427 C   0  0  0  0  0  0  0  0  0  0  0  0
  149.7610  138.4102  154.9922 N   0  0  0  0  0  0  0  0  0  0  0  0
  150.7904  137.5398  155.0521 N   0  0  0  0  0  0  0  0  0  0  0  0
  151.8261  138.3108  154.7255 C   0  0  0  0  0  0  0  0  0  0  0  0
  151.5362  139.6192  154.4553 N   0  0  0  0  0  0  0  0  0  0  0  0
  151.7673  142.2379  159.5227 C   0  0  0  0  0  0  0  0  0  0  0  0
  148.8040  138.1489  155.1833 H   0  0  0  0  0  0  0  0  0  0  0  0
  151.7548  142.9967  162.2390 H   0  0  0  0  0  0  0  0  0  0  0  0
  153.4200  143.5685  162.3006 H   0  0  0  0  0  0  0  0  0  0  0  0
  153.0846  141.8773  161.9507 H   0  0  0  0  0  0  0  0  0  0  0  0
  153.6983  143.1009  159.8841 H   0  0  0  0  0  0  0  0  0  0  0  0
  151.2630  144.8406  160.4717 H   0  0  0  0  0  0  0  0  0  0  0  0
  152.9299  145.3615  160.5227 H   0  0  0  0  0  0  0  0  0  0  0  0
  151.8348  146.0146  158.3782 H   0  0  0  0  0  0  0  0  0  0  0  0
  153.1941  144.9517  158.1048 H   0  0  0  0  0  0  0  0  0  0  0  0
  150.2461  144.1507  158.1149 H   0  0  0  0  0  0  0  0  0  0  0  0
  151.2854  144.2418  156.7130 H   0  0  0  0  0  0  0  0  0  0  0  0
  152.7253  142.4341  157.6079 H   0  0  0  0  0  0  0  0  0  0  0  0
  149.7726  143.1360  156.4776 H   0  0  0  0  0  0  0  0  0  0  0  0
  148.4639  140.5756  156.4404 H   0  0  0  0  0  0  0  0  0  0  0  0
  147.9282  142.0178  155.6133 H   0  0  0  0  0  0  0  0  0  0  0  0
  148.4749  140.4973  153.8413 H   0  0  0  0  0  0  0  0  0  0  0  0
  149.8540  141.5603  153.9036 H   0  0  0  0  0  0  0  0  0  0  0  0
  152.8301  137.9156  154.6779 H   0  0  0  0  0  0  0  0  0  0  0  0
  152.1177  141.2160  159.6761 H   0  0  0  0  0  0  0  0  0  0  0  0
  150.7633  142.2853  159.9487 H   0  0  0  0  0  0  0  0  0  0  0  0
  1  2  1  0  0  0  0
  1 19  1  0  0  0  0
  1 20  1  0  0  0  0
  1 21  1  0  0  0  0
  2 17  1  0  0  0  0
  2  3  1  0  0  0  0
  2 22  1  0  0  0  0
  3  4  1  0  0  0  0
  3 23  1  0  0  0  0
  3 24  1  0  0  0  0
  4  5  1  0  0  0  0
  4 25  1  0  0  0  0
  4 26  1  0  0  0  0
  5  6  1  0  0  0  0
  5 27  1  0  0  0  0
  5 28  1  0  0  0  0
  6  7  1  0  0  0  0
  6 17  1  0  0  0  0
  6 29  1  0  0  0  0
  7  8  2  0  0  0  0
  7  9  1  0  0  0  0
  9 10  1  0  0  0  0
  9 30  1  0  0  0  0
 10 11  1  0  0  0  0
 10 31  1  0  0  0  0
 10 32  1  0  0  0  0
 11 33  1  0  0  0  0
 11 34  1  0  0  0  0
 11 12  1  0  0  0  0
 12 16  2  0  0  0  0
 12 13  1  0  0  0  0
 13 18  1  0  0  0  0
 13 14  1  0  0  0  0
 14 15  2  0  0  0  0
 15 16  1  0  0  0  0
 15 35  1  0  0  0  0
 17 36  1  0  0  0  0
 17 37  1  0  0  0  0
M  END
> <s_m_source_file>
AV-unprocessed.smi

> <i_m_source_file_index>
3032

> <i_lp_mmshare_version>
43012

> <i_f3d_flags>
0

> <s_epik_input>
W0NIM11bQ0BASF0xW0NIMl1bQ0gyXVtDSDJdW0NASF0oW0NIMl0xKUMoPU8pW05IXVtDSDJdW0NIMl1jMm5uW2NIXVtuSF0y

> <s_epik_cmdline>
J2VwaWtfcHl0aG9uJywgJy1waCcsICc3LjAnLCAnLXRuJywgJzgnLCAnLW1hJywgJzIwMCcsICctbWV0YWxfYmluZGluZycsICctaW1hZScsICc8aW5maWxlLm1hZT4nLCAnLW9tYWUnLCAnPG91dGZpbGUubWFlPic=

> <r_lp_tautomer_probability>
0.948284

> <r_epik_Ionization_Penalty>
0.000474052

> <r_epik_Ionization_Penalty_Charging>
0

> <r_epik_Ionization_Penalty_Neutral>
0.000474052

> <r_epik_State_Penalty>
0.271807

> <r_epik_Charging_Adjusted_Penalty>
0.271807

> <i_epik_Tot_Q>
0

> <i_epik_Tot_abs_Q>
0

> <r_epik_Metal_State_Penalty>
0.397201

> <b_epik_Metal_Only>
0

> <s_lp_Force_Field>
OPLS_2005

> <r_lp_Energy>
10.6887

> <b_lp_Chiralities_Consistent>
1

> <s_lp_Variant>
AV-unprocessed.smi:3032-3

> <Gold.Version>
5.8.1

> <Gold.Id.Protein>
6NUR|6NUR_protein|mol2

> <Gold.PLP.Fitness>
42.1616

> <Gold.PLP.PLP>
-39.2896

> <Gold.PLP.part.hbond>
-2.0000

> <Gold.PLP.part.metal>
0.0000

> <Gold.PLP.part.buried>
-3.5597

> <Gold.PLP.part.nonpolar>
-33.8319

> <Gold.PLP.part.repulsive>
0.3056

> <Gold.PLP.ligand.clash>
2.1920

> <Gold.PLP.ligand.torsion>
0.3933

> <Gold.PLP.Chemscore.Hbond>
1.9440

> <Gold.PLP.Chemscore.CHOScore>
0.0000

> <Gold.PLP.Chemscore.Metal>
0.0000

> <Gold.Chemscore.Hbonds>
donor molecule, donor type, donor heavy atom, donor atom, acceptor molecule, acceptor atom, score
      L1  H     9    30       P1  8028  0.94
      P1  H  7989  7998       L1    16  1.00

> <Gold.PLP.Chemscore.Internal.Correction>
0.0186

> <Gold.Rescore>
     Score         DG    S(hbond)    S(metal)    S(lipo)     H(rot)  DE(clash)    DE(int)     intcor
     15.60     -16.59       1.67        0.00      96.45       2.25       0.62       0.37       ----

> <Gold.Chemscore.Fitness>
15.5994

> <Gold.Chemscore.DG>
-16.5914

> <Gold.Chemscore.ZeroCoef>
-5.4800

> <Gold.Chemscore.Hbond>
1.6727

> <Gold.Chemscore.Metal>
0.0000

> <Gold.Chemscore.Lipo>
96.4523

> <Gold.Chemscore.Internal_Hbond>
0.0000

> <Gold.Chemscore.DEClash>
0.6209

> <Gold.Chemscore.DEInternal>
0.3711

> <Gold.Chemscore.Rot>
2.2501

> <Gold.Chemscore.Internal.Correction>
   9.000000E+99

> <Gold.Chemscore.Hbonds>
donor molecule, donor type, donor heavy atom, donor atom, acceptor molecule, acceptor atom, score
      L1  H     9    30       P1  8028  0.88
      P1  H  7989  7998       L1    16  0.25

> <Gold.Chemscore.Hbond.Weighted>
-5.5868

> <Gold.Chemscore.Metal.Weighted>
-0.0000

> <Gold.Chemscore.Lipo.Weighted>
-11.2849

> <Gold.Chemscore.Internal_Hbond.Weighted>
0.0000

> <Gold.Chemscore.DEClash.Weighted>
0.6209

> <Gold.Chemscore.DEInternal.Weighted>
0.3711

> <Gold.Chemscore.Rot.Weighted>
5.7603

> <Gold.Chemscore.Internal.Correction.Weighted>
   9.000000E+99

> <Gold.Protein.RotatedTorsions>
[ 6907 6896 6895 6894 ] final  113.45 input  -60.11 | X-H torsion
[ 7974 7965 7964 7962 ] final   32.89 input  175.53 | X-H torsion
[ 8008 7997 7996 7995 ] final   20.83 input   59.86 | X-H torsion
[ 10167 10162 10161 10158 ] final   57.30 input  -65.29 | X-H torsion
[ 10718 10713 10712 10709 ] final -109.75 input   66.30 | X-H torsion
[ 10763 10752 10751 10750 ] final -163.83 input  -60.55 | X-H torsion
[ 11005 11000 10999 10996 ] final  -46.52 input  -57.11 | X-H torsion

> <Gold.Protein.ActiveResidues>
 VAL166  LYS551  ARG553  GLY616  TRP617  ASP618  TYR619  PRO620  LYS621  CYS622 
 ASP623  PHE694  ASN695  SER759  ASP760  ASP761  ALA762  ILE779  LEU786  VAL792 
 PHE793  MET794  SER795  GLU796  ALA797  LYS798  CYS799  TRP800  GLU811  SER814 

> <Gold.Protein.RotatedAtoms>
  152.4860  133.8374  159.7134 H   0  0  0  0  0  0  0  0  0  0  0  0  # atno 6907 bound_to 6896
  150.8947  133.7187  159.2901 H   0  0  0  0  0  0  0  0  0  0  0  0  # atno 6908 bound_to 6896
  151.4648  135.1045  159.9787 H   0  0  0  0  0  0  0  0  0  0  0  0  # atno 6909 bound_to 6896
  146.1457  139.6468  142.9133 H   0  0  0  0  0  0  0  0  0  0  0  0  # atno 7974 bound_to 7965
  154.9415  140.3054  155.5118 H   0  0  0  0  0  0  0  0  0  0  0  0  # atno 8008 bound_to 7997
  156.2995  140.2335  156.4422 H   0  0  0  0  0  0  0  0  0  0  0  0  # atno 8009 bound_to 7997
  154.8140  140.0427  157.1352 H   0  0  0  0  0  0  0  0  0  0  0  0  # atno 8010 bound_to 7997
  140.1995  144.4003  150.6535 H   0  0  0  0  0  0  0  0  0  0  0  0  # atno 10167 bound_to 10162
  156.0554  130.5780  150.8143 H   0  0  0  0  0  0  0  0  0  0  0  0  # atno 10718 bound_to 10713
  154.7086  135.3001  154.9232 H   0  0  0  0  0  0  0  0  0  0  0  0  # atno 10763 bound_to 10752
  154.0142  135.6691  153.4771 H   0  0  0  0  0  0  0  0  0  0  0  0  # atno 10764 bound_to 10752
  153.0737  135.5047  154.8271 H   0  0  0  0  0  0  0  0  0  0  0  0  # atno 10765 bound_to 10752
  141.0584  133.6717  156.3167 H   0  0  0  0  0  0  0  0  0  0  0  0  # atno 11005 bound_to 11000
  145.4943  141.0438  143.2576 LP  0  0  0  0  0  0  0  0  0  0  0  0  # atno 17320 bound_to 7965
  144.7843  139.6459  143.7140 LP  0  0  0  0  0  0  0  0  0  0  0  0  # atno 17321 bound_to 7965
  140.6400  143.2202  151.6310 LP  0  0  0  0  0  0  0  0  0  0  0  0  # atno 17342 bound_to 10162
  139.5223  144.3167  152.0946 LP  0  0  0  0  0  0  0  0  0  0  0  0  # atno 17343 bound_to 10162
  157.5518  131.0944  150.9684 LP  0  0  0  0  0  0  0  0  0  0  0  0  # atno 17370 bound_to 10713
  156.9942  130.5575  149.5306 LP  0  0  0  0  0  0  0  0  0  0  0  0  # atno 17371 bound_to 10713
  140.5918  134.5643  157.5501 LP  0  0  0  0  0  0  0  0  0  0  0  0  # atno 17394 bound_to 11000
  139.9411  134.7786  156.0677 LP  0  0  0  0  0  0  0  0  0  0  0  0  # atno 17395 bound_to 11000

$$$$
