AV-unprocessed.smi:2881|AV-procd|sdf|11063|dock1
  -GOLD-   2272015533D 1   1.00000     0.00000
 Structure written by MMmdl.
 40 42  0  0  0  0  0  0  0  0  1 V2000
  151.5097  145.4876  160.0473 C   0  0  0  0  0  0  0  0  0  0  0  0
  151.9507  144.0826  159.7598 C   0  0  0  0  0  0  0  0  0  0  0  0
  152.5368  143.1430  160.6579 C   0  0  0  0  0  0  0  0  0  0  0  0
  152.7418  142.0277  159.8946 C   0  0  0  0  0  0  0  0  0  0  0  0
  153.3200  140.6915  160.2330 C   0  0  0  0  0  0  0  0  0  0  0  0
  153.3579  139.7901  158.9995 C   0  0  0  0  0  0  0  0  0  0  0  0
  154.4218  139.2847  158.6425 O   0  0  0  0  0  0  0  0  0  0  0  0
  152.1946  139.6083  158.3563 N   0  0  0  0  0  0  0  0  0  0  0  0
  152.0093  138.8031  157.1512 C   0  0  2  0  0  0  0  0  0  0  0  0
  152.1802  139.6796  155.8906 C   0  0  1  0  0  0  0  0  0  0  0  0
  152.3758  138.7604  154.6718 C   0  0  0  0  0  0  0  0  0  0  0  0
  150.9675  138.1690  154.4733 C   0  0  0  0  0  0  0  0  0  0  0  0
  150.1529  138.8227  155.6111 C   0  0  2  0  0  0  0  0  0  0  0  0
  150.7711  140.2141  155.6506 C   0  0  0  0  0  0  0  0  0  0  0  0
  150.5582  138.2751  157.0009 C   0  0  1  0  0  0  0  0  0  0  0  0
  150.3990  136.7507  157.1650 C   0  0  0  0  0  0  0  0  0  0  0  0
  150.4579  136.3959  158.5294 O   0  0  0  0  0  0  0  0  0  0  0  0
  152.2927  142.3409  158.6315 N   0  0  0  0  0  0  0  0  0  0  0  0
  151.8076  143.5927  158.5373 N   0  0  0  0  0  0  0  0  0  0  0  0
  152.3055  141.7159  157.8376 H   0  0  0  0  0  0  0  0  0  0  0  0
  151.3887  145.6502  161.1185 H   0  0  0  0  0  0  0  0  0  0  0  0
  150.5546  145.7093  159.5698 H   0  0  0  0  0  0  0  0  0  0  0  0
  152.2412  146.2088  159.6821 H   0  0  0  0  0  0  0  0  0  0  0  0
  152.7683  143.2691  161.7053 H   0  0  0  0  0  0  0  0  0  0  0  0
  152.7336  140.2170  161.0212 H   0  0  0  0  0  0  0  0  0  0  0  0
  154.3309  140.8071  160.6260 H   0  0  0  0  0  0  0  0  0  0  0  0
  151.3748  140.0691  158.7236 H   0  0  0  0  0  0  0  0  0  0  0  0
  152.7389  137.9909  157.1381 H   0  0  0  0  0  0  0  0  0  0  0  0
  152.9549  140.4423  155.9801 H   0  0  0  0  0  0  0  0  0  0  0  0
  152.6766  139.3356  153.7954 H   0  0  0  0  0  0  0  0  0  0  0  0
  153.1322  137.9935  154.8429 H   0  0  0  0  0  0  0  0  0  0  0  0
  150.5691  138.4659  153.5022 H   0  0  0  0  0  0  0  0  0  0  0  0
  150.9594  137.0801  154.5049 H   0  0  0  0  0  0  0  0  0  0  0  0
  149.0764  138.8101  155.4377 H   0  0  0  0  0  0  0  0  0  0  0  0
  150.3957  140.8343  156.4666 H   0  0  0  0  0  0  0  0  0  0  0  0
  150.6695  140.7618  154.7118 H   0  0  0  0  0  0  0  0  0  0  0  0
  149.9105  138.7609  157.7340 H   0  0  0  0  0  0  0  0  0  0  0  0
  149.4361  136.4260  156.7698 H   0  0  0  0  0  0  0  0  0  0  0  0
  151.1737  136.2054  156.6263 H   0  0  0  0  0  0  0  0  0  0  0  0
  149.7441  136.8186  158.9821 H   0  0  0  0  0  0  0  0  0  0  0  0
  1 21  1  0  0  0  0
  1 22  1  0  0  0  0
  1 23  1  0  0  0  0
  1  2  1  0  0  0  0
  2 19  2  0  0  0  0
  2  3  1  0  0  0  0
  3  4  2  0  0  0  0
  3 24  1  0  0  0  0
  4 18  1  0  0  0  0
  4  5  1  0  0  0  0
  5  6  1  0  0  0  0
  5 25  1  0  0  0  0
  5 26  1  0  0  0  0
  6  7  2  0  0  0  0
  6  8  1  0  0  0  0
  8  9  1  0  0  0  0
  8 27  1  0  0  0  0
  9 15  1  0  0  0  0
  9 10  1  0  0  0  0
  9 28  1  0  0  0  0
 10 14  1  0  0  0  0
 10 11  1  0  0  0  0
 10 29  1  0  0  0  0
 11 12  1  0  0  0  0
 11 30  1  0  0  0  0
 11 31  1  0  0  0  0
 12 13  1  0  0  0  0
 12 32  1  0  0  0  0
 12 33  1  0  0  0  0
 13 14  1  0  0  0  0
 13 15  1  0  0  0  0
 13 34  1  0  0  0  0
 14 35  1  0  0  0  0
 14 36  1  0  0  0  0
 15 16  1  0  0  0  0
 15 37  1  0  0  0  0
 16 17  1  0  0  0  0
 16 38  1  0  0  0  0
 16 39  1  0  0  0  0
 17 40  1  0  0  0  0
 18 19  1  0  0  0  0
 18 20  1  0  0  0  0
M  END
> <s_m_source_file>
AV-unprocessed.smi

> <i_m_source_file_index>
2881

> <i_lp_mmshare_version>
43012

> <i_f3d_flags>
0

> <s_epik_input>
W0NIM11jMVtjSF1jKG5bbkhdMSlbQ0gyXUMoPU8pW05IXVtDQEhdKFtDQEBIXTIzKVtDQEhdKFtDSDJdW09IXSlbQ0BASF0oW0NIMl0zKVtDSDJdW0NIMl0y

> <s_epik_cmdline>
J2VwaWtfcHl0aG9uJywgJy1waCcsICc3LjAnLCAnLXRuJywgJzgnLCAnLW1hJywgJzIwMCcsICctbWV0YWxfYmluZGluZycsICctaW1hZScsICc8aW5maWxlLm1hZT4nLCAnLW9tYWUnLCAnPG91dGZpbGUubWFlPic=

> <r_lp_tautomer_probability>
0.5

> <r_epik_Ionization_Penalty>
0.00013396

> <r_epik_Ionization_Penalty_Charging>
0

> <r_epik_Ionization_Penalty_Neutral>
0.00013396

> <r_epik_State_Penalty>
0.41068

> <r_epik_Charging_Adjusted_Penalty>
0.41068

> <i_epik_Tot_Q>
0

> <i_epik_Tot_abs_Q>
0

> <r_epik_Metal_State_Penalty>
0.41066

> <b_epik_Metal_Only>
0

> <s_lp_Force_Field>
OPLS_2005

> <r_lp_Energy>
47.2043

> <b_lp_Chiralities_Consistent>
1

> <s_lp_Variant>
AV-unprocessed.smi:2881-9

> <Gold.Version>
5.8.1

> <Gold.Id.Protein>
6NUR|6NUR_protein|mol2

> <Gold.PLP.Fitness>
44.0212

> <Gold.PLP.PLP>
-39.0066

> <Gold.PLP.part.hbond>
-2.0000

> <Gold.PLP.part.metal>
0.0000

> <Gold.PLP.part.buried>
-4.8869

> <Gold.PLP.part.nonpolar>
-32.1259

> <Gold.PLP.part.repulsive>
0.1969

> <Gold.PLP.ligand.clash>
0.0000

> <Gold.PLP.ligand.torsion>
0.5098

> <Gold.PLP.Chemscore.Hbond>
2.0000

> <Gold.PLP.Chemscore.CHOScore>
0.0000

> <Gold.PLP.Chemscore.Metal>
0.0000

> <Gold.Chemscore.Hbonds>
donor molecule, donor type, donor heavy atom, donor atom, acceptor molecule, acceptor atom, score
      P1  H  6896  6907       L1    17  0.98
      P1  H  7997  8010       L1     7  1.00

> <Gold.PLP.Chemscore.Internal.Correction>
0.0343

> <Gold.Rescore>
     Score         DG    S(hbond)    S(metal)    S(lipo)     H(rot)  DE(clash)    DE(int)     intcor
     16.35     -17.98       1.97        0.00     100.31       2.28       0.05       1.57       ----

> <Gold.Chemscore.Fitness>
16.3549

> <Gold.Chemscore.DG>
-17.9809

> <Gold.Chemscore.ZeroCoef>
-5.4800

> <Gold.Chemscore.Hbond>
1.9729

> <Gold.Chemscore.Metal>
0.0000

> <Gold.Chemscore.Lipo>
100.3120

> <Gold.Chemscore.Internal_Hbond>
0.0000

> <Gold.Chemscore.DEClash>
0.0532

> <Gold.Chemscore.DEInternal>
1.5728

> <Gold.Chemscore.Rot>
2.2755

> <Gold.Chemscore.Internal.Correction>
   9.000000E+99

> <Gold.Chemscore.Hbonds>
donor molecule, donor type, donor heavy atom, donor atom, acceptor molecule, acceptor atom, score
      P1  H  6896  6907       L1    17  0.36
      P1  H  7997  8010       L1     7  0.70

> <Gold.Chemscore.Hbond.Weighted>
-6.5896

> <Gold.Chemscore.Metal.Weighted>
-0.0000

> <Gold.Chemscore.Lipo.Weighted>
-11.7365

> <Gold.Chemscore.Internal_Hbond.Weighted>
0.0000

> <Gold.Chemscore.DEClash.Weighted>
0.0532

> <Gold.Chemscore.DEInternal.Weighted>
1.5728

> <Gold.Chemscore.Rot.Weighted>
5.8252

> <Gold.Chemscore.Internal.Correction.Weighted>
   9.000000E+99

> <Gold.Protein.RotatedTorsions>
[ 6907 6896 6895 6894 ] final  -37.19 input  -60.11 | X-H torsion
[ 7974 7965 7964 7962 ] final  -96.84 input  175.53 | X-H torsion
[ 8008 7997 7996 7995 ] final   13.12 input   59.86 | X-H torsion
[ 10167 10162 10161 10158 ] final  -18.36 input  -65.29 | X-H torsion
[ 10718 10713 10712 10709 ] final  -76.93 input   66.30 | X-H torsion
[ 10763 10752 10751 10750 ] final   11.94 input  -60.55 | X-H torsion
[ 11005 11000 10999 10996 ] final   60.84 input  -57.11 | X-H torsion

> <Gold.Protein.ActiveResidues>
 VAL166  LYS551  ARG553  GLY616  TRP617  ASP618  TYR619  PRO620  LYS621  CYS622 
 ASP623  PHE694  ASN695  SER759  ASP760  ASP761  ALA762  ILE779  LEU786  VAL792 
 PHE793  MET794  SER795  GLU796  ALA797  LYS798  CYS799  TRP800  GLU811  SER814 

> <Gold.Protein.RotatedAtoms>
  151.0178  134.9446  159.8042 H   0  0  0  0  0  0  0  0  0  0  0  0  # atno 6907 bound_to 6896
  152.5318  134.2943  159.9065 H   0  0  0  0  0  0  0  0  0  0  0  0  # atno 6908 bound_to 6896
  151.2950  133.4106  159.2670 H   0  0  0  0  0  0  0  0  0  0  0  0  # atno 6909 bound_to 6896
  145.3415  140.9460  143.2605 H   0  0  0  0  0  0  0  0  0  0  0  0  # atno 7974 bound_to 7965
  154.8301  140.2898  155.5728 H   0  0  0  0  0  0  0  0  0  0  0  0  # atno 8008 bound_to 7997
  156.3005  140.2534  156.3155 H   0  0  0  0  0  0  0  0  0  0  0  0  # atno 8009 bound_to 7997
  154.9241  140.0385  157.2003 H   0  0  0  0  0  0  0  0  0  0  0  0  # atno 8010 bound_to 7997
  140.7258  143.4924  150.9975 H   0  0  0  0  0  0  0  0  0  0  0  0  # atno 10167 bound_to 10162
  156.0160  130.4478  150.3268 H   0  0  0  0  0  0  0  0  0  0  0  0  # atno 10718 bound_to 10713
  153.1874  135.6837  153.8397 H   0  0  0  0  0  0  0  0  0  0  0  0  # atno 10763 bound_to 10752
  153.7708  135.3196  155.3353 H   0  0  0  0  0  0  0  0  0  0  0  0  # atno 10764 bound_to 10752
  154.8097  135.4725  154.0581 H   0  0  0  0  0  0  0  0  0  0  0  0  # atno 10765 bound_to 10752
  140.0203  134.6163  155.9649 H   0  0  0  0  0  0  0  0  0  0  0  0  # atno 11005 bound_to 11000
  144.8786  139.4935  143.6733 LP  0  0  0  0  0  0  0  0  0  0  0  0  # atno 17320 bound_to 7965
  146.3005  139.7412  142.9095 LP  0  0  0  0  0  0  0  0  0  0  0  0  # atno 17321 bound_to 7965
  139.8629  143.7292  152.3172 LP  0  0  0  0  0  0  0  0  0  0  0  0  # atno 17342 bound_to 10162
  139.7513  144.7533  151.0502 LP  0  0  0  0  0  0  0  0  0  0  0  0  # atno 17343 bound_to 10162
  157.1367  131.0286  151.2945 LP  0  0  0  0  0  0  0  0  0  0  0  0  # atno 17370 bound_to 10713
  157.4506  130.7596  149.7147 LP  0  0  0  0  0  0  0  0  0  0  0  0  # atno 17371 bound_to 10713
  141.1769  133.6541  156.4866 LP  0  0  0  0  0  0  0  0  0  0  0  0  # atno 17394 bound_to 11000
  140.4399  134.7025  157.4986 LP  0  0  0  0  0  0  0  0  0  0  0  0  # atno 17395 bound_to 11000

$$$$
