AV-unprocessed.smi:2931|AV-procd|sdf|11243|dock3
  -GOLD-   2272016133D 1   1.00000     0.00000
 Structure written by MMmdl.
 42 43  0  0  0  0  0  0  0  0  2 V2000
  146.4920  133.2914  151.9100 C   0  0  0  0  0  0  0  0  0  0  0  0
  147.7081  133.6089  152.6886 N   0  3  2  0  0  0  0  0  0  0  0  0
  148.7332  132.5387  152.6003 C   0  0  0  0  0  0  0  0  0  0  0  0
  150.0323  132.9567  153.3107 C   0  0  0  0  0  0  0  0  0  0  0  0
  149.7644  133.3704  154.7679 C   0  0  0  0  0  0  0  0  0  0  0  0
  148.6654  134.4459  154.8446 C   0  0  1  0  0  0  0  0  0  0  0  0
  149.1678  135.7110  154.3074 N   0  0  0  0  0  0  0  0  0  0  0  0
  149.3754  136.8259  155.0223 C   0  0  0  0  0  0  0  0  0  0  0  0
  149.1351  136.9264  156.2253 O   0  0  0  0  0  0  0  0  0  0  0  0
  149.8718  137.8170  154.2694 N   0  0  0  0  0  0  0  0  0  0  0  0
  150.2083  139.1482  154.7613 C   0  0  0  0  0  0  0  0  0  0  0  0
  151.2694  139.0922  155.8725 C   0  0  0  0  0  0  0  0  0  0  0  0
  151.1483  140.2577  156.8348 C   0  0  0  0  0  0  0  0  0  0  0  0
  150.3329  141.3661  156.5264 C   0  0  0  0  0  0  0  0  0  0  0  0
  150.2518  142.4201  157.4586 C   0  0  0  0  0  0  0  0  0  0  0  0
  150.9150  142.4226  158.6353 N   0  0  0  0  0  0  0  0  0  0  0  0
  151.6927  141.3568  158.9239 C   0  0  0  0  0  0  0  0  0  0  0  0
  151.8438  140.2523  158.0615 C   0  0  0  0  0  0  0  0  0  0  0  0
  147.4017  133.9625  154.0976 C   0  0  0  0  0  0  0  0  0  0  0  0
  145.9908  132.4083  152.3089 H   0  0  0  0  0  0  0  0  0  0  0  0
  146.7419  133.1016  150.8656 H   0  0  0  0  0  0  0  0  0  0  0  0
  145.7895  134.1250  151.9366 H   0  0  0  0  0  0  0  0  0  0  0  0
  148.3416  131.6213  153.0429 H   0  0  0  0  0  0  0  0  0  0  0  0
  148.9460  132.3202  151.5531 H   0  0  0  0  0  0  0  0  0  0  0  0
  150.7504  132.1364  153.2847 H   0  0  0  0  0  0  0  0  0  0  0  0
  150.4941  133.7835  152.7698 H   0  0  0  0  0  0  0  0  0  0  0  0
  149.4508  132.4943  155.3372 H   0  0  0  0  0  0  0  0  0  0  0  0
  150.6832  133.7257  155.2366 H   0  0  0  0  0  0  0  0  0  0  0  0
  148.4158  134.6028  155.8956 H   0  0  0  0  0  0  0  0  0  0  0  0
  149.4054  135.7266  153.3262 H   0  0  0  0  0  0  0  0  0  0  0  0
  150.0398  137.6381  153.2900 H   0  0  0  0  0  0  0  0  0  0  0  0
  150.5504  139.7765  153.9369 H   0  0  0  0  0  0  0  0  0  0  0  0
  149.2956  139.6075  155.1422 H   0  0  0  0  0  0  0  0  0  0  0  0
  151.1763  138.1612  156.4332 H   0  0  0  0  0  0  0  0  0  0  0  0
  152.2714  139.0925  155.4409 H   0  0  0  0  0  0  0  0  0  0  0  0
  149.7806  141.4105  155.5991 H   0  0  0  0  0  0  0  0  0  0  0  0
  149.6370  143.2840  157.2538 H   0  0  0  0  0  0  0  0  0  0  0  0
  152.2100  141.3841  159.8715 H   0  0  0  0  0  0  0  0  0  0  0  0
  152.4767  139.4223  158.3391 H   0  0  0  0  0  0  0  0  0  0  0  0
  146.6298  134.7326  154.1236 H   0  0  0  0  0  0  0  0  0  0  0  0
  146.9820  133.0915  154.6037 H   0  0  0  0  0  0  0  0  0  0  0  0
  148.1112  134.4330  152.2664 H   0  0  0  0  0  0  0  0  0  0  0  0
  1  2  1  0  0  0  0
  1 20  1  0  0  0  0
  1 21  1  0  0  0  0
  1 22  1  0  0  0  0
  2 19  1  0  0  0  0
  2  3  1  0  0  0  0
  2 42  1  0  0  0  0
  3  4  1  0  0  0  0
  3 23  1  0  0  0  0
  3 24  1  0  0  0  0
  4  5  1  0  0  0  0
  4 25  1  0  0  0  0
  4 26  1  0  0  0  0
  5  6  1  0  0  0  0
  5 27  1  0  0  0  0
  5 28  1  0  0  0  0
  6  7  1  0  0  0  0
  6 19  1  0  0  0  0
  6 29  1  0  0  0  0
  7  8  1  0  0  0  0
  7 30  1  0  0  0  0
  8  9  2  0  0  0  0
  8 10  1  0  0  0  0
 10 11  1  0  0  0  0
 10 31  1  0  0  0  0
 11 12  1  0  0  0  0
 11 32  1  0  0  0  0
 11 33  1  0  0  0  0
 12 13  1  0  0  0  0
 12 34  1  0  0  0  0
 12 35  1  0  0  0  0
 13 18  1  0  0  0  0
 13 14  2  0  0  0  0
 14 15  1  0  0  0  0
 14 36  1  0  0  0  0
 15 16  2  0  0  0  0
 15 37  1  0  0  0  0
 16 17  1  0  0  0  0
 17 18  2  0  0  0  0
 17 38  1  0  0  0  0
 18 39  1  0  0  0  0
 19 40  1  0  0  0  0
 19 41  1  0  0  0  0
M  CHG  1   2   1
M  END
> <s_m_source_file>
AV-unprocessed.smi

> <i_m_source_file_index>
2931

> <i_lp_mmshare_version>
43012

> <i_f3d_flags>
0

> <s_epik_input>
W0NIM11OMVtDSDJdW0NIMl1bQ0gyXVtDQEhdKFtDSDJdMSlbTkhdQyg9TylbTkhdW0NIMl1bQ0gyXWMyW2NIXVtjSF1uW2NIXVtjSF0y

> <s_epik_cmdline>
J2VwaWtfcHl0aG9uJywgJy1waCcsICc3LjAnLCAnLXRuJywgJzgnLCAnLW1hJywgJzIwMCcsICctbWV0YWxfYmluZGluZycsICctaW1hZScsICc8aW5maWxlLm1hZT4nLCAnLW9tYWUnLCAnPG91dGZpbGUubWFlPic=

> <r_epik_Ionization_Penalty>
0.0573876

> <r_epik_Ionization_Penalty_Charging>
0.00229982

> <r_epik_Ionization_Penalty_Neutral>
0.0550878

> <r_epik_State_Penalty>
0.0473925

> <r_epik_Charging_Adjusted_Penalty>
0.0496923

> <i_epik_Tot_Q>
1

> <i_epik_Tot_abs_Q>
1

> <r_epik_Metal_State_Penalty>
0.0433388

> <b_epik_Metal_Only>
0

> <s_lp_Force_Field>
OPLS_2005

> <r_lp_Energy>
20.9129

> <b_lp_Chiralities_Consistent>
1

> <s_lp_Variant>
AV-unprocessed.smi:2931-2

> <Gold.Version>
5.8.1

> <Gold.Id.Protein>
6NUR|6NUR_protein|mol2

> <Gold.PLP.Fitness>
43.2659

> <Gold.PLP.PLP>
-31.0832

> <Gold.PLP.part.hbond>
-2.8031

> <Gold.PLP.part.metal>
0.0000

> <Gold.PLP.part.buried>
-3.9775

> <Gold.PLP.part.nonpolar>
-25.9034

> <Gold.PLP.part.repulsive>
0.0994

> <Gold.PLP.ligand.clash>
0.0000

> <Gold.PLP.ligand.torsion>
0.3464

> <Gold.PLP.Chemscore.Hbond>
3.2839

> <Gold.PLP.Chemscore.CHOScore>
1.0000

> <Gold.PLP.Chemscore.Metal>
0.0000

> <Gold.Chemscore.Hbonds>
donor molecule, donor type, donor heavy atom, donor atom, acceptor molecule, acceptor atom, score
      L1  H     2    42       P1  7948  1.80
      L1  H     7    30       P1  7948  0.94
      L1  H    10    31       P1  7948  0.30
      L1  C    15    37       P1  8028  1.00

> <Gold.PLP.Chemscore.Internal.Correction>
0.0238

> <Gold.Rescore>
     Score         DG    S(hbond)    S(metal)    S(lipo)     H(rot)  DE(clash)    DE(int)     intcor
     16.85     -17.25       2.06        0.00      75.98       1.56       0.02       0.37       ----

> <Gold.Chemscore.Fitness>
16.8516

> <Gold.Chemscore.DG>
-17.2462

> <Gold.Chemscore.ZeroCoef>
-5.4800

> <Gold.Chemscore.Hbond>
2.0564

> <Gold.Chemscore.Metal>
0.0000

> <Gold.Chemscore.Lipo>
75.9768

> <Gold.Chemscore.Internal_Hbond>
0.0000

> <Gold.Chemscore.DEClash>
0.0212

> <Gold.Chemscore.DEInternal>
0.3735

> <Gold.Chemscore.Rot>
1.5592

> <Gold.Chemscore.Internal.Correction>
   9.000000E+99

> <Gold.Chemscore.Hbonds>
donor molecule, donor type, donor heavy atom, donor atom, acceptor molecule, acceptor atom, score
      L1  H     2    42       P1  7948  0.17
      L1  H     7    30       P1  7948  0.23
      L1  H    10    31       P1  7948  0.11

> <Gold.Chemscore.Hbond.Weighted>
-6.8684

> <Gold.Chemscore.Metal.Weighted>
-0.0000

> <Gold.Chemscore.Lipo.Weighted>
-8.8893

> <Gold.Chemscore.Internal_Hbond.Weighted>
0.0000

> <Gold.Chemscore.DEClash.Weighted>
0.0212

> <Gold.Chemscore.DEInternal.Weighted>
0.3735

> <Gold.Chemscore.Rot.Weighted>
3.9915

> <Gold.Chemscore.Internal.Correction.Weighted>
   9.000000E+99

> <Gold.Protein.RotatedTorsions>
[ 6907 6896 6895 6894 ] final  101.42 input  -60.11 | X-H torsion
[ 7974 7965 7964 7962 ] final   10.60 input  175.53 | X-H torsion
[ 8008 7997 7996 7995 ] final  -88.82 input   59.86 | X-H torsion
[ 10167 10162 10161 10158 ] final  -42.59 input  -65.29 | X-H torsion
[ 10718 10713 10712 10709 ] final  -71.99 input   66.30 | X-H torsion
[ 10763 10752 10751 10750 ] final  -18.57 input  -60.55 | X-H torsion
[ 11005 11000 10999 10996 ] final  -29.25 input  -57.11 | X-H torsion

> <Gold.Protein.ActiveResidues>
 VAL166  LYS551  ARG553  GLY616  TRP617  ASP618  TYR619  PRO620  LYS621  CYS622 
 ASP623  PHE694  ASN695  SER759  ASP760  ASP761  ALA762  ILE779  LEU786  VAL792 
 PHE793  MET794  SER795  GLU796  ALA797  LYS798  CYS799  TRP800  GLU811  SER814 

> <Gold.Protein.RotatedAtoms>
  152.5349  134.0129  159.7946 H   0  0  0  0  0  0  0  0  0  0  0  0  # atno 6907 bound_to 6896
  151.0328  133.5767  159.2666 H   0  0  0  0  0  0  0  0  0  0  0  0  # atno 6908 bound_to 6896
  151.2766  135.0708  159.9207 H   0  0  0  0  0  0  0  0  0  0  0  0  # atno 6909 bound_to 6896
  146.2385  139.9610  142.8458 H   0  0  0  0  0  0  0  0  0  0  0  0  # atno 7974 bound_to 7965
  154.6793  140.0549  157.0249 H   0  0  0  0  0  0  0  0  0  0  0  0  # atno 8008 bound_to 7997
  155.0975  140.3225  155.4537 H   0  0  0  0  0  0  0  0  0  0  0  0  # atno 8009 bound_to 7997
  156.2688  140.2037  156.6101 H   0  0  0  0  0  0  0  0  0  0  0  0  # atno 8010 bound_to 7997
  140.6964  143.3029  151.3231 H   0  0  0  0  0  0  0  0  0  0  0  0  # atno 10167 bound_to 10162
  156.0339  130.4363  150.2526 H   0  0  0  0  0  0  0  0  0  0  0  0  # atno 10718 bound_to 10713
  153.5913  135.7002  153.5422 H   0  0  0  0  0  0  0  0  0  0  0  0  # atno 10763 bound_to 10752
  153.3176  135.4083  155.1389 H   0  0  0  0  0  0  0  0  0  0  0  0  # atno 10764 bound_to 10752
  154.8600  135.3687  154.5444 H   0  0  0  0  0  0  0  0  0  0  0  0  # atno 10765 bound_to 10752
  140.9279  133.7357  156.0894 H   0  0  0  0  0  0  0  0  0  0  0  0  # atno 11005 bound_to 11000
  145.1771  140.9749  143.4288 LP  0  0  0  0  0  0  0  0  0  0  0  0  # atno 17320 bound_to 7965
  144.9975  139.3629  143.6184 LP  0  0  0  0  0  0  0  0  0  0  0  0  # atno 17321 bound_to 7965
  139.6424  144.0514  152.2565 LP  0  0  0  0  0  0  0  0  0  0  0  0  # atno 17342 bound_to 10162
  140.0024  144.6284  150.7718 LP  0  0  0  0  0  0  0  0  0  0  0  0  # atno 17343 bound_to 10162
  157.0626  131.0094  151.3217 LP  0  0  0  0  0  0  0  0  0  0  0  0  # atno 17370 bound_to 10713
  157.5059  130.7908  149.7653 LP  0  0  0  0  0  0  0  0  0  0  0  0  # atno 17371 bound_to 10713
  140.7901  134.3627  157.5466 LP  0  0  0  0  0  0  0  0  0  0  0  0  # atno 17394 bound_to 11000
  139.8789  134.9135  156.3085 LP  0  0  0  0  0  0  0  0  0  0  0  0  # atno 17395 bound_to 11000

$$$$
