#       Name:                AV-unprocessed.smi:2973
#       Creating user name   scv26
#       Creation time:       Fri Mar 27 16:26:59 2020


#       File generated by GOLD software.
#

@<TRIPOS>MOLECULE
AV-unprocessed.smi:2973
    56    58     1
SMALL
NO_CHARGES


@<TRIPOS>ATOM
      1 ****        -5.0608   1.3890   0.8198 C.3            1 S1                 0.0000
      2 ****        -4.0032   2.4688   1.1387 C.3            1 S1                 0.0000
      3 ****        -4.0889   2.8657   2.6299 C.3            1 S1                 0.0000
      4 ****        -3.1086   3.9941   2.9816 C.3            1 S1                 0.0000
      5 ****        -1.6683   3.6115   2.6194 C.3            1 S1                 0.0000
      6 ****        -1.5579   3.2251   1.1343 C.3            1 S1                 0.0000
      7 ****        -2.5420   2.1004   0.7127 C.3            1 S1                 0.0000
      8 ****        -2.4613   1.9368  -0.7289 N.pl3          1 S1                -1.0000
      9 ****        -2.0106   0.6924  -1.0097 C.2            1 S1                 0.0000
     10 ****        -1.8054   0.2188  -2.1270 O.2            1 S1                 0.0000
     11 ****        -1.7966  -0.0105   0.1181 N.am           1 S1                 0.0000
     12 ****        -1.2908  -1.3887   0.1636 C.3            1 S1                 0.0000
     13 ****         0.2383  -1.4689   0.0590 C.2            1 S1                 0.0000
     14 ****         0.9514  -0.5532   0.4724 O.2            1 S1                 0.0000
     15 ****         0.7316  -2.5900  -0.4878 N.am           1 S1                 0.0000
     16 ****         2.1482  -2.8670  -0.6911 C.3            1 S1                 0.0000
     17 ****         2.6978  -2.1274  -1.9227 C.3            1 S1                 0.0000
     18 ****         4.1647  -2.4250  -2.1633 C.ar           1 S1                 0.0000
     19 ****         5.1875  -1.5474  -1.7425 C.ar           1 S1                 0.0000
     20 ****         6.5337  -1.8877  -1.9919 C.ar           1 S1                 0.0000
     21 ****         6.8282  -3.0976  -2.6544 C.ar           1 S1                 0.0000
     22 ****         5.7677  -3.9378  -3.0508 C.ar           1 S1                 0.0000
     23 ****         4.4912  -3.5765  -2.7940 N.pl3          1 S1                 1.0000
     24 ****        -2.0731   0.7295   1.1974 C.2            1 S1                 0.0000
     25 ****        -1.9747   0.3883   2.3769 O.2            1 S1                 0.0000
     26 ****        -4.8953   0.4764   1.3927 H              1 S1                 0.0000
     27 ****        -5.0600   1.1240  -0.2375 H              1 S1                 0.0000
     28 ****        -6.0628   1.7454   1.0592 H              1 S1                 0.0000
     29 ****        -4.2879   3.3530   0.5651 H              1 S1                 0.0000
     30 ****        -5.1028   3.1890   2.8674 H              1 S1                 0.0000
     31 ****        -3.8933   2.0011   3.2645 H              1 S1                 0.0000
     32 ****        -3.3909   4.9024   2.4476 H              1 S1                 0.0000
     33 ****        -3.1750   4.2264   4.0448 H              1 S1                 0.0000
     34 ****        -1.0011   4.4473   2.8311 H              1 S1                 0.0000
     35 ****        -1.3336   2.7896   3.2520 H              1 S1                 0.0000
     36 ****        -1.7458   4.1152   0.5313 H              1 S1                 0.0000
     37 ****        -0.5289   2.9331   0.9171 H              1 S1                 0.0000
     38 ****        -1.5981  -1.8776   1.0893 H              1 S1                 0.0000
     39 ****        -1.7447  -1.9700  -0.6411 H              1 S1                 0.0000
     40 ****         0.0761  -3.2945  -0.7940 H              1 S1                 0.0000
     41 ****         2.7122  -2.5945   0.2026 H              1 S1                 0.0000
     42 ****         2.2659  -3.9435  -0.8171 H              1 S1                 0.0000
     43 ****         2.1295  -2.4058  -2.8113 H              1 S1                 0.0000
     44 ****         2.5722  -1.0501  -1.8049 H              1 S1                 0.0000
     45 ****         4.9450  -0.6252  -1.2340 H              1 S1                 0.0000
     46 ****         7.3304  -1.2291  -1.6779 H              1 S1                 0.0000
     47 ****         7.8521  -3.3768  -2.8553 H              1 S1                 0.0000
     48 ****         5.9003  -4.8802  -3.5619 H              1 S1                 0.0000
     49 ****         3.7401  -4.2003  -3.0902 H              1 S1                 0.0000
     50 ****        -2.7008   2.6331  -1.4056 LP             1 S1                 0.0000
     51 ****        -1.9743   0.7716  -2.9431 LP             1 S1                 0.0000
     52 ****        -1.4699  -0.7187  -2.2187 LP             1 S1                 0.0000
     53 ****         0.5353   0.2579   0.8836 LP             1 S1                 0.0000
     54 ****         1.9462  -0.6210   0.3968 LP             1 S1                 0.0000
     55 ****        -2.2113   1.0318   3.1049 LP             1 S1                 0.0000
     56 ****        -1.6583  -0.5321   2.6064 LP             1 S1                 0.0000
@<TRIPOS>BOND
    1    1    2 1     
    2    1   26 1     
    3    1   27 1     
    4    1   28 1     
    5    2    7 1     
    6    2    3 1     
    7    2   29 1     
    8    3    4 1     
    9    3   30 1     
   10    3   31 1     
   11    4    5 1     
   12    4   32 1     
   13    4   33 1     
   14    5    6 1     
   15    5   34 1     
   16    5   35 1     
   17    6    7 1     
   18    6   36 1     
   19    6   37 1     
   20    7   24 1     
   21    7    8 1     
   22    8    9 1     
   23    9   10 2     
   24    9   11 am    
   25   11   12 1     
   26   11   24 am    
   27   12   13 1     
   28   12   38 1     
   29   12   39 1     
   30   13   14 2     
   31   13   15 am    
   32   15   16 1     
   33   15   40 1     
   34   16   17 1     
   35   16   41 1     
   36   16   42 1     
   37   17   18 1     
   38   17   43 1     
   39   17   44 1     
   40   18   23 ar    
   41   18   19 ar    
   42   19   20 ar    
   43   19   45 1     
   44   20   21 ar    
   45   20   46 1     
   46   21   22 ar    
   47   21   47 1     
   48   22   23 ar    
   49   22   48 1     
   50   23   49 1     
   51   24   25 2     
   52    8   50 1     
   53   10   51 1     
   54   10   52 1     
   55   14   53 1     
   56   14   54 1     
   57   25   55 1     
   58   25   56 1     
@<TRIPOS>SUBSTRUCTURE
      1 S1             1
@<TRIPOS>SET
LONE_PAIRS      STATIC     ATOMS    <user>   **** ""
7 50 51 52 53 54 55 56
DONOR_HYDROGENS      STATIC     ATOMS    <user>   **** ""
2 40 49
ATOM$BLUE        STATIC     ATOMS    COLORGROUP SYSTEM
7 50 51 52 53 54 55 56
ATOM$RED        STATIC     ATOMS    COLORGROUP SYSTEM
2 40 49
