AV-unprocessed.smi:2077|AV-procd|sdf|8462|dock9
  -GOLD-   2272011163D 1   1.00000     0.00000
 Structure written by MMmdl.
 38 40  0  0  0  0  0  0  0  0  1 V2000
  154.6883  139.7671  160.9306 C   0  0  0  0  0  0  0  0  0  0  0  0
  153.7308  140.7140  160.3285 N   0  0  0  0  0  0  0  0  0  0  0  0
  153.2469  140.4373  159.0768 C   0  0  0  0  0  0  0  0  0  0  0  0
  153.5420  139.4455  158.4082 O   0  0  0  0  0  0  0  0  0  0  0  0
  152.3146  141.4458  158.5665 C   0  0  0  0  0  0  0  0  0  0  0  0
  151.9525  142.5426  159.2737 C   0  0  0  0  0  0  0  0  0  0  0  0
  151.0584  143.3329  158.5598 N   0  0  0  0  0  0  0  0  0  0  0  0
  150.9262  142.6460  157.4236 C   0  0  0  0  0  0  0  0  0  0  0  0
  151.6428  141.5058  157.3474 N   0  0  0  0  0  0  0  0  0  0  0  0
  151.6817  140.5772  156.2289 C   0  0  0  0  0  0  0  0  0  0  0  0
  150.2781  140.0986  155.8099 C   0  0  1  0  0  0  0  0  0  0  0  0
  150.1320  140.2203  154.4078 O   0  0  0  0  0  0  0  0  0  0  0  0
  150.0089  138.6851  156.3007 C   0  0  0  0  0  0  0  0  0  0  0  0
  149.9187  137.6080  155.3912 C   0  0  0  0  0  0  0  0  0  0  0  0
  149.6807  136.3014  155.8606 C   0  0  0  0  0  0  0  0  0  0  0  0
  149.5345  136.0638  157.2409 C   0  0  0  0  0  0  0  0  0  0  0  0
  149.6282  137.1332  158.1521 C   0  0  0  0  0  0  0  0  0  0  0  0
  149.4924  136.9053  159.4797 F   0  0  0  0  0  0  0  0  0  0  0  0
  149.8654  138.4398  157.6833 C   0  0  0  0  0  0  0  0  0  0  0  0
  152.5010  142.7275  160.5672 N   0  0  0  0  0  0  0  0  0  0  0  0
  152.0838  143.9227  161.3062 C   0  0  0  0  0  0  0  0  0  0  0  0
  153.3926  141.8210  161.0894 C   0  0  0  0  0  0  0  0  0  0  0  0
  153.8799  141.9911  162.2102 O   0  0  0  0  0  0  0  0  0  0  0  0
  154.9527  138.9175  160.3000 H   0  0  0  0  0  0  0  0  0  0  0  0
  154.2826  139.3533  161.8551 H   0  0  0  0  0  0  0  0  0  0  0  0
  155.6244  140.2735  161.1718 H   0  0  0  0  0  0  0  0  0  0  0  0
  150.2861  142.9818  156.6207 H   0  0  0  0  0  0  0  0  0  0  0  0
  152.1850  141.0601  155.3898 H   0  0  0  0  0  0  0  0  0  0  0  0
  152.3078  139.7298  156.5091 H   0  0  0  0  0  0  0  0  0  0  0  0
  149.5304  140.7567  156.2544 H   0  0  0  0  0  0  0  0  0  0  0  0
  149.5498  139.5391  154.1073 H   0  0  0  0  0  0  0  0  0  0  0  0
  150.0350  137.7793  154.3309 H   0  0  0  0  0  0  0  0  0  0  0  0
  149.6124  135.4809  155.1617 H   0  0  0  0  0  0  0  0  0  0  0  0
  149.3532  135.0617  157.6007 H   0  0  0  0  0  0  0  0  0  0  0  0
  149.9400  139.2534  158.3904 H   0  0  0  0  0  0  0  0  0  0  0  0
  152.4778  143.9855  162.3210 H   0  0  0  0  0  0  0  0  0  0  0  0
  150.9964  143.9520  161.3827 H   0  0  0  0  0  0  0  0  0  0  0  0
  152.4058  144.8184  160.7743 H   0  0  0  0  0  0  0  0  0  0  0  0
  1  2  1  0  0  0  0
  1 24  1  0  0  0  0
  1 25  1  0  0  0  0
  1 26  1  0  0  0  0
  2 22  1  0  0  0  0
  2  3  1  0  0  0  0
  3  4  2  0  0  0  0
  3  5  1  0  0  0  0
  5  9  1  0  0  0  0
  5  6  2  0  0  0  0
  6  7  1  0  0  0  0
  6 20  1  0  0  0  0
  7  8  2  0  0  0  0
  8  9  1  0  0  0  0
  8 27  1  0  0  0  0
  9 10  1  0  0  0  0
 10 11  1  0  0  0  0
 10 28  1  0  0  0  0
 10 29  1  0  0  0  0
 11 12  1  0  0  0  0
 11 13  1  0  0  0  0
 11 30  1  0  0  0  0
 12 31  1  0  0  0  0
 13 19  1  0  0  0  0
 13 14  2  0  0  0  0
 14 15  1  0  0  0  0
 14 32  1  0  0  0  0
 15 16  2  0  0  0  0
 15 33  1  0  0  0  0
 16 17  1  0  0  0  0
 16 34  1  0  0  0  0
 17 18  1  0  0  0  0
 17 19  2  0  0  0  0
 19 35  1  0  0  0  0
 20 21  1  0  0  0  0
 20 22  1  0  0  0  0
 21 36  1  0  0  0  0
 21 37  1  0  0  0  0
 21 38  1  0  0  0  0
 22 23  2  0  0  0  0
M  END
> <s_m_source_file>
AV-unprocessed.smi

> <i_m_source_file_index>
2077

> <i_lp_mmshare_version>
43012

> <i_f3d_flags>
0

> <s_epik_input>
Tz1jMW4oW0NIM10pYyg9TyluKFtDSDNdKWMoYzEyKW5bY0hdbjJbQ0gyXVtDQEhdKFtPSF0pYzNbY0hdW2NIXVtjSF1jKEYpW2NIXTM=

> <s_epik_cmdline>
J2VwaWtfcHl0aG9uJywgJy1waCcsICc3LjAnLCAnLXRuJywgJzgnLCAnLW1hJywgJzIwMCcsICctbWV0YWxfYmluZGluZycsICctaW1hZScsICc8aW5maWxlLm1hZT4nLCAnLW9tYWUnLCAnPG91dGZpbGUubWFlPic=

> <r_lp_tautomer_probability>
1

> <r_epik_Ionization_Penalty>
1.5338e-06

> <r_epik_Ionization_Penalty_Charging>
3.74189e-09

> <r_epik_Ionization_Penalty_Neutral>
1.53006e-06

> <r_epik_State_Penalty>
-0

> <r_epik_Charging_Adjusted_Penalty>
3.74189e-09

> <i_epik_Tot_Q>
0

> <i_epik_Tot_abs_Q>
0

> <r_epik_Metal_State_Penalty>
-0

> <b_epik_Metal_Only>
0

> <s_lp_Force_Field>
OPLS_2005

> <r_lp_Energy>
35.2463

> <b_lp_Chiralities_Consistent>
1

> <s_lp_Variant>
AV-unprocessed.smi:2077-2

> <Gold.Version>
5.8.1

> <Gold.Id.Protein>
6NUR|6NUR_protein|mol2

> <Gold.PLP.Fitness>
48.3054

> <Gold.PLP.PLP>
-41.0675

> <Gold.PLP.part.hbond>
-2.8642

> <Gold.PLP.part.metal>
0.0000

> <Gold.PLP.part.buried>
-7.1535

> <Gold.PLP.part.nonpolar>
-31.5213

> <Gold.PLP.part.repulsive>
0.1137

> <Gold.PLP.ligand.clash>
0.0000

> <Gold.PLP.ligand.torsion>
0.8924

> <Gold.PLP.Chemscore.Hbond>
2.0000

> <Gold.PLP.Chemscore.CHOScore>
1.0000

> <Gold.PLP.Chemscore.Metal>
0.0000

> <Gold.Chemscore.Hbonds>
donor molecule, donor type, donor heavy atom, donor atom, acceptor molecule, acceptor atom, score
      P1  H  7989  7998       L1    12  1.00
      P1  H  7997  8010       L1     4  1.00
      L1  C     8    27       P1  8028  1.00

> <Gold.PLP.Chemscore.Internal.Correction>
0.0227

> <Gold.Rescore>
     Score         DG    S(hbond)    S(metal)    S(lipo)     H(rot)  DE(clash)    DE(int)     intcor
     12.53     -13.27       1.95        0.00      59.82       2.24       0.02       0.72       ----

> <Gold.Chemscore.Fitness>
12.5313

> <Gold.Chemscore.DG>
-13.2673

> <Gold.Chemscore.ZeroCoef>
-5.4800

> <Gold.Chemscore.Hbond>
1.9513

> <Gold.Chemscore.Metal>
0.0000

> <Gold.Chemscore.Lipo>
59.8166

> <Gold.Chemscore.Internal_Hbond>
0.0000

> <Gold.Chemscore.DEClash>
0.0204

> <Gold.Chemscore.DEInternal>
0.7156

> <Gold.Chemscore.Rot>
2.2377

> <Gold.Chemscore.Internal.Correction>
   9.000000E+99

> <Gold.Chemscore.Hbonds>
donor molecule, donor type, donor heavy atom, donor atom, acceptor molecule, acceptor atom, score
      P1  H  7989  7998       L1    12  0.88
      P1  H  7997  8010       L1     4  0.55

> <Gold.Chemscore.Hbond.Weighted>
-6.5173

> <Gold.Chemscore.Metal.Weighted>
-0.0000

> <Gold.Chemscore.Lipo.Weighted>
-6.9985

> <Gold.Chemscore.Internal_Hbond.Weighted>
0.0000

> <Gold.Chemscore.DEClash.Weighted>
0.0204

> <Gold.Chemscore.DEInternal.Weighted>
0.7156

> <Gold.Chemscore.Rot.Weighted>
5.7286

> <Gold.Chemscore.Internal.Correction.Weighted>
   9.000000E+99

> <Gold.Protein.RotatedTorsions>
[ 6907 6896 6895 6894 ] final  121.07 input  -60.11 | X-H torsion
[ 7974 7965 7964 7962 ] final   49.20 input  175.53 | X-H torsion
[ 8008 7997 7996 7995 ] final   30.13 input   59.86 | X-H torsion
[ 10167 10162 10161 10158 ] final   42.29 input  -65.29 | X-H torsion
[ 10718 10713 10712 10709 ] final -145.84 input   66.30 | X-H torsion
[ 10763 10752 10751 10750 ] final  172.75 input  -60.55 | X-H torsion
[ 11005 11000 10999 10996 ] final  109.49 input  -57.11 | X-H torsion

> <Gold.Protein.ActiveResidues>
 VAL166  LYS551  ARG553  GLY616  TRP617  ASP618  TYR619  PRO620  LYS621  CYS622 
 ASP623  PHE694  ASN695  SER759  ASP760  ASP761  ALA762  ILE779  LEU786  VAL792 
 PHE793  MET794  SER795  GLU796  ALA797  LYS798  CYS799  TRP800  GLU811  SER814 

> <Gold.Protein.RotatedAtoms>
  152.4350  133.7344  159.6605 H   0  0  0  0  0  0  0  0  0  0  0  0  # atno 6907 bound_to 6896
  150.8233  133.8205  159.3135 H   0  0  0  0  0  0  0  0  0  0  0  0  # atno 6908 bound_to 6896
  151.5881  135.1057  160.0084 H   0  0  0  0  0  0  0  0  0  0  0  0  # atno 6909 bound_to 6896
  146.0131  139.4566  142.9944 H   0  0  0  0  0  0  0  0  0  0  0  0  # atno 7974 bound_to 7965
  155.0856  140.3214  155.4588 H   0  0  0  0  0  0  0  0  0  0  0  0  # atno 8008 bound_to 7997
  156.2756  140.2087  156.5929 H   0  0  0  0  0  0  0  0  0  0  0  0  # atno 8009 bound_to 7997
  154.6944  140.0513  157.0383 H   0  0  0  0  0  0  0  0  0  0  0  0  # atno 8010 bound_to 7997
  140.3559  144.2291  150.6142 H   0  0  0  0  0  0  0  0  0  0  0  0  # atno 10167 bound_to 10162
  156.3875  130.7868  151.2067 H   0  0  0  0  0  0  0  0  0  0  0  0  # atno 10718 bound_to 10713
  154.4304  135.2759  155.1916 H   0  0  0  0  0  0  0  0  0  0  0  0  # atno 10763 bound_to 10752
  154.3824  135.6084  153.5802 H   0  0  0  0  0  0  0  0  0  0  0  0  # atno 10764 bound_to 10752
  152.9836  135.5883  154.4615 H   0  0  0  0  0  0  0  0  0  0  0  0  # atno 10765 bound_to 10752
  139.8863  134.9459  156.6134 H   0  0  0  0  0  0  0  0  0  0  0  0  # atno 11005 bound_to 11000
  145.7311  141.0042  143.1351 LP  0  0  0  0  0  0  0  0  0  0  0  0  # atno 17320 bound_to 7965
  144.6960  139.8985  143.7457 LP  0  0  0  0  0  0  0  0  0  0  0  0  # atno 17321 bound_to 7965
  140.5174  143.2274  151.8442 LP  0  0  0  0  0  0  0  0  0  0  0  0  # atno 17342 bound_to 10162
  139.4820  144.4877  151.9225 LP  0  0  0  0  0  0  0  0  0  0  0  0  # atno 17343 bound_to 10162
  157.7497  131.0325  150.4232 LP  0  0  0  0  0  0  0  0  0  0  0  0  # atno 17370 bound_to 10713
  156.4487  130.4007  149.6650 LP  0  0  0  0  0  0  0  0  0  0  0  0  # atno 17371 bound_to 10713
  140.7794  133.8672  155.8555 LP  0  0  0  0  0  0  0  0  0  0  0  0  # atno 17394 bound_to 11000
  140.9773  134.1452  157.4525 LP  0  0  0  0  0  0  0  0  0  0  0  0  # atno 17395 bound_to 11000

$$$$
