AV-unprocessed.smi:1283|AV-procd|sdf|5362|dock9
  -GOLD-   22720 4503D 1   1.00000     0.00000
 Structure written by MMmdl.
 30 31  0  0  0  0  0  0  0  0  1 V2000
  154.3661  136.1200  163.4400 C   0  0  0  0  0  0  0  0  0  0  0  0
  154.1235  137.2644  162.5603 N   0  0  0  0  0  0  0  0  0  0  0  0
  154.2186  138.4786  163.2078 N   0  0  0  0  0  0  0  0  0  0  0  0
  154.0235  139.5680  162.5485 C   0  0  0  0  0  0  0  0  0  0  0  0
  153.7029  139.5831  161.1303 C   0  0  0  0  0  0  0  0  0  0  0  0
  153.4906  140.7598  160.4253 N   0  0  0  0  0  0  0  0  0  0  0  0
  153.5414  142.1253  160.9239 C   0  0  0  0  0  0  0  0  0  0  0  0
  152.3252  142.9528  160.4790 C   0  0  1  0  0  0  0  0  0  0  0  0
  151.8710  144.0437  161.4516 C   0  0  0  0  0  0  0  0  0  0  0  0
  151.1561  144.9938  160.5176 C   0  0  0  0  0  0  0  0  0  0  0  0
  152.0421  144.9331  159.2759 C   0  0  0  0  0  0  0  0  0  0  0  0
  152.5718  143.6103  159.2383 O   0  0  0  0  0  0  0  0  0  0  0  0
  153.6179  138.3736  160.5147 C   0  0  0  0  0  0  0  0  0  0  0  0
  153.2451  138.2791  158.8255 Cl  0  0  0  0  0  0  0  0  0  0  0  0
  153.8350  137.1092  161.2337 C   0  0  0  0  0  0  0  0  0  0  0  0
  153.7644  136.0047  160.6934 O   0  0  0  0  0  0  0  0  0  0  0  0
  154.2922  135.1520  162.9430 H   0  0  0  0  0  0  0  0  0  0  0  0
  153.6462  136.1191  164.2595 H   0  0  0  0  0  0  0  0  0  0  0  0
  155.3648  136.1870  163.8732 H   0  0  0  0  0  0  0  0  0  0  0  0
  154.0907  140.5409  163.0347 H   0  0  0  0  0  0  0  0  0  0  0  0
  153.2751  140.6741  159.4419 H   0  0  0  0  0  0  0  0  0  0  0  0
  153.5930  142.1028  162.0127 H   0  0  0  0  0  0  0  0  0  0  0  0
  154.4569  142.5993  160.5685 H   0  0  0  0  0  0  0  0  0  0  0  0
  151.4859  142.2767  160.3103 H   0  0  0  0  0  0  0  0  0  0  0  0
  151.2318  143.6637  162.2489 H   0  0  0  0  0  0  0  0  0  0  0  0
  152.7215  144.5507  161.9091 H   0  0  0  0  0  0  0  0  0  0  0  0
  150.1591  144.6150  160.2875 H   0  0  0  0  0  0  0  0  0  0  0  0
  151.0555  146.0014  160.9219 H   0  0  0  0  0  0  0  0  0  0  0  0
  151.4965  145.1717  158.3627 H   0  0  0  0  0  0  0  0  0  0  0  0
  152.8719  145.6348  159.3681 H   0  0  0  0  0  0  0  0  0  0  0  0
  1  2  1  0  0  0  0
  1 17  1  0  0  0  0
  1 18  1  0  0  0  0
  1 19  1  0  0  0  0
  2 15  1  0  0  0  0
  2  3  1  0  0  0  0
  3  4  2  0  0  0  0
  4  5  1  0  0  0  0
  4 20  1  0  0  0  0
  5  6  1  0  0  0  0
  5 13  2  0  0  0  0
  6  7  1  0  0  0  0
  6 21  1  0  0  0  0
  7  8  1  0  0  0  0
  7 22  1  0  0  0  0
  7 23  1  0  0  0  0
  8 12  1  0  0  0  0
  8  9  1  0  0  0  0
  8 24  1  0  0  0  0
  9 10  1  0  0  0  0
  9 25  1  0  0  0  0
  9 26  1  0  0  0  0
 10 11  1  0  0  0  0
 10 27  1  0  0  0  0
 10 28  1  0  0  0  0
 11 12  1  0  0  0  0
 11 29  1  0  0  0  0
 11 30  1  0  0  0  0
 13 14  1  0  0  0  0
 13 15  1  0  0  0  0
 15 16  2  0  0  0  0
M  END
> <s_m_source_file>
AV-unprocessed.smi

> <i_m_source_file_index>
1283

> <i_lp_mmshare_version>
43012

> <i_f3d_flags>
0

> <s_epik_input>
W0NIM11uMW5bY0hdYyhjKENsKWMxPU8pW05IXVtDSDJdW0NAQEhdMltDSDJdW0NIMl1bQ0gyXU8y

> <s_epik_cmdline>
J2VwaWtfcHl0aG9uJywgJy1waCcsICc3LjAnLCAnLXRuJywgJzgnLCAnLW1hJywgJzIwMCcsICctbWV0YWxfYmluZGluZycsICctaW1hZScsICc8aW5maWxlLm1hZT4nLCAnLW9tYWUnLCAnPG91dGZpbGUubWFlPic=

> <r_lp_tautomer_probability>
1

> <r_epik_Ionization_Penalty>
2.40876e-05

> <r_epik_Ionization_Penalty_Charging>
4.17655e-09

> <r_epik_Ionization_Penalty_Neutral>
2.40834e-05

> <r_epik_State_Penalty>
-0

> <r_epik_Charging_Adjusted_Penalty>
4.17655e-09

> <i_epik_Tot_Q>
0

> <i_epik_Tot_abs_Q>
0

> <r_epik_Metal_State_Penalty>
-0

> <b_epik_Metal_Only>
0

> <s_lp_Force_Field>
OPLS_2005

> <r_lp_Energy>
41.0811

> <b_lp_Chiralities_Consistent>
1

> <s_lp_Variant>
AV-unprocessed.smi:1283-2

> <Gold.Version>
5.8.1

> <Gold.Id.Protein>
6NUR|6NUR_protein|mol2

> <Gold.PLP.Fitness>
36.5628

> <Gold.PLP.PLP>
-34.4818

> <Gold.PLP.part.hbond>
-1.0000

> <Gold.PLP.part.metal>
0.0000

> <Gold.PLP.part.buried>
-5.5972

> <Gold.PLP.part.nonpolar>
-27.7659

> <Gold.PLP.part.repulsive>
0.0640

> <Gold.PLP.ligand.clash>
0.0000

> <Gold.PLP.ligand.torsion>
0.4597

> <Gold.PLP.Chemscore.Hbond>
1.0000

> <Gold.PLP.Chemscore.CHOScore>
0.0000

> <Gold.PLP.Chemscore.Metal>
0.0000

> <Gold.Chemscore.Hbonds>
donor molecule, donor type, donor heavy atom, donor atom, acceptor molecule, acceptor atom, score
      P1  H  6896  6907       L1    16  1.00

> <Gold.PLP.Chemscore.Internal.Correction>
0.0004

> <Gold.Rescore>
     Score         DG    S(hbond)    S(metal)    S(lipo)     H(rot)  DE(clash)    DE(int)     intcor
     16.14     -16.18       1.00        0.00      89.69       1.22       0.00       0.04       ----

> <Gold.Chemscore.Fitness>
16.1401

> <Gold.Chemscore.DG>
-16.1826

> <Gold.Chemscore.ZeroCoef>
-5.4800

> <Gold.Chemscore.Hbond>
0.9984

> <Gold.Chemscore.Metal>
0.0000

> <Gold.Chemscore.Lipo>
89.6874

> <Gold.Chemscore.Internal_Hbond>
0.0000

> <Gold.Chemscore.DEClash>
0.0000

> <Gold.Chemscore.DEInternal>
0.0425

> <Gold.Chemscore.Rot>
1.2208

> <Gold.Chemscore.Internal.Correction>
   9.000000E+99

> <Gold.Chemscore.Hbonds>
donor molecule, donor type, donor heavy atom, donor atom, acceptor molecule, acceptor atom, score
      P1  H  6896  6907       L1    16  0.97

> <Gold.Chemscore.Hbond.Weighted>
-3.3345

> <Gold.Chemscore.Metal.Weighted>
-0.0000

> <Gold.Chemscore.Lipo.Weighted>
-10.4934

> <Gold.Chemscore.Internal_Hbond.Weighted>
0.0000

> <Gold.Chemscore.DEClash.Weighted>
0.0000

> <Gold.Chemscore.DEInternal.Weighted>
0.0425

> <Gold.Chemscore.Rot.Weighted>
3.1253

> <Gold.Chemscore.Internal.Correction.Weighted>
   9.000000E+99

> <Gold.Protein.RotatedTorsions>
[ 6907 6896 6895 6894 ] final   58.37 input  -60.11 | X-H torsion
[ 7974 7965 7964 7962 ] final   12.02 input  175.53 | X-H torsion
[ 8008 7997 7996 7995 ] final   28.55 input   59.86 | X-H torsion
[ 10167 10162 10161 10158 ] final  129.06 input  -65.29 | X-H torsion
[ 10718 10713 10712 10709 ] final  178.23 input   66.30 | X-H torsion
[ 10763 10752 10751 10750 ] final   25.87 input  -60.55 | X-H torsion
[ 11005 11000 10999 10996 ] final   70.90 input  -57.11 | X-H torsion

> <Gold.Protein.ActiveResidues>
 VAL166  LYS551  ARG553  GLY616  TRP617  ASP618  TYR619  PRO620  LYS621  CYS622 
 ASP623  PHE694  ASN695  SER759  ASP760  ASP761  ALA762  ILE779  LEU786  VAL792 
 PHE793  MET794  SER795  GLU796  ALA797  LYS798  CYS799  TRP800  GLU811  SER814 

> <Gold.Protein.RotatedAtoms>
  152.3818  134.6578  160.0139 H   0  0  0  0  0  0  0  0  0  0  0  0  # atno 6907 bound_to 6896
  151.6839  133.3306  159.3234 H   0  0  0  0  0  0  0  0  0  0  0  0  # atno 6908 bound_to 6896
  150.7753  134.6693  159.6427 H   0  0  0  0  0  0  0  0  0  0  0  0  # atno 6909 bound_to 6896
  146.2359  139.9398  142.8484 H   0  0  0  0  0  0  0  0  0  0  0  0  # atno 7974 bound_to 7965
  155.0604  140.3189  155.4662 H   0  0  0  0  0  0  0  0  0  0  0  0  # atno 8008 bound_to 7997
  156.2814  140.2130  156.5676 H   0  0  0  0  0  0  0  0  0  0  0  0  # atno 8009 bound_to 7997
  154.7136  140.0496  157.0561 H   0  0  0  0  0  0  0  0  0  0  0  0  # atno 8010 bound_to 7997
  139.5496  144.6802  151.4365 H   0  0  0  0  0  0  0  0  0  0  0  0  # atno 10167 bound_to 10162
  156.8936  130.9855  151.3046 H   0  0  0  0  0  0  0  0  0  0  0  0  # atno 10718 bound_to 10713
  153.0661  135.6573  154.0350 H   0  0  0  0  0  0  0  0  0  0  0  0  # atno 10763 bound_to 10752
  154.0007  135.2937  155.3404 H   0  0  0  0  0  0  0  0  0  0  0  0  # atno 10764 bound_to 10752
  154.7020  135.5241  153.8609 H   0  0  0  0  0  0  0  0  0  0  0  0  # atno 10765 bound_to 10752
  139.9572  134.7123  156.0726 H   0  0  0  0  0  0  0  0  0  0  0  0  # atno 11005 bound_to 11000
  145.1963  140.9834  143.4181 LP  0  0  0  0  0  0  0  0  0  0  0  0  # atno 17320 bound_to 7965
  144.9812  139.3781  143.6261 LP  0  0  0  0  0  0  0  0  0  0  0  0  # atno 17321 bound_to 7965
  140.6755  143.8200  150.7053 LP  0  0  0  0  0  0  0  0  0  0  0  0  # atno 17342 bound_to 10162
  140.1637  143.4253  152.2049 LP  0  0  0  0  0  0  0  0  0  0  0  0  # atno 17343 bound_to 10162
  157.6069  130.8553  149.8889 LP  0  0  0  0  0  0  0  0  0  0  0  0  # atno 17370 bound_to 10713
  156.0616  130.3699  150.0969 LP  0  0  0  0  0  0  0  0  0  0  0  0  # atno 17371 bound_to 10713
  141.1245  133.6603  156.3301 LP  0  0  0  0  0  0  0  0  0  0  0  0  # atno 17394 bound_to 11000
  140.5582  134.5960  157.5426 LP  0  0  0  0  0  0  0  0  0  0  0  0  # atno 17395 bound_to 11000

$$$$
