AV-unprocessed.smi:62|AV-procd|sdf|603|dock4
  -GOLD-   2262016493D 1   1.00000     0.00000
 Structure written by MMmdl.
 31 32  0  0  0  0  0  0  0  0  3 V2000
  151.6832  142.7042  159.1846 C   0  0  0  0  0  0  0  0  0  0  0  0
  151.3681  141.9865  157.9682 N   0  0  0  0  0  0  0  0  0  0  0  0
  150.3364  142.2015  157.0836 C   0  0  0  0  0  0  0  0  0  0  0  0
  150.4411  141.2776  156.0806 C   0  0  0  0  0  0  0  0  0  0  0  0
  149.5173  141.1441  154.8928 C   0  0  0  0  0  0  0  0  0  0  0  0
  148.3375  142.0315  155.0199 N   0  3  1  0  0  0  0  0  0  0  0  0
  147.4914  142.1378  153.8106 C   0  0  0  0  0  0  0  0  0  0  0  0
  146.1018  142.4964  154.3274 C   0  0  0  0  0  0  0  0  0  0  0  0
  146.0202  141.6932  155.6215 C   0  0  2  0  0  0  0  0  0  0  0  0
  145.0877  142.2424  156.5285 O   0  0  0  0  0  0  0  0  0  0  0  0
  147.4542  141.7209  156.1685 C   0  0  0  0  0  0  0  0  0  0  0  0
  151.6025  140.5204  156.4568 C   0  0  0  0  0  0  0  0  0  0  0  0
  152.1078  139.3591  155.6421 C   0  0  0  0  0  0  0  0  0  0  0  0
  151.5789  139.0908  154.5407 O   0  0  0  0  0  0  0  0  0  0  0  0
  153.0503  138.6833  156.1089 O   0  5  0  0  0  0  0  0  0  0  0  0
  152.1454  140.9568  157.5853 N   0  0  0  0  0  0  0  0  0  0  0  0
  150.9479  143.4907  159.3567 H   0  0  0  0  0  0  0  0  0  0  0  0
  152.6724  143.1556  159.1009 H   0  0  0  0  0  0  0  0  0  0  0  0
  151.6730  142.0176  160.0318 H   0  0  0  0  0  0  0  0  0  0  0  0
  149.6153  142.9907  157.2375 H   0  0  0  0  0  0  0  0  0  0  0  0
  150.0374  141.3835  153.9640 H   0  0  0  0  0  0  0  0  0  0  0  0
  149.1774  140.1138  154.7819 H   0  0  0  0  0  0  0  0  0  0  0  0
  147.8815  142.8779  153.1109 H   0  0  0  0  0  0  0  0  0  0  0  0
  147.4536  141.1749  153.2983 H   0  0  0  0  0  0  0  0  0  0  0  0
  146.0541  143.5664  154.5369 H   0  0  0  0  0  0  0  0  0  0  0  0
  145.3072  142.2523  153.6217 H   0  0  0  0  0  0  0  0  0  0  0  0
  145.7380  140.6648  155.3915 H   0  0  0  0  0  0  0  0  0  0  0  0
  144.3139  142.4985  156.0498 H   0  0  0  0  0  0  0  0  0  0  0  0
  147.7074  140.7760  156.6517 H   0  0  0  0  0  0  0  0  0  0  0  0
  147.5838  142.5127  156.9077 H   0  0  0  0  0  0  0  0  0  0  0  0
  148.6980  142.9591  155.1995 H   0  0  0  0  0  0  0  0  0  0  0  0
  1  2  1  0  0  0  0
  1 17  1  0  0  0  0
  1 18  1  0  0  0  0
  1 19  1  0  0  0  0
  2 16  1  0  0  0  0
  2  3  1  0  0  0  0
  3  4  2  0  0  0  0
  3 20  1  0  0  0  0
  4  5  1  0  0  0  0
  4 12  1  0  0  0  0
  5  6  1  0  0  0  0
  5 21  1  0  0  0  0
  5 22  1  0  0  0  0
  6 11  1  0  0  0  0
  6  7  1  0  0  0  0
  6 31  1  0  0  0  0
  7  8  1  0  0  0  0
  7 23  1  0  0  0  0
  7 24  1  0  0  0  0
  8  9  1  0  0  0  0
  8 25  1  0  0  0  0
  8 26  1  0  0  0  0
  9 10  1  0  0  0  0
  9 11  1  0  0  0  0
  9 27  1  0  0  0  0
 10 28  1  0  0  0  0
 11 29  1  0  0  0  0
 11 30  1  0  0  0  0
 12 13  1  0  0  0  0
 12 16  2  0  0  0  0
 13 14  2  0  0  0  0
 13 15  1  0  0  0  0
M  CHG  1   6   1
M  CHG  1  15  -1
M  END
> <s_m_source_file>
AV-unprocessed.smi

> <i_m_source_file_index>
62

> <i_lp_mmshare_version>
43012

> <i_f3d_flags>
0

> <s_epik_input>
W0NIM11uMVtjSF1jKGMobjEpQyg9TylbT0hdKVtDSDJdTjJbQ0gyXVtDSDJdW0NAQEhdKFtPSF0pW0NIMl0y

> <s_epik_cmdline>
J2VwaWtfcHl0aG9uJywgJy1waCcsICc3LjAnLCAnLXRuJywgJzgnLCAnLW1hJywgJzIwMCcsICctbWV0YWxfYmluZGluZycsICctaW1hZScsICc8aW5maWxlLm1hZT4nLCAnLW9tYWUnLCAnPG91dGZpbGUubWFlPic=

> <r_epik_Ionization_Penalty>
0.0522993

> <r_epik_Ionization_Penalty_Charging>
0.0522915

> <r_epik_Ionization_Penalty_Neutral>
7.84975e-06

> <r_epik_State_Penalty>
0.0448084

> <r_epik_Charging_Adjusted_Penalty>
0.0970998

> <i_epik_Tot_Q>
0

> <i_epik_Tot_abs_Q>
2

> <r_epik_Metal_State_Penalty>
0.0448097

> <b_epik_Metal_Only>
0

> <s_lp_Force_Field>
OPLS_2005

> <r_lp_Energy>
17.4079

> <b_lp_Chiralities_Consistent>
1

> <s_lp_Variant>
AV-unprocessed.smi:62-3

> <Gold.Version>
5.8.1

> <Gold.Id.Protein>
6NUR|6NUR_protein|mol2

> <Gold.PLP.Fitness>
46.6986

> <Gold.PLP.PLP>
-29.0152

> <Gold.PLP.part.hbond>
-3.0000

> <Gold.PLP.part.metal>
0.0000

> <Gold.PLP.part.buried>
-2.9498

> <Gold.PLP.part.nonpolar>
-22.9704

> <Gold.PLP.part.repulsive>
0.2651

> <Gold.PLP.ligand.clash>
0.0000

> <Gold.PLP.ligand.torsion>
0.1019

> <Gold.PLP.Chemscore.Hbond>
5.0000

> <Gold.PLP.Chemscore.CHOScore>
0.9578

> <Gold.PLP.Chemscore.Metal>
0.0000

> <Gold.Chemscore.Hbonds>
donor molecule, donor type, donor heavy atom, donor atom, acceptor molecule, acceptor atom, score
      L1  H     6    31       P1  8028  2.00
      P1  H  7989  7998       L1    14  0.96
      P1  H  7997  8008       L1    15  2.00
      L1  C     3    20       P1  8028  0.98

> <Gold.PLP.Chemscore.Internal.Correction>
0.0138

> <Gold.Rescore>
     Score         DG    S(hbond)    S(metal)    S(lipo)     H(rot)  DE(clash)    DE(int)     intcor
     14.95     -16.31       2.71        0.00      54.71       1.81       0.03       1.33       ----

> <Gold.Chemscore.Fitness>
14.9542

> <Gold.Chemscore.DG>
-16.3117

> <Gold.Chemscore.ZeroCoef>
-5.4800

> <Gold.Chemscore.Hbond>
2.7131

> <Gold.Chemscore.Metal>
0.0000

> <Gold.Chemscore.Lipo>
54.7116

> <Gold.Chemscore.Internal_Hbond>
0.0000

> <Gold.Chemscore.DEClash>
0.0308

> <Gold.Chemscore.DEInternal>
1.3267

> <Gold.Chemscore.Rot>
1.8091

> <Gold.Chemscore.Internal.Correction>
   9.000000E+99

> <Gold.Chemscore.Hbonds>
donor molecule, donor type, donor heavy atom, donor atom, acceptor molecule, acceptor atom, score
      L1  H     6    31       P1  8028  1.00
      P1  H  7989  7998       L1    14  0.44
      P1  H  7997  8008       L1    15  0.33

> <Gold.Chemscore.Hbond.Weighted>
-9.0618

> <Gold.Chemscore.Metal.Weighted>
-0.0000

> <Gold.Chemscore.Lipo.Weighted>
-6.4013

> <Gold.Chemscore.Internal_Hbond.Weighted>
0.0000

> <Gold.Chemscore.DEClash.Weighted>
0.0308

> <Gold.Chemscore.DEInternal.Weighted>
1.3267

> <Gold.Chemscore.Rot.Weighted>
4.6314

> <Gold.Chemscore.Internal.Correction.Weighted>
   9.000000E+99

> <Gold.Protein.RotatedTorsions>
[ 6907 6896 6895 6894 ] final -120.13 input  -60.11 | X-H torsion
[ 7974 7965 7964 7962 ] final  150.00 input  175.53 | X-H torsion
[ 8008 7997 7996 7995 ] final  -53.53 input   59.86 | X-H torsion
[ 10167 10162 10161 10158 ] final  -70.06 input  -65.29 | X-H torsion
[ 10718 10713 10712 10709 ] final  -88.90 input   66.30 | X-H torsion
[ 10763 10752 10751 10750 ] final -167.81 input  -60.55 | X-H torsion
[ 11005 11000 10999 10996 ] final   49.44 input  -57.11 | X-H torsion

> <Gold.Protein.ActiveResidues>
 VAL166  LYS551  ARG553  GLY616  TRP617  ASP618  TYR619  PRO620  LYS621  CYS622 
 ASP623  PHE694  ASN695  SER759  ASP760  ASP761  ALA762  ILE779  LEU786  VAL792 
 PHE793  MET794  SER795  GLU796  ALA797  LYS798  CYS799  TRP800  GLU811  SER814 

> <Gold.Protein.RotatedAtoms>
  150.8366  133.8003  159.3076 H   0  0  0  0  0  0  0  0  0  0  0  0  # atno 6907 bound_to 6896
  151.5717  135.1060  160.0006 H   0  0  0  0  0  0  0  0  0  0  0  0  # atno 6908 bound_to 6896
  152.4437  133.7455  159.6721 H   0  0  0  0  0  0  0  0  0  0  0  0  # atno 6909 bound_to 6896
  144.8396  139.6352  143.6022 H   0  0  0  0  0  0  0  0  0  0  0  0  # atno 7974 bound_to 7965
  154.4136  140.1198  156.5169 H   0  0  0  0  0  0  0  0  0  0  0  0  # atno 8008 bound_to 7997
  155.6742  140.3496  155.4811 H   0  0  0  0  0  0  0  0  0  0  0  0  # atno 8009 bound_to 7997
  155.9607  140.1122  157.0888 H   0  0  0  0  0  0  0  0  0  0  0  0  # atno 8010 bound_to 7997
  140.5382  143.2316  151.7138 H   0  0  0  0  0  0  0  0  0  0  0  0  # atno 10167 bound_to 10162
  155.9984  130.4852  150.5089 H   0  0  0  0  0  0  0  0  0  0  0  0  # atno 10718 bound_to 10713
  154.6694  135.2937  154.9762 H   0  0  0  0  0  0  0  0  0  0  0  0  # atno 10763 bound_to 10752
  154.0795  135.6606  153.4839 H   0  0  0  0  0  0  0  0  0  0  0  0  # atno 10764 bound_to 10752
  153.0477  135.5194  154.7682 H   0  0  0  0  0  0  0  0  0  0  0  0  # atno 10765 bound_to 10752
  140.1103  134.4964  155.8684 H   0  0  0  0  0  0  0  0  0  0  0  0  # atno 11005 bound_to 11000
  146.2690  139.6590  142.9309 LP  0  0  0  0  0  0  0  0  0  0  0  0  # atno 17320 bound_to 7965
  145.4721  141.0436  143.2692 LP  0  0  0  0  0  0  0  0  0  0  0  0  # atno 17321 bound_to 7965
  139.4979  144.4010  152.0182 LP  0  0  0  0  0  0  0  0  0  0  0  0  # atno 17342 bound_to 10162
  140.3117  144.3531  150.6032 LP  0  0  0  0  0  0  0  0  0  0  0  0  # atno 17343 bound_to 10162
  157.3064  131.0655  151.2032 LP  0  0  0  0  0  0  0  0  0  0  0  0  # atno 17370 bound_to 10713
  157.2993  130.6835  149.6155 LP  0  0  0  0  0  0  0  0  0  0  0  0  # atno 17371 bound_to 10713
  141.2128  133.6725  156.6691 LP  0  0  0  0  0  0  0  0  0  0  0  0  # atno 17394 bound_to 11000
  140.3100  134.8094  157.4168 LP  0  0  0  0  0  0  0  0  0  0  0  0  # atno 17395 bound_to 11000

$$$$
