AV-unprocessed.smi:703|AV-procd|sdf|3430|dock1
  -GOLD-   22720 0413D 1   1.00000     0.00000
 Structure written by MMmdl.
 38 39  0  0  0  0  0  0  0  0  2 V2000
  152.2885  144.3430  159.8156 C   0  0  0  0  0  0  0  0  0  0  0  0
  151.8672  144.7718  158.4037 C   0  0  0  0  0  0  0  0  0  0  0  0
  150.7229  143.9796  157.8957 N   0  3  1  0  0  0  0  0  0  0  0  0
  151.0434  142.5959  157.4976 C   0  0  0  0  0  0  0  0  0  0  0  0
  149.6871  141.8946  157.3949 C   0  0  1  0  0  0  0  0  0  0  0  0
  149.7609  140.3752  157.5968 C   0  0  0  0  0  0  0  0  0  0  0  0
  148.8036  142.6209  158.4264 C   0  0  2  0  0  0  0  0  0  0  0  0
  147.5176  142.9915  157.8278 N   0  0  0  0  0  0  0  0  0  0  0  0
  146.0777  142.6825  158.7240 S   0  0  0  0  0  0  0  0  0  0  0  0
  144.9415  143.1276  157.9027 O   0  0  0  0  0  0  0  0  0  0  0  0
  146.1444  141.2899  159.1924 O   0  0  0  0  0  0  0  0  0  0  0  0
  146.2473  143.8182  160.1652 C   0  0  0  0  0  0  0  0  0  0  0  0
  145.1432  143.5529  161.1489 C   0  0  0  0  0  0  0  0  0  0  0  0
  144.9221  144.1600  162.4161 C   0  0  0  0  0  0  0  0  0  0  0  0
  143.7891  143.5480  162.8692 C   0  0  0  0  0  0  0  0  0  0  0  0
  143.3420  142.6437  161.9618 O   0  0  0  0  0  0  0  0  0  0  0  0
  144.2126  142.6552  160.8661 N   0  0  0  0  0  0  0  0  0  0  0  0
  149.5941  143.8728  158.8418 C   0  0  0  0  0  0  0  0  0  0  0  0
  153.1732  144.8931  160.1366 H   0  0  0  0  0  0  0  0  0  0  0  0
  152.5298  143.2801  159.8502 H   0  0  0  0  0  0  0  0  0  0  0  0
  151.5029  144.5342  160.5469 H   0  0  0  0  0  0  0  0  0  0  0  0
  151.6260  145.8356  158.3853 H   0  0  0  0  0  0  0  0  0  0  0  0
  152.7125  144.6302  157.7291 H   0  0  0  0  0  0  0  0  0  0  0  0
  151.5963  142.5585  156.5586 H   0  0  0  0  0  0  0  0  0  0  0  0
  151.6554  142.1276  158.2706 H   0  0  0  0  0  0  0  0  0  0  0  0
  149.3000  142.0870  156.3924 H   0  0  0  0  0  0  0  0  0  0  0  0
  150.1557  140.1221  158.5813 H   0  0  0  0  0  0  0  0  0  0  0  0
  150.4055  139.9117  156.8495 H   0  0  0  0  0  0  0  0  0  0  0  0
  148.7725  139.9232  157.5086 H   0  0  0  0  0  0  0  0  0  0  0  0
  148.6340  141.9966  159.3054 H   0  0  0  0  0  0  0  0  0  0  0  0
  147.5313  143.9468  157.4711 H   0  0  0  0  0  0  0  0  0  0  0  0
  147.2241  143.6581  160.6207 H   0  0  0  0  0  0  0  0  0  0  0  0
  146.2138  144.8445  159.7983 H   0  0  0  0  0  0  0  0  0  0  0  0
  145.5047  144.9203  162.9148 H   0  0  0  0  0  0  0  0  0  0  0  0
  143.2050  143.6422  163.7726 H   0  0  0  0  0  0  0  0  0  0  0  0
  149.9801  143.7334  159.8532 H   0  0  0  0  0  0  0  0  0  0  0  0
  148.9949  144.7844  158.8434 H   0  0  0  0  0  0  0  0  0  0  0  0
  150.3642  144.4450  157.0742 H   0  0  0  0  0  0  0  0  0  0  0  0
  1  2  1  0  0  0  0
  1 19  1  0  0  0  0
  1 20  1  0  0  0  0
  1 21  1  0  0  0  0
  2  3  1  0  0  0  0
  2 22  1  0  0  0  0
  2 23  1  0  0  0  0
  3 18  1  0  0  0  0
  3  4  1  0  0  0  0
  3 38  1  0  0  0  0
  4  5  1  0  0  0  0
  4 24  1  0  0  0  0
  4 25  1  0  0  0  0
  5  6  1  0  0  0  0
  5  7  1  0  0  0  0
  5 26  1  0  0  0  0
  6 27  1  0  0  0  0
  6 28  1  0  0  0  0
  6 29  1  0  0  0  0
  7  8  1  0  0  0  0
  7 18  1  0  0  0  0
  7 30  1  0  0  0  0
  8  9  1  0  0  0  0
  8 31  1  0  0  0  0
  9 10  2  0  0  0  0
  9 11  2  0  0  0  0
  9 12  1  0  0  0  0
 12 13  1  0  0  0  0
 12 32  1  0  0  0  0
 12 33  1  0  0  0  0
 13 17  2  0  0  0  0
 13 14  1  0  0  0  0
 14 15  2  0  0  0  0
 14 34  1  0  0  0  0
 15 16  1  0  0  0  0
 15 35  1  0  0  0  0
 16 17  1  0  0  0  0
 18 36  1  0  0  0  0
 18 37  1  0  0  0  0
M  CHG  1   3   1
M  END
> <s_m_source_file>
AV-unprocessed.smi

> <i_m_source_file_index>
703

> <i_lp_mmshare_version>
43012

> <i_f3d_flags>
0

> <s_epik_input>
W0NIM11bQ0gyXU4xW0NIMl1bQ0BASF0oW0NIM10pW0NASF0oW0NIMl0xKVtOSF1TKD1PKSg9TylbQ0gyXWMyW2NIXVtjSF1vbjI=

> <s_epik_cmdline>
J2VwaWtfcHl0aG9uJywgJy1waCcsICc3LjAnLCAnLXRuJywgJzgnLCAnLW1hJywgJzIwMCcsICctbWV0YWxfYmluZGluZycsICctaW1hZScsICc8aW5maWxlLm1hZT4nLCAnLW9tYWUnLCAnPG91dGZpbGUubWFlPic=

> <r_epik_Ionization_Penalty>
0.00324529

> <r_epik_Ionization_Penalty_Charging>
0.0019384

> <r_epik_Ionization_Penalty_Neutral>
0.00130689

> <r_epik_State_Penalty>
0.00218682

> <r_epik_Charging_Adjusted_Penalty>
0.00412522

> <i_epik_Tot_Q>
1

> <i_epik_Tot_abs_Q>
1

> <r_epik_Metal_State_Penalty>
0.310831

> <b_epik_Metal_Only>
0

> <s_lp_Force_Field>
OPLS_2005

> <r_lp_Energy>
19.0456

> <b_lp_Chiralities_Consistent>
1

> <s_lp_Variant>
AV-unprocessed.smi:703-5

> <Gold.Version>
5.8.1

> <Gold.Id.Protein>
6NUR|6NUR_protein|mol2

> <Gold.PLP.Fitness>
38.4888

> <Gold.PLP.PLP>
-31.5398

> <Gold.PLP.part.hbond>
-4.9429

> <Gold.PLP.part.metal>
0.0000

> <Gold.PLP.part.buried>
-2.6237

> <Gold.PLP.part.nonpolar>
-25.7644

> <Gold.PLP.part.repulsive>
0.1024

> <Gold.PLP.ligand.clash>
0.0000

> <Gold.PLP.ligand.torsion>
0.9258

> <Gold.PLP.Chemscore.Hbond>
2.8700

> <Gold.PLP.Chemscore.CHOScore>
0.0000

> <Gold.PLP.Chemscore.Metal>
0.0000

> <Gold.Chemscore.Hbonds>
donor molecule, donor type, donor heavy atom, donor atom, acceptor molecule, acceptor atom, score
      L1  H     3    38       P1  8028  1.98
      L1  H     8    31       P1  8029  0.15
      P1  H  6934  6946       L1    11  0.74

> <Gold.PLP.Chemscore.Internal.Correction>
0.1906

> <Gold.Rescore>
     Score         DG    S(hbond)    S(metal)    S(lipo)     H(rot)  DE(clash)    DE(int)     intcor
     12.09     -15.14       1.60        0.00      79.42       1.94       0.86       2.19       ----

> <Gold.Chemscore.Fitness>
12.0926

> <Gold.Chemscore.DG>
-15.1427

> <Gold.Chemscore.ZeroCoef>
-5.4800

> <Gold.Chemscore.Hbond>
1.5978

> <Gold.Chemscore.Metal>
0.0000

> <Gold.Chemscore.Lipo>
79.4230

> <Gold.Chemscore.Internal_Hbond>
0.0000

> <Gold.Chemscore.DEClash>
0.8579

> <Gold.Chemscore.DEInternal>
2.1922

> <Gold.Chemscore.Rot>
1.9400

> <Gold.Chemscore.Internal.Correction>
   9.000000E+99

> <Gold.Chemscore.Hbonds>
donor molecule, donor type, donor heavy atom, donor atom, acceptor molecule, acceptor atom, score
      L1  H     3    38       P1  8028  0.70
      P1  H  6934  6946       L1    11  0.73

> <Gold.Chemscore.Hbond.Weighted>
-5.3367

> <Gold.Chemscore.Metal.Weighted>
-0.0000

> <Gold.Chemscore.Lipo.Weighted>
-9.2925

> <Gold.Chemscore.Internal_Hbond.Weighted>
0.0000

> <Gold.Chemscore.DEClash.Weighted>
0.8579

> <Gold.Chemscore.DEInternal.Weighted>
2.1922

> <Gold.Chemscore.Rot.Weighted>
4.9665

> <Gold.Chemscore.Internal.Correction.Weighted>
   9.000000E+99

> <Gold.Protein.RotatedTorsions>
[ 6907 6896 6895 6894 ] final   39.29 input  -60.11 | X-H torsion
[ 7974 7965 7964 7962 ] final   94.71 input  175.53 | X-H torsion
[ 8008 7997 7996 7995 ] final   63.67 input   59.86 | X-H torsion
[ 10167 10162 10161 10158 ] final  -19.70 input  -65.29 | X-H torsion
[ 10718 10713 10712 10709 ] final   78.00 input   66.30 | X-H torsion
[ 10763 10752 10751 10750 ] final  140.57 input  -60.55 | X-H torsion
[ 11005 11000 10999 10996 ] final -173.24 input  -57.11 | X-H torsion

> <Gold.Protein.ActiveResidues>
 VAL166  LYS551  ARG553  GLY616  TRP617  ASP618  TYR619  PRO620  LYS621  CYS622 
 ASP623  PHE694  ASN695  SER759  ASP760  ASP761  ALA762  ILE779  LEU786  VAL792 
 PHE793  MET794  SER795  GLU796  ALA797  LYS798  CYS799  TRP800  GLU811  SER814 

> <Gold.Protein.RotatedAtoms>
  152.1677  134.8860  160.0536 H   0  0  0  0  0  0  0  0  0  0  0  0  # atno 6907 bound_to 6896
  151.9832  133.3760  159.4124 H   0  0  0  0  0  0  0  0  0  0  0  0  # atno 6908 bound_to 6896
  150.6897  134.3939  159.5132 H   0  0  0  0  0  0  0  0  0  0  0  0  # atno 6909 bound_to 6896
  145.4619  139.2286  143.2983 H   0  0  0  0  0  0  0  0  0  0  0  0  # atno 7974 bound_to 7965
  155.6338  140.3496  155.4692 H   0  0  0  0  0  0  0  0  0  0  0  0  # atno 8008 bound_to 7997
  155.9981  140.1207  157.0597 H   0  0  0  0  0  0  0  0  0  0  0  0  # atno 8009 bound_to 7997
  154.4240  140.1106  156.5645 H   0  0  0  0  0  0  0  0  0  0  0  0  # atno 8010 bound_to 7997
  140.7270  143.4793  151.0139 H   0  0  0  0  0  0  0  0  0  0  0  0  # atno 10167 bound_to 10162
  157.6730  130.9848  150.1722 H   0  0  0  0  0  0  0  0  0  0  0  0  # atno 10718 bound_to 10713
  153.9248  135.2996  155.3447 H   0  0  0  0  0  0  0  0  0  0  0  0  # atno 10763 bound_to 10752
  154.7557  135.4959  153.9373 H   0  0  0  0  0  0  0  0  0  0  0  0  # atno 10764 bound_to 10752
  153.1122  135.6762  153.9583 H   0  0  0  0  0  0  0  0  0  0  0  0  # atno 10765 bound_to 10752
  140.4879  134.6012  157.4944 H   0  0  0  0  0  0  0  0  0  0  0  0  # atno 11005 bound_to 11000
  146.2446  140.5388  142.8919 LP  0  0  0  0  0  0  0  0  0  0  0  0  # atno 17320 bound_to 7965
  144.7998  140.6191  143.6486 LP  0  0  0  0  0  0  0  0  0  0  0  0  # atno 17321 bound_to 7965
  139.8490  143.7463  152.3178 LP  0  0  0  0  0  0  0  0  0  0  0  0  # atno 17342 bound_to 10162
  139.7638  144.7498  151.0324 LP  0  0  0  0  0  0  0  0  0  0  0  0  # atno 17343 bound_to 10162
  156.2474  130.3697  149.8270 LP  0  0  0  0  0  0  0  0  0  0  0  0  # atno 17370 bound_to 10713
  156.6053  130.8563  151.3441 LP  0  0  0  0  0  0  0  0  0  0  0  0  # atno 17371 bound_to 10713
  139.9787  134.7173  155.9901 LP  0  0  0  0  0  0  0  0  0  0  0  0  # atno 17394 bound_to 11000
  141.1498  133.6550  156.3980 LP  0  0  0  0  0  0  0  0  0  0  0  0  # atno 17395 bound_to 11000

$$$$
