#       Name:                AV-unprocessed.smi:2473
#       Creating user name   scv26
#       Creation time:       Fri Mar 27 13:38:30 2020


#       File generated by GOLD software.
#

@<TRIPOS>MOLECULE
AV-unprocessed.smi:2473
    50    51     1
SMALL
NO_CHARGES


@<TRIPOS>ATOM
      1 ****        -2.7979  -1.9843   3.9746 C.3            1 S1                 0.0000
      2 ****        -2.2286  -1.4585   2.6489 C.3            1 S1                 0.0000
      3 ****        -2.3345   0.0785   2.5704 C.3            1 S1                 0.0000
      4 ****        -1.7984   0.6611   1.2425 C.3            1 S1                 0.0000
      5 ****        -0.2614   0.7430   1.1635 C.2            1 S1                 0.0000
      6 ****         0.4504   0.2278   2.0261 O.2            1 S1                 0.0000
      7 ****         0.2432   1.4212   0.1221 N.am           1 S1                 0.0000
      8 ****         1.6652   1.5719  -0.1502 C.3            1 S1                 0.0000
      9 ****         1.8885   2.0895  -1.5768 C.3            1 S1                 0.0000
     10 ****         3.3390   2.2138  -1.9256 C.2            1 S1                 0.0000
     11 ****         4.0805   3.3192  -1.7863 N.pl3          1 S1                 1.0000
     12 ****         5.3686   3.0825  -2.1834 C.2            1 S1                 0.0000
     13 ****         5.4176   1.7708  -2.5772 C.2            1 S1                 0.0000
     14 ****         4.1560   1.2610  -2.4052 N.pl3          1 S1                 0.0000
     15 ****         3.7221  -0.1088  -2.6893 C.3            1 S1                 0.0000
     16 ****        -2.4454  -0.0602   0.0318 C.3            1 S1                 0.0000
     17 ****        -2.4174  -1.6131   0.0695 C.3            1 S1                 0.0000
     18 ****        -3.3614  -2.1388  -1.0310 C.3            1 S1                 0.0000
     19 ****        -1.0117  -2.1803  -0.2310 C.3            1 S1                 0.0000
     20 ****        -2.9352  -2.1090   1.4421 C.3            1 S1                 0.0000
     21 ****        -3.8568  -1.7449   4.0758 H              1 S1                 0.0000
     22 ****        -2.2749  -1.5482   4.8262 H              1 S1                 0.0000
     23 ****        -2.6931  -3.0674   4.0450 H              1 S1                 0.0000
     24 ****        -1.1772  -1.7418   2.6287 H              1 S1                 0.0000
     25 ****        -3.3804   0.3684   2.6790 H              1 S1                 0.0000
     26 ****        -1.8175   0.5319   3.4176 H              1 S1                 0.0000
     27 ****        -2.1259   1.7012   1.2062 H              1 S1                 0.0000
     28 ****        -0.4021   1.8317  -0.5372 H              1 S1                 0.0000
     29 ****         2.0994   2.2604   0.5761 H              1 S1                 0.0000
     30 ****         2.1647   0.6103  -0.0218 H              1 S1                 0.0000
     31 ****         1.4284   1.4298  -2.3132 H              1 S1                 0.0000
     32 ****         1.4430   3.0768  -1.7052 H              1 S1                 0.0000
     33 ****         6.1341   3.8445  -2.1546 H              1 S1                 0.0000
     34 ****         6.2372   1.1774  -2.9561 H              1 S1                 0.0000
     35 ****         4.5662  -0.6896  -3.0618 H              1 S1                 0.0000
     36 ****         2.9369  -0.0909  -3.4455 H              1 S1                 0.0000
     37 ****         3.3460  -0.5685  -1.7753 H              1 S1                 0.0000
     38 ****        -3.4868   0.2633  -0.0072 H              1 S1                 0.0000
     39 ****        -2.0106   0.2937  -0.9040 H              1 S1                 0.0000
     40 ****        -3.3934  -3.2290  -1.0420 H              1 S1                 0.0000
     41 ****        -3.0400  -1.8103  -2.0202 H              1 S1                 0.0000
     42 ****        -4.3835  -1.7866  -0.8869 H              1 S1                 0.0000
     43 ****        -1.0364  -3.2676  -0.3103 H              1 S1                 0.0000
     44 ****        -0.2833  -1.9437   0.5410 H              1 S1                 0.0000
     45 ****        -0.6230  -1.7945  -1.1741 H              1 S1                 0.0000
     46 ****        -2.8393  -3.1942   1.5015 H              1 S1                 0.0000
     47 ****        -4.0038  -1.9014   1.5177 H              1 S1                 0.0000
     48 ****         3.7352   4.2040  -1.4360 H              1 S1                 0.0000
     49 ****         0.0329  -0.2549   2.7960 LP             1 S1                 0.0000
     50 ****         1.4459   0.2920   1.9567 LP             1 S1                 0.0000
@<TRIPOS>BOND
    1    1    2 1     
    2    1   21 1     
    3    1   22 1     
    4    1   23 1     
    5    2   20 1     
    6    2    3 1     
    7    2   24 1     
    8    3    4 1     
    9    3   25 1     
   10    3   26 1     
   11    4    5 1     
   12    4   16 1     
   13    4   27 1     
   14    5    6 2     
   15    5    7 am    
   16    7    8 1     
   17    7   28 1     
   18    8    9 1     
   19    8   29 1     
   20    8   30 1     
   21    9   10 1     
   22    9   31 1     
   23    9   32 1     
   24   10   14 1     
   25   10   11 2     
   26   11   12 1     
   27   11   48 1     
   28   12   13 2     
   29   12   33 1     
   30   13   14 1     
   31   13   34 1     
   32   14   15 1     
   33   15   35 1     
   34   15   36 1     
   35   15   37 1     
   36   16   17 1     
   37   16   38 1     
   38   16   39 1     
   39   17   18 1     
   40   17   19 1     
   41   17   20 1     
   42   18   40 1     
   43   18   41 1     
   44   18   42 1     
   45   19   43 1     
   46   19   44 1     
   47   19   45 1     
   48   20   46 1     
   49   20   47 1     
   50    6   49 1     
   51    6   50 1     
@<TRIPOS>SUBSTRUCTURE
      1 S1             1
@<TRIPOS>SET
LONE_PAIRS      STATIC     ATOMS    <user>   **** ""
2 49 50
DONOR_HYDROGENS      STATIC     ATOMS    <user>   **** ""
2 28 48
ATOM$BLUE        STATIC     ATOMS    COLORGROUP SYSTEM
2 49 50
ATOM$RED        STATIC     ATOMS    COLORGROUP SYSTEM
2 28 48
