AV-unprocessed.smi:1261|AV-procd|sdf|5305|dock5
  -GOLD-   22720 4423D 1   1.00000     0.00000
 Structure written by MMmdl.
 50 51  0  0  0  0  0  0  0  0  2 V2000
  145.8747  132.1117  149.6605 C   0  0  0  0  0  0  0  0  0  0  0  0
  144.8332  132.6586  150.6530 C   0  0  2  0  0  0  0  0  0  0  0  0
  144.4938  134.1415  150.4118 C   0  0  0  0  0  0  0  0  0  0  0  0
  145.6299  135.0694  150.8789 C   0  0  1  0  0  0  0  0  0  0  0  0
  145.2564  136.5471  150.6949 C   0  0  0  0  0  0  0  0  0  0  0  0
  146.0052  134.7602  152.3412 C   0  0  0  0  0  0  0  0  0  0  0  0
  146.3696  133.3304  152.5143 N   0  3  1  0  0  0  0  0  0  0  0  0
  146.9017  133.0404  153.8698 C   0  0  0  0  0  0  0  0  0  0  0  0
  148.2997  133.6440  154.0860 C   0  0  0  0  0  0  0  0  0  0  0  0
  148.8589  133.3431  155.4858 C   0  0  0  0  0  0  0  0  0  0  0  0
  148.3796  134.3093  156.4660 N   0  0  0  0  0  0  0  0  0  0  0  0
  148.7101  134.3216  157.7689 C   0  0  0  0  0  0  0  0  0  0  0  0
  149.4543  133.4812  158.2729 O   0  0  0  0  0  0  0  0  0  0  0  0
  148.1412  135.4441  158.6546 C   0  0  0  0  0  0  0  0  0  0  0  0
  147.8200  135.0452  160.0348 N   0  0  0  0  0  0  0  0  0  0  0  0
  147.7934  133.6734  160.2363 N   0  0  0  0  0  0  0  0  0  0  0  0
  147.5225  133.1981  161.4049 C   0  0  0  0  0  0  0  0  0  0  0  0
  147.5031  131.8336  161.5593 O   0  0  0  0  0  0  0  0  0  0  0  0
  147.2456  134.0733  162.5230 C   0  0  0  0  0  0  0  0  0  0  0  0
  147.2726  135.4084  162.3168 C   0  0  0  0  0  0  0  0  0  0  0  0
  147.5708  135.9806  161.0026 C   0  0  0  0  0  0  0  0  0  0  0  0
  147.5857  137.1913  160.7821 O   0  0  0  0  0  0  0  0  0  0  0  0
  145.2516  132.4320  152.1191 C   0  0  0  0  0  0  0  0  0  0  0  0
  148.3019  131.6199  162.0163 H   0  0  0  0  0  0  0  0  0  0  0  0
  146.8440  132.5966  149.7754 H   0  0  0  0  0  0  0  0  0  0  0  0
  145.5497  132.2596  148.6301 H   0  0  0  0  0  0  0  0  0  0  0  0
  146.0251  131.0414  149.8043 H   0  0  0  0  0  0  0  0  0  0  0  0
  143.9202  132.0865  150.4830 H   0  0  0  0  0  0  0  0  0  0  0  0
  144.2723  134.3115  149.3573 H   0  0  0  0  0  0  0  0  0  0  0  0
  143.5817  134.3891  150.9570 H   0  0  0  0  0  0  0  0  0  0  0  0
  146.5063  134.8802  150.2581 H   0  0  0  0  0  0  0  0  0  0  0  0
  144.3806  136.8131  151.2875 H   0  0  0  0  0  0  0  0  0  0  0  0
  145.0312  136.7680  149.6511 H   0  0  0  0  0  0  0  0  0  0  0  0
  146.0746  137.2007  150.9991 H   0  0  0  0  0  0  0  0  0  0  0  0
  146.8477  135.3891  152.6324 H   0  0  0  0  0  0  0  0  0  0  0  0
  145.1786  135.0082  153.0093 H   0  0  0  0  0  0  0  0  0  0  0  0
  146.2341  133.4688  154.6187 H   0  0  0  0  0  0  0  0  0  0  0  0
  146.9093  131.9634  154.0444 H   0  0  0  0  0  0  0  0  0  0  0  0
  148.9940  133.2623  153.3379 H   0  0  0  0  0  0  0  0  0  0  0  0
  148.2546  134.7243  153.9404 H   0  0  0  0  0  0  0  0  0  0  0  0
  148.5443  132.3502  155.8087 H   0  0  0  0  0  0  0  0  0  0  0  0
  149.9503  133.3343  155.4703 H   0  0  0  0  0  0  0  0  0  0  0  0
  147.7584  135.0320  156.1310 H   0  0  0  0  0  0  0  0  0  0  0  0
  148.8669  136.2592  158.6645 H   0  0  0  0  0  0  0  0  0  0  0  0
  147.2551  135.8569  158.1689 H   0  0  0  0  0  0  0  0  0  0  0  0
  147.0240  133.6610  163.4965 H   0  0  0  0  0  0  0  0  0  0  0  0
  147.0686  136.0736  163.1430 H   0  0  0  0  0  0  0  0  0  0  0  0
  144.4004  132.6138  152.7774 H   0  0  0  0  0  0  0  0  0  0  0  0
  145.5274  131.3869  152.2557 H   0  0  0  0  0  0  0  0  0  0  0  0
  147.1280  133.1568  151.8704 H   0  0  0  0  0  0  0  0  0  0  0  0
  1  2  1  0  0  0  0
  1 25  1  0  0  0  0
  1 26  1  0  0  0  0
  1 27  1  0  0  0  0
  2 23  1  0  0  0  0
  2  3  1  0  0  0  0
  2 28  1  0  0  0  0
  3  4  1  0  0  0  0
  3 29  1  0  0  0  0
  3 30  1  0  0  0  0
  4  5  1  0  0  0  0
  4  6  1  0  0  0  0
  4 31  1  0  0  0  0
  5 32  1  0  0  0  0
  5 33  1  0  0  0  0
  5 34  1  0  0  0  0
  6  7  1  0  0  0  0
  6 35  1  0  0  0  0
  6 36  1  0  0  0  0
  7  8  1  0  0  0  0
  7 23  1  0  0  0  0
  7 50  1  0  0  0  0
  8  9  1  0  0  0  0
  8 37  1  0  0  0  0
  8 38  1  0  0  0  0
  9 10  1  0  0  0  0
  9 39  1  0  0  0  0
  9 40  1  0  0  0  0
 10 11  1  0  0  0  0
 10 41  1  0  0  0  0
 10 42  1  0  0  0  0
 11 12  1  0  0  0  0
 11 43  1  0  0  0  0
 12 13  2  0  0  0  0
 12 14  1  0  0  0  0
 14 44  1  0  0  0  0
 14 45  1  0  0  0  0
 14 15  1  0  0  0  0
 15 16  1  0  0  0  0
 15 21  1  0  0  0  0
 16 17  2  0  0  0  0
 17 18  1  0  0  0  0
 17 19  1  0  0  0  0
 18 24  1  0  0  0  0
 19 46  1  0  0  0  0
 19 20  2  0  0  0  0
 20 47  1  0  0  0  0
 20 21  1  0  0  0  0
 21 22  2  0  0  0  0
 23 48  1  0  0  0  0
 23 49  1  0  0  0  0
M  CHG  1   7   1
M  END
> <s_m_source_file>
AV-unprocessed.smi

> <i_m_source_file_index>
1261

> <i_lp_mmshare_version>
43012

> <i_f3d_flags>
0

> <s_epik_input>
W0NIM11bQ0BASF0xW0NIMl1bQ0BASF0oW0NIM10pW0NIMl1OKFtDSDJdMSlbQ0gyXVtDSDJdW0NIMl1bTkhdQyg9TylbQ0gyXW4yW25IXWMoPU8pW2NIXVtjSF1jMj1P

> <s_epik_cmdline>
J2VwaWtfcHl0aG9uJywgJy1waCcsICc3LjAnLCAnLXRuJywgJzgnLCAnLW1hJywgJzIwMCcsICctbWV0YWxfYmluZGluZycsICctaW1hZScsICc8aW5maWxlLm1hZT4nLCAnLW9tYWUnLCAnPG91dGZpbGUubWFlPic=

> <r_lp_tautomer_probability>
0.9996

> <r_epik_Ionization_Penalty>
2.1425

> <r_epik_Ionization_Penalty_Charging>
0.000312112

> <r_epik_Ionization_Penalty_Neutral>
2.14218

> <r_epik_State_Penalty>
1.71978

> <r_epik_Charging_Adjusted_Penalty>
1.72009

> <i_epik_Tot_Q>
1

> <i_epik_Tot_abs_Q>
1

> <r_epik_Metal_State_Penalty>
1.71978

> <b_epik_Metal_Only>
0

> <s_lp_Force_Field>
OPLS_2005

> <r_lp_Energy>
29.6525

> <b_lp_Chiralities_Consistent>
1

> <s_lp_Variant>
AV-unprocessed.smi:1261-5

> <Gold.Version>
5.8.1

> <Gold.Id.Protein>
6NUR|6NUR_protein|mol2

> <Gold.PLP.Fitness>
46.3530

> <Gold.PLP.PLP>
-39.7598

> <Gold.PLP.part.hbond>
-3.0000

> <Gold.PLP.part.metal>
0.0000

> <Gold.PLP.part.buried>
-2.1123

> <Gold.PLP.part.nonpolar>
-34.2311

> <Gold.PLP.part.repulsive>
0.0169

> <Gold.PLP.ligand.clash>
0.0000

> <Gold.PLP.ligand.torsion>
0.7476

> <Gold.PLP.Chemscore.Hbond>
2.6640

> <Gold.PLP.Chemscore.CHOScore>
0.0000

> <Gold.PLP.Chemscore.Metal>
0.0000

> <Gold.Chemscore.Hbonds>
donor molecule, donor type, donor heavy atom, donor atom, acceptor molecule, acceptor atom, score
      P1  H  6896  6907       L1    13  1.00
      P1  H  6931  6943       L1    22  0.65
      P1  H  6934  6947       L1    22  0.98

> <Gold.PLP.Chemscore.Internal.Correction>
0.0965

> <Gold.Rescore>
     Score         DG    S(hbond)    S(metal)    S(lipo)     H(rot)  DE(clash)    DE(int)     intcor
     13.07     -16.19       2.59        0.00      86.10       3.14       0.87       2.26       ----

> <Gold.Chemscore.Fitness>
13.0657

> <Gold.Chemscore.DG>
-16.1921

> <Gold.Chemscore.ZeroCoef>
-5.4800

> <Gold.Chemscore.Hbond>
2.5940

> <Gold.Chemscore.Metal>
0.0000

> <Gold.Chemscore.Lipo>
86.1028

> <Gold.Chemscore.Internal_Hbond>
0.0000

> <Gold.Chemscore.DEClash>
0.8653

> <Gold.Chemscore.DEInternal>
2.2611

> <Gold.Chemscore.Rot>
3.1352

> <Gold.Chemscore.Internal.Correction>
   9.000000E+99

> <Gold.Chemscore.Hbonds>
donor molecule, donor type, donor heavy atom, donor atom, acceptor molecule, acceptor atom, score
      P1  H  6896  6907       L1    13  0.99
      P1  H  6931  6943       L1    22  0.56
      P1  H  6934  6947       L1    22  0.93

> <Gold.Chemscore.Hbond.Weighted>
-8.6641

> <Gold.Chemscore.Metal.Weighted>
-0.0000

> <Gold.Chemscore.Lipo.Weighted>
-10.0740

> <Gold.Chemscore.Internal_Hbond.Weighted>
0.0000

> <Gold.Chemscore.DEClash.Weighted>
0.8653

> <Gold.Chemscore.DEInternal.Weighted>
2.2611

> <Gold.Chemscore.Rot.Weighted>
8.0260

> <Gold.Chemscore.Internal.Correction.Weighted>
   9.000000E+99

> <Gold.Protein.RotatedTorsions>
[ 6907 6896 6895 6894 ] final -110.97 input  -60.11 | X-H torsion
[ 7974 7965 7964 7962 ] final  -87.41 input  175.53 | X-H torsion
[ 8008 7997 7996 7995 ] final -108.70 input   59.86 | X-H torsion
[ 10167 10162 10161 10158 ] final  -24.10 input  -65.29 | X-H torsion
[ 10718 10713 10712 10709 ] final  104.96 input   66.30 | X-H torsion
[ 10763 10752 10751 10750 ] final   64.51 input  -60.55 | X-H torsion
[ 11005 11000 10999 10996 ] final -123.70 input  -57.11 | X-H torsion

> <Gold.Protein.ActiveResidues>
 VAL166  LYS551  ARG553  GLY616  TRP617  ASP618  TYR619  PRO620  LYS621  CYS622 
 ASP623  PHE694  ASN695  SER759  ASP760  ASP761  ALA762  ILE779  LEU786  VAL792 
 PHE793  MET794  SER795  GLU796  ALA797  LYS798  CYS799  TRP800  GLU811  SER814 

> <Gold.Protein.RotatedAtoms>
  150.7659  133.9304  159.3424 H   0  0  0  0  0  0  0  0  0  0  0  0  # atno 6907 bound_to 6896
  151.7202  135.0894  160.0292 H   0  0  0  0  0  0  0  0  0  0  0  0  # atno 6908 bound_to 6896
  152.3655  133.6313  159.6083 H   0  0  0  0  0  0  0  0  0  0  0  0  # atno 6909 bound_to 6896
  145.4670  140.9560  143.1938 H   0  0  0  0  0  0  0  0  0  0  0  0  # atno 7974 bound_to 7965
  154.9482  140.0401  157.2131 H   0  0  0  0  0  0  0  0  0  0  0  0  # atno 8008 bound_to 7997
  154.8004  140.2851  155.5904 H   0  0  0  0  0  0  0  0  0  0  0  0  # atno 8009 bound_to 7997
  156.2960  140.2556  156.2870 H   0  0  0  0  0  0  0  0  0  0  0  0  # atno 8010 bound_to 7997
  140.7288  143.4383  151.0695 H   0  0  0  0  0  0  0  0  0  0  0  0  # atno 10167 bound_to 10162
  157.6722  131.0816  150.5785 H   0  0  0  0  0  0  0  0  0  0  0  0  # atno 10718 bound_to 10713
  153.0059  135.5390  154.6522 H   0  0  0  0  0  0  0  0  0  0  0  0  # atno 10763 bound_to 10752
  154.5751  135.2845  155.0791 H   0  0  0  0  0  0  0  0  0  0  0  0  # atno 10764 bound_to 10752
  154.1941  135.6495  153.5121 H   0  0  0  0  0  0  0  0  0  0  0  0  # atno 10765 bound_to 10752
  140.9898  134.0555  157.3668 H   0  0  0  0  0  0  0  0  0  0  0  0  # atno 11005 bound_to 11000
  144.7968  139.6218  143.7089 LP  0  0  0  0  0  0  0  0  0  0  0  0  # atno 17320 bound_to 7965
  146.2419  139.6018  142.9486 LP  0  0  0  0  0  0  0  0  0  0  0  0  # atno 17321 bound_to 7965
  139.8048  143.8033  152.3166 LP  0  0  0  0  0  0  0  0  0  0  0  0  # atno 17342 bound_to 10162
  139.8062  144.7354  150.9758 LP  0  0  0  0  0  0  0  0  0  0  0  0  # atno 17343 bound_to 10162
  156.6086  130.4374  149.5868 LP  0  0  0  0  0  0  0  0  0  0  0  0  # atno 17370 bound_to 10713
  156.2448  130.6873  151.1590 LP  0  0  0  0  0  0  0  0  0  0  0  0  # atno 17371 bound_to 10713
  139.8987  135.0155  156.7161 LP  0  0  0  0  0  0  0  0  0  0  0  0  # atno 17394 bound_to 11000
  140.7057  133.9267  155.8052 LP  0  0  0  0  0  0  0  0  0  0  0  0  # atno 17395 bound_to 11000

$$$$
