AV-unprocessed.smi:715|AV-procd|sdf|3485|dock2
  -GOLD-   22720 0473D 1   1.00000     0.00000
 Structure written by MMmdl.
 39 40  0  0  0  0  0  0  0  0  1 V2000
  146.0655  137.2258  152.6937 C   0  0  0  0  0  0  0  0  0  0  0  0
  146.6285  138.3753  153.3688 N   0  0  0  0  0  0  0  0  0  0  0  0
  147.9472  138.7686  153.4450 C   0  0  0  0  0  0  0  0  0  0  0  0
  147.9925  139.9152  154.1887 C   0  0  0  0  0  0  0  0  0  0  0  0
  149.1812  140.7590  154.5668 C   0  0  1  0  0  0  0  0  0  0  0  0
  149.1508  142.0043  153.8983 O   0  0  0  0  0  0  0  0  0  0  0  0
  149.1964  141.0246  156.0823 C   0  0  0  0  0  0  0  0  0  0  0  0
  149.9288  142.2456  156.3930 N   0  0  0  0  0  0  0  0  0  0  0  0
  151.0248  142.2973  157.1628 C   0  0  0  0  0  0  0  0  0  0  0  0
  151.5317  141.3016  157.6799 O   0  0  0  0  0  0  0  0  0  0  0  0
  151.6434  143.6838  157.3734 C   0  0  0  0  0  0  0  0  0  0  0  0
  152.1032  143.9423  158.8235 C   0  0  0  0  0  0  0  0  0  0  0  0
  151.5256  142.9754  159.8645 C   0  0  0  0  0  0  0  0  0  0  0  0
  151.6566  143.7024  161.2081 C   0  0  0  0  0  0  0  0  0  0  0  0
  151.8050  145.1961  160.8804 C   0  0  0  0  0  0  0  0  0  0  0  0
  151.6839  145.3134  159.3579 C   0  0  0  0  0  0  0  0  0  0  0  0
  146.6265  140.1439  154.5212 C   0  0  0  0  0  0  0  0  0  0  0  0
  145.8143  139.2209  154.0324 N   0  0  0  0  0  0  0  0  0  0  0  0
  146.8488  136.6804  152.1664 H   0  0  0  0  0  0  0  0  0  0  0  0
  145.3143  137.5515  151.9735 H   0  0  0  0  0  0  0  0  0  0  0  0
  145.5998  136.5617  153.4227 H   0  0  0  0  0  0  0  0  0  0  0  0
  148.7379  138.2082  152.9681 H   0  0  0  0  0  0  0  0  0  0  0  0
  150.1031  140.2509  154.2801 H   0  0  0  0  0  0  0  0  0  0  0  0
  149.0761  142.6896  154.5449 H   0  0  0  0  0  0  0  0  0  0  0  0
  148.1828  141.0703  156.4847 H   0  0  0  0  0  0  0  0  0  0  0  0
  149.7011  140.1993  156.5876 H   0  0  0  0  0  0  0  0  0  0  0  0
  149.5699  143.1071  156.0079 H   0  0  0  0  0  0  0  0  0  0  0  0
  152.4956  143.7752  156.6993 H   0  0  0  0  0  0  0  0  0  0  0  0
  150.9290  144.4514  157.0716 H   0  0  0  0  0  0  0  0  0  0  0  0
  153.1924  143.8877  158.8724 H   0  0  0  0  0  0  0  0  0  0  0  0
  150.4707  142.7925  159.6543 H   0  0  0  0  0  0  0  0  0  0  0  0
  152.0321  142.0096  159.8668 H   0  0  0  0  0  0  0  0  0  0  0  0
  150.7918  143.5103  161.8441 H   0  0  0  0  0  0  0  0  0  0  0  0
  152.5394  143.3518  161.7446 H   0  0  0  0  0  0  0  0  0  0  0  0
  151.0579  145.8048  161.3905 H   0  0  0  0  0  0  0  0  0  0  0  0
  152.7864  145.5460  161.2031 H   0  0  0  0  0  0  0  0  0  0  0  0
  152.2912  146.1238  158.9535 H   0  0  0  0  0  0  0  0  0  0  0  0
  150.6452  145.5153  159.0920 H   0  0  0  0  0  0  0  0  0  0  0  0
  146.2040  140.9512  155.1009 H   0  0  0  0  0  0  0  0  0  0  0  0
  1  2  1  0  0  0  0
  1 19  1  0  0  0  0
  1 20  1  0  0  0  0
  1 21  1  0  0  0  0
  2 18  1  0  0  0  0
  2  3  1  0  0  0  0
  3  4  2  0  0  0  0
  3 22  1  0  0  0  0
  4  5  1  0  0  0  0
  4 17  1  0  0  0  0
  5  6  1  0  0  0  0
  5  7  1  0  0  0  0
  5 23  1  0  0  0  0
  6 24  1  0  0  0  0
  7  8  1  0  0  0  0
  7 25  1  0  0  0  0
  7 26  1  0  0  0  0
  8  9  1  0  0  0  0
  8 27  1  0  0  0  0
  9 10  2  0  0  0  0
  9 11  1  0  0  0  0
 11 12  1  0  0  0  0
 11 28  1  0  0  0  0
 11 29  1  0  0  0  0
 12 16  1  0  0  0  0
 12 13  1  0  0  0  0
 12 30  1  0  0  0  0
 13 14  1  0  0  0  0
 13 31  1  0  0  0  0
 13 32  1  0  0  0  0
 14 15  1  0  0  0  0
 14 33  1  0  0  0  0
 14 34  1  0  0  0  0
 15 16  1  0  0  0  0
 15 35  1  0  0  0  0
 15 36  1  0  0  0  0
 16 37  1  0  0  0  0
 16 38  1  0  0  0  0
 17 18  2  0  0  0  0
 17 39  1  0  0  0  0
M  END
> <s_m_source_file>
AV-unprocessed.smi

> <i_m_source_file_index>
715

> <i_lp_mmshare_version>
43012

> <i_f3d_flags>
0

> <s_epik_input>
W0NIM11uMVtjSF1jKFtjSF1uMSlbQ0BIXShbT0hdKVtDSDJdW05IXUMoPU8pW0NIMl1bQ0hdMltDSDJdW0NIMl1bQ0gyXVtDSDJdMg==

> <s_epik_cmdline>
J2VwaWtfcHl0aG9uJywgJy1waCcsICc3LjAnLCAnLXRuJywgJzgnLCAnLW1hJywgJzIwMCcsICctbWV0YWxfYmluZGluZycsICctaW1hZScsICc8aW5maWxlLm1hZT4nLCAnLW9tYWUnLCAnPG91dGZpbGUubWFlPic=

> <r_lp_tautomer_probability>
1

> <r_epik_Ionization_Penalty>
4.45533e-05

> <r_epik_Ionization_Penalty_Charging>
0

> <r_epik_Ionization_Penalty_Neutral>
4.45533e-05

> <r_epik_State_Penalty>
-0

> <r_epik_Charging_Adjusted_Penalty>
0

> <i_epik_Tot_Q>
0

> <i_epik_Tot_abs_Q>
0

> <r_epik_Metal_State_Penalty>
-0

> <b_epik_Metal_Only>
0

> <s_lp_Force_Field>
OPLS_2005

> <r_lp_Energy>
19.2831

> <b_lp_Chiralities_Consistent>
1

> <s_lp_Variant>
AV-unprocessed.smi:715-2

> <Gold.Version>
5.8.1

> <Gold.Id.Protein>
6NUR|6NUR_protein|mol2

> <Gold.PLP.Fitness>
46.6137

> <Gold.PLP.PLP>
-37.0474

> <Gold.PLP.part.hbond>
-3.0000

> <Gold.PLP.part.metal>
0.0000

> <Gold.PLP.part.buried>
-4.1649

> <Gold.PLP.part.nonpolar>
-30.8728

> <Gold.PLP.part.repulsive>
0.6099

> <Gold.PLP.ligand.clash>
0.0000

> <Gold.PLP.ligand.torsion>
1.3187

> <Gold.PLP.Chemscore.Hbond>
2.2519

> <Gold.PLP.Chemscore.CHOScore>
1.8027

> <Gold.PLP.Chemscore.Metal>
0.0000

> <Gold.Chemscore.Hbonds>
donor molecule, donor type, donor heavy atom, donor atom, acceptor molecule, acceptor atom, score
      L1  H     6    24       P1  8028  0.31
      L1  H     8    27       P1  8028  1.00
      P1  H  8011  8017       L1     6  0.43
      L1  C     3    22       P1  7948  1.00
      L1  C     3    22       P1  7957  0.24

> <Gold.PLP.Chemscore.Internal.Correction>
0.0398

> <Gold.Rescore>
     Score         DG    S(hbond)    S(metal)    S(lipo)     H(rot)  DE(clash)    DE(int)     intcor
     15.71     -18.83       2.06        0.00     105.34       2.29       0.85       2.27       ----

> <Gold.Chemscore.Fitness>
15.7076

> <Gold.Chemscore.DG>
-18.8277

> <Gold.Chemscore.ZeroCoef>
-5.4800

> <Gold.Chemscore.Hbond>
2.0590

> <Gold.Chemscore.Metal>
0.0000

> <Gold.Chemscore.Lipo>
105.3358

> <Gold.Chemscore.Internal_Hbond>
0.0000

> <Gold.Chemscore.DEClash>
0.8513

> <Gold.Chemscore.DEInternal>
2.2688

> <Gold.Chemscore.Rot>
2.2866

> <Gold.Chemscore.Internal.Correction>
   9.000000E+99

> <Gold.Chemscore.Hbonds>
donor molecule, donor type, donor heavy atom, donor atom, acceptor molecule, acceptor atom, score
      L1  H     6    24       P1  8028  0.31
      L1  H     8    27       P1  8028  1.00
      P1  H  8011  8017       L1     6  0.42

> <Gold.Chemscore.Hbond.Weighted>
-6.8772

> <Gold.Chemscore.Metal.Weighted>
-0.0000

> <Gold.Chemscore.Lipo.Weighted>
-12.3243

> <Gold.Chemscore.Internal_Hbond.Weighted>
0.0000

> <Gold.Chemscore.DEClash.Weighted>
0.8513

> <Gold.Chemscore.DEInternal.Weighted>
2.2688

> <Gold.Chemscore.Rot.Weighted>
5.8538

> <Gold.Chemscore.Internal.Correction.Weighted>
   9.000000E+99

> <Gold.Protein.RotatedTorsions>
[ 6907 6896 6895 6894 ] final -131.55 input  -60.11 | X-H torsion
[ 7974 7965 7964 7962 ] final   26.16 input  175.53 | X-H torsion
[ 8008 7997 7996 7995 ] final  -81.08 input   59.86 | X-H torsion
[ 10167 10162 10161 10158 ] final   22.94 input  -65.29 | X-H torsion
[ 10718 10713 10712 10709 ] final   90.91 input   66.30 | X-H torsion
[ 10763 10752 10751 10750 ] final    8.32 input  -60.55 | X-H torsion
[ 11005 11000 10999 10996 ] final  -29.82 input  -57.11 | X-H torsion

> <Gold.Protein.ActiveResidues>
 VAL166  LYS551  ARG553  GLY616  TRP617  ASP618  TYR619  PRO620  LYS621  CYS622 
 ASP623  PHE694  ASN695  SER759  ASP760  ASP761  ALA762  ILE779  LEU786  VAL792 
 PHE793  MET794  SER795  GLU796  ALA797  LYS798  CYS799  TRP800  GLU811  SER814 

> <Gold.Protein.RotatedAtoms>
  150.9522  133.6536  159.2769 H   0  0  0  0  0  0  0  0  0  0  0  0  # atno 6907 bound_to 6896
  151.3888  135.0951  159.9529 H   0  0  0  0  0  0  0  0  0  0  0  0  # atno 6908 bound_to 6896
  152.5114  133.9041  159.7510 H   0  0  0  0  0  0  0  0  0  0  0  0  # atno 6909 bound_to 6896
  146.1852  139.7367  142.8872 H   0  0  0  0  0  0  0  0  0  0  0  0  # atno 7974 bound_to 7965
  154.5948  140.0653  156.9288 H   0  0  0  0  0  0  0  0  0  0  0  0  # atno 8008 bound_to 7997
  155.2233  140.3332  155.4294 H   0  0  0  0  0  0  0  0  0  0  0  0  # atno 8009 bound_to 7997
  156.2280  140.1828  156.7300 H   0  0  0  0  0  0  0  0  0  0  0  0  # atno 8010 bound_to 7997
  140.5308  143.9844  150.6465 H   0  0  0  0  0  0  0  0  0  0  0  0  # atno 10167 bound_to 10162
  157.6960  131.0388  150.3649 H   0  0  0  0  0  0  0  0  0  0  0  0  # atno 10718 bound_to 10713
  153.2263  135.6887  153.7941 H   0  0  0  0  0  0  0  0  0  0  0  0  # atno 10763 bound_to 10752
  153.7121  135.3280  155.3249 H   0  0  0  0  0  0  0  0  0  0  0  0  # atno 10764 bound_to 10752
  154.8293  135.4593  154.1131 H   0  0  0  0  0  0  0  0  0  0  0  0  # atno 10765 bound_to 10752
  140.9329  133.7327  156.0962 H   0  0  0  0  0  0  0  0  0  0  0  0  # atno 11005 bound_to 11000
  145.3960  141.0379  143.3097 LP  0  0  0  0  0  0  0  0  0  0  0  0  # atno 17320 bound_to 7965
  144.8384  139.5512  143.6911 LP  0  0  0  0  0  0  0  0  0  0  0  0  # atno 17321 bound_to 7965
  140.3219  143.3132  152.0776 LP  0  0  0  0  0  0  0  0  0  0  0  0  # atno 17342 bound_to 10162
  139.4953  144.6568  151.6554 LP  0  0  0  0  0  0  0  0  0  0  0  0  # atno 17343 bound_to 10162
  156.4081  130.3928  149.6911 LP  0  0  0  0  0  0  0  0  0  0  0  0  # atno 17370 bound_to 10713
  156.4205  130.7766  151.2783 LP  0  0  0  0  0  0  0  0  0  0  0  0  # atno 17371 bound_to 10713
  140.7838  134.3695  157.5481 LP  0  0  0  0  0  0  0  0  0  0  0  0  # atno 17394 bound_to 11000
  139.8801  134.9098  156.2999 LP  0  0  0  0  0  0  0  0  0  0  0  0  # atno 17395 bound_to 11000

$$$$
