AV-unprocessed.smi:3274|AV-procd|sdf|12525|dock1
  -GOLD-   2272018443D 1   1.00000     0.00000
 Structure written by MMmdl.
 43 44  0  0  0  0  0  0  0  0  2 V2000
  153.9110  140.8130  160.8378 C   0  0  0  0  0  0  0  0  0  0  0  0
  153.1271  142.0906  160.5881 C   0  0  0  0  0  0  0  0  0  0  0  0
  152.8590  142.9454  161.5952 C   0  0  0  0  0  0  0  0  0  0  0  0
  152.1313  144.2694  161.4373 C   0  0  0  0  0  0  0  0  0  0  0  0
  151.5513  144.4774  160.0279 C   0  0  0  0  0  0  0  0  0  0  0  0
  152.4864  143.9099  158.9464 C   0  0  2  0  0  0  0  0  0  0  0  0
  152.0496  144.3150  157.5270 C   0  0  0  0  0  0  0  0  0  0  0  0
  152.7001  142.3829  159.1441 C   0  0  2  0  0  0  0  0  0  0  0  0
  151.4721  141.5385  158.7180 C   0  0  0  0  0  0  0  0  0  0  0  0
  151.4944  141.1809  157.2838 N   0  3  0  0  0  0  0  0  0  0  0  0
  150.1688  140.9136  156.6806 C   0  0  2  0  0  0  0  0  0  0  0  0
  149.3881  139.9471  157.5810 C   0  0  0  0  0  0  0  0  0  0  0  0
  150.3093  140.3389  155.2542 C   0  0  0  0  0  0  0  0  0  0  0  0
  151.2438  139.2308  155.1811 N   0  0  0  0  0  0  0  0  0  0  0  0
  151.0464  137.9454  154.8841 C   0  0  0  0  0  0  0  0  0  0  0  0
  152.1559  137.2200  154.8875 N   0  0  0  0  0  0  0  0  0  0  0  0
  153.0607  138.1852  155.2288 C   0  0  0  0  0  0  0  0  0  0  0  0
  152.5659  139.4093  155.4133 N   0  0  0  0  0  0  0  0  0  0  0  0
  154.7248  140.7163  160.1186 H   0  0  0  0  0  0  0  0  0  0  0  0
  153.2741  139.9330  160.7657 H   0  0  0  0  0  0  0  0  0  0  0  0
  154.3503  140.8122  161.8360 H   0  0  0  0  0  0  0  0  0  0  0  0
  153.1981  142.7161  162.5951 H   0  0  0  0  0  0  0  0  0  0  0  0
  151.3405  144.3419  162.1842 H   0  0  0  0  0  0  0  0  0  0  0  0
  152.8465  145.0621  161.6591 H   0  0  0  0  0  0  0  0  0  0  0  0
  150.5744  143.9980  159.9583 H   0  0  0  0  0  0  0  0  0  0  0  0
  151.3769  145.5413  159.8635 H   0  0  0  0  0  0  0  0  0  0  0  0
  153.4601  144.3806  159.0958 H   0  0  0  0  0  0  0  0  0  0  0  0
  151.0187  144.0304  157.3168 H   0  0  0  0  0  0  0  0  0  0  0  0
  152.6891  143.8577  156.7715 H   0  0  0  0  0  0  0  0  0  0  0  0
  152.1137  145.3958  157.3984 H   0  0  0  0  0  0  0  0  0  0  0  0
  153.5346  142.1040  158.4987 H   0  0  0  0  0  0  0  0  0  0  0  0
  151.4136  140.6236  159.3085 H   0  0  0  0  0  0  0  0  0  0  0  0
  150.5532  142.0879  158.9058 H   0  0  0  0  0  0  0  0  0  0  0  0
  151.9352  141.9273  156.7649 H   0  0  0  0  0  0  0  0  0  0  0  0
  149.6000  141.8440  156.6355 H   0  0  0  0  0  0  0  0  0  0  0  0
  148.3956  139.7477  157.1757 H   0  0  0  0  0  0  0  0  0  0  0  0
  149.2558  140.3622  158.5808 H   0  0  0  0  0  0  0  0  0  0  0  0
  149.9039  138.9916  157.6826 H   0  0  0  0  0  0  0  0  0  0  0  0
  149.3400  140.0107  154.8750 H   0  0  0  0  0  0  0  0  0  0  0  0
  150.6608  141.1146  154.5726 H   0  0  0  0  0  0  0  0  0  0  0  0
  150.0751  137.5344  154.6498 H   0  0  0  0  0  0  0  0  0  0  0  0
  154.1157  137.9812  155.3379 H   0  0  0  0  0  0  0  0  0  0  0  0
  152.0595  140.3491  157.1890 H   0  0  0  0  0  0  0  0  0  0  0  0
  1  2  1  0  0  0  0
  1 19  1  0  0  0  0
  1 20  1  0  0  0  0
  1 21  1  0  0  0  0
  2  8  1  0  0  0  0
  2  3  2  0  0  0  0
  3  4  1  0  0  0  0
  3 22  1  0  0  0  0
  4  5  1  0  0  0  0
  4 23  1  0  0  0  0
  4 24  1  0  0  0  0
  5  6  1  0  0  0  0
  5 25  1  0  0  0  0
  5 26  1  0  0  0  0
  6  7  1  0  0  0  0
  6  8  1  0  0  0  0
  6 27  1  0  0  0  0
  7 28  1  0  0  0  0
  7 29  1  0  0  0  0
  7 30  1  0  0  0  0
  8  9  1  0  0  0  0
  8 31  1  0  0  0  0
  9 10  1  0  0  0  0
  9 32  1  0  0  0  0
  9 33  1  0  0  0  0
 10 11  1  0  0  0  0
 10 34  1  0  0  0  0
 10 43  1  0  0  0  0
 11 12  1  0  0  0  0
 11 13  1  0  0  0  0
 11 35  1  0  0  0  0
 12 36  1  0  0  0  0
 12 37  1  0  0  0  0
 12 38  1  0  0  0  0
 13 14  1  0  0  0  0
 13 39  1  0  0  0  0
 13 40  1  0  0  0  0
 14 18  1  0  0  0  0
 14 15  1  0  0  0  0
 15 16  2  0  0  0  0
 15 41  1  0  0  0  0
 16 17  1  0  0  0  0
 17 18  2  0  0  0  0
 17 42  1  0  0  0  0
M  CHG  1  10   1
M  END
> <s_m_source_file>
AV-unprocessed.smi

> <i_m_source_file_index>
3274

> <i_lp_mmshare_version>
43012

> <i_f3d_flags>
0

> <s_epik_input>
W0NIM11DMT1bQ0hdW0NIMl1bQ0gyXVtDQEBIXShbQ0gzXSlbQ0BIXTFbQ0gyXVtOSF1bQ0BIXShbQ0gzXSlbQ0gyXW4yW2NIXW5bY0hdbjI=

> <s_epik_cmdline>
J2VwaWtfcHl0aG9uJywgJy1waCcsICc3LjAnLCAnLXRuJywgJzgnLCAnLW1hJywgJzIwMCcsICctbWV0YWxfYmluZGluZycsICctaW1hZScsICc8aW5maWxlLm1hZT4nLCAnLW9tYWUnLCAnPG91dGZpbGUubWFlPic=

> <r_lp_tautomer_probability>
1

> <r_epik_Ionization_Penalty>
0.0017527

> <r_epik_Ionization_Penalty_Charging>
0.00175191

> <r_epik_Ionization_Penalty_Neutral>
7.94565e-07

> <r_epik_State_Penalty>
0.00118605

> <r_epik_Charging_Adjusted_Penalty>
0.00293796

> <i_epik_Tot_Q>
1

> <i_epik_Tot_abs_Q>
1

> <r_epik_Metal_State_Penalty>
-0

> <b_epik_Metal_Only>
0

> <s_lp_Force_Field>
OPLS_2005

> <r_lp_Energy>
18.1701

> <b_lp_Chiralities_Consistent>
1

> <s_lp_Variant>
AV-unprocessed.smi:3274-4

> <Gold.Version>
5.8.1

> <Gold.Id.Protein>
6NUR|6NUR_protein|mol2

> <Gold.PLP.Fitness>
52.1446

> <Gold.PLP.PLP>
-50.1290

> <Gold.PLP.part.hbond>
-2.5479

> <Gold.PLP.part.metal>
0.0000

> <Gold.PLP.part.buried>
-5.4462

> <Gold.PLP.part.nonpolar>
-43.3990

> <Gold.PLP.part.repulsive>
0.1964

> <Gold.PLP.ligand.clash>
0.0000

> <Gold.PLP.ligand.torsion>
0.6711

> <Gold.PLP.Chemscore.Hbond>
1.0712

> <Gold.PLP.Chemscore.CHOScore>
0.0000

> <Gold.PLP.Chemscore.Metal>
0.0000

> <Gold.Chemscore.Hbonds>
donor molecule, donor type, donor heavy atom, donor atom, acceptor molecule, acceptor atom, score
      P1  H  7997  8009       L1    18  0.58
      P1  H 10752 10765       L1    16  0.83

> <Gold.PLP.Chemscore.Internal.Correction>
0.1441

> <Gold.Rescore>
     Score         DG    S(hbond)    S(metal)    S(lipo)     H(rot)  DE(clash)    DE(int)     intcor
     13.58     -15.64       0.75        0.00     117.06       2.36       0.12       1.95       ----

> <Gold.Chemscore.Fitness>
13.5750

> <Gold.Chemscore.DG>
-15.6415

> <Gold.Chemscore.ZeroCoef>
-5.4800

> <Gold.Chemscore.Hbond>
0.7518

> <Gold.Chemscore.Metal>
0.0000

> <Gold.Chemscore.Lipo>
117.0579

> <Gold.Chemscore.Internal_Hbond>
0.0000

> <Gold.Chemscore.DEClash>
0.1212

> <Gold.Chemscore.DEInternal>
1.9452

> <Gold.Chemscore.Rot>
2.3615

> <Gold.Chemscore.Internal.Correction>
   9.000000E+99

> <Gold.Chemscore.Hbonds>
donor molecule, donor type, donor heavy atom, donor atom, acceptor molecule, acceptor atom, score
      P1  H  7997  8009       L1    18  0.05
      P1  H 10752 10765       L1    16  0.68

> <Gold.Chemscore.Hbond.Weighted>
-2.5111

> <Gold.Chemscore.Metal.Weighted>
-0.0000

> <Gold.Chemscore.Lipo.Weighted>
-13.6958

> <Gold.Chemscore.Internal_Hbond.Weighted>
0.0000

> <Gold.Chemscore.DEClash.Weighted>
0.1212

> <Gold.Chemscore.DEInternal.Weighted>
1.9452

> <Gold.Chemscore.Rot.Weighted>
6.0454

> <Gold.Chemscore.Internal.Correction.Weighted>
   9.000000E+99

> <Gold.Protein.RotatedTorsions>
[ 6907 6896 6895 6894 ] final   28.01 input  -60.11 | X-H torsion
[ 7974 7965 7964 7962 ] final  165.16 input  175.53 | X-H torsion
[ 8008 7997 7996 7995 ] final -153.41 input   59.86 | X-H torsion
[ 10167 10162 10161 10158 ] final  135.81 input  -65.29 | X-H torsion
[ 10718 10713 10712 10709 ] final -133.04 input   66.30 | X-H torsion
[ 10763 10752 10751 10750 ] final  169.74 input  -60.55 | X-H torsion
[ 11005 11000 10999 10996 ] final  -37.90 input  -57.11 | X-H torsion

> <Gold.Protein.ActiveResidues>
 VAL166  LYS551  ARG553  GLY616  TRP617  ASP618  TYR619  PRO620  LYS621  CYS622 
 ASP623  PHE694  ASN695  SER759  ASP760  ASP761  ALA762  ILE779  LEU786  VAL792 
 PHE793  MET794  SER795  GLU796  ALA797  LYS798  CYS799  TRP800  GLU811  SER814 

> <Gold.Protein.RotatedAtoms>
  152.0107  134.9878  160.0567 H   0  0  0  0  0  0  0  0  0  0  0  0  # atno 6907 bound_to 6896
  152.1432  133.4471  159.4785 H   0  0  0  0  0  0  0  0  0  0  0  0  # atno 6908 bound_to 6896
  150.6867  134.2198  159.4435 H   0  0  0  0  0  0  0  0  0  0  0  0  # atno 6909 bound_to 6896
  144.7514  139.8429  143.6365 H   0  0  0  0  0  0  0  0  0  0  0  0  # atno 7974 bound_to 7965
  155.6704  140.0732  157.2522 H   0  0  0  0  0  0  0  0  0  0  0  0  # atno 8008 bound_to 7997
  154.4124  140.1700  156.1924 H   0  0  0  0  0  0  0  0  0  0  0  0  # atno 8009 bound_to 7997
  155.9622  140.3369  155.6503 H   0  0  0  0  0  0  0  0  0  0  0  0  # atno 8010 bound_to 7997
  139.5203  144.6498  151.5336 H   0  0  0  0  0  0  0  0  0  0  0  0  # atno 10167 bound_to 10162
  156.2408  130.7094  151.0955 H   0  0  0  0  0  0  0  0  0  0  0  0  # atno 10718 bound_to 10713
  154.3875  135.2754  155.2175 H   0  0  0  0  0  0  0  0  0  0  0  0  # atno 10763 bound_to 10752
  154.4255  135.5990  153.6040 H   0  0  0  0  0  0  0  0  0  0  0  0  # atno 10764 bound_to 10752
  152.9833  135.5983  154.4125 H   0  0  0  0  0  0  0  0  0  0  0  0  # atno 10765 bound_to 10752
  140.9987  133.6967  156.1982 H   0  0  0  0  0  0  0  0  0  0  0  0  # atno 11005 bound_to 11000
  146.1470  139.4542  143.0073 LP  0  0  0  0  0  0  0  0  0  0  0  0  # atno 17320 bound_to 7965
  145.6930  141.0159  143.1545 LP  0  0  0  0  0  0  0  0  0  0  0  0  # atno 17321 bound_to 7965
  140.6297  143.9099  150.6595 LP  0  0  0  0  0  0  0  0  0  0  0  0  # atno 17342 bound_to 10162
  140.2399  143.3671  152.1495 LP  0  0  0  0  0  0  0  0  0  0  0  0  # atno 17343 bound_to 10162
  157.7174  131.0702  150.6272 LP  0  0  0  0  0  0  0  0  0  0  0  0  # atno 17370 bound_to 10713
  156.6345  130.4441  149.5774 LP  0  0  0  0  0  0  0  0  0  0  0  0  # atno 17371 bound_to 10713
  140.6924  134.4651  157.5588 LP  0  0  0  0  0  0  0  0  0  0  0  0  # atno 17394 bound_to 11000
  139.9028  134.8518  156.1827 LP  0  0  0  0  0  0  0  0  0  0  0  0  # atno 17395 bound_to 11000

$$$$
