AV-unprocessed.smi:1258|AV-procd|sdf|5288|dock10
  -GOLD-   22720 4403D 1   1.00000     0.00000
 Structure written by MMmdl.
 33 34  0  0  0  0  0  0  0  0  1 V2000
  153.4570  141.8661  160.9003 C   0  0  0  0  0  0  0  0  0  0  0  0
  152.4379  142.5221  159.9578 C   0  0  1  0  0  0  0  0  0  0  0  0
  152.8712  143.9469  159.5632 C   0  0  0  0  0  0  0  0  0  0  0  0
  151.8531  144.6037  158.6179 C   0  0  0  0  0  0  0  0  0  0  0  0
  151.6164  143.7418  157.3683 C   0  0  0  0  0  0  0  0  0  0  0  0
  151.1764  142.3160  157.7472 C   0  0  1  0  0  0  0  0  0  0  0  0
  151.0173  141.5172  156.5363 N   0  0  0  0  0  0  0  0  0  0  0  0
  149.9060  140.8515  156.1842 C   0  0  0  0  0  0  0  0  0  0  0  0
  148.8820  140.8276  156.8664 O   0  0  0  0  0  0  0  0  0  0  0  0
  149.9557  140.0969  154.8561 C   0  0  0  0  0  0  0  0  0  0  0  0
  150.8049  138.9255  154.9572 N   0  0  0  0  0  0  0  0  0  0  0  0
  150.5874  137.6532  154.6176 C   0  0  0  0  0  0  0  0  0  0  0  0
  151.6423  136.8933  154.8700 N   0  0  0  0  0  0  0  0  0  0  0  0
  152.5558  137.7887  155.4012 N   0  0  0  0  0  0  0  0  0  0  0  0
  152.0647  138.9964  155.4549 N   0  0  0  0  0  0  0  0  0  0  0  0
  152.1980  141.6627  158.7011 C   0  0  0  0  0  0  0  0  0  0  0  0
  154.4305  141.7611  160.4206 H   0  0  0  0  0  0  0  0  0  0  0  0
  153.1273  140.8727  161.2052 H   0  0  0  0  0  0  0  0  0  0  0  0
  153.5938  142.4594  161.8049 H   0  0  0  0  0  0  0  0  0  0  0  0
  151.4929  142.5960  160.4978 H   0  0  0  0  0  0  0  0  0  0  0  0
  152.9892  144.5621  160.4559 H   0  0  0  0  0  0  0  0  0  0  0  0
  153.8482  143.9155  159.0791 H   0  0  0  0  0  0  0  0  0  0  0  0
  150.9089  144.7524  159.1432 H   0  0  0  0  0  0  0  0  0  0  0  0
  152.2031  145.5940  158.3250 H   0  0  0  0  0  0  0  0  0  0  0  0
  150.8614  144.2112  156.7364 H   0  0  0  0  0  0  0  0  0  0  0  0
  152.5333  143.7028  156.7779 H   0  0  0  0  0  0  0  0  0  0  0  0
  150.2126  142.3840  158.2557 H   0  0  0  0  0  0  0  0  0  0  0  0
  151.8096  141.4789  155.9110 H   0  0  0  0  0  0  0  0  0  0  0  0
  148.9510  139.7955  154.5550 H   0  0  0  0  0  0  0  0  0  0  0  0
  150.3472  140.7459  154.0718 H   0  0  0  0  0  0  0  0  0  0  0  0
  149.6664  137.2890  154.1867 H   0  0  0  0  0  0  0  0  0  0  0  0
  153.1431  141.5103  158.1773 H   0  0  0  0  0  0  0  0  0  0  0  0
  151.8475  140.6731  158.9975 H   0  0  0  0  0  0  0  0  0  0  0  0
  1  2  1  0  0  0  0
  1 17  1  0  0  0  0
  1 18  1  0  0  0  0
  1 19  1  0  0  0  0
  2 16  1  0  0  0  0
  2  3  1  0  0  0  0
  2 20  1  0  0  0  0
  3  4  1  0  0  0  0
  3 21  1  0  0  0  0
  3 22  1  0  0  0  0
  4  5  1  0  0  0  0
  4 23  1  0  0  0  0
  4 24  1  0  0  0  0
  5  6  1  0  0  0  0
  5 25  1  0  0  0  0
  5 26  1  0  0  0  0
  6  7  1  0  0  0  0
  6 16  1  0  0  0  0
  6 27  1  0  0  0  0
  7  8  1  0  0  0  0
  7 28  1  0  0  0  0
  8  9  2  0  0  0  0
  8 10  1  0  0  0  0
 10 11  1  0  0  0  0
 10 29  1  0  0  0  0
 10 30  1  0  0  0  0
 11 15  1  0  0  0  0
 11 12  1  0  0  0  0
 12 13  2  0  0  0  0
 12 31  1  0  0  0  0
 13 14  1  0  0  0  0
 14 15  2  0  0  0  0
 16 32  1  0  0  0  0
 16 33  1  0  0  0  0
M  END
> <s_m_source_file>
AV-unprocessed.smi

> <i_m_source_file_index>
1258

> <i_lp_mmshare_version>
43012

> <i_f3d_flags>
0

> <s_epik_input>
W0NIM11bQ0BASF0xW0NIMl1bQ0gyXVtDSDJdW0NASF0oW0NIMl0xKVtOSF1DKD1PKVtDSDJdbjJbY0hdbm5uMg==

> <s_epik_cmdline>
J2VwaWtfcHl0aG9uJywgJy1waCcsICc3LjAnLCAnLXRuJywgJzgnLCAnLW1hJywgJzIwMCcsICctbWV0YWxfYmluZGluZycsICctaW1hZScsICc8aW5maWxlLm1hZT4nLCAnLW9tYWUnLCAnPG91dGZpbGUubWFlPic=

> <r_lp_tautomer_probability>
1

> <r_epik_Ionization_Penalty>
5.03816e-07

> <r_epik_Ionization_Penalty_Charging>
0

> <r_epik_Ionization_Penalty_Neutral>
5.03816e-07

> <r_epik_State_Penalty>
-0

> <r_epik_Charging_Adjusted_Penalty>
0

> <i_epik_Tot_Q>
0

> <i_epik_Tot_abs_Q>
0

> <r_epik_Metal_State_Penalty>
-0

> <b_epik_Metal_Only>
0

> <s_lp_Force_Field>
OPLS_2005

> <r_lp_Energy>
10.5543

> <b_lp_Chiralities_Consistent>
1

> <s_lp_Variant>
AV-unprocessed.smi:1258-2

> <Gold.Version>
5.8.1

> <Gold.Id.Protein>
6NUR|6NUR_protein|mol2

> <Gold.PLP.Fitness>
42.5363

> <Gold.PLP.PLP>
-37.0249

> <Gold.PLP.part.hbond>
-1.9277

> <Gold.PLP.part.metal>
0.0000

> <Gold.PLP.part.buried>
-4.1739

> <Gold.PLP.part.nonpolar>
-32.1531

> <Gold.PLP.part.repulsive>
0.3122

> <Gold.PLP.ligand.clash>
0.0000

> <Gold.PLP.ligand.torsion>
0.2468

> <Gold.PLP.Chemscore.Hbond>
1.0000

> <Gold.PLP.Chemscore.CHOScore>
1.0000

> <Gold.PLP.Chemscore.Metal>
0.0000

> <Gold.Chemscore.Hbonds>
donor molecule, donor type, donor heavy atom, donor atom, acceptor molecule, acceptor atom, score
      P1  H 10752 10765       L1    13  0.70
      L1  C    12    31       P1  7948  0.77

> <Gold.PLP.Chemscore.Internal.Correction>
0.0050

> <Gold.Rescore>
     Score         DG    S(hbond)    S(metal)    S(lipo)     H(rot)  DE(clash)    DE(int)     intcor
     11.44     -12.90       0.70        0.00      85.27       1.92       0.00       1.46       ----

> <Gold.Chemscore.Fitness>
11.4398

> <Gold.Chemscore.DG>
-12.8953

> <Gold.Chemscore.ZeroCoef>
-5.4800

> <Gold.Chemscore.Hbond>
0.7025

> <Gold.Chemscore.Metal>
0.0000

> <Gold.Chemscore.Lipo>
85.2677

> <Gold.Chemscore.Internal_Hbond>
0.0000

> <Gold.Chemscore.DEClash>
0.0000

> <Gold.Chemscore.DEInternal>
1.4555

> <Gold.Chemscore.Rot>
1.9169

> <Gold.Chemscore.Internal.Correction>
   9.000000E+99

> <Gold.Chemscore.Hbonds>
donor molecule, donor type, donor heavy atom, donor atom, acceptor molecule, acceptor atom, score
      P1  H 10752 10765       L1    13  0.07

> <Gold.Chemscore.Hbond.Weighted>
-2.3462

> <Gold.Chemscore.Metal.Weighted>
-0.0000

> <Gold.Chemscore.Lipo.Weighted>
-9.9763

> <Gold.Chemscore.Internal_Hbond.Weighted>
0.0000

> <Gold.Chemscore.DEClash.Weighted>
0.0000

> <Gold.Chemscore.DEInternal.Weighted>
1.4555

> <Gold.Chemscore.Rot.Weighted>
4.9073

> <Gold.Chemscore.Internal.Correction.Weighted>
   9.000000E+99

> <Gold.Protein.RotatedTorsions>
[ 6907 6896 6895 6894 ] final   66.46 input  -60.11 | X-H torsion
[ 7974 7965 7964 7962 ] final  118.92 input  175.53 | X-H torsion
[ 8008 7997 7996 7995 ] final -120.24 input   59.86 | X-H torsion
[ 10167 10162 10161 10158 ] final -104.00 input  -65.29 | X-H torsion
[ 10718 10713 10712 10709 ] final  -70.82 input   66.30 | X-H torsion
[ 10763 10752 10751 10750 ] final  162.82 input  -60.55 | X-H torsion
[ 11005 11000 10999 10996 ] final  -77.38 input  -57.11 | X-H torsion

> <Gold.Protein.ActiveResidues>
 VAL166  LYS551  ARG553  GLY616  TRP617  ASP618  TYR619  PRO620  LYS621  CYS622 
 ASP623  PHE694  ASN695  SER759  ASP760  ASP761  ALA762  ILE779  LEU786  VAL792 
 PHE793  MET794  SER795  GLU796  ALA797  LYS798  CYS799  TRP800  GLU811  SER814 

> <Gold.Protein.RotatedAtoms>
  152.4483  134.5448  159.9849 H   0  0  0  0  0  0  0  0  0  0  0  0  # atno 6907 bound_to 6896
  151.5528  133.3409  159.2964 H   0  0  0  0  0  0  0  0  0  0  0  0  # atno 6908 bound_to 6896
  150.8404  134.7727  159.6991 H   0  0  0  0  0  0  0  0  0  0  0  0  # atno 6909 bound_to 6896
  145.1494  139.3219  143.4574 H   0  0  0  0  0  0  0  0  0  0  0  0  # atno 7974 bound_to 7965
  155.1287  140.0400  157.2769 H   0  0  0  0  0  0  0  0  0  0  0  0  # atno 8008 bound_to 7997
  154.6559  140.2580  155.7136 H   0  0  0  0  0  0  0  0  0  0  0  0  # atno 8009 bound_to 7997
  156.2598  140.2827  156.1012 H   0  0  0  0  0  0  0  0  0  0  0  0  # atno 8010 bound_to 7997
  140.2140  143.3725  152.1026 H   0  0  0  0  0  0  0  0  0  0  0  0  # atno 10167 bound_to 10162
  156.0390  130.4339  150.2353 H   0  0  0  0  0  0  0  0  0  0  0  0  # atno 10718 bound_to 10713
  154.2842  135.2762  155.2683 H   0  0  0  0  0  0  0  0  0  0  0  0  # atno 10763 bound_to 10752
  154.5191  135.5761  153.6670 H   0  0  0  0  0  0  0  0  0  0  0  0  # atno 10764 bound_to 10752
  152.9924  135.6200  154.3003 H   0  0  0  0  0  0  0  0  0  0  0  0  # atno 10765 bound_to 10752
  141.1660  133.7020  156.7811 H   0  0  0  0  0  0  0  0  0  0  0  0  # atno 11005 bound_to 11000
  146.3496  140.1562  142.8591 LP  0  0  0  0  0  0  0  0  0  0  0  0  # atno 17320 bound_to 7965
  145.0447  140.8972  143.5031 LP  0  0  0  0  0  0  0  0  0  0  0  0  # atno 17321 bound_to 7965
  139.5169  144.6984  151.5564 LP  0  0  0  0  0  0  0  0  0  0  0  0  # atno 17342 bound_to 10162
  140.6303  143.9089  150.6600 LP  0  0  0  0  0  0  0  0  0  0  0  0  # atno 17343 bound_to 10162
  157.0449  131.0046  151.3272 LP  0  0  0  0  0  0  0  0  0  0  0  0  # atno 17370 bound_to 10713
  157.5182  130.7981  149.7780 LP  0  0  0  0  0  0  0  0  0  0  0  0  # atno 17371 bound_to 10713
  140.2394  134.8625  157.3558 LP  0  0  0  0  0  0  0  0  0  0  0  0  # atno 17394 bound_to 11000
  140.1811  134.4488  155.7771 LP  0  0  0  0  0  0  0  0  0  0  0  0  # atno 17395 bound_to 11000

$$$$
