AV-unprocessed.smi:1464|AV-procd|sdf|5943|dock10
  -GOLD-   22720 6 23D 1   1.00000     0.00000
 Structure written by MMmdl.
 41 42  0  0  0  0  0  0  0  0  1 V2000
  150.6530  138.7289  154.6061 C   0  0  0  0  0  0  0  0  0  0  0  0
  149.1957  138.5818  154.1324 C   0  0  2  0  0  0  0  0  0  0  0  0
  148.4909  139.9534  154.1820 C   0  0  0  0  0  0  0  0  0  0  0  0
  147.0341  139.8744  153.7062 C   0  0  0  0  0  0  0  0  0  0  0  0
  146.2458  138.8383  154.5203 C   0  0  0  0  0  0  0  0  0  0  0  0
  146.9156  137.4524  154.4882 C   0  0  1  0  0  0  0  0  0  0  0  0
  146.7901  136.8716  153.1492 N   0  0  0  0  0  0  0  0  0  0  0  0
  145.6564  136.4471  152.5700 C   0  0  0  0  0  0  0  0  0  0  0  0
  144.5563  136.4821  153.1231 O   0  0  0  0  0  0  0  0  0  0  0  0
  145.8070  135.8725  151.1537 C   0  0  0  0  0  0  0  0  0  0  0  0
  145.4949  134.4388  151.0684 N   0  0  0  0  0  0  0  0  0  0  0  0
  144.4028  134.1433  150.2662 N   0  0  0  0  0  0  0  0  0  0  0  0
  144.0383  132.9169  150.0999 C   0  0  0  0  0  0  0  0  0  0  0  0
  142.9537  132.6680  149.2949 O   0  0  0  0  0  0  0  0  0  0  0  0
  144.7473  131.8313  150.7414 C   0  0  0  0  0  0  0  0  0  0  0  0
  145.8065  132.1296  151.5253 C   0  0  0  0  0  0  0  0  0  0  0  0
  146.2468  133.5100  151.7356 C   0  0  0  0  0  0  0  0  0  0  0  0
  147.2059  133.8108  152.4462 O   0  0  0  0  0  0  0  0  0  0  0  0
  148.3970  137.5255  154.9463 C   0  0  1  0  0  0  0  0  0  0  0  0
  149.0577  136.1318  154.9432 C   0  0  0  0  0  0  0  0  0  0  0  0
  142.3540  133.3806  149.4529 H   0  0  0  0  0  0  0  0  0  0  0  0
  150.7029  138.9766  155.6669 H   0  0  0  0  0  0  0  0  0  0  0  0
  151.1644  139.5203  154.0573 H   0  0  0  0  0  0  0  0  0  0  0  0
  151.2238  137.8145  154.4467 H   0  0  0  0  0  0  0  0  0  0  0  0
  149.2255  138.2609  153.0901 H   0  0  0  0  0  0  0  0  0  0  0  0
  148.5162  140.3421  155.2010 H   0  0  0  0  0  0  0  0  0  0  0  0
  149.0314  140.6735  153.5667 H   0  0  0  0  0  0  0  0  0  0  0  0
  146.5612  140.8527  153.7967 H   0  0  0  0  0  0  0  0  0  0  0  0
  147.0060  139.6171  152.6467 H   0  0  0  0  0  0  0  0  0  0  0  0
  146.1734  139.1776  155.5543 H   0  0  0  0  0  0  0  0  0  0  0  0
  145.2215  138.7719  154.1510 H   0  0  0  0  0  0  0  0  0  0  0  0
  146.3775  136.8266  155.2022 H   0  0  0  0  0  0  0  0  0  0  0  0
  147.6435  136.7921  152.6156 H   0  0  0  0  0  0  0  0  0  0  0  0
  145.1730  136.4324  150.4633 H   0  0  0  0  0  0  0  0  0  0  0  0
  146.8310  136.0564  150.8238 H   0  0  0  0  0  0  0  0  0  0  0  0
  144.4307  130.8094  150.5921 H   0  0  0  0  0  0  0  0  0  0  0  0
  146.3457  131.3292  152.0106 H   0  0  0  0  0  0  0  0  0  0  0  0
  148.3852  137.8599  155.9849 H   0  0  0  0  0  0  0  0  0  0  0  0
  149.2378  135.7736  153.9293 H   0  0  0  0  0  0  0  0  0  0  0  0
  148.4258  135.3996  155.4466 H   0  0  0  0  0  0  0  0  0  0  0  0
  150.0129  136.1383  155.4677 H   0  0  0  0  0  0  0  0  0  0  0  0
  1  2  1  0  0  0  0
  1 22  1  0  0  0  0
  1 23  1  0  0  0  0
  1 24  1  0  0  0  0
  2 19  1  0  0  0  0
  2  3  1  0  0  0  0
  2 25  1  0  0  0  0
  3  4  1  0  0  0  0
  3 26  1  0  0  0  0
  3 27  1  0  0  0  0
  4  5  1  0  0  0  0
  4 28  1  0  0  0  0
  4 29  1  0  0  0  0
  5  6  1  0  0  0  0
  5 30  1  0  0  0  0
  5 31  1  0  0  0  0
  6  7  1  0  0  0  0
  6 19  1  0  0  0  0
  6 32  1  0  0  0  0
  7  8  1  0  0  0  0
  7 33  1  0  0  0  0
  8  9  2  0  0  0  0
  8 10  1  0  0  0  0
 10 34  1  0  0  0  0
 10 35  1  0  0  0  0
 10 11  1  0  0  0  0
 11 12  1  0  0  0  0
 11 17  1  0  0  0  0
 12 13  2  0  0  0  0
 13 14  1  0  0  0  0
 13 15  1  0  0  0  0
 14 21  1  0  0  0  0
 15 36  1  0  0  0  0
 15 16  2  0  0  0  0
 16 37  1  0  0  0  0
 16 17  1  0  0  0  0
 17 18  2  0  0  0  0
 19 20  1  0  0  0  0
 19 38  1  0  0  0  0
 20 39  1  0  0  0  0
 20 40  1  0  0  0  0
 20 41  1  0  0  0  0
M  END
> <s_m_source_file>
AV-unprocessed.smi

> <i_m_source_file_index>
1464

> <i_lp_mmshare_version>
43012

> <i_f3d_flags>
0

> <s_epik_input>
W0NIM11bQ0BASF0xW0NIMl1bQ0gyXVtDSDJdW0NASF0oW0NASF0xW0NIM10pW05IXUMoPU8pW0NIMl1uMltuSF1jKD1PKVtjSF1bY0hdYzI9Tw==

> <s_epik_cmdline>
J2VwaWtfcHl0aG9uJywgJy1waCcsICc3LjAnLCAnLXRuJywgJzgnLCAnLW1hJywgJzIwMCcsICctbWV0YWxfYmluZGluZycsICctaW1hZScsICc8aW5maWxlLm1hZT4nLCAnLW9tYWUnLCAnPG91dGZpbGUubWFlPic=

> <r_lp_tautomer_probability>
0.9996

> <r_epik_Ionization_Penalty>
2.10335

> <r_epik_Ionization_Penalty_Charging>
3.98079e-08

> <r_epik_Ionization_Penalty_Neutral>
2.10335

> <r_epik_State_Penalty>
1.67957

> <r_epik_Charging_Adjusted_Penalty>
1.67957

> <i_epik_Tot_Q>
0

> <i_epik_Tot_abs_Q>
0

> <r_epik_Metal_State_Penalty>
1.67957

> <b_epik_Metal_Only>
0

> <s_lp_Force_Field>
OPLS_2005

> <r_lp_Energy>
20.9709

> <b_lp_Chiralities_Consistent>
1

> <s_lp_Variant>
AV-unprocessed.smi:1464-9

> <Gold.Version>
5.8.1

> <Gold.Id.Protein>
6NUR|6NUR_protein|mol2

> <Gold.PLP.Fitness>
37.2079

> <Gold.PLP.PLP>
-31.5009

> <Gold.PLP.part.hbond>
-2.5868

> <Gold.PLP.part.metal>
0.0000

> <Gold.PLP.part.buried>
-5.7810

> <Gold.PLP.part.nonpolar>
-24.1377

> <Gold.PLP.part.repulsive>
1.2003

> <Gold.PLP.ligand.clash>
0.0000

> <Gold.PLP.ligand.torsion>
0.1517

> <Gold.PLP.Chemscore.Hbond>
2.0000

> <Gold.PLP.Chemscore.CHOScore>
0.0000

> <Gold.PLP.Chemscore.Metal>
0.0000

> <Gold.Chemscore.Hbonds>
donor molecule, donor type, donor heavy atom, donor atom, acceptor molecule, acceptor atom, score
      L1  H     7    33       P1  7948  1.00
      L1  H    14    21       P1 10186  1.00

> <Gold.PLP.Chemscore.Internal.Correction>
0.0104

> <Gold.Rescore>
     Score         DG    S(hbond)    S(metal)    S(lipo)     H(rot)  DE(clash)    DE(int)     intcor
     14.49     -14.83       2.44        0.00      59.06       2.22       0.10       0.25       ----

> <Gold.Chemscore.Fitness>
14.4855

> <Gold.Chemscore.DG>
-14.8333

> <Gold.Chemscore.ZeroCoef>
-5.4800

> <Gold.Chemscore.Hbond>
2.4351

> <Gold.Chemscore.Metal>
0.0000

> <Gold.Chemscore.Lipo>
59.0561

> <Gold.Chemscore.Internal_Hbond>
0.0000

> <Gold.Chemscore.DEClash>
0.0973

> <Gold.Chemscore.DEInternal>
0.2505

> <Gold.Chemscore.Rot>
2.2224

> <Gold.Chemscore.Internal.Correction>
   9.000000E+99

> <Gold.Chemscore.Hbonds>
donor molecule, donor type, donor heavy atom, donor atom, acceptor molecule, acceptor atom, score
      L1  H     7    33       P1  7948  0.99
      L1  H    14    21       P1 10186  1.00

> <Gold.Chemscore.Hbond.Weighted>
-8.1331

> <Gold.Chemscore.Metal.Weighted>
-0.0000

> <Gold.Chemscore.Lipo.Weighted>
-6.9096

> <Gold.Chemscore.Internal_Hbond.Weighted>
0.0000

> <Gold.Chemscore.DEClash.Weighted>
0.0973

> <Gold.Chemscore.DEInternal.Weighted>
0.2505

> <Gold.Chemscore.Rot.Weighted>
5.6893

> <Gold.Chemscore.Internal.Correction.Weighted>
   9.000000E+99

> <Gold.Protein.RotatedTorsions>
[ 6907 6896 6895 6894 ] final  118.19 input  -60.11 | X-H torsion
[ 7974 7965 7964 7962 ] final   -5.83 input  175.53 | X-H torsion
[ 8008 7997 7996 7995 ] final  -99.78 input   59.86 | X-H torsion
[ 10167 10162 10161 10158 ] final -171.01 input  -65.29 | X-H torsion
[ 10718 10713 10712 10709 ] final -109.03 input   66.30 | X-H torsion
[ 10763 10752 10751 10750 ] final  171.78 input  -60.55 | X-H torsion
[ 11005 11000 10999 10996 ] final  115.02 input  -57.11 | X-H torsion

> <Gold.Protein.ActiveResidues>
 VAL166  LYS551  ARG553  GLY616  TRP617  ASP618  TYR619  PRO620  LYS621  CYS622 
 ASP623  PHE694  ASN695  SER759  ASP760  ASP761  ALA762  ILE779  LEU786  VAL792 
 PHE793  MET794  SER795  GLU796  ALA797  LYS798  CYS799  TRP800  GLU811  SER814 

> <Gold.Protein.RotatedAtoms>
  152.4560  133.7724  159.6805 H   0  0  0  0  0  0  0  0  0  0  0  0  # atno 6907 bound_to 6896
  150.8487  133.7811  159.3040 H   0  0  0  0  0  0  0  0  0  0  0  0  # atno 6908 bound_to 6896
  151.5414  135.1071  159.9979 H   0  0  0  0  0  0  0  0  0  0  0  0  # atno 6909 bound_to 6896
  146.2344  140.2080  142.8335 H   0  0  0  0  0  0  0  0  0  0  0  0  # atno 7974 bound_to 7965
  154.8195  140.0445  157.1400 H   0  0  0  0  0  0  0  0  0  0  0  0  # atno 8008 bound_to 7997
  154.9276  140.3035  155.5164 H   0  0  0  0  0  0  0  0  0  0  0  0  # atno 8009 bound_to 7997
  156.2979  140.2329  156.4332 H   0  0  0  0  0  0  0  0  0  0  0  0  # atno 8010 bound_to 7997
  139.5828  144.1386  152.1537 H   0  0  0  0  0  0  0  0  0  0  0  0  # atno 10167 bound_to 10162
  156.0515  130.5743  150.8043 H   0  0  0  0  0  0  0  0  0  0  0  0  # atno 10718 bound_to 10713
  154.4167  135.2757  155.2002 H   0  0  0  0  0  0  0  0  0  0  0  0  # atno 10763 bound_to 10752
  154.3965  135.6054  153.5876 H   0  0  0  0  0  0  0  0  0  0  0  0  # atno 10764 bound_to 10752
  152.9832  135.5916  154.4457 H   0  0  0  0  0  0  0  0  0  0  0  0  # atno 10765 bound_to 10752
  139.8997  134.9577  156.6982 H   0  0  0  0  0  0  0  0  0  0  0  0  # atno 11005 bound_to 11000
  144.9729  140.8386  143.5444 LP  0  0  0  0  0  0  0  0  0  0  0  0  # atno 17320 bound_to 7965
  145.2064  139.2226  143.5166 LP  0  0  0  0  0  0  0  0  0  0  0  0  # atno 17321 bound_to 7965
  140.0943  144.5594  150.7033 LP  0  0  0  0  0  0  0  0  0  0  0  0  # atno 17342 bound_to 10162
  140.7104  143.2500  151.4599 LP  0  0  0  0  0  0  0  0  0  0  0  0  # atno 17343 bound_to 10162
  157.5447  131.0942  150.9780 LP  0  0  0  0  0  0  0  0  0  0  0  0  # atno 17370 bound_to 10713
  157.0054  130.5616  149.5315 LP  0  0  0  0  0  0  0  0  0  0  0  0  # atno 17371 bound_to 10713
  140.7171  133.9172  155.8122 LP  0  0  0  0  0  0  0  0  0  0  0  0  # atno 17394 bound_to 11000
  141.0256  134.0828  157.4072 LP  0  0  0  0  0  0  0  0  0  0  0  0  # atno 17395 bound_to 11000

$$$$
