AV-unprocessed.smi:1599|AV-procd|sdf|6426|dock10
  -GOLD-   22720 7 73D 1   1.00000     0.00000
 Structure written by MMmdl.
 39 40  0  0  0  0  0  0  0  0  1 V2000
  144.4017  134.5619  152.8920 C   0  0  0  0  0  0  0  0  0  0  0  0
  144.8970  135.2895  151.6301 C   0  0  1  0  0  0  0  0  0  0  0  0
  146.0437  136.1293  151.9669 N   0  0  0  0  0  0  0  0  0  0  0  0
  145.9998  137.2317  152.7284 C   0  0  0  0  0  0  0  0  0  0  0  0
  144.9715  137.6547  153.2573 O   0  0  0  0  0  0  0  0  0  0  0  0
  147.2119  137.8008  152.8338 N   0  0  0  0  0  0  0  0  0  0  0  0
  147.5485  138.9808  153.5441 C   0  0  0  0  0  0  0  0  0  0  0  0
  146.6103  139.8641  154.1385 C   0  0  0  0  0  0  0  0  0  0  0  0
  147.2181  140.8782  154.7354 N   0  0  0  0  0  0  0  0  0  0  0  0
  148.5424  140.6639  154.5329 N   0  0  0  0  0  0  0  0  0  0  0  0
  149.5149  141.6046  155.0664 C   0  0  0  0  0  0  0  0  0  0  0  0
  150.7568  140.9163  155.6478 C   0  0  0  0  0  0  0  0  0  0  0  0
  151.0017  141.1309  156.9429 N   0  0  0  0  0  0  0  0  0  0  0  0
  151.4869  140.2073  154.9564 O   0  0  0  0  0  0  0  0  0  0  0  0
  148.7793  139.5112  153.8092 C   0  0  0  0  0  0  0  0  0  0  0  0
  145.3007  134.3111  150.5108 C   0  0  1  0  0  0  0  0  0  0  0  0
  146.4138  133.3310  150.8856 C   0  0  0  0  0  0  0  0  0  0  0  0
  146.1668  132.1366  149.9760 C   0  0  0  0  0  0  0  0  0  0  0  0
  144.7562  132.3682  149.4280 C   0  0  0  0  0  0  0  0  0  0  0  0
  144.2283  133.4323  150.2058 O   0  0  0  0  0  0  0  0  0  0  0  0
  143.5182  133.9593  152.6816 H   0  0  0  0  0  0  0  0  0  0  0  0
  144.1293  135.2703  153.6750 H   0  0  0  0  0  0  0  0  0  0  0  0
  145.1685  133.8997  153.2951 H   0  0  0  0  0  0  0  0  0  0  0  0
  144.0903  135.9209  151.2533 H   0  0  0  0  0  0  0  0  0  0  0  0
  146.9324  135.8602  151.5709 H   0  0  0  0  0  0  0  0  0  0  0  0
  147.9723  137.3452  152.3509 H   0  0  0  0  0  0  0  0  0  0  0  0
  145.5321  139.8046  154.1581 H   0  0  0  0  0  0  0  0  0  0  0  0
  149.8184  142.2958  154.2786 H   0  0  0  0  0  0  0  0  0  0  0  0
  149.0289  142.1961  155.8433 H   0  0  0  0  0  0  0  0  0  0  0  0
  151.8036  140.7039  157.3834 H   0  0  0  0  0  0  0  0  0  0  0  0
  150.3808  141.7202  157.4786 H   0  0  0  0  0  0  0  0  0  0  0  0
  149.7787  139.1885  153.5580 H   0  0  0  0  0  0  0  0  0  0  0  0
  145.5763  134.8570  149.6061 H   0  0  0  0  0  0  0  0  0  0  0  0
  147.4093  133.7577  150.7603 H   0  0  0  0  0  0  0  0  0  0  0  0
  146.3103  133.0215  151.9264 H   0  0  0  0  0  0  0  0  0  0  0  0
  146.8928  132.0927  149.1634 H   0  0  0  0  0  0  0  0  0  0  0  0
  146.2325  131.2034  150.5363 H   0  0  0  0  0  0  0  0  0  0  0  0
  144.7963  132.6747  148.3818 H   0  0  0  0  0  0  0  0  0  0  0  0
  144.1277  131.4804  149.4989 H   0  0  0  0  0  0  0  0  0  0  0  0
  1  2  1  0  0  0  0
  1 21  1  0  0  0  0
  1 22  1  0  0  0  0
  1 23  1  0  0  0  0
  2  3  1  0  0  0  0
  2 16  1  0  0  0  0
  2 24  1  0  0  0  0
  3  4  1  0  0  0  0
  3 25  1  0  0  0  0
  4  5  2  0  0  0  0
  4  6  1  0  0  0  0
  6  7  1  0  0  0  0
  6 26  1  0  0  0  0
  7 15  2  0  0  0  0
  7  8  1  0  0  0  0
  8  9  2  0  0  0  0
  8 27  1  0  0  0  0
  9 10  1  0  0  0  0
 10 11  1  0  0  0  0
 10 15  1  0  0  0  0
 11 12  1  0  0  0  0
 11 28  1  0  0  0  0
 11 29  1  0  0  0  0
 12 13  1  0  0  0  0
 12 14  2  0  0  0  0
 13 30  1  0  0  0  0
 13 31  1  0  0  0  0
 15 32  1  0  0  0  0
 16 20  1  0  0  0  0
 16 17  1  0  0  0  0
 16 33  1  0  0  0  0
 17 18  1  0  0  0  0
 17 34  1  0  0  0  0
 17 35  1  0  0  0  0
 18 19  1  0  0  0  0
 18 36  1  0  0  0  0
 18 37  1  0  0  0  0
 19 20  1  0  0  0  0
 19 38  1  0  0  0  0
 19 39  1  0  0  0  0
M  END
> <s_m_source_file>
AV-unprocessed.smi

> <i_m_source_file_index>
1599

> <i_lp_mmshare_version>
43012

> <i_f3d_flags>
0

> <s_epik_input>
TzFbQ0gyXVtDSDJdW0NIMl1bQ0BIXTFbQ0BIXShbQ0gzXSlbTkhdQyg9TylbTkhdYzJbY0hdbm4oW2NIXTIpW0NIMl1DKD1PKVtOSDJd

> <s_epik_cmdline>
J2VwaWtfcHl0aG9uJywgJy1waCcsICc3LjAnLCAnLXRuJywgJzgnLCAnLW1hJywgJzIwMCcsICctbWV0YWxfYmluZGluZycsICctaW1hZScsICc8aW5maWxlLm1hZT4nLCAnLW9tYWUnLCAnPG91dGZpbGUubWFlPic=

> <r_lp_tautomer_probability>
1

> <r_epik_Ionization_Penalty>
4.15391e-05

> <r_epik_Ionization_Penalty_Charging>
0

> <r_epik_Ionization_Penalty_Neutral>
4.15391e-05

> <r_epik_State_Penalty>
-0

> <r_epik_Charging_Adjusted_Penalty>
0

> <i_epik_Tot_Q>
0

> <i_epik_Tot_abs_Q>
0

> <r_epik_Metal_State_Penalty>
-0

> <b_epik_Metal_Only>
0

> <s_lp_Force_Field>
OPLS_2005

> <r_lp_Energy>
23.4533

> <b_lp_Chiralities_Consistent>
1

> <s_lp_Variant>
AV-unprocessed.smi:1599-4

> <Gold.Version>
5.8.1

> <Gold.Id.Protein>
6NUR|6NUR_protein|mol2

> <Gold.PLP.Fitness>
42.5308

> <Gold.PLP.PLP>
-31.7186

> <Gold.PLP.part.hbond>
-3.0000

> <Gold.PLP.part.metal>
0.0000

> <Gold.PLP.part.buried>
-1.2967

> <Gold.PLP.part.nonpolar>
-28.4712

> <Gold.PLP.part.repulsive>
1.1908

> <Gold.PLP.ligand.clash>
0.0000

> <Gold.PLP.ligand.torsion>
0.4017

> <Gold.PLP.Chemscore.Hbond>
2.6497

> <Gold.PLP.Chemscore.CHOScore>
1.2082

> <Gold.PLP.Chemscore.Metal>
0.0000

> <Gold.Chemscore.Hbonds>
donor molecule, donor type, donor heavy atom, donor atom, acceptor molecule, acceptor atom, score
      L1  H     3    25       P1  7948  0.80
      L1  H     6    26       P1  7948  1.00
      P1  H  7989  7998       L1    14  1.00
      L1  C     8    27       P1 10175  0.85
      L1  C    15    32       P1  7957  0.27

> <Gold.PLP.Chemscore.Internal.Correction>
0.0417

> <Gold.Rescore>
     Score         DG    S(hbond)    S(metal)    S(lipo)     H(rot)  DE(clash)    DE(int)     intcor
     12.69     -15.95       2.61        0.00      64.91       2.28       1.40       1.86       ----

> <Gold.Chemscore.Fitness>
12.6891

> <Gold.Chemscore.DG>
-15.9500

> <Gold.Chemscore.ZeroCoef>
-5.4800

> <Gold.Chemscore.Hbond>
2.6101

> <Gold.Chemscore.Metal>
0.0000

> <Gold.Chemscore.Lipo>
64.9139

> <Gold.Chemscore.Internal_Hbond>
0.0000

> <Gold.Chemscore.DEClash>
1.3963

> <Gold.Chemscore.DEInternal>
1.8645

> <Gold.Chemscore.Rot>
2.2823

> <Gold.Chemscore.Internal.Correction>
   9.000000E+99

> <Gold.Chemscore.Hbonds>
donor molecule, donor type, donor heavy atom, donor atom, acceptor molecule, acceptor atom, score
      L1  H     3    25       P1  7948  0.75
      L1  H     6    26       P1  7948  0.95
      P1  H  7989  7998       L1    14  0.67

> <Gold.Chemscore.Hbond.Weighted>
-8.7177

> <Gold.Chemscore.Metal.Weighted>
-0.0000

> <Gold.Chemscore.Lipo.Weighted>
-7.5949

> <Gold.Chemscore.Internal_Hbond.Weighted>
0.0000

> <Gold.Chemscore.DEClash.Weighted>
1.3963

> <Gold.Chemscore.DEInternal.Weighted>
1.8645

> <Gold.Chemscore.Rot.Weighted>
5.8427

> <Gold.Chemscore.Internal.Correction.Weighted>
   9.000000E+99

> <Gold.Protein.RotatedTorsions>
[ 6907 6896 6895 6894 ] final   25.94 input  -60.11 | X-H torsion
[ 7974 7965 7964 7962 ] final  -11.12 input  175.53 | X-H torsion
[ 8008 7997 7996 7995 ] final  145.69 input   59.86 | X-H torsion
[ 10167 10162 10161 10158 ] final  112.47 input  -65.29 | X-H torsion
[ 10718 10713 10712 10709 ] final -177.38 input   66.30 | X-H torsion
[ 10763 10752 10751 10750 ] final -107.51 input  -60.55 | X-H torsion
[ 11005 11000 10999 10996 ] final   85.44 input  -57.11 | X-H torsion

> <Gold.Protein.ActiveResidues>
 VAL166  LYS551  ARG553  GLY616  TRP617  ASP618  TYR619  PRO620  LYS621  CYS622 
 ASP623  PHE694  ASN695  SER759  ASP760  ASP761  ALA762  ILE779  LEU786  VAL792 
 PHE793  MET794  SER795  GLU796  ALA797  LYS798  CYS799  TRP800  GLU811  SER814 

> <Gold.Protein.RotatedAtoms>
  151.9801  135.0033  160.0556 H   0  0  0  0  0  0  0  0  0  0  0  0  # atno 6907 bound_to 6896
  152.1704  133.4635  159.4915 H   0  0  0  0  0  0  0  0  0  0  0  0  # atno 6908 bound_to 6896
  150.6901  134.1877  159.4316 H   0  0  0  0  0  0  0  0  0  0  0  0  # atno 6909 bound_to 6896
  146.2198  140.2865  142.8365 H   0  0  0  0  0  0  0  0  0  0  0  0  # atno 7974 bound_to 7965
  156.2876  140.2202  156.5256 H   0  0  0  0  0  0  0  0  0  0  0  0  # atno 8008 bound_to 7997
  154.7492  140.0481  157.0900 H   0  0  0  0  0  0  0  0  0  0  0  0  # atno 8009 bound_to 7997
  155.0132  140.3115  155.4825 H   0  0  0  0  0  0  0  0  0  0  0  0  # atno 8010 bound_to 7997
  139.6533  144.7129  151.2005 H   0  0  0  0  0  0  0  0  0  0  0  0  # atno 10167 bound_to 10162
  156.8287  130.9645  151.3108 H   0  0  0  0  0  0  0  0  0  0  0  0  # atno 10718 bound_to 10713
  154.8079  135.4672  154.0440 H   0  0  0  0  0  0  0  0  0  0  0  0  # atno 10763 bound_to 10752
  153.1894  135.6853  153.8379 H   0  0  0  0  0  0  0  0  0  0  0  0  # atno 10764 bound_to 10752
  153.7902  135.3244  155.3355 H   0  0  0  0  0  0  0  0  0  0  0  0  # atno 10765 bound_to 10752
  139.8971  134.8287  156.2583 H   0  0  0  0  0  0  0  0  0  0  0  0  # atno 11005 bound_to 11000
  144.9158  140.7811  143.5779 LP  0  0  0  0  0  0  0  0  0  0  0  0  # atno 17320 bound_to 7965
  145.2798  139.1922  143.4797 LP  0  0  0  0  0  0  0  0  0  0  0  0  # atno 17321 bound_to 7965
  140.7548  143.6113  150.8602 LP  0  0  0  0  0  0  0  0  0  0  0  0  # atno 17342 bound_to 10162
  139.9764  143.6000  152.2957 LP  0  0  0  0  0  0  0  0  0  0  0  0  # atno 17343 bound_to 10162
  157.6418  130.8812  149.9463 LP  0  0  0  0  0  0  0  0  0  0  0  0  # atno 17370 bound_to 10713
  156.0947  130.3660  150.0329 LP  0  0  0  0  0  0  0  0  0  0  0  0  # atno 17371 bound_to 10713
  141.0179  133.7058  156.1219 LP  0  0  0  0  0  0  0  0  0  0  0  0  # atno 17394 bound_to 11000
  140.7275  134.4291  157.5569 LP  0  0  0  0  0  0  0  0  0  0  0  0  # atno 17395 bound_to 11000

$$$$
