AV-unprocessed.smi:34|AV-procd|sdf|219|dock1
  -GOLD-   2262015533D 1   1.00000     0.00000
 Structure written by MMmdl.
 55 59  0  0  0  0  0  0  0  0  1 V2000
  150.0843  128.6623  154.9765 O   0  0  0  0  0  0  0  0  0  0  0  0
  149.3369  129.3865  154.3182 C   0  0  0  0  0  0  0  0  0  0  0  0
  149.2763  130.8234  154.5222 N   0  0  0  0  0  0  0  0  0  0  0  0
  149.9105  131.5601  155.4645 C   0  0  0  0  0  0  0  0  0  0  0  0
  150.4894  131.0001  156.5596 N   0  0  0  0  0  0  0  0  0  0  0  0
  151.0988  131.7683  157.4675 C   0  0  0  0  0  0  0  0  0  0  0  0
  151.2424  133.0955  157.4759 N   0  0  0  0  0  0  0  0  0  0  0  0
  150.6623  133.6635  156.3797 C   0  0  0  0  0  0  0  0  0  0  0  0
  149.9805  132.9723  155.3407 C   0  0  0  0  0  0  0  0  0  0  0  0
  149.5159  133.8826  154.4002 N   0  0  0  0  0  0  0  0  0  0  0  0
  149.9030  135.0421  154.8619 C   0  0  0  0  0  0  0  0  0  0  0  0
  150.6141  134.9987  156.0437 N   0  0  0  0  0  0  0  0  0  0  0  0
  151.1934  136.1172  156.8551 C   0  0  2  0  0  0  0  0  0  0  0  0
  150.1493  136.9391  157.2861 O   0  0  0  0  0  0  0  0  0  0  0  0
  150.0026  138.0168  156.3718 C   0  0  1  0  0  0  0  0  0  0  0  0
  149.2128  139.1604  157.0178 C   0  0  0  0  0  0  0  0  0  0  0  0
  150.1148  140.0613  157.6390 O   0  0  0  0  0  0  0  0  0  0  0  0
  150.5163  141.1706  156.9894 C   0  0  0  0  0  0  0  0  0  0  0  0
  150.2723  141.3913  155.8014 O   0  0  0  0  0  0  0  0  0  0  0  0
  151.2908  142.1033  157.8583 C   0  0  0  0  0  0  0  0  0  0  0  0
  151.7601  141.6523  159.1140 C   0  0  0  0  0  0  0  0  0  0  0  0
  152.4922  142.5109  159.9569 C   0  0  0  0  0  0  0  0  0  0  0  0
  152.7646  143.8312  159.5544 C   0  0  0  0  0  0  0  0  0  0  0  0
  152.3048  144.2915  158.3068 C   0  0  0  0  0  0  0  0  0  0  0  0
  151.5721  143.4344  157.4625 C   0  0  0  0  0  0  0  0  0  0  0  0
  151.4540  138.3549  156.0444 C   0  0  2  0  0  0  0  0  0  0  0  0
  151.5629  139.0118  154.8889 F   0  0  0  0  0  0  0  0  0  0  0  0
  152.1146  136.9852  155.9736 C   0  0  1  0  0  0  0  0  0  0  0  0
  153.4357  137.0452  156.4703 O   0  0  0  0  0  0  0  0  0  0  0  0
  148.5019  128.8433  153.1953 C   0  0  0  0  0  0  0  0  0  0  0  0
  147.4212  129.5999  152.6890 C   0  0  0  0  0  0  0  0  0  0  0  0
  146.6437  129.1079  151.6226 C   0  0  0  0  0  0  0  0  0  0  0  0
  146.9449  127.8585  151.0483 C   0  0  0  0  0  0  0  0  0  0  0  0
  148.0266  127.1032  151.5388 C   0  0  0  0  0  0  0  0  0  0  0  0
  148.8051  127.5942  152.6052 C   0  0  0  0  0  0  0  0  0  0  0  0
  148.6775  131.3344  153.8901 H   0  0  0  0  0  0  0  0  0  0  0  0
  151.5331  131.2440  158.3060 H   0  0  0  0  0  0  0  0  0  0  0  0
  149.6759  135.9622  154.3434 H   0  0  0  0  0  0  0  0  0  0  0  0
  151.6867  135.6227  157.6929 H   0  0  0  0  0  0  0  0  0  0  0  0
  149.4861  137.6554  155.4808 H   0  0  0  0  0  0  0  0  0  0  0  0
  148.6429  139.6919  156.2544 H   0  0  0  0  0  0  0  0  0  0  0  0
  148.5011  138.7711  157.7471 H   0  0  0  0  0  0  0  0  0  0  0  0
  151.5635  140.6428  159.4451 H   0  0  0  0  0  0  0  0  0  0  0  0
  152.8456  142.1551  160.9136 H   0  0  0  0  0  0  0  0  0  0  0  0
  153.3254  144.4896  160.2011 H   0  0  0  0  0  0  0  0  0  0  0  0
  152.5143  145.3042  157.9961 H   0  0  0  0  0  0  0  0  0  0  0  0
  151.2347  143.8195  156.5112 H   0  0  0  0  0  0  0  0  0  0  0  0
  151.8923  138.9704  156.8320 H   0  0  0  0  0  0  0  0  0  0  0  0
  152.1185  136.6114  154.9483 H   0  0  0  0  0  0  0  0  0  0  0  0
  153.4462  137.6200  157.2210 H   0  0  0  0  0  0  0  0  0  0  0  0
  147.1781  130.5616  153.1178 H   0  0  0  0  0  0  0  0  0  0  0  0
  145.8171  129.6909  151.2440 H   0  0  0  0  0  0  0  0  0  0  0  0
  146.3493  127.4821  150.2298 H   0  0  0  0  0  0  0  0  0  0  0  0
  148.2620  126.1474  151.0942 H   0  0  0  0  0  0  0  0  0  0  0  0
  149.6373  127.0030  152.9590 H   0  0  0  0  0  0  0  0  0  0  0  0
  1  2  2  0  0  0  0
  2  3  1  0  0  0  0
  2 30  1  0  0  0  0
  3  4  1  0  0  0  0
  3 36  1  0  0  0  0
  4  9  1  0  0  0  0
  4  5  2  0  0  0  0
  5  6  1  0  0  0  0
  6  7  2  0  0  0  0
  6 37  1  0  0  0  0
  7  8  1  0  0  0  0
  8 12  1  0  0  0  0
  8  9  2  0  0  0  0
  9 10  1  0  0  0  0
 10 11  2  0  0  0  0
 11 12  1  0  0  0  0
 11 38  1  0  0  0  0
 12 13  1  0  0  0  0
 13 28  1  0  0  0  0
 13 14  1  0  0  0  0
 13 39  1  0  0  0  0
 14 15  1  0  0  0  0
 15 16  1  0  0  0  0
 15 26  1  0  0  0  0
 15 40  1  0  0  0  0
 16 17  1  0  0  0  0
 16 41  1  0  0  0  0
 16 42  1  0  0  0  0
 17 18  1  0  0  0  0
 18 19  2  0  0  0  0
 18 20  1  0  0  0  0
 20 25  1  0  0  0  0
 20 21  2  0  0  0  0
 21 22  1  0  0  0  0
 21 43  1  0  0  0  0
 22 23  2  0  0  0  0
 22 44  1  0  0  0  0
 23 24  1  0  0  0  0
 23 45  1  0  0  0  0
 24 25  2  0  0  0  0
 24 46  1  0  0  0  0
 25 47  1  0  0  0  0
 26 27  1  0  0  0  0
 26 28  1  0  0  0  0
 26 48  1  0  0  0  0
 28 29  1  0  0  0  0
 28 49  1  0  0  0  0
 29 50  1  0  0  0  0
 30 35  1  0  0  0  0
 30 31  2  0  0  0  0
 31 32  1  0  0  0  0
 31 51  1  0  0  0  0
 32 33  2  0  0  0  0
 32 52  1  0  0  0  0
 33 34  1  0  0  0  0
 33 53  1  0  0  0  0
 34 35  2  0  0  0  0
 34 54  1  0  0  0  0
 35 55  1  0  0  0  0
M  END
> <s_m_source_file>
AV-unprocessed.smi

> <i_m_source_file_index>
34

> <i_lp_mmshare_version>
43012

> <i_f3d_flags>
0

> <s_epik_input>
W2NIXTFbY0hdW2NIXVtjSF1bY0hdYzFDKD1PKVtOSF1jKG5bY0hdbjIpYyhjMjMpbltjSF1uM1tDQEBIXTRPW0NASF0oW0NAQEhdKEYpW0NASF00W09IXSlbQ0gyXU9DKD1PKWM1W2NIXVtjSF1bY0hdW2NIXVtjSF01

> <s_epik_cmdline>
J2VwaWtfcHl0aG9uJywgJy1waCcsICc3LjAnLCAnLXRuJywgJzgnLCAnLW1hJywgJzIwMCcsICctbWV0YWxfYmluZGluZycsICctaW1hZScsICc8aW5maWxlLm1hZT4nLCAnLW9tYWUnLCAnPG91dGZpbGUubWFlPic=

> <r_lp_tautomer_probability>
1

> <r_epik_Ionization_Penalty>
0.00257489

> <r_epik_Ionization_Penalty_Charging>
0

> <r_epik_Ionization_Penalty_Neutral>
0.00257489

> <r_epik_State_Penalty>
0.00519398

> <r_epik_Charging_Adjusted_Penalty>
0.00519398

> <i_epik_Tot_Q>
0

> <i_epik_Tot_abs_Q>
0

> <r_epik_Metal_State_Penalty>
0.335891

> <b_epik_Metal_Only>
0

> <s_epik_Chemistry_Notes>
This compound has an ester and may undergo hydrolysis at high or low pH. This compound contains an acetal/aminal-like group ( X-CH(R)-Y where X, Y are N, S, or O) that may be acid/base labile, releasing an aldehyde.

> <s_lp_Force_Field>
OPLS_2005

> <r_lp_Energy>
42.7442

> <b_lp_Chiralities_Consistent>
1

> <s_lp_Variant>
AV-unprocessed.smi:34-5

> <Gold.Version>
5.8.1

> <Gold.Id.Protein>
6NUR|6NUR_protein|mol2

> <Gold.PLP.Fitness>
62.3123

> <Gold.PLP.PLP>
-58.8321

> <Gold.PLP.part.hbond>
-2.0000

> <Gold.PLP.part.metal>
0.0000

> <Gold.PLP.part.buried>
-5.2754

> <Gold.PLP.part.nonpolar>
-52.9799

> <Gold.PLP.part.repulsive>
0.3016

> <Gold.PLP.ligand.clash>
0.0000

> <Gold.PLP.ligand.torsion>
1.1132

> <Gold.PLP.Chemscore.Hbond>
0.9376

> <Gold.PLP.Chemscore.CHOScore>
0.8459

> <Gold.PLP.Chemscore.Metal>
0.0000

> <Gold.Chemscore.Hbonds>
donor molecule, donor type, donor heavy atom, donor atom, acceptor molecule, acceptor atom, score
      P1  H  6896  6908       L1     7  0.88
      P1  H 10752 10764       L1    29  0.22
      L1  C    11    38       P1  7948  0.85

> <Gold.PLP.Chemscore.Internal.Correction>
0.3561

> <Gold.Rescore>
     Score         DG    S(hbond)    S(metal)    S(lipo)     H(rot)  DE(clash)    DE(int)     intcor
     14.50     -17.07       0.90        0.00     132.88       2.72       0.12       2.45       ----

> <Gold.Chemscore.Fitness>
14.4992

> <Gold.Chemscore.DG>
-17.0670

> <Gold.Chemscore.ZeroCoef>
-5.4800

> <Gold.Chemscore.Hbond>
0.9002

> <Gold.Chemscore.Metal>
0.0000

> <Gold.Chemscore.Lipo>
132.8844

> <Gold.Chemscore.Internal_Hbond>
0.0000

> <Gold.Chemscore.DEClash>
0.1152

> <Gold.Chemscore.DEInternal>
2.4525

> <Gold.Chemscore.Rot>
2.7215

> <Gold.Chemscore.Internal.Correction>
   9.000000E+99

> <Gold.Chemscore.Hbonds>
donor molecule, donor type, donor heavy atom, donor atom, acceptor molecule, acceptor atom, score
      P1  H  6896  6908       L1     7  0.26

> <Gold.Chemscore.Hbond.Weighted>
-3.0066

> <Gold.Chemscore.Metal.Weighted>
-0.0000

> <Gold.Chemscore.Lipo.Weighted>
-15.5475

> <Gold.Chemscore.Internal_Hbond.Weighted>
0.0000

> <Gold.Chemscore.DEClash.Weighted>
0.1152

> <Gold.Chemscore.DEInternal.Weighted>
2.4525

> <Gold.Chemscore.Rot.Weighted>
6.9670

> <Gold.Chemscore.Internal.Correction.Weighted>
   9.000000E+99

> <Gold.Protein.RotatedTorsions>
[ 6907 6896 6895 6894 ] final   87.18 input  -60.11 | X-H torsion
[ 7974 7965 7964 7962 ] final -167.10 input  175.53 | X-H torsion
[ 8008 7997 7996 7995 ] final  111.37 input   59.86 | X-H torsion
[ 10167 10162 10161 10158 ] final    8.76 input  -65.29 | X-H torsion
[ 10718 10713 10712 10709 ] final   75.65 input   66.30 | X-H torsion
[ 10763 10752 10751 10750 ] final   14.90 input  -60.55 | X-H torsion
[ 11005 11000 10999 10996 ] final   95.78 input  -57.11 | X-H torsion

> <Gold.Protein.ActiveResidues>
 VAL166  LYS551  ARG553  GLY616  TRP617  ASP618  TYR619  PRO620  LYS621  CYS622 
 ASP623  PHE694  ASN695  SER759  ASP760  ASP761  ALA762  ILE779  LEU786  VAL792 
 PHE793  MET794  SER795  GLU796  ALA797  LYS798  CYS799  TRP800  GLU811  SER814 

> <Gold.Protein.RotatedAtoms>
  152.5407  134.2316  159.8826 H   0  0  0  0  0  0  0  0  0  0  0  0  # atno 6907 bound_to 6896
  151.2288  133.4455  159.2610 H   0  0  0  0  0  0  0  0  0  0  0  0  # atno 6908 bound_to 6896
  151.0735  134.9827  159.8376 H   0  0  0  0  0  0  0  0  0  0  0  0  # atno 6909 bound_to 6896
  144.7230  140.2568  143.6270 H   0  0  0  0  0  0  0  0  0  0  0  0  # atno 7974 bound_to 7965
  156.2119  140.3020  155.9752 H   0  0  0  0  0  0  0  0  0  0  0  0  # atno 8008 bound_to 7997
  155.2702  140.0433  157.3023 H   0  0  0  0  0  0  0  0  0  0  0  0  # atno 8009 bound_to 7997
  154.5712  140.2348  155.8198 H   0  0  0  0  0  0  0  0  0  0  0  0  # atno 8010 bound_to 7997
  140.6295  143.8026  150.7276 H   0  0  0  0  0  0  0  0  0  0  0  0  # atno 10167 bound_to 10162
  157.6643  130.9737  150.1384 H   0  0  0  0  0  0  0  0  0  0  0  0  # atno 10718 bound_to 10713
  153.1577  135.6790  153.8788 H   0  0  0  0  0  0  0  0  0  0  0  0  # atno 10763 bound_to 10752
  153.8193  135.3132  155.3410 H   0  0  0  0  0  0  0  0  0  0  0  0  # atno 10764 bound_to 10752
  154.7910  135.4835  154.0140 H   0  0  0  0  0  0  0  0  0  0  0  0  # atno 10765 bound_to 10752
  139.8786  134.8916  156.4061 H   0  0  0  0  0  0  0  0  0  0  0  0  # atno 11005 bound_to 11000
  145.8174  139.2029  143.1958 LP  0  0  0  0  0  0  0  0  0  0  0  0  # atno 17320 bound_to 7965
  146.0543  140.8036  142.9766 LP  0  0  0  0  0  0  0  0  0  0  0  0  # atno 17321 bound_to 7965
  140.1634  143.4256  152.2051 LP  0  0  0  0  0  0  0  0  0  0  0  0  # atno 17342 bound_to 10162
  139.5511  144.7338  151.4433 LP  0  0  0  0  0  0  0  0  0  0  0  0  # atno 17343 bound_to 10162
  156.2213  130.3674  149.8552 LP  0  0  0  0  0  0  0  0  0  0  0  0  # atno 17370 bound_to 10713
  156.6404  130.8702  151.3513 LP  0  0  0  0  0  0  0  0  0  0  0  0  # atno 17371 bound_to 10713
  140.9233  133.7630  155.9933 LP  0  0  0  0  0  0  0  0  0  0  0  0  # atno 17394 bound_to 11000
  140.8415  134.3061  157.5311 LP  0  0  0  0  0  0  0  0  0  0  0  0  # atno 17395 bound_to 11000

$$$$
