AV-unprocessed.smi:564|AV-procd|sdf|2950|dock8
  -GOLD-   2262023453D 1   1.00000     0.00000
 Structure written by MMmdl.
 50 51  0  0  0  0  0  0  0  0  2 V2000
  148.6279  137.1193  158.6272 C   0  0  0  0  0  0  0  0  0  0  0  0
  148.1898  136.4596  159.9039 C   0  0  0  0  0  0  0  0  0  0  0  0
  148.1006  137.1821  161.0076 N   0  0  0  0  0  0  0  0  0  0  0  0
  147.6910  136.3154  161.9553 N   0  0  0  0  0  0  0  0  0  0  0  0
  147.4924  136.7865  163.3122 C   0  0  0  0  0  0  0  0  0  0  0  0
  147.5111  135.0442  161.4470 C   0  0  0  0  0  0  0  0  0  0  0  0
  147.0536  133.9023  162.2961 C   0  0  0  0  0  0  0  0  0  0  0  0
  147.8199  135.0984  160.1138 C   0  0  0  0  0  0  0  0  0  0  0  0
  147.7691  133.9905  159.0913 C   0  0  0  0  0  0  0  0  0  0  0  0
  146.9423  134.4625  157.8970 C   0  0  0  0  0  0  0  0  0  0  0  0
  146.2793  135.4962  157.9725 O   0  0  0  0  0  0  0  0  0  0  0  0
  147.0323  133.7201  156.7829 N   0  0  0  0  0  0  0  0  0  0  0  0
  146.4763  134.0830  155.4836 C   0  0  0  0  0  0  0  0  0  0  0  0
  147.5340  134.6963  154.5374 C   0  0  0  0  0  0  0  0  0  0  0  0
  147.1080  134.7217  153.1065 N   0  3  1  0  0  0  0  0  0  0  0  0
  146.9462  133.3391  152.5730 C   0  0  0  0  0  0  0  0  0  0  0  0
  146.6288  133.3285  151.0722 C   0  0  0  0  0  0  0  0  0  0  0  0
  145.3664  134.1411  150.7896 C   0  0  0  0  0  0  0  0  0  0  0  0
  145.5513  135.5610  151.3278 C   0  0  0  0  0  0  0  0  0  0  0  0
  145.9094  135.5793  152.8309 C   0  0  2  0  0  0  0  0  0  0  0  0
  146.1093  137.0479  153.2608 C   0  0  0  0  0  0  0  0  0  0  0  0
  147.7964  137.2057  157.9281 H   0  0  0  0  0  0  0  0  0  0  0  0
  149.4146  136.5434  158.1396 H   0  0  0  0  0  0  0  0  0  0  0  0
  149.0165  138.1231  158.8036 H   0  0  0  0  0  0  0  0  0  0  0  0
  148.1225  136.2158  163.9945 H   0  0  0  0  0  0  0  0  0  0  0  0
  146.4482  136.6555  163.5964 H   0  0  0  0  0  0  0  0  0  0  0  0
  147.7494  137.8435  163.3952 H   0  0  0  0  0  0  0  0  0  0  0  0
  146.7520  133.0519  161.6846 H   0  0  0  0  0  0  0  0  0  0  0  0
  146.1986  134.1872  162.9095 H   0  0  0  0  0  0  0  0  0  0  0  0
  147.8520  133.5719  162.9606 H   0  0  0  0  0  0  0  0  0  0  0  0
  148.7661  133.7091  158.7507 H   0  0  0  0  0  0  0  0  0  0  0  0
  147.3230  133.0850  159.5042 H   0  0  0  0  0  0  0  0  0  0  0  0
  147.5837  132.8747  156.8236 H   0  0  0  0  0  0  0  0  0  0  0  0
  146.0510  133.1825  155.0407 H   0  0  0  0  0  0  0  0  0  0  0  0
  145.6419  134.7733  155.6154 H   0  0  0  0  0  0  0  0  0  0  0  0
  147.8058  135.7001  154.8664 H   0  0  0  0  0  0  0  0  0  0  0  0
  148.4304  134.0951  154.6618 H   0  0  0  0  0  0  0  0  0  0  0  0
  147.8574  132.7638  152.7324 H   0  0  0  0  0  0  0  0  0  0  0  0
  146.1529  132.8296  153.1225 H   0  0  0  0  0  0  0  0  0  0  0  0
  147.4679  133.7400  150.5112 H   0  0  0  0  0  0  0  0  0  0  0  0
  146.4970  132.3033  150.7255 H   0  0  0  0  0  0  0  0  0  0  0  0
  145.1654  134.1666  149.7180 H   0  0  0  0  0  0  0  0  0  0  0  0
  144.5033  133.6706  151.2624 H   0  0  0  0  0  0  0  0  0  0  0  0
  146.3358  136.0590  150.7584 H   0  0  0  0  0  0  0  0  0  0  0  0
  144.6391  136.1324  151.1526 H   0  0  0  0  0  0  0  0  0  0  0  0
  145.0658  135.1690  153.3885 H   0  0  0  0  0  0  0  0  0  0  0  0
  145.3102  137.6801  152.8727 H   0  0  0  0  0  0  0  0  0  0  0  0
  147.0523  137.4461  152.8861 H   0  0  0  0  0  0  0  0  0  0  0  0
  146.0908  137.1745  154.3425 H   0  0  0  0  0  0  0  0  0  0  0  0
  147.8692  135.1439  152.5935 H   0  0  0  0  0  0  0  0  0  0  0  0
  1  2  1  0  0  0  0
  1 22  1  0  0  0  0
  1 23  1  0  0  0  0
  1 24  1  0  0  0  0
  2  8  1  0  0  0  0
  2  3  2  0  0  0  0
  3  4  1  0  0  0  0
  4  5  1  0  0  0  0
  4  6  1  0  0  0  0
  5 25  1  0  0  0  0
  5 26  1  0  0  0  0
  5 27  1  0  0  0  0
  6  7  1  0  0  0  0
  6  8  2  0  0  0  0
  7 28  1  0  0  0  0
  7 29  1  0  0  0  0
  7 30  1  0  0  0  0
  8  9  1  0  0  0  0
  9 10  1  0  0  0  0
  9 31  1  0  0  0  0
  9 32  1  0  0  0  0
 10 11  2  0  0  0  0
 10 12  1  0  0  0  0
 12 13  1  0  0  0  0
 12 33  1  0  0  0  0
 13 14  1  0  0  0  0
 13 34  1  0  0  0  0
 13 35  1  0  0  0  0
 14 15  1  0  0  0  0
 14 36  1  0  0  0  0
 14 37  1  0  0  0  0
 15 20  1  0  0  0  0
 15 16  1  0  0  0  0
 15 50  1  0  0  0  0
 16 17  1  0  0  0  0
 16 38  1  0  0  0  0
 16 39  1  0  0  0  0
 17 18  1  0  0  0  0
 17 40  1  0  0  0  0
 17 41  1  0  0  0  0
 18 19  1  0  0  0  0
 18 42  1  0  0  0  0
 18 43  1  0  0  0  0
 19 20  1  0  0  0  0
 19 44  1  0  0  0  0
 19 45  1  0  0  0  0
 20 21  1  0  0  0  0
 20 46  1  0  0  0  0
 21 47  1  0  0  0  0
 21 48  1  0  0  0  0
 21 49  1  0  0  0  0
M  CHG  1  15   1
M  END
> <s_m_source_file>
AV-unprocessed.smi

> <i_m_source_file_index>
564

> <i_lp_mmshare_version>
43012

> <i_f3d_flags>
0

> <s_epik_input>
W0NIM11jMW5uKFtDSDNdKWMoW0NIM10pYzFbQ0gyXUMoPU8pW05IXVtDSDJdW0NIMl1OMltDSDJdW0NIMl1bQ0gyXVtDSDJdW0NASF0yW0NIM10=

> <s_epik_cmdline>
J2VwaWtfcHl0aG9uJywgJy1waCcsICc3LjAnLCAnLXRuJywgJzgnLCAnLW1hJywgJzIwMCcsICctbWV0YWxfYmluZGluZycsICctaW1hZScsICc8aW5maWxlLm1hZT4nLCAnLW9tYWUnLCAnPG91dGZpbGUubWFlPic=

> <r_lp_tautomer_probability>
1

> <r_epik_Ionization_Penalty>
0.00456826

> <r_epik_Ionization_Penalty_Charging>
0.00240401

> <r_epik_Ionization_Penalty_Neutral>
0.00216425

> <r_epik_State_Penalty>
-0

> <r_epik_Charging_Adjusted_Penalty>
0.00240401

> <i_epik_Tot_Q>
1

> <i_epik_Tot_abs_Q>
1

> <r_epik_Metal_State_Penalty>
-0

> <b_epik_Metal_Only>
0

> <s_lp_Force_Field>
OPLS_2005

> <r_lp_Energy>
16.3925

> <b_lp_Chiralities_Consistent>
1

> <s_lp_Variant>
AV-unprocessed.smi:564-4

> <Gold.Version>
5.8.1

> <Gold.Id.Protein>
6NUR|6NUR_protein|mol2

> <Gold.PLP.Fitness>
44.2674

> <Gold.PLP.PLP>
-34.0926

> <Gold.PLP.part.hbond>
-3.0000

> <Gold.PLP.part.metal>
0.0000

> <Gold.PLP.part.buried>
-4.0559

> <Gold.PLP.part.nonpolar>
-27.2825

> <Gold.PLP.part.repulsive>
0.0000

> <Gold.PLP.ligand.clash>
0.0000

> <Gold.PLP.ligand.torsion>
0.4259

> <Gold.PLP.Chemscore.Hbond>
3.6628

> <Gold.PLP.Chemscore.CHOScore>
0.0000

> <Gold.PLP.Chemscore.Metal>
0.0000

> <Gold.Chemscore.Hbonds>
donor molecule, donor type, donor heavy atom, donor atom, acceptor molecule, acceptor atom, score
      L1  H    15    50       P1  7948  2.00
      P1  H  6931  6943       L1     3  0.96
      P1  H  6934  6947       L1     3  0.65

> <Gold.PLP.Chemscore.Internal.Correction>
0.0381

> <Gold.Rescore>
     Score         DG    S(hbond)    S(metal)    S(lipo)     H(rot)  DE(clash)    DE(int)     intcor
     16.42     -18.47       2.54        0.00      73.86       1.61       0.61       1.44       ----

> <Gold.Chemscore.Fitness>
16.4191

> <Gold.Chemscore.DG>
-18.4665

> <Gold.Chemscore.ZeroCoef>
-5.4800

> <Gold.Chemscore.Hbond>
2.5379

> <Gold.Chemscore.Metal>
0.0000

> <Gold.Chemscore.Lipo>
73.8646

> <Gold.Chemscore.Internal_Hbond>
0.0000

> <Gold.Chemscore.DEClash>
0.6081

> <Gold.Chemscore.DEInternal>
1.4392

> <Gold.Chemscore.Rot>
1.6142

> <Gold.Chemscore.Internal.Correction>
   9.000000E+99

> <Gold.Chemscore.Hbonds>
donor molecule, donor type, donor heavy atom, donor atom, acceptor molecule, acceptor atom, score
      L1  H    15    50       P1  7948  0.98
      P1  H  6931  6943       L1     3  0.32
      P1  H  6934  6947       L1     3  0.57

> <Gold.Chemscore.Hbond.Weighted>
-8.4767

> <Gold.Chemscore.Metal.Weighted>
-0.0000

> <Gold.Chemscore.Lipo.Weighted>
-8.6422

> <Gold.Chemscore.Internal_Hbond.Weighted>
0.0000

> <Gold.Chemscore.DEClash.Weighted>
0.6081

> <Gold.Chemscore.DEInternal.Weighted>
1.4392

> <Gold.Chemscore.Rot.Weighted>
4.1324

> <Gold.Chemscore.Internal.Correction.Weighted>
   9.000000E+99

> <Gold.Protein.RotatedTorsions>
[ 6907 6896 6895 6894 ] final   92.17 input  -60.11 | X-H torsion
[ 7974 7965 7964 7962 ] final  -77.08 input  175.53 | X-H torsion
[ 8008 7997 7996 7995 ] final  -99.10 input   59.86 | X-H torsion
[ 10167 10162 10161 10158 ] final  171.81 input  -65.29 | X-H torsion
[ 10718 10713 10712 10709 ] final -148.38 input   66.30 | X-H torsion
[ 10763 10752 10751 10750 ] final -133.32 input  -60.55 | X-H torsion
[ 11005 11000 10999 10996 ] final -162.27 input  -57.11 | X-H torsion

> <Gold.Protein.ActiveResidues>
 VAL166  LYS551  ARG553  GLY616  TRP617  ASP618  TYR619  PRO620  LYS621  CYS622 
 ASP623  PHE694  ASN695  SER759  ASP760  ASP761  ALA762  ILE779  LEU786  VAL792 
 PHE793  MET794  SER795  GLU796  ALA797  LYS798  CYS799  TRP800  GLU811  SER814 

> <Gold.Protein.RotatedAtoms>
  152.5452  134.1543  159.8531 H   0  0  0  0  0  0  0  0  0  0  0  0  # atno 6907 bound_to 6896
  151.1567  133.4864  159.2602 H   0  0  0  0  0  0  0  0  0  0  0  0  # atno 6908 bound_to 6896
  151.1415  135.0193  159.8683 H   0  0  0  0  0  0  0  0  0  0  0  0  # atno 6909 bound_to 6896
  145.6044  140.9401  143.1223 H   0  0  0  0  0  0  0  0  0  0  0  0  # atno 7974 bound_to 7965
  154.8102  140.0450  157.1337 H   0  0  0  0  0  0  0  0  0  0  0  0  # atno 8008 bound_to 7997
  154.9377  140.3048  155.5116 H   0  0  0  0  0  0  0  0  0  0  0  0  # atno 8009 bound_to 7997
  156.2971  140.2311  156.4444 H   0  0  0  0  0  0  0  0  0  0  0  0  # atno 8010 bound_to 7997
  139.5058  144.3444  151.9986 H   0  0  0  0  0  0  0  0  0  0  0  0  # atno 10167 bound_to 10162
  156.4195  130.8022  151.2244 H   0  0  0  0  0  0  0  0  0  0  0  0  # atno 10718 bound_to 10713
  154.8734  135.3770  154.4554 H   0  0  0  0  0  0  0  0  0  0  0  0  # atno 10763 bound_to 10752
  153.5226  135.7028  153.5728 H   0  0  0  0  0  0  0  0  0  0  0  0  # atno 10764 bound_to 10752
  153.3969  135.3958  155.1926 H   0  0  0  0  0  0  0  0  0  0  0  0  # atno 10765 bound_to 10752
  140.6112  134.4848  157.5215 H   0  0  0  0  0  0  0  0  0  0  0  0  # atno 11005 bound_to 11000
  144.7296  139.7766  143.7352 LP  0  0  0  0  0  0  0  0  0  0  0  0  # atno 17320 bound_to 7965
  146.1552  139.4647  143.0023 LP  0  0  0  0  0  0  0  0  0  0  0  0  # atno 17321 bound_to 7965
  140.2881  144.3784  150.6097 LP  0  0  0  0  0  0  0  0  0  0  0  0  # atno 17342 bound_to 10162
  140.5967  143.2167  151.7150 LP  0  0  0  0  0  0  0  0  0  0  0  0  # atno 17343 bound_to 10162
  157.7508  131.0232  150.3826 LP  0  0  0  0  0  0  0  0  0  0  0  0  # atno 17370 bound_to 10713
  156.4140  130.3940  149.6871 LP  0  0  0  0  0  0  0  0  0  0  0  0  # atno 17371 bound_to 10713
  139.9191  134.8184  156.1268 LP  0  0  0  0  0  0  0  0  0  0  0  0  # atno 17394 bound_to 11000
  141.0807  133.6755  156.2330 LP  0  0  0  0  0  0  0  0  0  0  0  0  # atno 17395 bound_to 11000

$$$$
