AV-unprocessed.smi:243|AV-procd|sdf|1855|dock1
  -GOLD-   2262020483D 1   1.00000     0.00000
 Structure written by MMmdl.
 58 61  0  0  0  0  0  0  0  0  2 V2000
  146.5522  133.2421  151.4733 C   0  0  0  0  0  0  0  0  0  0  0  0
  147.6734  132.8468  152.4455 C   0  0  0  0  0  0  0  0  0  0  0  0
  148.0099  133.9323  153.4013 N   0  3  1  0  0  0  0  0  0  0  0  0
  146.8511  134.3720  154.2185 C   0  0  0  0  0  0  0  0  0  0  0  0
  147.2205  135.5935  155.0688 C   0  0  0  0  0  0  0  0  0  0  0  0
  148.4302  135.3040  155.9847 C   0  0  2  0  0  0  0  0  0  0  0  0
  148.7675  136.4501  156.8439 N   0  0  0  0  0  0  0  0  0  0  0  0
  147.8363  136.7614  157.9225 C   0  0  0  0  0  0  0  0  0  0  0  0
  149.3088  137.5427  156.2488 C   0  0  0  0  0  0  0  0  0  0  0  0
  149.3165  137.5817  154.8930 N   0  0  0  0  0  0  0  0  0  0  0  0
  149.8349  138.6330  154.2519 C   0  0  0  0  0  0  0  0  0  0  0  0
  150.3883  139.7330  154.7652 N   0  0  0  0  0  0  0  0  0  0  0  0
  150.3937  139.6957  156.1282 C   0  0  0  0  0  0  0  0  0  0  0  0
  149.8812  138.6477  156.9445 C   0  0  0  0  0  0  0  0  0  0  0  0
  150.0522  138.9697  158.2861 N   0  0  0  0  0  0  0  0  0  0  0  0
  150.6355  140.1367  158.2637 C   0  0  0  0  0  0  0  0  0  0  0  0
  150.8820  140.6453  157.0088 N   0  0  0  0  0  0  0  0  0  0  0  0
  151.5113  141.9179  156.6919 C   0  0  0  0  0  0  0  0  0  0  0  0
  151.2126  143.0285  157.7260 C   0  0  2  0  0  0  0  0  0  0  0  0
  149.8108  143.1319  157.9045 O   0  0  0  0  0  0  0  0  0  0  0  0
  151.7534  144.4031  157.3401 C   0  0  0  0  0  0  0  0  0  0  0  0
  152.1042  145.0217  158.6861 C   0  0  0  0  0  0  0  0  0  0  0  0
  152.6438  143.9213  159.3969 O   0  0  0  0  0  0  0  0  0  0  0  0
  151.8619  142.7692  159.1002 C   0  0  0  0  0  0  0  0  0  0  0  0
  149.6177  134.7682  155.1418 C   0  0  1  0  0  0  0  0  0  0  0  0
  150.8013  134.3295  156.0235 C   0  0  0  0  0  0  0  0  0  0  0  0
  149.1670  133.5814  154.2628 C   0  0  0  0  0  0  0  0  0  0  0  0
  146.3968  132.4591  150.7306 H   0  0  0  0  0  0  0  0  0  0  0  0
  146.8002  134.1588  150.9375 H   0  0  0  0  0  0  0  0  0  0  0  0
  145.6007  133.3945  151.9816 H   0  0  0  0  0  0  0  0  0  0  0  0
  147.4106  131.9376  152.9881 H   0  0  0  0  0  0  0  0  0  0  0  0
  148.5552  132.6065  151.8502 H   0  0  0  0  0  0  0  0  0  0  0  0
  146.0098  134.6343  153.5782 H   0  0  0  0  0  0  0  0  0  0  0  0
  146.5181  133.5528  154.8579 H   0  0  0  0  0  0  0  0  0  0  0  0
  147.4409  136.4267  154.4007 H   0  0  0  0  0  0  0  0  0  0  0  0
  146.3562  135.8924  155.6621 H   0  0  0  0  0  0  0  0  0  0  0  0
  148.1335  134.4995  156.6595 H   0  0  0  0  0  0  0  0  0  0  0  0
  148.1828  137.6140  158.5083 H   0  0  0  0  0  0  0  0  0  0  0  0
  147.7517  135.9102  158.5983 H   0  0  0  0  0  0  0  0  0  0  0  0
  146.8409  136.9872  157.5408 H   0  0  0  0  0  0  0  0  0  0  0  0
  149.8021  138.5861  153.1734 H   0  0  0  0  0  0  0  0  0  0  0  0
  150.9040  140.6619  159.1688 H   0  0  0  0  0  0  0  0  0  0  0  0
  152.5872  141.7601  156.6060 H   0  0  0  0  0  0  0  0  0  0  0  0
  151.1692  142.2259  155.7029 H   0  0  0  0  0  0  0  0  0  0  0  0
  149.4638  143.6994  157.2333 H   0  0  0  0  0  0  0  0  0  0  0  0
  152.6684  144.2985  156.7557 H   0  0  0  0  0  0  0  0  0  0  0  0
  151.0548  145.0054  156.7578 H   0  0  0  0  0  0  0  0  0  0  0  0
  152.8208  145.8391  158.6032 H   0  0  0  0  0  0  0  0  0  0  0  0
  151.2125  145.3903  159.1956 H   0  0  0  0  0  0  0  0  0  0  0  0
  151.1179  142.6234  159.8852 H   0  0  0  0  0  0  0  0  0  0  0  0
  152.5071  141.8903  159.0970 H   0  0  0  0  0  0  0  0  0  0  0  0
  149.9634  135.5540  154.4694 H   0  0  0  0  0  0  0  0  0  0  0  0
  150.5101  133.5302  156.7057 H   0  0  0  0  0  0  0  0  0  0  0  0
  151.1877  135.1501  156.6271 H   0  0  0  0  0  0  0  0  0  0  0  0
  151.6277  133.9612  155.4153 H   0  0  0  0  0  0  0  0  0  0  0  0
  148.9035  132.7251  154.8862 H   0  0  0  0  0  0  0  0  0  0  0  0
  150.0023  133.2681  153.6350 H   0  0  0  0  0  0  0  0  0  0  0  0
  148.3005  134.7244  152.8455 H   0  0  0  0  0  0  0  0  0  0  0  0
  1  2  1  0  0  0  0
  1 28  1  0  0  0  0
  1 29  1  0  0  0  0
  1 30  1  0  0  0  0
  2  3  1  0  0  0  0
  2 31  1  0  0  0  0
  2 32  1  0  0  0  0
  3 27  1  0  0  0  0
  3  4  1  0  0  0  0
  3 58  1  0  0  0  0
  4  5  1  0  0  0  0
  4 33  1  0  0  0  0
  4 34  1  0  0  0  0
  5  6  1  0  0  0  0
  5 35  1  0  0  0  0
  5 36  1  0  0  0  0
  6  7  1  0  0  0  0
  6 25  1  0  0  0  0
  6 37  1  0  0  0  0
  7  8  1  0  0  0  0
  7  9  1  0  0  0  0
  8 38  1  0  0  0  0
  8 39  1  0  0  0  0
  8 40  1  0  0  0  0
  9 14  1  0  0  0  0
  9 10  2  0  0  0  0
 10 11  1  0  0  0  0
 11 12  2  0  0  0  0
 11 41  1  0  0  0  0
 12 13  1  0  0  0  0
 13 17  1  0  0  0  0
 13 14  2  0  0  0  0
 14 15  1  0  0  0  0
 15 16  2  0  0  0  0
 16 17  1  0  0  0  0
 16 42  1  0  0  0  0
 17 18  1  0  0  0  0
 18 19  1  0  0  0  0
 18 43  1  0  0  0  0
 18 44  1  0  0  0  0
 19 24  1  0  0  0  0
 19 20  1  0  0  0  0
 19 21  1  0  0  0  0
 20 45  1  0  0  0  0
 21 22  1  0  0  0  0
 21 46  1  0  0  0  0
 21 47  1  0  0  0  0
 22 23  1  0  0  0  0
 22 48  1  0  0  0  0
 22 49  1  0  0  0  0
 23 24  1  0  0  0  0
 24 50  1  0  0  0  0
 24 51  1  0  0  0  0
 25 26  1  0  0  0  0
 25 27  1  0  0  0  0
 25 52  1  0  0  0  0
 26 53  1  0  0  0  0
 26 54  1  0  0  0  0
 26 55  1  0  0  0  0
 27 56  1  0  0  0  0
 27 57  1  0  0  0  0
M  CHG  1   3   1
M  END
> <s_m_source_file>
AV-unprocessed.smi

> <i_m_source_file_index>
243

> <i_lp_mmshare_version>
43012

> <i_f3d_flags>
0

> <s_epik_input>
W0NIM11bQ0gyXU4xW0NIMl1bQ0gyXVtDQEhdKFtDQEBIXShbQ0gzXSlbQ0gyXTEpTihbQ0gzXSljKG5bY0hdbjIpYyhjMjMpbltjSF1uM1tDSDJdW0NAQF00KFtPSF0pW0NIMl1bQ0gyXU9bQ0gyXTQ=

> <s_epik_cmdline>
J2VwaWtfcHl0aG9uJywgJy1waCcsICc3LjAnLCAnLXRuJywgJzgnLCAnLW1hJywgJzIwMCcsICctbWV0YWxfYmluZGluZycsICctaW1hZScsICc8aW5maWxlLm1hZT4nLCAnLW9tYWUnLCAnPG91dGZpbGUubWFlPic=

> <r_lp_tautomer_probability>
1

> <r_epik_Ionization_Penalty>
0.00253099

> <r_epik_Ionization_Penalty_Charging>
0.00137877

> <r_epik_Ionization_Penalty_Neutral>
0.00115221

> <r_epik_State_Penalty>
-0

> <r_epik_Charging_Adjusted_Penalty>
0.00137877

> <i_epik_Tot_Q>
1

> <i_epik_Tot_abs_Q>
1

> <r_epik_Metal_State_Penalty>
-0

> <b_epik_Metal_Only>
0

> <s_lp_Force_Field>
OPLS_2005

> <r_lp_Energy>
45.753

> <b_lp_Chiralities_Consistent>
1

> <s_lp_Variant>
AV-unprocessed.smi:243-8

> <Gold.Version>
5.8.1

> <Gold.Id.Protein>
6NUR|6NUR_protein|mol2

> <Gold.PLP.Fitness>
54.5109

> <Gold.PLP.PLP>
-39.7799

> <Gold.PLP.part.hbond>
-3.0000

> <Gold.PLP.part.metal>
0.0000

> <Gold.PLP.part.buried>
-6.6014

> <Gold.PLP.part.nonpolar>
-30.6479

> <Gold.PLP.part.repulsive>
0.2545

> <Gold.PLP.ligand.clash>
0.0000

> <Gold.PLP.ligand.torsion>
0.7648

> <Gold.PLP.Chemscore.Hbond>
4.0000

> <Gold.PLP.Chemscore.CHOScore>
1.1444

> <Gold.PLP.Chemscore.Metal>
0.0000

> <Gold.Chemscore.Hbonds>
donor molecule, donor type, donor heavy atom, donor atom, acceptor molecule, acceptor atom, score
      L1  H     3    58       P1  7948  2.00
      L1  H    20    45       P1  8028  1.00
      P1  H  7989  7998       L1    12  0.81
      L1  C    11    41       P1  7948  0.31
      L1  C    11    41       P1  7957  1.00

> <Gold.PLP.Chemscore.Internal.Correction>
0.8273

> <Gold.Rescore>
     Score         DG    S(hbond)    S(metal)    S(lipo)     H(rot)  DE(clash)    DE(int)     intcor
     15.33     -19.26       2.83        0.00      92.40       2.53       1.45       2.48       ----

> <Gold.Chemscore.Fitness>
15.3271

> <Gold.Chemscore.DG>
-19.2628

> <Gold.Chemscore.ZeroCoef>
-5.4800

> <Gold.Chemscore.Hbond>
2.8292

> <Gold.Chemscore.Metal>
0.0000

> <Gold.Chemscore.Lipo>
92.4049

> <Gold.Chemscore.Internal_Hbond>
0.0000

> <Gold.Chemscore.DEClash>
1.4543

> <Gold.Chemscore.DEInternal>
2.4814

> <Gold.Chemscore.Rot>
2.5305

> <Gold.Chemscore.Internal.Correction>
   9.000000E+99

> <Gold.Chemscore.Hbonds>
donor molecule, donor type, donor heavy atom, donor atom, acceptor molecule, acceptor atom, score
      L1  H     3    58       P1  7948  0.55
      L1  H    20    45       P1  8028  0.69
      P1  H  7989  7998       L1    12  0.76

> <Gold.Chemscore.Hbond.Weighted>
-9.4494

> <Gold.Chemscore.Metal.Weighted>
-0.0000

> <Gold.Chemscore.Lipo.Weighted>
-10.8114

> <Gold.Chemscore.Internal_Hbond.Weighted>
0.0000

> <Gold.Chemscore.DEClash.Weighted>
1.4543

> <Gold.Chemscore.DEInternal.Weighted>
2.4814

> <Gold.Chemscore.Rot.Weighted>
6.4780

> <Gold.Chemscore.Internal.Correction.Weighted>
   9.000000E+99

> <Gold.Protein.RotatedTorsions>
[ 6907 6896 6895 6894 ] final   24.50 input  -60.11 | X-H torsion
[ 7974 7965 7964 7962 ] final  -80.77 input  175.53 | X-H torsion
[ 8008 7997 7996 7995 ] final  -26.77 input   59.86 | X-H torsion
[ 10167 10162 10161 10158 ] final  -70.46 input  -65.29 | X-H torsion
[ 10718 10713 10712 10709 ] final -173.46 input   66.30 | X-H torsion
[ 10763 10752 10751 10750 ] final  -27.90 input  -60.55 | X-H torsion
[ 11005 11000 10999 10996 ] final -142.18 input  -57.11 | X-H torsion

> <Gold.Protein.ActiveResidues>
 VAL166  LYS551  ARG553  GLY616  TRP617  ASP618  TYR619  PRO620  LYS621  CYS622 
 ASP623  PHE694  ASN695  SER759  ASP760  ASP761  ALA762  ILE779  LEU786  VAL792 
 PHE793  MET794  SER795  GLU796  ALA797  LYS798  CYS799  TRP800  GLU811  SER814 

> <Gold.Protein.RotatedAtoms>
  151.9584  135.0135  160.0545 H   0  0  0  0  0  0  0  0  0  0  0  0  # atno 6907 bound_to 6896
  152.1891  133.4755  159.5006 H   0  0  0  0  0  0  0  0  0  0  0  0  # atno 6908 bound_to 6896
  150.6931  134.1653  159.4234 H   0  0  0  0  0  0  0  0  0  0  0  0  # atno 6909 bound_to 6896
  145.5556  140.9490  143.1475 H   0  0  0  0  0  0  0  0  0  0  0  0  # atno 7974 bound_to 7965
  154.4409  140.1890  156.0827 H   0  0  0  0  0  0  0  0  0  0  0  0  # atno 8008 bound_to 7997
  156.0426  140.3318  155.7235 H   0  0  0  0  0  0  0  0  0  0  0  0  # atno 8009 bound_to 7997
  155.5676  140.0609  157.2805 H   0  0  0  0  0  0  0  0  0  0  0  0  # atno 8010 bound_to 7997
  140.5350  143.2318  151.7193 H   0  0  0  0  0  0  0  0  0  0  0  0  # atno 10167 bound_to 10162
  156.7706  130.9447  151.3120 H   0  0  0  0  0  0  0  0  0  0  0  0  # atno 10718 bound_to 10713
  153.7396  135.6933  153.4970 H   0  0  0  0  0  0  0  0  0  0  0  0  # atno 10763 bound_to 10752
  153.2078  135.4413  155.0343 H   0  0  0  0  0  0  0  0  0  0  0  0  # atno 10764 bound_to 10752
  154.8225  135.3429  154.6922 H   0  0  0  0  0  0  0  0  0  0  0  0  # atno 10765 bound_to 10752
  140.8250  134.2585  157.4883 H   0  0  0  0  0  0  0  0  0  0  0  0  # atno 11005 bound_to 11000
  144.7508  139.7199  143.7274 LP  0  0  0  0  0  0  0  0  0  0  0  0  # atno 17320 bound_to 7965
  146.1887  139.5115  142.9819 LP  0  0  0  0  0  0  0  0  0  0  0  0  # atno 17321 bound_to 7965
  139.4968  144.4056  152.0135 LP  0  0  0  0  0  0  0  0  0  0  0  0  # atno 17342 bound_to 10162
  140.3161  144.3482  150.6021 LP  0  0  0  0  0  0  0  0  0  0  0  0  # atno 17343 bound_to 10162
  157.6693  130.9036  150.0003 LP  0  0  0  0  0  0  0  0  0  0  0  0  # atno 17370 bound_to 10713
  156.1280  130.3644  149.9777 LP  0  0  0  0  0  0  0  0  0  0  0  0  # atno 17371 bound_to 10713
  139.8707  134.9556  156.4211 LP  0  0  0  0  0  0  0  0  0  0  0  0  # atno 17394 bound_to 11000
  140.9058  133.7747  155.9734 LP  0  0  0  0  0  0  0  0  0  0  0  0  # atno 17395 bound_to 11000

$$$$
