#       Name:                AV-unprocessed.smi:2331
#       Creating user name   scv26
#       Creation time:       Fri Mar 27 12:53:51 2020


#       File generated by GOLD software.
#

@<TRIPOS>MOLECULE
AV-unprocessed.smi:2331
    54    55     1
SMALL
NO_CHARGES


@<TRIPOS>ATOM
      1 ****        -4.5812   0.5860  -0.5535 C.3            1 S1                 0.0000
      2 ****        -3.1124   0.8987  -0.1983 C.3            1 S1                 0.0000
      3 ****        -3.1254   1.7267   1.1098 C.3            1 S1                 0.0000
      4 ****        -2.3657  -0.4321   0.0786 C.3            1 S1                 0.0000
      5 ****        -0.9328  -0.2216   0.2643 N.am           1 S1                 0.0000
      6 ****        -0.1188  -0.9758   1.0197 C.2            1 S1                 0.0000
      7 ****        -0.5088  -1.9752   1.6235 O.2            1 S1                 0.0000
      8 ****         1.1752  -0.5755   0.9899 N.am           1 S1                 0.0000
      9 ****         1.5904   0.7965   0.6627 C.3            1 S1                 0.0000
     10 ****         3.0452   0.9377   1.1048 C.3            1 S1                 0.0000
     11 ****         3.2497  -0.1957   2.0996 C.3            1 S1                 0.0000
     12 ****         2.2773  -1.3005   1.6476 C.3            1 S1                 0.0000
     13 ****         2.9240  -2.4276   0.7690 C.3            1 S1                 0.0000
     14 ****         3.8604  -3.3055   1.6230 C.3            1 S1                 0.0000
     15 ****         1.9133  -3.3407   0.0467 C.3            1 S1                 0.0000
     16 ****         3.7339  -1.8507  -0.2380 O.3            1 S1                 0.0000
     17 ****        -2.4480   1.6507  -1.3695 C.ar           1 S1                 0.0000
     18 ****        -1.8801   2.9435  -1.2257 C.ar           1 S1                 0.0000
     19 ****        -1.2714   3.5684  -2.3330 C.ar           1 S1                 0.0000
     20 ****        -1.2296   2.9375  -3.5249 N.pl3          1 S1                 1.0000
     21 ****        -1.7538   1.7094  -3.7165 C.ar           1 S1                 0.0000
     22 ****        -2.3745   1.0370  -2.6450 C.ar           1 S1                 0.0000
     23 ****        -5.0871   0.0742   0.2661 H              1 S1                 0.0000
     24 ****        -4.6650  -0.0568  -1.4298 H              1 S1                 0.0000
     25 ****        -5.1400   1.4990  -0.7626 H              1 S1                 0.0000
     26 ****        -3.6064   1.1759   1.9191 H              1 S1                 0.0000
     27 ****        -3.6777   2.6597   0.9906 H              1 S1                 0.0000
     28 ****        -2.1191   1.9731   1.4508 H              1 S1                 0.0000
     29 ****        -2.7990  -0.9273   0.9497 H              1 S1                 0.0000
     30 ****        -2.4904  -1.1240  -0.7548 H              1 S1                 0.0000
     31 ****        -0.5229   0.5645  -0.2183 H              1 S1                 0.0000
     32 ****         1.4828   1.0013  -0.4035 H              1 S1                 0.0000
     33 ****         0.9706   1.5103   1.2084 H              1 S1                 0.0000
     34 ****         3.7059   0.8047   0.2478 H              1 S1                 0.0000
     35 ****         3.2606   1.9161   1.5351 H              1 S1                 0.0000
     36 ****         4.2913  -0.5089   2.1605 H              1 S1                 0.0000
     37 ****         2.9612   0.1496   3.0934 H              1 S1                 0.0000
     38 ****         1.8874  -1.7766   2.5494 H              1 S1                 0.0000
     39 ****         3.3095  -3.8032   2.4216 H              1 S1                 0.0000
     40 ****         4.6593  -2.7289   2.0883 H              1 S1                 0.0000
     41 ****         4.3355  -4.0829   1.0231 H              1 S1                 0.0000
     42 ****         1.2476  -3.8317   0.7566 H              1 S1                 0.0000
     43 ****         2.4204  -4.1263  -0.5149 H              1 S1                 0.0000
     44 ****         1.3002  -2.7902  -0.6669 H              1 S1                 0.0000
     45 ****         4.1484  -2.5467  -0.7247 H              1 S1                 0.0000
     46 ****        -1.8931   3.4734  -0.2858 H              1 S1                 0.0000
     47 ****        -0.8177   4.5483  -2.2995 H              1 S1                 0.0000
     48 ****        -1.6603   1.3032  -4.7133 H              1 S1                 0.0000
     49 ****        -2.7856   0.0517  -2.8079 H              1 S1                 0.0000
     50 ****        -0.7830   3.4080  -4.3125 H              1 S1                 0.0000
     51 ****        -1.4672  -2.2541   1.5622 LP             1 S1                 0.0000
     52 ****         0.1328  -2.5081   2.1752 LP             1 S1                 0.0000
     53 ****         4.4319  -1.2705   0.1817 LP             1 S1                 0.0000
     54 ****         3.1680  -1.3004  -0.8519 LP             1 S1                 0.0000
@<TRIPOS>BOND
    1    1    2 1     
    2    1   23 1     
    3    1   24 1     
    4    1   25 1     
    5    2    3 1     
    6    2    4 1     
    7    2   17 1     
    8    3   26 1     
    9    3   27 1     
   10    3   28 1     
   11    4    5 1     
   12    4   29 1     
   13    4   30 1     
   14    5    6 am    
   15    5   31 1     
   16    6    7 2     
   17    6    8 am    
   18    8   12 1     
   19    8    9 1     
   20    9   10 1     
   21    9   32 1     
   22    9   33 1     
   23   10   11 1     
   24   10   34 1     
   25   10   35 1     
   26   11   12 1     
   27   11   36 1     
   28   11   37 1     
   29   12   13 1     
   30   12   38 1     
   31   13   14 1     
   32   13   15 1     
   33   13   16 1     
   34   14   39 1     
   35   14   40 1     
   36   14   41 1     
   37   15   42 1     
   38   15   43 1     
   39   15   44 1     
   40   16   45 1     
   41   17   22 ar    
   42   17   18 ar    
   43   18   19 ar    
   44   18   46 1     
   45   19   20 ar    
   46   19   47 1     
   47   20   21 ar    
   48   20   50 1     
   49   21   22 ar    
   50   21   48 1     
   51   22   49 1     
   52    7   51 1     
   53    7   52 1     
   54   16   53 1     
   55   16   54 1     
@<TRIPOS>SUBSTRUCTURE
      1 S1             1
@<TRIPOS>SET
LONE_PAIRS      STATIC     ATOMS    <user>   **** ""
4 51 52 53 54
DONOR_HYDROGENS      STATIC     ATOMS    <user>   **** ""
3 31 45 50
ATOM$BLUE        STATIC     ATOMS    COLORGROUP SYSTEM
4 51 52 53 54
ATOM$RED        STATIC     ATOMS    COLORGROUP SYSTEM
3 31 45 50
