AV-unprocessed.smi:290|AV-procd|sdf|2241|dock4
  -GOLD-   2262022113D 1   1.00000     0.00000
 Structure written by MMmdl.
 59 62  0  0  0  0  0  0  0  0  2 V2000
  152.6541  142.3812  161.0530 C   0  0  0  0  0  0  0  0  0  0  0  0
  152.6702  142.9073  159.6085 C   0  0  2  0  0  0  0  0  0  0  0  0
  152.6550  144.3270  159.5921 O   0  0  0  0  0  0  0  0  0  0  0  0
  152.2906  144.7211  158.2817 C   0  0  0  0  0  0  0  0  0  0  0  0
  151.1384  143.7791  157.9532 C   0  0  0  0  0  0  0  0  0  0  0  0
  151.4962  142.4827  158.6874 C   0  0  2  0  0  0  0  0  0  0  0  0
  150.3643  142.0752  159.4381 O   0  0  0  0  0  0  0  0  0  0  0  0
  151.8656  141.3428  157.7061 C   0  0  0  0  0  0  0  0  0  0  0  0
  150.7685  140.9370  156.8398 N   0  0  0  0  0  0  0  0  0  0  0  0
  150.0149  141.7541  156.0299 C   0  0  0  0  0  0  0  0  0  0  0  0
  149.0811  141.1506  155.3481 N   0  0  0  0  0  0  0  0  0  0  0  0
  149.2084  139.8090  155.6934 C   0  0  0  0  0  0  0  0  0  0  0  0
  148.5296  138.6072  155.3274 C   0  0  0  0  0  0  0  0  0  0  0  0
  147.5045  138.5228  154.4384 N   0  0  0  0  0  0  0  0  0  0  0  0
  147.0619  139.6732  153.6714 C   0  0  0  0  0  0  0  0  0  0  0  0
  146.5371  139.0795  152.3713 C   0  0  0  0  0  0  0  0  0  0  0  0
  145.9774  137.7069  152.7817 C   0  0  1  0  0  0  0  0  0  0  0  0
  145.9122  136.7537  151.6285 N   0  3  2  0  0  0  0  0  0  0  0  0
  145.5875  137.4549  150.3585 C   0  0  0  0  0  0  0  0  0  0  0  0
  145.0392  135.5657  151.8565 C   0  0  0  0  0  0  0  0  0  0  0  0
  144.6205  134.8333  150.5672 C   0  0  0  0  0  0  0  0  0  0  0  0
  145.7479  134.2502  149.9482 O   0  0  0  0  0  0  0  0  0  0  0  0
  146.9041  137.2832  153.9544 C   0  0  2  0  0  0  0  0  0  0  0  0
  146.1322  136.5828  155.0948 C   0  0  0  0  0  0  0  0  0  0  0  0
  148.9467  137.4557  155.9160 N   0  0  0  0  0  0  0  0  0  0  0  0
  149.9599  137.4632  156.7856 C   0  0  0  0  0  0  0  0  0  0  0  0
  150.6863  138.4979  157.2078 N   0  0  0  0  0  0  0  0  0  0  0  0
  150.2686  139.6623  156.6353 C   0  0  0  0  0  0  0  0  0  0  0  0
  144.9679  137.8558  153.1700 H   0  0  0  0  0  0  0  0  0  0  0  0
  147.7034  136.6498  153.5715 H   0  0  0  0  0  0  0  0  0  0  0  0
  152.6510  141.2913  161.0762 H   0  0  0  0  0  0  0  0  0  0  0  0
  151.7800  142.7351  161.6000 H   0  0  0  0  0  0  0  0  0  0  0  0
  153.5374  142.7196  161.5949 H   0  0  0  0  0  0  0  0  0  0  0  0
  153.6136  142.6154  159.1459 H   0  0  0  0  0  0  0  0  0  0  0  0
  152.0022  145.7716  158.2403 H   0  0  0  0  0  0  0  0  0  0  0  0
  153.1300  144.5652  157.6020 H   0  0  0  0  0  0  0  0  0  0  0  0
  150.2127  144.2078  158.3417 H   0  0  0  0  0  0  0  0  0  0  0  0
  151.0074  143.6492  156.8783 H   0  0  0  0  0  0  0  0  0  0  0  0
  150.6639  141.5705  160.1783 H   0  0  0  0  0  0  0  0  0  0  0  0
  152.7019  141.6453  157.0743 H   0  0  0  0  0  0  0  0  0  0  0  0
  152.2074  140.4675  158.2600 H   0  0  0  0  0  0  0  0  0  0  0  0
  150.1767  142.8206  155.9656 H   0  0  0  0  0  0  0  0  0  0  0  0
  146.2677  140.1821  154.2188 H   0  0  0  0  0  0  0  0  0  0  0  0
  147.8642  140.3874  153.4816 H   0  0  0  0  0  0  0  0  0  0  0  0
  145.7971  139.7283  151.9023 H   0  0  0  0  0  0  0  0  0  0  0  0
  147.3663  138.9531  151.6733 H   0  0  0  0  0  0  0  0  0  0  0  0
  144.5582  137.8156  150.3654 H   0  0  0  0  0  0  0  0  0  0  0  0
  145.7180  136.8068  149.4937 H   0  0  0  0  0  0  0  0  0  0  0  0
  146.2412  138.3084  150.1845 H   0  0  0  0  0  0  0  0  0  0  0  0
  145.5577  134.8294  152.4676 H   0  0  0  0  0  0  0  0  0  0  0  0
  144.1530  135.8719  152.4141 H   0  0  0  0  0  0  0  0  0  0  0  0
  143.9223  134.0337  150.8162 H   0  0  0  0  0  0  0  0  0  0  0  0
  144.0983  135.4816  149.8649 H   0  0  0  0  0  0  0  0  0  0  0  0
  145.9902  134.7794  149.2028 H   0  0  0  0  0  0  0  0  0  0  0  0
  145.6328  135.6740  154.7647 H   0  0  0  0  0  0  0  0  0  0  0  0
  145.3653  137.2396  155.5069 H   0  0  0  0  0  0  0  0  0  0  0  0
  146.7896  136.3034  155.9173 H   0  0  0  0  0  0  0  0  0  0  0  0
  150.2273  136.5030  157.2014 H   0  0  0  0  0  0  0  0  0  0  0  0
  146.8467  136.3849  151.5220 H   0  0  0  0  0  0  0  0  0  0  0  0
  1  2  1  0  0  0  0
  1 31  1  0  0  0  0
  1 32  1  0  0  0  0
  1 33  1  0  0  0  0
  2  6  1  0  0  0  0
  2  3  1  0  0  0  0
  2 34  1  0  0  0  0
  3  4  1  0  0  0  0
  4  5  1  0  0  0  0
  4 35  1  0  0  0  0
  4 36  1  0  0  0  0
  5  6  1  0  0  0  0
  5 37  1  0  0  0  0
  5 38  1  0  0  0  0
  6  7  1  0  0  0  0
  6  8  1  0  0  0  0
  7 39  1  0  0  0  0
  8  9  1  0  0  0  0
  8 40  1  0  0  0  0
  8 41  1  0  0  0  0
  9 28  1  0  0  0  0
  9 10  1  0  0  0  0
 10 11  2  0  0  0  0
 10 42  1  0  0  0  0
 11 12  1  0  0  0  0
 12 28  2  0  0  0  0
 12 13  1  0  0  0  0
 13 14  1  0  0  0  0
 13 25  2  0  0  0  0
 14 23  1  0  0  0  0
 14 15  1  0  0  0  0
 15 16  1  0  0  0  0
 15 43  1  0  0  0  0
 15 44  1  0  0  0  0
 16 17  1  0  0  0  0
 16 45  1  0  0  0  0
 16 46  1  0  0  0  0
 17 29  1  0  0  0  0
 17 18  1  0  0  0  0
 17 23  1  0  0  0  0
 18 19  1  0  0  0  0
 18 20  1  0  0  0  0
 18 59  1  0  0  0  0
 19 47  1  0  0  0  0
 19 48  1  0  0  0  0
 19 49  1  0  0  0  0
 20 21  1  0  0  0  0
 20 50  1  0  0  0  0
 20 51  1  0  0  0  0
 21 22  1  0  0  0  0
 21 52  1  0  0  0  0
 21 53  1  0  0  0  0
 22 54  1  0  0  0  0
 23 30  1  0  0  0  0
 23 24  1  0  0  0  0
 24 55  1  0  0  0  0
 24 56  1  0  0  0  0
 24 57  1  0  0  0  0
 25 26  1  0  0  0  0
 26 27  2  0  0  0  0
 26 58  1  0  0  0  0
 27 28  1  0  0  0  0
M  CHG  1  18   1
M  END
> <s_m_source_file>
AV-unprocessed.smi

> <i_m_source_file_index>
290

> <i_lp_mmshare_version>
43012

> <i_f3d_flags>
0

> <s_epik_input>
W0NIMl0xW0NIMl1PW0NAQEhdKFtDSDNdKVtDQEBdMShbT0hdKVtDSDJdbihbY0hdbjIpYyhjMjMpbltjSF1uYzNONFtDSDJdW0NIMl1bQ0BIXShbQ0BIXTRbQ0gzXSlOKFtDSDNdKVtDSDJdW0NIMl1bT0hd

> <s_epik_cmdline>
J2VwaWtfcHl0aG9uJywgJy1waCcsICc3LjAnLCAnLXRuJywgJzgnLCAnLW1hJywgJzIwMCcsICctbWV0YWxfYmluZGluZycsICctaW1hZScsICc8aW5maWxlLm1hZT4nLCAnLW9tYWUnLCAnPG91dGZpbGUubWFlPic=

> <r_lp_tautomer_probability>
1

> <r_epik_Ionization_Penalty>
0.0036983

> <r_epik_Ionization_Penalty_Charging>
0.0032725

> <r_epik_Ionization_Penalty_Neutral>
0.000425798

> <r_epik_State_Penalty>
-0

> <r_epik_Charging_Adjusted_Penalty>
0.0032725

> <i_epik_Tot_Q>
1

> <i_epik_Tot_abs_Q>
1

> <r_epik_Metal_State_Penalty>
-0

> <b_epik_Metal_Only>
0

> <s_lp_Force_Field>
OPLS_2005

> <r_lp_Energy>
64.4963

> <b_lp_Chiralities_Consistent>
1

> <s_lp_Variant>
AV-unprocessed.smi:290-27

> <Gold.Version>
5.8.1

> <Gold.Id.Protein>
6NUR|6NUR_protein|mol2

> <Gold.PLP.Fitness>
53.1795

> <Gold.PLP.PLP>
-42.8810

> <Gold.PLP.part.hbond>
-3.0000

> <Gold.PLP.part.metal>
0.0000

> <Gold.PLP.part.buried>
2.0206

> <Gold.PLP.part.nonpolar>
-41.3088

> <Gold.PLP.part.repulsive>
0.2009

> <Gold.PLP.ligand.clash>
0.0000

> <Gold.PLP.ligand.torsion>
0.7643

> <Gold.PLP.Chemscore.Hbond>
2.9825

> <Gold.PLP.Chemscore.CHOScore>
0.8901

> <Gold.PLP.Chemscore.Metal>
0.0000

> <Gold.Chemscore.Hbonds>
donor molecule, donor type, donor heavy atom, donor atom, acceptor molecule, acceptor atom, score
      L1  H    18    59       P1  7948  1.62
      L1  H    22    54       P1  7921  0.91
      L1  C    10    42       P1  8028  1.00

> <Gold.PLP.Chemscore.Internal.Correction>
0.2092

> <Gold.Rescore>
     Score         DG    S(hbond)    S(metal)    S(lipo)     H(rot)  DE(clash)    DE(int)     intcor
     11.95     -16.00       1.75        0.00     113.23       3.35       1.89       2.15       ----

> <Gold.Chemscore.Fitness>
11.9494

> <Gold.Chemscore.DG>
-15.9955

> <Gold.Chemscore.ZeroCoef>
-5.4800

> <Gold.Chemscore.Hbond>
1.7510

> <Gold.Chemscore.Metal>
0.0000

> <Gold.Chemscore.Lipo>
113.2270

> <Gold.Chemscore.Internal_Hbond>
0.0000

> <Gold.Chemscore.DEClash>
1.8934

> <Gold.Chemscore.DEInternal>
2.1527

> <Gold.Chemscore.Rot>
3.3518

> <Gold.Chemscore.Internal.Correction>
   9.000000E+99

> <Gold.Chemscore.Hbonds>
donor molecule, donor type, donor heavy atom, donor atom, acceptor molecule, acceptor atom, score
      L1  H    18    59       P1  7948  0.80
      L1  H    22    54       P1  7921  0.64

> <Gold.Chemscore.Hbond.Weighted>
-5.8485

> <Gold.Chemscore.Metal.Weighted>
-0.0000

> <Gold.Chemscore.Lipo.Weighted>
-13.2476

> <Gold.Chemscore.Internal_Hbond.Weighted>
0.0000

> <Gold.Chemscore.DEClash.Weighted>
1.8934

> <Gold.Chemscore.DEInternal.Weighted>
2.1527

> <Gold.Chemscore.Rot.Weighted>
8.5806

> <Gold.Chemscore.Internal.Correction.Weighted>
   9.000000E+99

> <Gold.Protein.RotatedTorsions>
[ 6907 6896 6895 6894 ] final -146.42 input  -60.11 | X-H torsion
[ 7974 7965 7964 7962 ] final -155.37 input  175.53 | X-H torsion
[ 8008 7997 7996 7995 ] final  174.91 input   59.86 | X-H torsion
[ 10167 10162 10161 10158 ] final  135.39 input  -65.29 | X-H torsion
[ 10718 10713 10712 10709 ] final   89.42 input   66.30 | X-H torsion
[ 10763 10752 10751 10750 ] final  -96.46 input  -60.55 | X-H torsion
[ 11005 11000 10999 10996 ] final   -5.98 input  -57.11 | X-H torsion

> <Gold.Protein.ActiveResidues>
 VAL166  LYS551  ARG553  GLY616  TRP617  ASP618  TYR619  PRO620  LYS621  CYS622 
 ASP623  PHE694  ASN695  SER759  ASP760  ASP761  ALA762  ILE779  LEU786  VAL792 
 PHE793  MET794  SER795  GLU796  ALA797  LYS798  CYS799  TRP800  GLU811  SER814 

> <Gold.Protein.RotatedAtoms>
  151.1414  133.4969  159.2596 H   0  0  0  0  0  0  0  0  0  0  0  0  # atno 6907 bound_to 6896
  151.1651  135.0291  159.8737 H   0  0  0  0  0  0  0  0  0  0  0  0  # atno 6908 bound_to 6896
  152.5462  134.1284  159.8482 H   0  0  0  0  0  0  0  0  0  0  0  0  # atno 6909 bound_to 6896
  144.7643  140.4258  143.5953 H   0  0  0  0  0  0  0  0  0  0  0  0  # atno 7974 bound_to 7965
  156.0925  140.1422  156.9573 H   0  0  0  0  0  0  0  0  0  0  0  0  # atno 8008 bound_to 7997
  154.4651  140.0929  156.7044 H   0  0  0  0  0  0  0  0  0  0  0  0  # atno 8009 bound_to 7997
  155.4895  140.3447  155.4355 H   0  0  0  0  0  0  0  0  0  0  0  0  # atno 8010 bound_to 7997
  139.5219  144.6519  151.5276 H   0  0  0  0  0  0  0  0  0  0  0  0  # atno 10167 bound_to 10162
  157.6955  131.0332  150.3424 H   0  0  0  0  0  0  0  0  0  0  0  0  # atno 10718 bound_to 10713
  154.7241  135.5083  153.8858 H   0  0  0  0  0  0  0  0  0  0  0  0  # atno 10763 bound_to 10752
  153.0889  135.6653  153.9903 H   0  0  0  0  0  0  0  0  0  0  0  0  # atno 10764 bound_to 10752
  153.9719  135.3037  155.3406 H   0  0  0  0  0  0  0  0  0  0  0  0  # atno 10765 bound_to 10752
  140.6970  133.9022  155.8657 H   0  0  0  0  0  0  0  0  0  0  0  0  # atno 11005 bound_to 11000
  145.6519  139.1566  143.2857 LP  0  0  0  0  0  0  0  0  0  0  0  0  # atno 17320 bound_to 7965
  146.1736  140.6607  142.9221 LP  0  0  0  0  0  0  0  0  0  0  0  0  # atno 17321 bound_to 7965
  140.6328  143.9043  150.6620 LP  0  0  0  0  0  0  0  0  0  0  0  0  # atno 17342 bound_to 10162
  140.2353  143.3705  152.1532 LP  0  0  0  0  0  0  0  0  0  0  0  0  # atno 17343 bound_to 10162
  156.3883  130.3893  149.7049 LP  0  0  0  0  0  0  0  0  0  0  0  0  # atno 17370 bound_to 10713
  156.4408  130.7860  151.2881 LP  0  0  0  0  0  0  0  0  0  0  0  0  # atno 17371 bound_to 10713
  141.0195  134.0909  157.4136 LP  0  0  0  0  0  0  0  0  0  0  0  0  # atno 17394 bound_to 11000
  139.8907  135.0114  156.6751 LP  0  0  0  0  0  0  0  0  0  0  0  0  # atno 17395 bound_to 11000

$$$$
