#       Name:                AV-unprocessed.smi:2710
#       Creating user name   scv26
#       Creation time:       Fri Mar 27 14:50:58 2020


#       File generated by GOLD software.
#

@<TRIPOS>MOLECULE
AV-unprocessed.smi:2710
    57    58     1
SMALL
NO_CHARGES


@<TRIPOS>ATOM
      1 ****        -3.9273  -5.5258   1.3585 C.3            1 S1                 0.0000
      2 ****        -3.2204  -4.8272   0.1851 C.3            1 S1                 0.0000
      3 ****        -3.4847  -3.3599   0.1160 N.4            1 S1                 1.0000
      4 ****        -2.9518  -2.6433   1.3106 C.3            1 S1                 0.0000
      5 ****        -3.3330  -1.1547   1.3125 C.3            1 S1                 0.0000
      6 ****        -2.8658  -0.4466   0.0363 C.3            1 S1                 0.0000
      7 ****        -1.4071  -0.3259   0.0080 N.am           1 S1                 0.0000
      8 ****        -0.7124   0.8211   0.0308 C.2            1 S1                 0.0000
      9 ****        -1.2341   1.9347   0.0676 O.2            1 S1                 0.0000
     10 ****         0.6106   0.5859   0.0307 N.am           1 S1                 0.0000
     11 ****         1.6690   1.5333   0.0372 C.ar           1 S1                 0.0000
     12 ****         2.9542   1.1235   0.4453 C.ar           1 S1                 0.0000
     13 ****         4.0045   1.9705   0.4589 N.ar           1 S1                 0.0000
     14 ****         3.7892   3.2307   0.0593 C.ar           1 S1                 0.0000
     15 ****         5.0092   4.1695   0.0716 C.3            1 S1                 0.0000
     16 ****         4.6459   5.6070  -0.3755 C.3            1 S1                 0.0000
     17 ****         6.0826   3.6421  -0.9018 C.3            1 S1                 0.0000
     18 ****         5.5775   4.2681   1.5024 C.3            1 S1                 0.0000
     19 ****         2.6157   3.7184  -0.3642 N.ar           1 S1                 0.0000
     20 ****         1.5562   2.8820  -0.3779 C.ar           1 S1                 0.0000
     21 ****        -3.3801  -1.2161  -1.1877 C.3            1 S1                 0.0000
     22 ****        -3.0223  -2.7206  -1.1599 C.3            1 S1                 0.0000
     23 ****        -3.6114  -3.3846  -2.4219 C.3            1 S1                 0.0000
     24 ****        -3.8408  -6.6084   1.2625 H              1 S1                 0.0000
     25 ****        -4.9901  -5.2833   1.3827 H              1 S1                 0.0000
     26 ****        -3.4936  -5.2620   2.3226 H              1 S1                 0.0000
     27 ****        -2.1457  -5.0109   0.2245 H              1 S1                 0.0000
     28 ****        -3.5864  -5.3193  -0.7131 H              1 S1                 0.0000
     29 ****        -3.3441  -3.0793   2.2275 H              1 S1                 0.0000
     30 ****        -1.8674  -2.7573   1.3504 H              1 S1                 0.0000
     31 ****        -4.4168  -1.0640   1.3984 H              1 S1                 0.0000
     32 ****        -2.9169  -0.6611   2.1918 H              1 S1                 0.0000
     33 ****        -3.3169   0.5470   0.0190 H              1 S1                 0.0000
     34 ****        -0.8823  -1.1877  -0.0196 H              1 S1                 0.0000
     35 ****         0.8944  -0.3816   0.0838 H              1 S1                 0.0000
     36 ****         3.1430   0.1098   0.7672 H              1 S1                 0.0000
     37 ****         5.5186   6.2607  -0.3565 H              1 S1                 0.0000
     38 ****         3.8958   6.0549   0.2776 H              1 S1                 0.0000
     39 ****         4.2555   5.6260  -1.3940 H              1 S1                 0.0000
     40 ****         5.6925   3.5689  -1.9176 H              1 S1                 0.0000
     41 ****         6.4360   2.6517  -0.6136 H              1 S1                 0.0000
     42 ****         6.9525   4.2990  -0.9294 H              1 S1                 0.0000
     43 ****         6.4310   4.9454   1.5461 H              1 S1                 0.0000
     44 ****         5.9173   3.2993   1.8700 H              1 S1                 0.0000
     45 ****         4.8263   4.6393   2.2007 H              1 S1                 0.0000
     46 ****         0.6342   3.3051  -0.7451 H              1 S1                 0.0000
     47 ****        -4.4649  -1.1091  -1.2373 H              1 S1                 0.0000
     48 ****        -2.9931  -0.7527  -2.0965 H              1 S1                 0.0000
     49 ****        -1.9365  -2.8175  -1.2080 H              1 S1                 0.0000
     50 ****        -3.3873  -2.7960  -3.3122 H              1 S1                 0.0000
     51 ****        -4.6961  -3.4757  -2.3551 H              1 S1                 0.0000
     52 ****        -3.1942  -4.3740  -2.6056 H              1 S1                 0.0000
     53 ****        -4.4888  -3.2515   0.1375 H              1 S1                 0.0000
     54 ****        -2.2303   2.0199   0.0821 LP             1 S1                 0.0000
     55 ****        -0.6619   2.7547   0.0830 LP             1 S1                 0.0000
     56 ****         4.9102   1.6686   0.7563 LP             1 S1                 0.0000
     57 ****         2.5275   4.6696  -0.6601 LP             1 S1                 0.0000
@<TRIPOS>BOND
    1    1    2 1     
    2    1   24 1     
    3    1   25 1     
    4    1   26 1     
    5    2    3 1     
    6    2   27 1     
    7    2   28 1     
    8    3   22 1     
    9    3    4 1     
   10    3   53 1     
   11    4    5 1     
   12    4   29 1     
   13    4   30 1     
   14    5    6 1     
   15    5   31 1     
   16    5   32 1     
   17    6    7 1     
   18    6   21 1     
   19    6   33 1     
   20    7    8 am    
   21    7   34 1     
   22    8    9 2     
   23    8   10 am    
   24   10   11 1     
   25   10   35 1     
   26   11   20 ar    
   27   11   12 ar    
   28   12   13 ar    
   29   12   36 1     
   30   13   14 ar    
   31   14   15 1     
   32   14   19 ar    
   33   15   16 1     
   34   15   17 1     
   35   15   18 1     
   36   16   37 1     
   37   16   38 1     
   38   16   39 1     
   39   17   40 1     
   40   17   41 1     
   41   17   42 1     
   42   18   43 1     
   43   18   44 1     
   44   18   45 1     
   45   19   20 ar    
   46   20   46 1     
   47   21   22 1     
   48   21   47 1     
   49   21   48 1     
   50   22   23 1     
   51   22   49 1     
   52   23   50 1     
   53   23   51 1     
   54   23   52 1     
   55    9   54 1     
   56    9   55 1     
   57   13   56 1     
   58   19   57 1     
@<TRIPOS>SUBSTRUCTURE
      1 S1             1
@<TRIPOS>SET
LONE_PAIRS      STATIC     ATOMS    <user>   **** ""
4 54 55 56 57
DONOR_HYDROGENS      STATIC     ATOMS    <user>   **** ""
3 53 34 35
ATOM$BLUE        STATIC     ATOMS    COLORGROUP SYSTEM
4 54 55 56 57
ATOM$RED        STATIC     ATOMS    COLORGROUP SYSTEM
3 53 34 35
