AV-unprocessed.smi:3156|AV-procd|sdf|12032|dock7
  -GOLD-   2272017453D 1   1.00000     0.00000
 Structure written by MMmdl.
 41 42  0  0  0  0  0  0  0  0  2 V2000
  146.3763  139.0557  151.4492 C   0  0  0  0  0  0  0  0  0  0  0  0
  146.4746  138.2418  152.7520 C   0  0  1  0  0  0  0  0  0  0  0  0
  146.4632  136.8015  152.4117 N   0  3  0  0  0  0  0  0  0  0  0  0
  145.1904  136.3024  151.8501 C   0  0  0  0  0  0  0  0  0  0  0  0
  145.4230  135.1209  150.8968 C   0  0  1  0  0  0  0  0  0  0  0  0
  146.2443  133.9885  151.5484 C   0  0  0  0  0  0  0  0  0  0  0  0
  146.3636  132.7916  150.5979 C   0  0  0  0  0  0  0  0  0  0  0  0
  144.9696  132.3650  150.1267 C   0  0  0  0  0  0  0  0  0  0  0  0
  144.2081  133.5705  149.5536 C   0  0  0  0  0  0  0  0  0  0  0  0
  144.1449  134.6115  150.5244 O   0  0  0  0  0  0  0  0  0  0  0  0
  147.7339  138.5930  153.5910 C   0  0  2  0  0  0  0  0  0  0  0  0
  147.9263  137.6685  154.8085 C   0  0  0  0  0  0  0  0  0  0  0  0
  147.7334  139.9852  154.0222 N   0  0  0  0  0  0  0  0  0  0  0  0
  146.7443  140.9324  153.8527 C   0  0  0  0  0  0  0  0  0  0  0  0
  147.1918  142.0949  154.4119 C   0  0  0  0  0  0  0  0  0  0  0  0
  148.4837  141.7586  154.9034 C   0  0  0  0  0  0  0  0  0  0  0  0
  148.8058  140.4972  154.6680 N   0  0  0  0  0  0  0  0  0  0  0  0
  146.2751  140.1237  151.6431 H   0  0  0  0  0  0  0  0  0  0  0  0
  145.5050  138.7549  150.8665 H   0  0  0  0  0  0  0  0  0  0  0  0
  147.2591  138.9126  150.8252 H   0  0  0  0  0  0  0  0  0  0  0  0
  145.5850  138.4743  153.3406 H   0  0  0  0  0  0  0  0  0  0  0  0
  147.1888  136.6333  151.7296 H   0  0  0  0  0  0  0  0  0  0  0  0
  144.5095  136.0111  152.6505 H   0  0  0  0  0  0  0  0  0  0  0  0
  144.7129  137.1210  151.3099 H   0  0  0  0  0  0  0  0  0  0  0  0
  145.9293  135.4827  149.9998 H   0  0  0  0  0  0  0  0  0  0  0  0
  147.2387  134.3430  151.8212 H   0  0  0  0  0  0  0  0  0  0  0  0
  145.7625  133.6701  152.4739 H   0  0  0  0  0  0  0  0  0  0  0  0
  146.9747  133.0649  149.7365 H   0  0  0  0  0  0  0  0  0  0  0  0
  146.8696  131.9613  151.0916 H   0  0  0  0  0  0  0  0  0  0  0  0
  145.0487  131.5765  149.3777 H   0  0  0  0  0  0  0  0  0  0  0  0
  144.4109  131.9455  150.9642 H   0  0  0  0  0  0  0  0  0  0  0  0
  144.6857  133.9355  148.6430 H   0  0  0  0  0  0  0  0  0  0  0  0
  143.1930  133.2782  149.2840 H   0  0  0  0  0  0  0  0  0  0  0  0
  148.6071  138.4691  152.9484 H   0  0  0  0  0  0  0  0  0  0  0  0
  148.0919  136.6348  154.5050 H   0  0  0  0  0  0  0  0  0  0  0  0
  147.0573  137.6875  155.4669 H   0  0  0  0  0  0  0  0  0  0  0  0
  148.7933  137.9726  155.3961 H   0  0  0  0  0  0  0  0  0  0  0  0
  145.8142  140.7038  153.3533 H   0  0  0  0  0  0  0  0  0  0  0  0
  146.6759  143.0425  154.4605 H   0  0  0  0  0  0  0  0  0  0  0  0
  149.1930  142.3890  155.4190 H   0  0  0  0  0  0  0  0  0  0  0  0
  146.6805  136.2766  153.2468 H   0  0  0  0  0  0  0  0  0  0  0  0
  1  2  1  0  0  0  0
  1 18  1  0  0  0  0
  1 19  1  0  0  0  0
  1 20  1  0  0  0  0
  2  3  1  0  0  0  0
  2 11  1  0  0  0  0
  2 21  1  0  0  0  0
  3  4  1  0  0  0  0
  3 22  1  0  0  0  0
  3 41  1  0  0  0  0
  4  5  1  0  0  0  0
  4 23  1  0  0  0  0
  4 24  1  0  0  0  0
  5 10  1  0  0  0  0
  5  6  1  0  0  0  0
  5 25  1  0  0  0  0
  6  7  1  0  0  0  0
  6 26  1  0  0  0  0
  6 27  1  0  0  0  0
  7  8  1  0  0  0  0
  7 28  1  0  0  0  0
  7 29  1  0  0  0  0
  8  9  1  0  0  0  0
  8 30  1  0  0  0  0
  8 31  1  0  0  0  0
  9 10  1  0  0  0  0
  9 32  1  0  0  0  0
  9 33  1  0  0  0  0
 11 12  1  0  0  0  0
 11 13  1  0  0  0  0
 11 34  1  0  0  0  0
 12 35  1  0  0  0  0
 12 36  1  0  0  0  0
 12 37  1  0  0  0  0
 13 17  1  0  0  0  0
 13 14  1  0  0  0  0
 14 15  2  0  0  0  0
 14 38  1  0  0  0  0
 15 16  1  0  0  0  0
 15 39  1  0  0  0  0
 16 17  2  0  0  0  0
 16 40  1  0  0  0  0
M  CHG  1   3   1
M  END
> <s_m_source_file>
AV-unprocessed.smi

> <i_m_source_file_index>
3156

> <i_lp_mmshare_version>
43012

> <i_f3d_flags>
0

> <s_epik_input>
bjFbY0hdW2NIXVtjSF1uMVtDQEBIXShbQ0gzXSlbQ0BIXShbQ0gzXSlbTkhdW0NIMl1bQ0BASF0yW0NIMl1bQ0gyXVtDSDJdW0NIMl1PMg==

> <s_epik_cmdline>
J2VwaWtfcHl0aG9uJywgJy1waCcsICc3LjAnLCAnLXRuJywgJzgnLCAnLW1hJywgJzIwMCcsICctbWV0YWxfYmluZGluZycsICctaW1hZScsICc8aW5maWxlLm1hZT4nLCAnLW9tYWUnLCAnPG91dGZpbGUubWFlPic=

> <r_lp_tautomer_probability>
1

> <r_epik_Ionization_Penalty>
0.00658015

> <r_epik_Ionization_Penalty_Charging>
0.00656881

> <r_epik_Ionization_Penalty_Neutral>
1.13431e-05

> <r_epik_State_Penalty>
0.0048654

> <r_epik_Charging_Adjusted_Penalty>
0.0114342

> <i_epik_Tot_Q>
1

> <i_epik_Tot_abs_Q>
1

> <r_epik_Metal_State_Penalty>
-0

> <b_epik_Metal_Only>
0

> <s_lp_Force_Field>
OPLS_2005

> <r_lp_Energy>
19.0125

> <b_lp_Chiralities_Consistent>
1

> <s_lp_Variant>
AV-unprocessed.smi:3156-4

> <Gold.Version>
5.8.1

> <Gold.Id.Protein>
6NUR|6NUR_protein|mol2

> <Gold.PLP.Fitness>
42.6640

> <Gold.PLP.PLP>
-31.4068

> <Gold.PLP.part.hbond>
-1.0000

> <Gold.PLP.part.metal>
0.0000

> <Gold.PLP.part.buried>
-1.7324

> <Gold.PLP.part.nonpolar>
-30.5566

> <Gold.PLP.part.repulsive>
0.3438

> <Gold.PLP.ligand.clash>
0.0000

> <Gold.PLP.ligand.torsion>
0.3126

> <Gold.PLP.Chemscore.Hbond>
2.0000

> <Gold.PLP.Chemscore.CHOScore>
1.9325

> <Gold.PLP.Chemscore.Metal>
0.0000

> <Gold.Chemscore.Hbonds>
donor molecule, donor type, donor heavy atom, donor atom, acceptor molecule, acceptor atom, score
      L1  H     3    22       P1  7948  1.41
      L1  C    14    38       P1 10175  1.00
      L1  C    16    40       P1  8028  0.84

> <Gold.PLP.Chemscore.Internal.Correction>
0.0850

> <Gold.Rescore>
     Score         DG    S(hbond)    S(metal)    S(lipo)     H(rot)  DE(clash)    DE(int)     intcor
     13.83     -14.61       0.84        0.00      88.82       1.59       0.29       0.49       ----

> <Gold.Chemscore.Fitness>
13.8292

> <Gold.Chemscore.DG>
-14.6124

> <Gold.Chemscore.ZeroCoef>
-5.4800

> <Gold.Chemscore.Hbond>
0.8446

> <Gold.Chemscore.Metal>
0.0000

> <Gold.Chemscore.Lipo>
88.8173

> <Gold.Chemscore.Internal_Hbond>
0.0000

> <Gold.Chemscore.DEClash>
0.2934

> <Gold.Chemscore.DEInternal>
0.4899

> <Gold.Chemscore.Rot>
1.5938

> <Gold.Chemscore.Internal.Correction>
   9.000000E+99

> <Gold.Chemscore.Hbonds>
donor molecule, donor type, donor heavy atom, donor atom, acceptor molecule, acceptor atom, score
      L1  H     3    22       P1  7948  0.70

> <Gold.Chemscore.Hbond.Weighted>
-2.8211

> <Gold.Chemscore.Metal.Weighted>
-0.0000

> <Gold.Chemscore.Lipo.Weighted>
-10.3916

> <Gold.Chemscore.Internal_Hbond.Weighted>
0.0000

> <Gold.Chemscore.DEClash.Weighted>
0.2934

> <Gold.Chemscore.DEInternal.Weighted>
0.4899

> <Gold.Chemscore.Rot.Weighted>
4.0802

> <Gold.Chemscore.Internal.Correction.Weighted>
   9.000000E+99

> <Gold.Protein.RotatedTorsions>
[ 6907 6896 6895 6894 ] final   88.31 input  -60.11 | X-H torsion
[ 7974 7965 7964 7962 ] final  -35.72 input  175.53 | X-H torsion
[ 8008 7997 7996 7995 ] final -101.97 input   59.86 | X-H torsion
[ 10167 10162 10161 10158 ] final  171.36 input  -65.29 | X-H torsion
[ 10718 10713 10712 10709 ] final -132.03 input   66.30 | X-H torsion
[ 10763 10752 10751 10750 ] final   39.12 input  -60.55 | X-H torsion
[ 11005 11000 10999 10996 ] final   85.07 input  -57.11 | X-H torsion

> <Gold.Protein.ActiveResidues>
 VAL166  LYS551  ARG553  GLY616  TRP617  ASP618  TYR619  PRO620  LYS621  CYS622 
 ASP623  PHE694  ASN695  SER759  ASP760  ASP761  ALA762  ILE779  LEU786  VAL792 
 PHE793  MET794  SER795  GLU796  ALA797  LYS798  CYS799  TRP800  GLU811  SER814 

> <Gold.Protein.RotatedAtoms>
  152.5423  134.2142  159.8761 H   0  0  0  0  0  0  0  0  0  0  0  0  # atno 6907 bound_to 6896
  151.2122  133.4542  159.2606 H   0  0  0  0  0  0  0  0  0  0  0  0  # atno 6908 bound_to 6896
  151.0885  134.9915  159.8447 H   0  0  0  0  0  0  0  0  0  0  0  0  # atno 6909 bound_to 6896
  146.0722  140.6193  142.8947 H   0  0  0  0  0  0  0  0  0  0  0  0  # atno 7974 bound_to 7965
  154.8500  140.0431  157.1598 H   0  0  0  0  0  0  0  0  0  0  0  0  # atno 8008 bound_to 7997
  154.8953  140.2992  155.5327 H   0  0  0  0  0  0  0  0  0  0  0  0  # atno 8009 bound_to 7997
  156.2996  140.2386  156.3973 H   0  0  0  0  0  0  0  0  0  0  0  0  # atno 8010 bound_to 7997
  139.5044  144.3494  151.9938 H   0  0  0  0  0  0  0  0  0  0  0  0  # atno 10167 bound_to 10162
  156.2304  130.7034  151.0852 H   0  0  0  0  0  0  0  0  0  0  0  0  # atno 10718 bound_to 10713
  152.9977  135.6229  154.2414 H   0  0  0  0  0  0  0  0  0  0  0  0  # atno 10763 bound_to 10752
  154.2155  135.2798  155.2945 H   0  0  0  0  0  0  0  0  0  0  0  0  # atno 10764 bound_to 10752
  154.5572  135.5716  153.7033 H   0  0  0  0  0  0  0  0  0  0  0  0  # atno 10765 bound_to 10752
  139.8982  134.8261  156.2532 H   0  0  0  0  0  0  0  0  0  0  0  0  # atno 11005 bound_to 11000
  144.7239  140.4462  143.6987 LP  0  0  0  0  0  0  0  0  0  0  0  0  # atno 17320 bound_to 7965
  145.6370  139.1544  143.2937 LP  0  0  0  0  0  0  0  0  0  0  0  0  # atno 17321 bound_to 7965
  140.2931  144.3731  150.6082 LP  0  0  0  0  0  0  0  0  0  0  0  0  # atno 17342 bound_to 10162
  140.5931  143.2167  151.7215 LP  0  0  0  0  0  0  0  0  0  0  0  0  # atno 17343 bound_to 10162
  157.7130  131.0724  150.6431 LP  0  0  0  0  0  0  0  0  0  0  0  0  # atno 17370 bound_to 10713
  156.6498  130.4482  149.5723 LP  0  0  0  0  0  0  0  0  0  0  0  0  # atno 17371 bound_to 10713
  141.0210  133.7041  156.1268 LP  0  0  0  0  0  0  0  0  0  0  0  0  # atno 17394 bound_to 11000
  140.7233  134.4334  157.5573 LP  0  0  0  0  0  0  0  0  0  0  0  0  # atno 17395 bound_to 11000

$$$$
