#       Name:                AV-unprocessed.smi:2671
#       Creating user name   scv26
#       Creation time:       Fri Mar 27 14:37:45 2020


#       File generated by GOLD software.
#

@<TRIPOS>MOLECULE
AV-unprocessed.smi:2671
    35    36     1
SMALL
NO_CHARGES


@<TRIPOS>ATOM
      1 ****        -3.8116  -2.9552   1.3944 O.3            1 S1                 0.0000
      2 ****        -3.1635  -1.7560   1.3944 C.ar           1 S1                 0.0000
      3 ****        -3.9085  -0.5585   1.4262 C.ar           1 S1                 0.0000
      4 ****        -3.1706   0.6480   1.4233 C.ar           1 S1                 0.0000
      5 ****        -3.8476   2.0098   1.4554 C.3            1 S1                 0.0000
      6 ****        -5.1758   1.8956   1.4822 F              1 S1                 0.0000
      7 ****        -3.4594   2.6800   2.5405 F              1 S1                 0.0000
      8 ****        -3.5055   2.7080   0.3724 F              1 S1                 0.0000
      9 ****        -1.8177   0.6466   1.3920 N.ar           1 S1                 0.0000
     10 ****        -1.2271  -0.5484   1.3645 C.ar           1 S1                 0.0000
     11 ****         0.5454  -0.5433   1.3199 S.3            1 S1                 0.0000
     12 ****         0.7907  -0.5620  -0.4771 C.3            1 S1                 0.0000
     13 ****         2.2780  -0.5139  -0.8523 C.3            1 S1                 0.0000
     14 ****         2.9837   0.7996  -0.4977 C.3            1 S1                 0.0000
     15 ****         4.0050   0.9911  -1.6112 C.3            1 S1                 0.0000
     16 ****         3.7621  -0.1900  -2.5502 C.3            1 S1                 0.0000
     17 ****         2.4337  -0.5943  -2.2603 O.3            1 S1                 0.0000
     18 ****        -1.8136  -1.7467   1.3628 N.ar           1 S1                 0.0000
     19 ****        -3.2175  -3.6895   1.3676 H              1 S1                 0.0000
     20 ****        -4.9883  -0.5709   1.4511 H              1 S1                 0.0000
     21 ****         0.3375  -1.4698  -0.8763 H              1 S1                 0.0000
     22 ****         0.2574   0.2797  -0.9200 H              1 S1                 0.0000
     23 ****         2.8077  -1.3551  -0.4014 H              1 S1                 0.0000
     24 ****         2.2805   1.6333  -0.4992 H              1 S1                 0.0000
     25 ****         3.4454   0.7567   0.4893 H              1 S1                 0.0000
     26 ****         3.8227   1.9349  -2.1263 H              1 S1                 0.0000
     27 ****         5.0298   1.0048  -1.2393 H              1 S1                 0.0000
     28 ****         3.8815   0.0752  -3.6010 H              1 S1                 0.0000
     29 ****         4.4463  -1.0095  -2.3246 H              1 S1                 0.0000
     30 ****        -4.4084  -2.9967   0.5931 LP             1 S1                 0.0000
     31 ****        -4.3642  -3.0206   2.2253 LP             1 S1                 0.0000
     32 ****        -1.2896   1.4958   1.3897 LP             1 S1                 0.0000
     33 ****         1.7821   0.0138  -2.7138 LP             1 S1                 0.0000
     34 ****         2.2844  -1.5334  -2.5699 LP             1 S1                 0.0000
     35 ****        -1.2817  -2.5932   1.3394 LP             1 S1                 0.0000
@<TRIPOS>BOND
    1    1    2 1     
    2    1   19 1     
    3    2   18 ar    
    4    2    3 ar    
    5    3    4 ar    
    6    3   20 1     
    7    4    5 1     
    8    4    9 ar    
    9    5    6 1     
   10    5    7 1     
   11    5    8 1     
   12    9   10 ar    
   13   10   11 1     
   14   10   18 ar    
   15   11   12 1     
   16   12   13 1     
   17   12   21 1     
   18   12   22 1     
   19   13   17 1     
   20   13   14 1     
   21   13   23 1     
   22   14   15 1     
   23   14   24 1     
   24   14   25 1     
   25   15   16 1     
   26   15   26 1     
   27   15   27 1     
   28   16   17 1     
   29   16   28 1     
   30   16   29 1     
   31    1   30 1     
   32    1   31 1     
   33    9   32 1     
   34   17   33 1     
   35   17   34 1     
   36   18   35 1     
@<TRIPOS>SUBSTRUCTURE
      1 S1             1
@<TRIPOS>SET
LONE_PAIRS      STATIC     ATOMS    <user>   **** ""
6 30 31 32 33 34 35
DONOR_HYDROGENS      STATIC     ATOMS    <user>   **** ""
1 19
ATOM$BLUE        STATIC     ATOMS    COLORGROUP SYSTEM
6 30 31 32 33 34 35
ATOM$RED        STATIC     ATOMS    COLORGROUP SYSTEM
1 19
