AV-unprocessed.smi:3094|AV-procd|sdf|11789|dock5
  -GOLD-   2272017163D 1   1.00000     0.00000
 Structure written by MMmdl.
 30 31  0  0  0  0  0  0  0  0  2 V2000
  149.6388  141.5313  154.4185 C   0  0  0  0  0  0  0  0  0  0  0  0
  150.2986  141.3418  155.7910 C   0  0  1  0  0  0  0  0  0  0  0  0
  151.5977  140.5149  155.6768 C   0  0  0  0  0  0  0  0  0  0  0  0
  151.3592  139.1304  155.2554 N   0  0  0  0  0  0  0  0  0  0  0  0
  151.5928  137.9905  155.9810 C   0  0  0  0  0  0  0  0  0  0  0  0
  151.2359  136.9370  155.1793 C   0  0  0  0  0  0  0  0  0  0  0  0
  150.7952  137.4780  154.0013 N   0  3  0  0  0  0  0  0  0  0  0  0
  150.8657  138.8119  154.0514 C   0  0  0  0  0  0  0  0  0  0  0  0
  150.5586  142.6580  156.3738 N   0  0  0  0  0  0  0  0  0  0  0  0
  151.1919  142.8937  157.5341 C   0  0  0  0  0  0  0  0  0  0  0  0
  151.6498  141.9972  158.2442 O   0  0  0  0  0  0  0  0  0  0  0  0
  151.3097  144.3423  157.8761 C   0  0  0  0  0  0  0  0  0  0  0  0
  152.1378  144.7069  159.0910 C   0  0  0  0  0  0  0  0  0  0  0  0
  150.6355  144.8246  159.1443 C   0  0  0  0  0  0  0  0  0  0  0  0
  149.3912  140.5706  153.9664 H   0  0  0  0  0  0  0  0  0  0  0  0
  150.2968  142.0631  153.7301 H   0  0  0  0  0  0  0  0  0  0  0  0
  148.7129  142.1015  154.5022 H   0  0  0  0  0  0  0  0  0  0  0  0
  149.5876  140.7977  156.4156 H   0  0  0  0  0  0  0  0  0  0  0  0
  152.2639  140.9603  154.9367 H   0  0  0  0  0  0  0  0  0  0  0  0
  152.1408  140.5057  156.6234 H   0  0  0  0  0  0  0  0  0  0  0  0
  151.9923  138.0130  156.9845 H   0  0  0  0  0  0  0  0  0  0  0  0
  151.2631  135.8714  155.3539 H   0  0  0  0  0  0  0  0  0  0  0  0
  150.5915  139.4960  153.2683 H   0  0  0  0  0  0  0  0  0  0  0  0
  150.2157  143.4557  155.8576 H   0  0  0  0  0  0  0  0  0  0  0  0
  151.3384  145.0400  157.0403 H   0  0  0  0  0  0  0  0  0  0  0  0
  152.5978  143.9054  159.6666 H   0  0  0  0  0  0  0  0  0  0  0  0
  152.7198  145.6244  159.0344 H   0  0  0  0  0  0  0  0  0  0  0  0
  150.2003  145.8216  159.1235 H   0  0  0  0  0  0  0  0  0  0  0  0
  150.0985  144.1021  159.7564 H   0  0  0  0  0  0  0  0  0  0  0  0
  150.4661  136.9473  153.2044 H   0  0  0  0  0  0  0  0  0  0  0  0
  1  2  1  0  0  0  0
  1 15  1  0  0  0  0
  1 16  1  0  0  0  0
  1 17  1  0  0  0  0
  2  3  1  0  0  0  0
  2  9  1  0  0  0  0
  2 18  1  0  0  0  0
  3  4  1  0  0  0  0
  3 19  1  0  0  0  0
  3 20  1  0  0  0  0
  4  8  1  0  0  0  0
  4  5  1  0  0  0  0
  5  6  2  0  0  0  0
  5 21  1  0  0  0  0
  6  7  1  0  0  0  0
  6 22  1  0  0  0  0
  7  8  2  0  0  0  0
  7 30  1  0  0  0  0
  8 23  1  0  0  0  0
  9 10  1  0  0  0  0
  9 24  1  0  0  0  0
 10 11  2  0  0  0  0
 10 12  1  0  0  0  0
 12 14  1  0  0  0  0
 12 13  1  0  0  0  0
 12 25  1  0  0  0  0
 13 14  1  0  0  0  0
 13 26  1  0  0  0  0
 13 27  1  0  0  0  0
 14 28  1  0  0  0  0
 14 29  1  0  0  0  0
M  CHG  1   7   1
M  END
> <s_m_source_file>
AV-unprocessed.smi

> <i_m_source_file_index>
3094

> <i_lp_mmshare_version>
43012

> <i_f3d_flags>
0

> <s_epik_input>
W0NIMl0xW0NIMl1bQ0hdMUMoPU8pW05IXVtDQEhdKFtDSDNdKVtDSDJdbjJbY0hdW2NIXW5bY0hdMg==

> <s_epik_cmdline>
J2VwaWtfcHl0aG9uJywgJy1waCcsICc3LjAnLCAnLXRuJywgJzgnLCAnLW1hJywgJzIwMCcsICctbWV0YWxfYmluZGluZycsICctaW1hZScsICc8aW5maWxlLm1hZT4nLCAnLW9tYWUnLCAnPG91dGZpbGUubWFlPic=

> <r_lp_tautomer_probability>
1

> <r_epik_Ionization_Penalty>
0.244425

> <r_epik_Ionization_Penalty_Charging>
0

> <r_epik_Ionization_Penalty_Neutral>
0.244425

> <r_epik_State_Penalty>
0.23553

> <r_epik_Charging_Adjusted_Penalty>
0.23553

> <i_epik_Tot_Q>
1

> <i_epik_Tot_abs_Q>
1

> <r_epik_Metal_State_Penalty>
0.528799

> <b_epik_Metal_Only>
0

> <s_lp_Force_Field>
OPLS_2005

> <r_lp_Energy>
8.84251

> <b_lp_Chiralities_Consistent>
1

> <s_lp_Variant>
AV-unprocessed.smi:3094-2

> <Gold.Version>
5.8.1

> <Gold.Id.Protein>
6NUR|6NUR_protein|mol2

> <Gold.PLP.Fitness>
46.8523

> <Gold.PLP.PLP>
-35.0028

> <Gold.PLP.part.hbond>
-2.7688

> <Gold.PLP.part.metal>
0.0000

> <Gold.PLP.part.buried>
-3.3218

> <Gold.PLP.part.nonpolar>
-29.7074

> <Gold.PLP.part.repulsive>
0.1498

> <Gold.PLP.ligand.clash>
0.0000

> <Gold.PLP.ligand.torsion>
0.1151

> <Gold.PLP.Chemscore.Hbond>
3.0000

> <Gold.PLP.Chemscore.CHOScore>
1.0000

> <Gold.PLP.Chemscore.Metal>
0.0000

> <Gold.Chemscore.Hbonds>
donor molecule, donor type, donor heavy atom, donor atom, acceptor molecule, acceptor atom, score
      L1  H     7    30       P1  7948  0.52
      L1  H     9    24       P1  8028  0.96
      L1  C     8    23       P1  7957  1.00

> <Gold.PLP.Chemscore.Internal.Correction>
0.0797

> <Gold.Rescore>
     Score         DG    S(hbond)    S(metal)    S(lipo)     H(rot)  DE(clash)    DE(int)     intcor
     14.43     -14.91       1.98        0.00      65.64       1.90       0.10       0.38       ----

> <Gold.Chemscore.Fitness>
14.4272

> <Gold.Chemscore.DG>
-14.9133

> <Gold.Chemscore.ZeroCoef>
-5.4800

> <Gold.Chemscore.Hbond>
1.9828

> <Gold.Chemscore.Metal>
0.0000

> <Gold.Chemscore.Lipo>
65.6372

> <Gold.Chemscore.Internal_Hbond>
0.0000

> <Gold.Chemscore.DEClash>
0.1025

> <Gold.Chemscore.DEInternal>
0.3836

> <Gold.Chemscore.Rot>
1.9019

> <Gold.Chemscore.Internal.Correction>
   9.000000E+99

> <Gold.Chemscore.Hbonds>
donor molecule, donor type, donor heavy atom, donor atom, acceptor molecule, acceptor atom, score
      L1  H     9    24       P1  8028  0.92

> <Gold.Chemscore.Hbond.Weighted>
-6.6227

> <Gold.Chemscore.Metal.Weighted>
-0.0000

> <Gold.Chemscore.Lipo.Weighted>
-7.6795

> <Gold.Chemscore.Internal_Hbond.Weighted>
0.0000

> <Gold.Chemscore.DEClash.Weighted>
0.1025

> <Gold.Chemscore.DEInternal.Weighted>
0.3836

> <Gold.Chemscore.Rot.Weighted>
4.8689

> <Gold.Chemscore.Internal.Correction.Weighted>
   9.000000E+99

> <Gold.Protein.RotatedTorsions>
[ 6907 6896 6895 6894 ] final   74.50 input  -60.11 | X-H torsion
[ 7974 7965 7964 7962 ] final  142.15 input  175.53 | X-H torsion
[ 8008 7997 7996 7995 ] final   63.10 input   59.86 | X-H torsion
[ 10167 10162 10161 10158 ] final  -49.74 input  -65.29 | X-H torsion
[ 10718 10713 10712 10709 ] final  -97.86 input   66.30 | X-H torsion
[ 10763 10752 10751 10750 ] final   25.52 input  -60.55 | X-H torsion
[ 11005 11000 10999 10996 ] final   81.81 input  -57.11 | X-H torsion

> <Gold.Protein.ActiveResidues>
 VAL166  LYS551  ARG553  GLY616  TRP617  ASP618  TYR619  PRO620  LYS621  CYS622 
 ASP623  PHE694  ASN695  SER759  ASP760  ASP761  ALA762  ILE779  LEU786  VAL792 
 PHE793  MET794  SER795  GLU796  ALA797  LYS798  CYS799  TRP800  GLU811  SER814 

> <Gold.Protein.RotatedAtoms>
  152.4979  134.4261  159.9496 H   0  0  0  0  0  0  0  0  0  0  0  0  # atno 6907 bound_to 6896
  151.4237  133.3684  159.2767 H   0  0  0  0  0  0  0  0  0  0  0  0  # atno 6908 bound_to 6896
  150.9204  134.8644  159.7545 H   0  0  0  0  0  0  0  0  0  0  0  0  # atno 6909 bound_to 6896
  144.9033  139.5392  143.5743 H   0  0  0  0  0  0  0  0  0  0  0  0  # atno 7974 bound_to 7965
  155.6249  140.3496  155.4664 H   0  0  0  0  0  0  0  0  0  0  0  0  # atno 8008 bound_to 7997
  156.0049  140.1221  157.0535 H   0  0  0  0  0  0  0  0  0  0  0  0  # atno 8009 bound_to 7997
  154.4261  140.1093  156.5735 H   0  0  0  0  0  0  0  0  0  0  0  0  # atno 8010 bound_to 7997
  140.6671  143.2685  151.4259 H   0  0  0  0  0  0  0  0  0  0  0  0  # atno 10167 bound_to 10162
  156.0093  130.5213  150.6437 H   0  0  0  0  0  0  0  0  0  0  0  0  # atno 10718 bound_to 10713
  153.0686  135.6581  154.0298 H   0  0  0  0  0  0  0  0  0  0  0  0  # atno 10763 bound_to 10752
  153.9949  135.2942  155.3410 H   0  0  0  0  0  0  0  0  0  0  0  0  # atno 10764 bound_to 10752
  154.7053  135.5228  153.8655 H   0  0  0  0  0  0  0  0  0  0  0  0  # atno 10765 bound_to 10752
  139.9085  134.8024  156.2090 H   0  0  0  0  0  0  0  0  0  0  0  0  # atno 11005 bound_to 11000
  146.3120  139.7781  142.9012 LP  0  0  0  0  0  0  0  0  0  0  0  0  # atno 17320 bound_to 7965
  145.3578  141.0320  143.3302 LP  0  0  0  0  0  0  0  0  0  0  0  0  # atno 17321 bound_to 7965
  139.5923  144.1471  152.2103 LP  0  0  0  0  0  0  0  0  0  0  0  0  # atno 17342 bound_to 10162
  140.0830  144.5685  150.7109 LP  0  0  0  0  0  0  0  0  0  0  0  0  # atno 17343 bound_to 10162
  157.4212  131.0837  151.1129 LP  0  0  0  0  0  0  0  0  0  0  0  0  # atno 17370 bound_to 10713
  157.1730  130.6276  149.5647 LP  0  0  0  0  0  0  0  0  0  0  0  0  # atno 17371 bound_to 10713
  141.0477  133.6905  156.1714 LP  0  0  0  0  0  0  0  0  0  0  0  0  # atno 17394 bound_to 11000
  140.6859  134.4718  157.5589 LP  0  0  0  0  0  0  0  0  0  0  0  0  # atno 17395 bound_to 11000

$$$$
