AV-unprocessed.smi:1035|AV-procd|sdf|4515|dock6
  -GOLD-   22720 2523D 1   1.00000     0.00000
 Structure written by MMmdl.
 42 43  0  0  0  0  0  0  0  0  1 V2000
  145.2644  142.4993  157.7875 C   0  0  0  0  0  0  0  0  0  0  0  0
  145.7665  142.5873  156.3569 C   0  0  0  0  0  0  0  0  0  0  0  0
  145.2853  143.5107  155.4965 C   0  0  0  0  0  0  0  0  0  0  0  0
  145.7640  143.5845  154.1376 C   0  0  0  0  0  0  0  0  0  0  0  0
  146.7034  142.7109  153.7488 C   0  0  0  0  0  0  0  0  0  0  0  0
  147.2237  141.7410  154.6258 N   0  0  0  0  0  0  0  0  0  0  0  0
  148.2487  140.8326  154.0831 C   0  0  0  0  0  0  0  0  0  0  0  0
  149.5995  140.9286  154.8074 C   0  0  0  0  0  0  0  0  0  0  0  0
  150.4705  140.0721  154.6472 O   0  0  0  0  0  0  0  0  0  0  0  0
  149.7628  141.9972  155.5995 N   0  0  0  0  0  0  0  0  0  0  0  0
  150.9655  142.2728  156.3758 C   0  0  0  0  0  0  0  0  0  0  0  0
  150.8400  141.7441  157.8149 C   0  0  0  0  0  0  0  0  0  0  0  0
  151.2379  142.7593  158.8765 C   0  0  0  0  0  0  0  0  0  0  0  0
  152.1711  142.4881  159.8098 C   0  0  0  0  0  0  0  0  0  0  0  0
  152.6201  143.4699  160.8781 C   0  0  0  0  0  0  0  0  0  0  0  0
  152.1615  144.9079  160.5822 C   0  0  0  0  0  0  0  0  0  0  0  0
  150.7058  144.9366  160.1004 C   0  0  0  0  0  0  0  0  0  0  0  0
  150.5235  144.1047  158.8183 C   0  0  0  0  0  0  0  0  0  0  0  0
  146.8013  141.6295  155.9237 C   0  0  0  0  0  0  0  0  0  0  0  0
  147.2653  140.7734  156.6795 O   0  0  0  0  0  0  0  0  0  0  0  0
  144.5106  143.2601  157.9928 H   0  0  0  0  0  0  0  0  0  0  0  0
  146.0861  142.6416  158.4901 H   0  0  0  0  0  0  0  0  0  0  0  0
  144.8162  141.5229  157.9743 H   0  0  0  0  0  0  0  0  0  0  0  0
  144.5268  144.2077  155.8226 H   0  0  0  0  0  0  0  0  0  0  0  0
  145.3728  144.3207  153.4510 H   0  0  0  0  0  0  0  0  0  0  0  0
  147.1095  142.6938  152.7476 H   0  0  0  0  0  0  0  0  0  0  0  0
  147.9077  139.7976  154.1361 H   0  0  0  0  0  0  0  0  0  0  0  0
  148.3986  141.0273  153.0193 H   0  0  0  0  0  0  0  0  0  0  0  0
  149.0025  142.6569  155.6795 H   0  0  0  0  0  0  0  0  0  0  0  0
  151.8255  141.8194  155.8807 H   0  0  0  0  0  0  0  0  0  0  0  0
  151.1457  143.3488  156.3961 H   0  0  0  0  0  0  0  0  0  0  0  0
  149.8131  141.4291  158.0026 H   0  0  0  0  0  0  0  0  0  0  0  0
  151.4545  140.8490  157.9217 H   0  0  0  0  0  0  0  0  0  0  0  0
  152.6442  141.5171  159.8309 H   0  0  0  0  0  0  0  0  0  0  0  0
  152.2165  143.1349  161.8341 H   0  0  0  0  0  0  0  0  0  0  0  0
  153.7066  143.4376  160.9633 H   0  0  0  0  0  0  0  0  0  0  0  0
  152.2804  145.5277  161.4714 H   0  0  0  0  0  0  0  0  0  0  0  0
  152.8009  145.3440  159.8134 H   0  0  0  0  0  0  0  0  0  0  0  0
  150.0613  144.5401  160.8862 H   0  0  0  0  0  0  0  0  0  0  0  0
  150.3835  145.9636  159.9263 H   0  0  0  0  0  0  0  0  0  0  0  0
  150.9115  144.6583  157.9626 H   0  0  0  0  0  0  0  0  0  0  0  0
  149.4600  143.9465  158.6362 H   0  0  0  0  0  0  0  0  0  0  0  0
  1  2  1  0  0  0  0
  1 21  1  0  0  0  0
  1 22  1  0  0  0  0
  1 23  1  0  0  0  0
  2 19  1  0  0  0  0
  2  3  2  0  0  0  0
  3  4  1  0  0  0  0
  3 24  1  0  0  0  0
  4  5  2  0  0  0  0
  4 25  1  0  0  0  0
  5  6  1  0  0  0  0
  5 26  1  0  0  0  0
  6  7  1  0  0  0  0
  6 19  1  0  0  0  0
  7  8  1  0  0  0  0
  7 27  1  0  0  0  0
  7 28  1  0  0  0  0
  8  9  2  0  0  0  0
  8 10  1  0  0  0  0
 10 11  1  0  0  0  0
 10 29  1  0  0  0  0
 11 12  1  0  0  0  0
 11 30  1  0  0  0  0
 11 31  1  0  0  0  0
 12 13  1  0  0  0  0
 12 32  1  0  0  0  0
 12 33  1  0  0  0  0
 13 18  1  0  0  0  0
 13 14  2  0  0  0  0
 14 15  1  0  0  0  0
 14 34  1  0  0  0  0
 15 16  1  0  0  0  0
 15 35  1  0  0  0  0
 15 36  1  0  0  0  0
 16 17  1  0  0  0  0
 16 37  1  0  0  0  0
 16 38  1  0  0  0  0
 17 18  1  0  0  0  0
 17 39  1  0  0  0  0
 17 40  1  0  0  0  0
 18 41  1  0  0  0  0
 18 42  1  0  0  0  0
 19 20  2  0  0  0  0
M  END
> <s_m_source_file>
AV-unprocessed.smi

> <i_m_source_file_index>
1035

> <i_lp_mmshare_version>
43012

> <i_f3d_flags>
0

> <s_epik_input>
W0NIM11jMVtjSF1bY0hdW2NIXW4oYzE9TylbQ0gyXUMoPU8pW05IXVtDSDJdW0NIMl1DMj1bQ0hdW0NIMl1bQ0gyXVtDSDJdW0NIMl0y

> <s_epik_cmdline>
J2VwaWtfcHl0aG9uJywgJy1waCcsICc3LjAnLCAnLXRuJywgJzgnLCAnLW1hJywgJzIwMCcsICctbWV0YWxfYmluZGluZycsICctaW1hZScsICc8aW5maWxlLm1hZT4nLCAnLW9tYWUnLCAnPG91dGZpbGUubWFlPic=

> <r_lp_tautomer_probability>
1

> <r_epik_Ionization_Penalty>
7.80073e-07

> <r_epik_Ionization_Penalty_Charging>
7.6197e-07

> <r_epik_Ionization_Penalty_Neutral>
1.81035e-08

> <r_epik_State_Penalty>
-0

> <r_epik_Charging_Adjusted_Penalty>
7.6197e-07

> <i_epik_Tot_Q>
0

> <i_epik_Tot_abs_Q>
0

> <r_epik_Metal_State_Penalty>
-0

> <b_epik_Metal_Only>
0

> <s_lp_Force_Field>
OPLS_2005

> <r_lp_Energy>
17.5966

> <b_lp_Chiralities_Consistent>
1

> <s_lp_Variant>
AV-unprocessed.smi:1035-1

> <Gold.Version>
5.8.1

> <Gold.Id.Protein>
6NUR|6NUR_protein|mol2

> <Gold.PLP.Fitness>
47.1559

> <Gold.PLP.PLP>
-43.7613

> <Gold.PLP.part.hbond>
-2.0000

> <Gold.PLP.part.metal>
0.0000

> <Gold.PLP.part.buried>
-7.8920

> <Gold.PLP.part.nonpolar>
-34.2365

> <Gold.PLP.part.repulsive>
0.2651

> <Gold.PLP.ligand.clash>
0.0000

> <Gold.PLP.ligand.torsion>
0.7172

> <Gold.PLP.Chemscore.Hbond>
1.5970

> <Gold.PLP.Chemscore.CHOScore>
0.0000

> <Gold.PLP.Chemscore.Metal>
0.0000

> <Gold.Chemscore.Hbonds>
donor molecule, donor type, donor heavy atom, donor atom, acceptor molecule, acceptor atom, score
      L1  H    10    29       P1  8028  0.64
      P1  H  7989  7998       L1     9  1.00

> <Gold.PLP.Chemscore.Internal.Correction>
0.0381

> <Gold.Rescore>
     Score         DG    S(hbond)    S(metal)    S(lipo)     H(rot)  DE(clash)    DE(int)     intcor
     17.13     -17.98       1.43        0.00     101.63       1.63       0.08       0.76       ----

> <Gold.Chemscore.Fitness>
17.1333

> <Gold.Chemscore.DG>
-17.9763

> <Gold.Chemscore.ZeroCoef>
-5.4800

> <Gold.Chemscore.Hbond>
1.4316

> <Gold.Chemscore.Metal>
0.0000

> <Gold.Chemscore.Lipo>
101.6291

> <Gold.Chemscore.Internal_Hbond>
0.0000

> <Gold.Chemscore.DEClash>
0.0850

> <Gold.Chemscore.DEInternal>
0.7580

> <Gold.Chemscore.Rot>
1.6311

> <Gold.Chemscore.Internal.Correction>
   9.000000E+99

> <Gold.Chemscore.Hbonds>
donor molecule, donor type, donor heavy atom, donor atom, acceptor molecule, acceptor atom, score
      L1  H    10    29       P1  8028  0.60
      P1  H  7989  7998       L1     9  0.40

> <Gold.Chemscore.Hbond.Weighted>
-4.7814

> <Gold.Chemscore.Metal.Weighted>
-0.0000

> <Gold.Chemscore.Lipo.Weighted>
-11.8906

> <Gold.Chemscore.Internal_Hbond.Weighted>
0.0000

> <Gold.Chemscore.DEClash.Weighted>
0.0850

> <Gold.Chemscore.DEInternal.Weighted>
0.7580

> <Gold.Chemscore.Rot.Weighted>
4.1757

> <Gold.Chemscore.Internal.Correction.Weighted>
   9.000000E+99

> <Gold.Protein.RotatedTorsions>
[ 6907 6896 6895 6894 ] final   98.32 input  -60.11 | X-H torsion
[ 7974 7965 7964 7962 ] final -111.58 input  175.53 | X-H torsion
[ 8008 7997 7996 7995 ] final   96.97 input   59.86 | X-H torsion
[ 10167 10162 10161 10158 ] final  167.90 input  -65.29 | X-H torsion
[ 10718 10713 10712 10709 ] final   -6.99 input   66.30 | X-H torsion
[ 10763 10752 10751 10750 ] final  -68.95 input  -60.55 | X-H torsion
[ 11005 11000 10999 10996 ] final  169.04 input  -57.11 | X-H torsion

> <Gold.Protein.ActiveResidues>
 VAL166  LYS551  ARG553  GLY616  TRP617  ASP618  TYR619  PRO620  LYS621  CYS622 
 ASP623  PHE694  ASN695  SER759  ASP760  ASP761  ALA762  ILE779  LEU786  VAL792 
 PHE793  MET794  SER795  GLU796  ALA797  LYS798  CYS799  TRP800  GLU811  SER814 

> <Gold.Protein.RotatedAtoms>
  152.5411  134.0599  159.8147 H   0  0  0  0  0  0  0  0  0  0  0  0  # atno 6907 bound_to 6896
  151.0728  133.5445  159.2633 H   0  0  0  0  0  0  0  0  0  0  0  0  # atno 6908 bound_to 6896
  151.2301  135.0559  159.9038 H   0  0  0  0  0  0  0  0  0  0  0  0  # atno 6909 bound_to 6896
  145.1544  140.8846  143.3627 H   0  0  0  0  0  0  0  0  0  0  0  0  # atno 7974 bound_to 7965
  156.0852  140.3265  155.7745 H   0  0  0  0  0  0  0  0  0  0  0  0  # atno 8008 bound_to 7997
  155.5087  140.0575  157.2944 H   0  0  0  0  0  0  0  0  0  0  0  0  # atno 8009 bound_to 7997
  154.4605  140.1964  156.0274 H   0  0  0  0  0  0  0  0  0  0  0  0  # atno 8010 bound_to 7997
  139.4955  144.3872  151.9557 H   0  0  0  0  0  0  0  0  0  0  0  0  # atno 10167 bound_to 10162
  156.7238  130.5159  149.5862 H   0  0  0  0  0  0  0  0  0  0  0  0  # atno 10718 bound_to 10713
  154.3964  135.6041  153.5872 H   0  0  0  0  0  0  0  0  0  0  0  0  # atno 10763 bound_to 10752
  152.9788  135.5896  154.4236 H   0  0  0  0  0  0  0  0  0  0  0  0  # atno 10764 bound_to 10752
  154.4028  135.2843  155.2064 H   0  0  0  0  0  0  0  0  0  0  0  0  # atno 10765 bound_to 10752
  140.2935  134.7654  157.3858 H   0  0  0  0  0  0  0  0  0  0  0  0  # atno 11005 bound_to 11000
  145.0396  139.3271  143.5983 LP  0  0  0  0  0  0  0  0  0  0  0  0  # atno 17320 bound_to 7965
  146.3490  139.9765  142.8700 LP  0  0  0  0  0  0  0  0  0  0  0  0  # atno 17321 bound_to 7965
  140.3309  144.3317  150.5987 LP  0  0  0  0  0  0  0  0  0  0  0  0  # atno 17342 bound_to 10162
  140.5646  143.2188  151.7706 LP  0  0  0  0  0  0  0  0  0  0  0  0  # atno 17343 bound_to 10162
  156.1576  130.6352  151.0677 LP  0  0  0  0  0  0  0  0  0  0  0  0  # atno 17370 bound_to 10713
  157.6887  131.0817  150.7170 LP  0  0  0  0  0  0  0  0  0  0  0  0  # atno 17371 bound_to 10713
  140.1174  134.5265  155.8213 LP  0  0  0  0  0  0  0  0  0  0  0  0  # atno 17394 bound_to 11000
  141.2142  133.6744  156.6801 LP  0  0  0  0  0  0  0  0  0  0  0  0  # atno 17395 bound_to 11000

$$$$
