AV-unprocessed.smi:2037|AV-procd|sdf|8278|dock7
  -GOLD-   2272010543D 1   1.00000     0.00000
 Structure written by MMmdl.
 38 39  0  0  0  0  0  0  0  0  3 V2000
  150.3325  141.4812  156.0158 C   0  0  0  0  0  0  0  0  0  0  0  0
  149.1883  140.7573  155.2926 C   0  0  2  0  0  0  0  0  0  0  0  0
  149.6889  139.5237  154.5238 C   0  0  0  0  0  0  0  0  0  0  0  0
  148.5363  138.8209  153.7872 C   0  0  0  0  0  0  0  0  0  0  0  0
  147.8343  139.7514  152.8650 N   0  3  1  0  0  0  0  0  0  0  0  0
  146.7979  139.0564  152.0605 C   0  0  0  0  0  0  0  0  0  0  0  0
  146.0289  138.0006  152.8701 C   0  0  0  0  0  0  0  0  0  0  0  0
  146.3874  136.6631  152.4201 N   0  0  0  0  0  0  0  0  0  0  0  0
  145.5176  135.6901  152.1202 C   0  0  0  0  0  0  0  0  0  0  0  0
  144.3062  135.8986  152.2178 O   0  0  0  0  0  0  0  0  0  0  0  0
  146.1075  134.5392  151.7268 N   0  5  0  0  0  0  0  0  0  0  0  0
  145.3590  133.5178  151.2791 C   0  0  0  0  0  0  0  0  0  0  0  0
  144.1289  133.6819  150.7796 N   0  0  0  0  0  0  0  0  0  0  0  0
  143.5267  132.4866  150.3824 C   0  0  0  0  0  0  0  0  0  0  0  0
  144.3143  131.3857  150.5907 C   0  0  0  0  0  0  0  0  0  0  0  0
  145.8444  131.8197  151.2982 S   0  0  0  0  0  0  0  0  0  0  0  0
  147.3174  140.9458  153.5857 C   0  0  0  0  0  0  0  0  0  0  0  0
  148.4475  141.6885  154.3190 C   0  0  0  0  0  0  0  0  0  0  0  0
  151.0854  141.8382  155.3125 H   0  0  0  0  0  0  0  0  0  0  0  0
  150.8282  140.8190  156.7263 H   0  0  0  0  0  0  0  0  0  0  0  0
  149.9621  142.3421  156.5731 H   0  0  0  0  0  0  0  0  0  0  0  0
  148.4778  140.4220  156.0498 H   0  0  0  0  0  0  0  0  0  0  0  0
  150.4542  139.8196  153.8045 H   0  0  0  0  0  0  0  0  0  0  0  0
  150.1653  138.8232  155.2108 H   0  0  0  0  0  0  0  0  0  0  0  0
  148.9369  137.9765  153.2246 H   0  0  0  0  0  0  0  0  0  0  0  0
  147.8236  138.4134  154.5058 H   0  0  0  0  0  0  0  0  0  0  0  0
  146.0769  139.7900  151.6962 H   0  0  0  0  0  0  0  0  0  0  0  0
  147.2552  138.6088  151.1763 H   0  0  0  0  0  0  0  0  0  0  0  0
  146.2532  138.0835  153.9336 H   0  0  0  0  0  0  0  0  0  0  0  0
  144.9536  138.1419  152.7517 H   0  0  0  0  0  0  0  0  0  0  0  0
  147.3702  136.4518  152.3266 H   0  0  0  0  0  0  0  0  0  0  0  0
  142.5328  132.5132  149.9611 H   0  0  0  0  0  0  0  0  0  0  0  0
  144.0894  130.3524  150.3744 H   0  0  0  0  0  0  0  0  0  0  0  0
  146.8434  141.6360  152.8892 H   0  0  0  0  0  0  0  0  0  0  0  0
  146.5488  140.6386  154.2967 H   0  0  0  0  0  0  0  0  0  0  0  0
  148.0342  142.5409  154.8592 H   0  0  0  0  0  0  0  0  0  0  0  0
  149.1486  142.0967  153.5894 H   0  0  0  0  0  0  0  0  0  0  0  0
  148.5302  140.0791  152.2105 H   0  0  0  0  0  0  0  0  0  0  0  0
  1  2  1  0  0  0  0
  1 19  1  0  0  0  0
  1 20  1  0  0  0  0
  1 21  1  0  0  0  0
  2 18  1  0  0  0  0
  2  3  1  0  0  0  0
  2 22  1  0  0  0  0
  3  4  1  0  0  0  0
  3 23  1  0  0  0  0
  3 24  1  0  0  0  0
  4  5  1  0  0  0  0
  4 25  1  0  0  0  0
  4 26  1  0  0  0  0
  5  6  1  0  0  0  0
  5 17  1  0  0  0  0
  5 38  1  0  0  0  0
  6  7  1  0  0  0  0
  6 27  1  0  0  0  0
  6 28  1  0  0  0  0
  7  8  1  0  0  0  0
  7 29  1  0  0  0  0
  7 30  1  0  0  0  0
  8  9  1  0  0  0  0
  8 31  1  0  0  0  0
  9 10  2  0  0  0  0
  9 11  1  0  0  0  0
 11 12  1  0  0  0  0
 12 16  1  0  0  0  0
 12 13  2  0  0  0  0
 13 14  1  0  0  0  0
 14 15  2  0  0  0  0
 14 32  1  0  0  0  0
 15 16  1  0  0  0  0
 15 33  1  0  0  0  0
 17 18  1  0  0  0  0
 17 34  1  0  0  0  0
 17 35  1  0  0  0  0
 18 36  1  0  0  0  0
 18 37  1  0  0  0  0
M  CHG  1   5   1
M  CHG  1  11  -1
M  END
> <s_m_source_file>
AV-unprocessed.smi

> <i_m_source_file_index>
2037

> <i_lp_mmshare_version>
43012

> <i_f3d_flags>
0

> <s_epik_input>
W0NIM11bQ0hdMVtDSDJdW0NIMl1OKFtDSDJdW0NIMl0xKVtDSDJdW0NIMl1bTkhdQyg9TylbTkhdYzJuW2NIXVtjSF1zMg==

> <s_epik_cmdline>
J2VwaWtfcHl0aG9uJywgJy1waCcsICc3LjAnLCAnLXRuJywgJzgnLCAnLW1hJywgJzIwMCcsICctbWV0YWxfYmluZGluZycsICctaW1hZScsICc8aW5maWxlLm1hZT4nLCAnLW9tYWUnLCAnPG91dGZpbGUubWFlPic=

> <r_lp_tautomer_probability>
0.999

> <r_epik_Ionization_Penalty>
6.22113

> <r_epik_Ionization_Penalty_Charging>
5.39005

> <r_epik_Ionization_Penalty_Neutral>
0.831074

> <r_epik_State_Penalty>
5.38997

> <r_epik_Charging_Adjusted_Penalty>
10.78

> <i_epik_Tot_Q>
0

> <i_epik_Tot_abs_Q>
2

> <r_epik_Metal_State_Penalty>
1.41601

> <b_epik_Metal_Only>
1

> <s_lp_Force_Field>
OPLS_2005

> <r_lp_Energy>
7.40316

> <b_lp_Chiralities_Consistent>
1

> <s_lp_Variant>
AV-unprocessed.smi:2037-3

> <Gold.Version>
5.8.1

> <Gold.Id.Protein>
6NUR|6NUR_protein|mol2

> <Gold.PLP.Fitness>
42.7805

> <Gold.PLP.PLP>
-34.1144

> <Gold.PLP.part.hbond>
-1.8802

> <Gold.PLP.part.metal>
0.0000

> <Gold.PLP.part.buried>
-3.6408

> <Gold.PLP.part.nonpolar>
-30.3290

> <Gold.PLP.part.repulsive>
0.5309

> <Gold.PLP.ligand.clash>
0.0000

> <Gold.PLP.ligand.torsion>
0.8027

> <Gold.PLP.Chemscore.Hbond>
1.9913

> <Gold.PLP.Chemscore.CHOScore>
1.4099

> <Gold.PLP.Chemscore.Metal>
0.0000

> <Gold.Chemscore.Hbonds>
donor molecule, donor type, donor heavy atom, donor atom, acceptor molecule, acceptor atom, score
      L1  H     5    38       P1  7957  0.91
      L1  H     8    31       P1  7948  1.00
      L1  C    14    32       P1 10186  1.00
      L1  C    14    32       P1 10952  0.36

> <Gold.PLP.Chemscore.Internal.Correction>
0.0680

> <Gold.Rescore>
     Score         DG    S(hbond)    S(metal)    S(lipo)     H(rot)  DE(clash)    DE(int)     intcor
     15.74     -18.18       1.97        0.00      86.59       1.57       0.05       2.40       ----

> <Gold.Chemscore.Fitness>
15.7360

> <Gold.Chemscore.DG>
-18.1834

> <Gold.Chemscore.ZeroCoef>
-5.4800

> <Gold.Chemscore.Hbond>
1.9717

> <Gold.Chemscore.Metal>
0.0000

> <Gold.Chemscore.Lipo>
86.5905

> <Gold.Chemscore.Internal_Hbond>
0.0000

> <Gold.Chemscore.DEClash>
0.0518

> <Gold.Chemscore.DEInternal>
2.3957

> <Gold.Chemscore.Rot>
1.5676

> <Gold.Chemscore.Internal.Correction>
   9.000000E+99

> <Gold.Chemscore.Hbonds>
donor molecule, donor type, donor heavy atom, donor atom, acceptor molecule, acceptor atom, score
      L1  H     5    38       P1  7957  0.87
      L1  H     8    31       P1  7948  1.00

> <Gold.Chemscore.Hbond.Weighted>
-6.5854

> <Gold.Chemscore.Metal.Weighted>
-0.0000

> <Gold.Chemscore.Lipo.Weighted>
-10.1311

> <Gold.Chemscore.Internal_Hbond.Weighted>
0.0000

> <Gold.Chemscore.DEClash.Weighted>
0.0518

> <Gold.Chemscore.DEInternal.Weighted>
2.3957

> <Gold.Chemscore.Rot.Weighted>
4.0130

> <Gold.Chemscore.Internal.Correction.Weighted>
   9.000000E+99

> <Gold.Protein.RotatedTorsions>
[ 6907 6896 6895 6894 ] final   85.97 input  -60.11 | X-H torsion
[ 7974 7965 7964 7962 ] final  172.81 input  175.53 | X-H torsion
[ 8008 7997 7996 7995 ] final   84.20 input   59.86 | X-H torsion
[ 10167 10162 10161 10158 ] final  102.81 input  -65.29 | X-H torsion
[ 10718 10713 10712 10709 ] final  -86.78 input   66.30 | X-H torsion
[ 10763 10752 10751 10750 ] final -130.86 input  -60.55 | X-H torsion
[ 11005 11000 10999 10996 ] final  -54.08 input  -57.11 | X-H torsion

> <Gold.Protein.ActiveResidues>
 VAL166  LYS551  ARG553  GLY616  TRP617  ASP618  TYR619  PRO620  LYS621  CYS622 
 ASP623  PHE694  ASN695  SER759  ASP760  ASP761  ALA762  ILE779  LEU786  VAL792 
 PHE793  MET794  SER795  GLU796  ALA797  LYS798  CYS799  TRP800  GLU811  SER814 

> <Gold.Protein.RotatedAtoms>
  152.5385  134.2503  159.8896 H   0  0  0  0  0  0  0  0  0  0  0  0  # atno 6907 bound_to 6896
  151.2467  133.4364  159.2617 H   0  0  0  0  0  0  0  0  0  0  0  0  # atno 6908 bound_to 6896
  151.0577  134.9729  159.8300 H   0  0  0  0  0  0  0  0  0  0  0  0  # atno 6909 bound_to 6896
  144.7259  139.9554  143.6433 H   0  0  0  0  0  0  0  0  0  0  0  0  # atno 7974 bound_to 7965
  155.9339  140.3413  155.6272 H   0  0  0  0  0  0  0  0  0  0  0  0  # atno 8008 bound_to 7997
  155.7123  140.0773  157.2384 H   0  0  0  0  0  0  0  0  0  0  0  0  # atno 8009 bound_to 7997
  154.4090  140.1620  156.2297 H   0  0  0  0  0  0  0  0  0  0  0  0  # atno 8010 bound_to 7997
  139.7317  144.7034  151.0711 H   0  0  0  0  0  0  0  0  0  0  0  0  # atno 10167 bound_to 10162
  155.9988  130.4777  150.4767 H   0  0  0  0  0  0  0  0  0  0  0  0  # atno 10718 bound_to 10713
  154.8754  135.3849  154.4152 H   0  0  0  0  0  0  0  0  0  0  0  0  # atno 10763 bound_to 10752
  153.4861  135.7030  153.5915 H   0  0  0  0  0  0  0  0  0  0  0  0  # atno 10764 bound_to 10752
  153.4309  135.3879  155.2137 H   0  0  0  0  0  0  0  0  0  0  0  0  # atno 10765 bound_to 10752
  141.1008  133.6618  156.4267 H   0  0  0  0  0  0  0  0  0  0  0  0  # atno 11005 bound_to 11000
  146.0679  139.3669  143.0541 LP  0  0  0  0  0  0  0  0  0  0  0  0  # atno 17320 bound_to 7965
  145.8007  140.9772  143.1000 LP  0  0  0  0  0  0  0  0  0  0  0  0  # atno 17321 bound_to 7965
  140.7772  143.5034  150.9742 LP  0  0  0  0  0  0  0  0  0  0  0  0  # atno 17342 bound_to 10162
  139.8723  143.7177  152.3165 LP  0  0  0  0  0  0  0  0  0  0  0  0  # atno 17343 bound_to 10162
  157.2776  131.0600  151.2219 LP  0  0  0  0  0  0  0  0  0  0  0  0  # atno 17370 bound_to 10713
  157.3276  130.6969  149.6306 LP  0  0  0  0  0  0  0  0  0  0  0  0  # atno 17371 bound_to 10713
  140.5027  134.6470  157.5254 LP  0  0  0  0  0  0  0  0  0  0  0  0  # atno 17394 bound_to 11000
  139.9859  134.7062  155.9775 LP  0  0  0  0  0  0  0  0  0  0  0  0  # atno 17395 bound_to 11000

$$$$
