AV-unprocessed.smi:702|AV-procd|sdf|3422|dock8
  -GOLD-   22720 0403D 1   1.00000     0.00000
 Structure written by MMmdl.
 50 52  0  0  0  0  0  0  0  0  2 V2000
  150.9750  135.6708  156.1608 C   0  0  0  0  0  0  0  0  0  0  0  0
  149.8007  136.4868  155.5736 C   0  0  2  0  0  0  0  0  0  0  0  0
  149.1800  135.7021  154.4996 N   0  0  0  0  0  0  0  0  0  0  0  0
  148.7740  134.4270  154.5891 C   0  0  0  0  0  0  0  0  0  0  0  0
  148.8742  133.7495  155.6118 O   0  0  0  0  0  0  0  0  0  0  0  0
  148.2727  133.9925  153.4200 N   0  0  0  0  0  0  0  0  0  0  0  0
  147.7487  132.7074  153.1137 C   0  0  0  0  0  0  0  0  0  0  0  0
  146.6748  132.6351  152.1989 C   0  0  0  0  0  0  0  0  0  0  0  0
  146.1172  131.3801  151.8790 C   0  0  0  0  0  0  0  0  0  0  0  0
  146.6041  130.2609  152.4568 N   0  3  0  0  0  0  0  0  0  0  0  0
  147.6176  130.2815  153.3490 C   0  0  0  0  0  0  0  0  0  0  0  0
  148.2157  131.5070  153.7070 C   0  0  0  0  0  0  0  0  0  0  0  0
  150.1967  137.9354  155.0962 C   0  0  0  0  0  0  0  0  0  0  0  0
  149.0127  138.6873  154.5731 N   0  0  0  0  0  0  0  0  0  0  0  0
  147.8817  138.8074  155.5076 C   0  0  0  0  0  0  0  0  0  0  0  0
  146.6538  139.4574  154.8497 C   0  0  0  0  0  0  0  0  0  0  0  0
  147.0068  140.7436  154.3572 O   0  0  0  0  0  0  0  0  0  0  0  0
  148.0678  140.6881  153.4123 C   0  0  0  0  0  0  0  0  0  0  0  0
  149.3048  140.0308  154.0495 C   0  0  0  0  0  0  0  0  0  0  0  0
  150.8741  138.6740  156.3010 C   0  0  0  0  0  0  0  0  0  0  0  0
  152.3538  138.8709  155.9596 C   0  0  0  0  0  0  0  0  0  0  0  0
  152.4144  138.8512  154.4404 C   0  0  0  0  0  0  0  0  0  0  0  0
  151.3402  137.8421  154.0352 C   0  0  0  0  0  0  0  0  0  0  0  0
  151.4435  136.1731  157.0066 H   0  0  0  0  0  0  0  0  0  0  0  0
  151.7535  135.4834  155.4221 H   0  0  0  0  0  0  0  0  0  0  0  0
  150.6320  134.7009  156.5224 H   0  0  0  0  0  0  0  0  0  0  0  0
  149.0458  136.5892  156.3538 H   0  0  0  0  0  0  0  0  0  0  0  0
  149.0579  136.1763  153.6167 H   0  0  0  0  0  0  0  0  0  0  0  0
  148.3405  134.6325  152.6420 H   0  0  0  0  0  0  0  0  0  0  0  0
  146.2841  133.5307  151.7376 H   0  0  0  0  0  0  0  0  0  0  0  0
  145.3017  131.2392  151.1847 H   0  0  0  0  0  0  0  0  0  0  0  0
  147.9141  129.3241  153.7518 H   0  0  0  0  0  0  0  0  0  0  0  0
  149.0112  131.5052  154.4367 H   0  0  0  0  0  0  0  0  0  0  0  0
  147.5755  137.8426  155.9036 H   0  0  0  0  0  0  0  0  0  0  0  0
  148.1682  139.4120  156.3681 H   0  0  0  0  0  0  0  0  0  0  0  0
  146.2747  138.8362  154.0367 H   0  0  0  0  0  0  0  0  0  0  0  0
  145.8475  139.5638  155.5753 H   0  0  0  0  0  0  0  0  0  0  0  0
  147.7495  140.1319  152.5293 H   0  0  0  0  0  0  0  0  0  0  0  0
  148.3040  141.7003  153.0842 H   0  0  0  0  0  0  0  0  0  0  0  0
  149.6805  140.6762  154.8429 H   0  0  0  0  0  0  0  0  0  0  0  0
  150.0755  139.9992  153.2830 H   0  0  0  0  0  0  0  0  0  0  0  0
  150.4155  139.6372  156.5130 H   0  0  0  0  0  0  0  0  0  0  0  0
  150.7889  138.1389  157.2461 H   0  0  0  0  0  0  0  0  0  0  0  0
  152.7624  139.7890  156.3823 H   0  0  0  0  0  0  0  0  0  0  0  0
  152.9349  138.0374  156.3562 H   0  0  0  0  0  0  0  0  0  0  0  0
  152.1704  139.8389  154.0488 H   0  0  0  0  0  0  0  0  0  0  0  0
  153.4022  138.5830  154.0647 H   0  0  0  0  0  0  0  0  0  0  0  0
  151.7964  136.8525  154.0241 H   0  0  0  0  0  0  0  0  0  0  0  0
  151.0108  138.0122  153.0111 H   0  0  0  0  0  0  0  0  0  0  0  0
  146.1859  129.3626  152.2127 H   0  0  0  0  0  0  0  0  0  0  0  0
  1  2  1  0  0  0  0
  1 24  1  0  0  0  0
  1 25  1  0  0  0  0
  1 26  1  0  0  0  0
  2  3  1  0  0  0  0
  2 13  1  0  0  0  0
  2 27  1  0  0  0  0
  3  4  1  0  0  0  0
  3 28  1  0  0  0  0
  4  5  2  0  0  0  0
  4  6  1  0  0  0  0
  6  7  1  0  0  0  0
  6 29  1  0  0  0  0
  7 12  1  0  0  0  0
  7  8  2  0  0  0  0
  8  9  1  0  0  0  0
  8 30  1  0  0  0  0
  9 10  2  0  0  0  0
  9 31  1  0  0  0  0
 10 11  1  0  0  0  0
 10 50  1  0  0  0  0
 11 12  2  0  0  0  0
 11 32  1  0  0  0  0
 12 33  1  0  0  0  0
 13 23  1  0  0  0  0
 13 14  1  0  0  0  0
 13 20  1  0  0  0  0
 14 19  1  0  0  0  0
 14 15  1  0  0  0  0
 15 16  1  0  0  0  0
 15 34  1  0  0  0  0
 15 35  1  0  0  0  0
 16 17  1  0  0  0  0
 16 36  1  0  0  0  0
 16 37  1  0  0  0  0
 17 18  1  0  0  0  0
 18 19  1  0  0  0  0
 18 38  1  0  0  0  0
 18 39  1  0  0  0  0
 19 40  1  0  0  0  0
 19 41  1  0  0  0  0
 20 21  1  0  0  0  0
 20 42  1  0  0  0  0
 20 43  1  0  0  0  0
 21 22  1  0  0  0  0
 21 44  1  0  0  0  0
 21 45  1  0  0  0  0
 22 23  1  0  0  0  0
 22 46  1  0  0  0  0
 22 47  1  0  0  0  0
 23 48  1  0  0  0  0
 23 49  1  0  0  0  0
M  CHG  1  10   1
M  END
> <s_m_source_file>
AV-unprocessed.smi

> <i_m_source_file_index>
702

> <i_lp_mmshare_version>
43012

> <i_f3d_flags>
0

> <s_epik_input>
W0NIMl0xW0NIMl1PW0NIMl1bQ0gyXU4xQzIoW0NIMl1bQ0gyXVtDSDJdW0NIMl0yKVtDQEhdKFtDSDNdKVtOSF1DKD1PKVtOSF1jM1tjSF1bY0hdbltjSF1bY0hdMw==

> <s_epik_cmdline>
J2VwaWtfcHl0aG9uJywgJy1waCcsICc3LjAnLCAnLXRuJywgJzgnLCAnLW1hJywgJzIwMCcsICctbWV0YWxfYmluZGluZycsICctaW1hZScsICc8aW5maWxlLm1hZT4nLCAnLW9tYWUnLCAnPG91dGZpbGUubWFlPic=

> <r_epik_Ionization_Penalty>
1.54019

> <r_epik_Ionization_Penalty_Charging>
1.02845

> <r_epik_Ionization_Penalty_Neutral>
0.511739

> <r_epik_State_Penalty>
1.62583

> <r_epik_Charging_Adjusted_Penalty>
2.65428

> <i_epik_Tot_Q>
1

> <i_epik_Tot_abs_Q>
1

> <r_epik_Metal_State_Penalty>
1.71803

> <b_epik_Metal_Only>
0

> <s_lp_Force_Field>
OPLS_2005

> <r_lp_Energy>
73.3397

> <b_lp_Chiralities_Consistent>
1

> <s_lp_Variant>
AV-unprocessed.smi:702-7

> <Gold.Version>
5.8.1

> <Gold.Id.Protein>
6NUR|6NUR_protein|mol2

> <Gold.PLP.Fitness>
37.9875

> <Gold.PLP.PLP>
-32.6095

> <Gold.PLP.part.hbond>
-2.7842

> <Gold.PLP.part.metal>
0.0000

> <Gold.PLP.part.buried>
-1.2720

> <Gold.PLP.part.nonpolar>
-28.3559

> <Gold.PLP.part.repulsive>
0.2712

> <Gold.PLP.ligand.clash>
0.0000

> <Gold.PLP.ligand.torsion>
0.3100

> <Gold.PLP.Chemscore.Hbond>
1.9600

> <Gold.PLP.Chemscore.CHOScore>
0.0000

> <Gold.PLP.Chemscore.Metal>
0.0000

> <Gold.Chemscore.Hbonds>
donor molecule, donor type, donor heavy atom, donor atom, acceptor molecule, acceptor atom, score
      L1  H     3    28       P1  7948  1.00
      L1  H     6    29       P1  7948  1.00

> <Gold.PLP.Chemscore.Internal.Correction>
0.1181

> <Gold.Rescore>
     Score         DG    S(hbond)    S(metal)    S(lipo)     H(rot)  DE(clash)    DE(int)     intcor
     16.00     -17.42       1.83        0.00      81.18       1.44       0.07       1.35       ----

> <Gold.Chemscore.Fitness>
16.0015

> <Gold.Chemscore.DG>
-17.4188

> <Gold.Chemscore.ZeroCoef>
-5.4800

> <Gold.Chemscore.Hbond>
1.8340

> <Gold.Chemscore.Metal>
0.0000

> <Gold.Chemscore.Lipo>
81.1814

> <Gold.Chemscore.Internal_Hbond>
0.0000

> <Gold.Chemscore.DEClash>
0.0681

> <Gold.Chemscore.DEInternal>
1.3493

> <Gold.Chemscore.Rot>
1.4394

> <Gold.Chemscore.Internal.Correction>
   9.000000E+99

> <Gold.Chemscore.Hbonds>
donor molecule, donor type, donor heavy atom, donor atom, acceptor molecule, acceptor atom, score
      L1  H     3    28       P1  7948  0.94
      L1  H     6    29       P1  7948  0.29

> <Gold.Chemscore.Hbond.Weighted>
-6.1255

> <Gold.Chemscore.Metal.Weighted>
-0.0000

> <Gold.Chemscore.Lipo.Weighted>
-9.4982

> <Gold.Chemscore.Internal_Hbond.Weighted>
0.0000

> <Gold.Chemscore.DEClash.Weighted>
0.0681

> <Gold.Chemscore.DEInternal.Weighted>
1.3493

> <Gold.Chemscore.Rot.Weighted>
3.6848

> <Gold.Chemscore.Internal.Correction.Weighted>
   9.000000E+99

> <Gold.Protein.RotatedTorsions>
[ 6907 6896 6895 6894 ] final  168.78 input  -60.11 | X-H torsion
[ 7974 7965 7964 7962 ] final  -74.78 input  175.53 | X-H torsion
[ 8008 7997 7996 7995 ] final  134.12 input   59.86 | X-H torsion
[ 10167 10162 10161 10158 ] final  102.01 input  -65.29 | X-H torsion
[ 10718 10713 10712 10709 ] final  157.91 input   66.30 | X-H torsion
[ 10763 10752 10751 10750 ] final  124.51 input  -60.55 | X-H torsion
[ 11005 11000 10999 10996 ] final -114.78 input  -57.11 | X-H torsion

> <Gold.Protein.ActiveResidues>
 VAL166  LYS551  ARG553  GLY616  TRP617  ASP618  TYR619  PRO620  LYS621  CYS622 
 ASP623  PHE694  ASN695  SER759  ASP760  ASP761  ALA762  ILE779  LEU786  VAL792 
 PHE793  MET794  SER795  GLU796  ALA797  LYS798  CYS799  TRP800  GLU811  SER814 

> <Gold.Protein.RotatedAtoms>
  151.8422  133.3425  159.3646 H   0  0  0  0  0  0  0  0  0  0  0  0  # atno 6907 bound_to 6896
  150.7231  134.5380  159.5742 H   0  0  0  0  0  0  0  0  0  0  0  0  # atno 6908 bound_to 6896
  152.2856  134.7780  160.0439 H   0  0  0  0  0  0  0  0  0  0  0  0  # atno 6909 bound_to 6896
  145.6347  140.9328  143.1068 H   0  0  0  0  0  0  0  0  0  0  0  0  # atno 7974 bound_to 7965
  156.2997  140.2504  156.3365 H   0  0  0  0  0  0  0  0  0  0  0  0  # atno 8008 bound_to 7997
  154.9095  140.0404  157.1958 H   0  0  0  0  0  0  0  0  0  0  0  0  # atno 8009 bound_to 7997
  154.8419  140.2892  155.5658 H   0  0  0  0  0  0  0  0  0  0  0  0  # atno 8010 bound_to 7997
  139.7387  144.7017  151.0609 H   0  0  0  0  0  0  0  0  0  0  0  0  # atno 10167 bound_to 10162
  157.1850  131.0641  151.2111 H   0  0  0  0  0  0  0  0  0  0  0  0  # atno 10718 bound_to 10713
  153.6626  135.3344  155.3131 H   0  0  0  0  0  0  0  0  0  0  0  0  # atno 10763 bound_to 10752
  154.8511  135.4367  154.1788 H   0  0  0  0  0  0  0  0  0  0  0  0  # atno 10764 bound_to 10752
  153.2759  135.7004  153.7509 H   0  0  0  0  0  0  0  0  0  0  0  0  # atno 10765 bound_to 10752
  141.0530  133.9657  157.2804 H   0  0  0  0  0  0  0  0  0  0  0  0  # atno 11005 bound_to 11000
  144.7180  139.8128  143.7392 LP  0  0  0  0  0  0  0  0  0  0  0  0  # atno 17320 bound_to 7965
  146.1329  139.4368  143.0157 LP  0  0  0  0  0  0  0  0  0  0  0  0  # atno 17321 bound_to 7965
  140.7782  143.4951  150.9842 LP  0  0  0  0  0  0  0  0  0  0  0  0  # atno 17342 bound_to 10162
  139.8640  143.7278  152.3171 LP  0  0  0  0  0  0  0  0  0  0  0  0  # atno 17343 bound_to 10162
  157.3916  130.7285  149.6701 LP  0  0  0  0  0  0  0  0  0  0  0  0  # atno 17370 bound_to 10713
  155.9719  130.4145  150.4135 LP  0  0  0  0  0  0  0  0  0  0  0  0  # atno 17371 bound_to 10713
  139.9366  135.0196  156.8575 LP  0  0  0  0  0  0  0  0  0  0  0  0  # atno 17394 bound_to 11000
  140.6019  134.0164  155.7541 LP  0  0  0  0  0  0  0  0  0  0  0  0  # atno 17395 bound_to 11000

$$$$
