AV-unprocessed.smi:912|AV-procd|sdf|4146|dock4
  -GOLD-   22720 2 53D 1   1.00000     0.00000
 Structure written by MMmdl.
 26 26  0  0  0  0  0  0  0  0  3 V2000
  146.8980  139.0541  152.3011 C   0  0  0  0  0  0  0  0  0  0  0  0
  148.2721  138.8337  152.8088 N   0  3  0  0  0  0  0  0  0  0  0  0
  148.5141  138.9940  154.2739 C   0  0  1  0  0  0  0  0  0  0  0  0
  147.8938  140.3307  154.7601 C   0  0  0  0  0  0  0  0  0  0  0  0
  147.8913  137.7743  155.0134 C   0  0  0  0  0  0  0  0  0  0  0  0
  148.3220  136.5819  154.5429 N   0  5  0  0  0  0  0  0  0  0  0  0
  147.0862  137.9520  155.9264 O   0  0  0  0  0  0  0  0  0  0  0  0
  150.0310  139.0257  154.5657 C   0  0  0  0  0  0  0  0  0  0  0  0
  150.9199  138.0197  154.1067 C   0  0  0  0  0  0  0  0  0  0  0  0
  152.2919  138.1272  154.4106 C   0  0  0  0  0  0  0  0  0  0  0  0
  152.8207  139.1477  155.1159 N   0  0  0  0  0  0  0  0  0  0  0  0
  151.9809  140.1080  155.5526 C   0  0  0  0  0  0  0  0  0  0  0  0
  150.5946  140.0946  155.3048 C   0  0  0  0  0  0  0  0  0  0  0  0
  146.8583  138.7840  151.2460 H   0  0  0  0  0  0  0  0  0  0  0  0
  146.6041  140.1004  152.3812 H   0  0  0  0  0  0  0  0  0  0  0  0
  146.1661  138.4414  152.8272 H   0  0  0  0  0  0  0  0  0  0  0  0
  148.5378  137.8864  152.5787 H   0  0  0  0  0  0  0  0  0  0  0  0
  148.0945  140.5158  155.8157 H   0  0  0  0  0  0  0  0  0  0  0  0
  146.8097  140.3524  154.6470 H   0  0  0  0  0  0  0  0  0  0  0  0
  148.2997  141.1760  154.2034 H   0  0  0  0  0  0  0  0  0  0  0  0
  148.6740  136.5221  153.5802 H   0  0  0  0  0  0  0  0  0  0  0  0
  150.5856  137.1677  153.5350 H   0  0  0  0  0  0  0  0  0  0  0  0
  152.9850  137.3703  154.0743 H   0  0  0  0  0  0  0  0  0  0  0  0
  152.4271  140.9138  156.1164 H   0  0  0  0  0  0  0  0  0  0  0  0
  149.9763  140.8940  155.6867 H   0  0  0  0  0  0  0  0  0  0  0  0
  148.8898  139.4656  152.3214 H   0  0  0  0  0  0  0  0  0  0  0  0
  1  2  1  0  0  0  0
  1 14  1  0  0  0  0
  1 15  1  0  0  0  0
  1 16  1  0  0  0  0
  2  3  1  0  0  0  0
  2 17  1  0  0  0  0
  2 26  1  0  0  0  0
  3  4  1  0  0  0  0
  3  5  1  0  0  0  0
  3  8  1  0  0  0  0
  4 18  1  0  0  0  0
  4 19  1  0  0  0  0
  4 20  1  0  0  0  0
  5  6  1  0  0  0  0
  5  7  2  0  0  0  0
  6 21  1  0  0  0  0
  8 13  1  0  0  0  0
  8  9  2  0  0  0  0
  9 10  1  0  0  0  0
  9 22  1  0  0  0  0
 10 11  2  0  0  0  0
 10 23  1  0  0  0  0
 11 12  1  0  0  0  0
 12 13  2  0  0  0  0
 12 24  1  0  0  0  0
 13 25  1  0  0  0  0
M  CHG  1   2   1
M  CHG  1   6  -1
M  END
> <s_m_source_file>
AV-unprocessed.smi

> <i_m_source_file_index>
912

> <i_lp_mmshare_version>
43012

> <i_f3d_flags>
0

> <s_epik_input>
W0NIM11bTkhdW0NAQF0oW0NIM10pKEMoPU8pW05IMl0pYzFbY0hdW2NIXW5bY0hdW2NIXTE=

> <s_epik_cmdline>
J2VwaWtfcHl0aG9uJywgJy1waCcsICc3LjAnLCAnLXRuJywgJzgnLCAnLW1hJywgJzIwMCcsICctbWV0YWxfYmluZGluZycsICctaW1hZScsICc8aW5maWxlLm1hZT4nLCAnLW9tYWUnLCAnPG91dGZpbGUubWFlPic=

> <r_epik_Ionization_Penalty>
6.88213

> <r_epik_Ionization_Penalty_Charging>
6.88153

> <r_epik_Ionization_Penalty_Neutral>
0.000601258

> <r_epik_State_Penalty>
7.02604

> <r_epik_Charging_Adjusted_Penalty>
13.9076

> <i_epik_Tot_Q>
0

> <i_epik_Tot_abs_Q>
2

> <r_epik_Metal_State_Penalty>
3.10652

> <b_epik_Metal_Only>
1

> <s_lp_Force_Field>
OPLS_2005

> <r_lp_Energy>
7.69215

> <b_lp_Chiralities_Consistent>
1

> <s_lp_Variant>
AV-unprocessed.smi:912-7

> <Gold.Version>
5.8.1

> <Gold.Id.Protein>
6NUR|6NUR_protein|mol2

> <Gold.PLP.Fitness>
39.1444

> <Gold.PLP.PLP>
-24.7978

> <Gold.PLP.part.hbond>
-4.0733

> <Gold.PLP.part.metal>
0.0000

> <Gold.PLP.part.buried>
-2.6401

> <Gold.PLP.part.nonpolar>
-18.1917

> <Gold.PLP.part.repulsive>
0.0926

> <Gold.PLP.ligand.clash>
0.0000

> <Gold.PLP.ligand.torsion>
0.3312

> <Gold.PLP.Chemscore.Hbond>
5.0000

> <Gold.PLP.Chemscore.CHOScore>
0.0000

> <Gold.PLP.Chemscore.Metal>
0.0000

> <Gold.Chemscore.Hbonds>
donor molecule, donor type, donor heavy atom, donor atom, acceptor molecule, acceptor atom, score
      L1  H     2    17       P1  7948  2.00
      L1  H     2    26       P1  7957  0.86
      L1  H     6    21       P1  7948  1.00
      P1  H  7997  8010       L1    11  0.44

> <Gold.PLP.Chemscore.Internal.Correction>
0.0089

> <Gold.Rescore>
     Score         DG    S(hbond)    S(metal)    S(lipo)     H(rot)  DE(clash)    DE(int)     intcor
     19.42     -20.12       3.89        0.00      53.66       1.80       0.02       0.69       ----

> <Gold.Chemscore.Fitness>
19.4193

> <Gold.Chemscore.DG>
-20.1198

> <Gold.Chemscore.ZeroCoef>
-5.4800

> <Gold.Chemscore.Hbond>
3.8858

> <Gold.Chemscore.Metal>
0.0000

> <Gold.Chemscore.Lipo>
53.6638

> <Gold.Chemscore.Internal_Hbond>
0.0000

> <Gold.Chemscore.DEClash>
0.0153

> <Gold.Chemscore.DEInternal>
0.6852

> <Gold.Chemscore.Rot>
1.8037

> <Gold.Chemscore.Internal.Correction>
   9.000000E+99

> <Gold.Chemscore.Hbonds>
donor molecule, donor type, donor heavy atom, donor atom, acceptor molecule, acceptor atom, score
      L1  H     2    17       P1  7948  1.00
      L1  H     2    26       P1  7957  0.82
      L1  H     6    21       P1  7948  1.00
      P1  H  7997  8010       L1    11  0.02

> <Gold.Chemscore.Hbond.Weighted>
-12.9785

> <Gold.Chemscore.Metal.Weighted>
-0.0000

> <Gold.Chemscore.Lipo.Weighted>
-6.2787

> <Gold.Chemscore.Internal_Hbond.Weighted>
0.0000

> <Gold.Chemscore.DEClash.Weighted>
0.0153

> <Gold.Chemscore.DEInternal.Weighted>
0.6852

> <Gold.Chemscore.Rot.Weighted>
4.6174

> <Gold.Chemscore.Internal.Correction.Weighted>
   9.000000E+99

> <Gold.Protein.RotatedTorsions>
[ 6907 6896 6895 6894 ] final  -45.59 input  -60.11 | X-H torsion
[ 7974 7965 7964 7962 ] final -114.75 input  175.53 | X-H torsion
[ 8008 7997 7996 7995 ] final   99.43 input   59.86 | X-H torsion
[ 10167 10162 10161 10158 ] final  -81.60 input  -65.29 | X-H torsion
[ 10718 10713 10712 10709 ] final -134.56 input   66.30 | X-H torsion
[ 10763 10752 10751 10750 ] final   51.50 input  -60.55 | X-H torsion
[ 11005 11000 10999 10996 ] final -160.37 input  -57.11 | X-H torsion

> <Gold.Protein.ActiveResidues>
 VAL166  LYS551  ARG553  GLY616  TRP617  ASP618  TYR619  PRO620  LYS621  CYS622 
 ASP623  PHE694  ASN695  SER759  ASP760  ASP761  ALA762  ILE779  LEU786  VAL792 
 PHE793  MET794  SER795  GLU796  ALA797  LYS798  CYS799  TRP800  GLU811  SER814 

> <Gold.Protein.RotatedAtoms>
  150.9203  134.8620  159.7483 H   0  0  0  0  0  0  0  0  0  0  0  0  # atno 6907 bound_to 6896
  152.4989  134.4229  159.9496 H   0  0  0  0  0  0  0  0  0  0  0  0  # atno 6908 bound_to 6896
  151.4263  133.3643  159.2798 H   0  0  0  0  0  0  0  0  0  0  0  0  # atno 6909 bound_to 6896
  145.1165  140.8643  143.3839 H   0  0  0  0  0  0  0  0  0  0  0  0  # atno 7974 bound_to 7965
  156.1104  140.3229  155.8065 H   0  0  0  0  0  0  0  0  0  0  0  0  # atno 8008 bound_to 7997
  155.4682  140.0544  157.3000 H   0  0  0  0  0  0  0  0  0  0  0  0  # atno 8009 bound_to 7997
  154.4756  140.2031  155.9901 H   0  0  0  0  0  0  0  0  0  0  0  0  # atno 8010 bound_to 7997
  140.4397  143.2519  151.8643 H   0  0  0  0  0  0  0  0  0  0  0  0  # atno 10167 bound_to 10162
  156.2568  130.7186  151.1105 H   0  0  0  0  0  0  0  0  0  0  0  0  # atno 10718 bound_to 10713
  152.9785  135.5844  154.4425 H   0  0  0  0  0  0  0  0  0  0  0  0  # atno 10763 bound_to 10752
  154.4025  135.2769  155.2090 H   0  0  0  0  0  0  0  0  0  0  0  0  # atno 10764 bound_to 10752
  154.3914  135.6124  153.5900 H   0  0  0  0  0  0  0  0  0  0  0  0  # atno 10765 bound_to 10752
  140.6323  134.4638  157.5230 H   0  0  0  0  0  0  0  0  0  0  0  0  # atno 11005 bound_to 11000
  145.0788  139.2975  143.5794 LP  0  0  0  0  0  0  0  0  0  0  0  0  # atno 17320 bound_to 7965
  146.3523  140.0287  142.8652 LP  0  0  0  0  0  0  0  0  0  0  0  0  # atno 17321 bound_to 7965
  139.4789  144.5242  151.8758 LP  0  0  0  0  0  0  0  0  0  0  0  0  # atno 17342 bound_to 10162
  140.4332  144.2087  150.5888 LP  0  0  0  0  0  0  0  0  0  0  0  0  # atno 17343 bound_to 10162
  157.7235  131.0665  150.6032 LP  0  0  0  0  0  0  0  0  0  0  0  0  # atno 17370 bound_to 10713
  156.6116  130.4381  149.5857 LP  0  0  0  0  0  0  0  0  0  0  0  0  # atno 17371 bound_to 10713
  139.9111  134.8342  156.1524 LP  0  0  0  0  0  0  0  0  0  0  0  0  # atno 17394 bound_to 11000
  141.0667  133.6816  156.2058 LP  0  0  0  0  0  0  0  0  0  0  0  0  # atno 17395 bound_to 11000

$$$$
