AV-unprocessed.smi:3068|AV-procd|sdf|11702|dock9
  -GOLD-   2272017103D 1   1.00000     0.00000
 Structure written by MMmdl.
 40 42  0  0  0  0  0  0  0  0  2 V2000
  151.2988  135.1336  155.8974 N   0  0  0  0  0  0  0  0  0  0  0  0
  150.5271  135.3202  156.7392 C   0  0  0  0  0  0  0  0  0  0  0  0
  149.5567  135.5572  157.8004 C   0  0  0  0  0  0  0  0  0  0  0  0
  149.9408  136.3783  158.8052 N   0  0  0  0  0  0  0  0  0  0  0  0
  149.0512  136.6011  159.7960 C   0  0  0  0  0  0  0  0  0  0  0  0
  147.7745  136.0066  159.7887 C   0  0  0  0  0  0  0  0  0  0  0  0
  147.3824  135.1870  158.7902 N   0  0  0  0  0  0  0  0  0  0  0  0
  148.2679  134.9530  157.7892 C   0  0  0  0  0  0  0  0  0  0  0  0
  147.8710  134.1016  156.7428 N   0  0  0  0  0  0  0  0  0  0  0  0
  146.8339  134.5147  155.8077 C   0  0  0  0  0  0  0  0  0  0  0  0
  147.3250  134.4568  154.3551 C   0  0  2  0  0  0  0  0  0  0  0  0
  146.2007  134.8149  153.3658 C   0  0  0  0  0  0  0  0  0  0  0  0
  146.6649  134.6570  151.9652 N   0  3  2  0  0  0  0  0  0  0  0  0
  145.6485  135.0345  150.9485 C   0  0  0  0  0  0  0  0  0  0  0  0
  144.5425  133.9706  150.8078 C   0  0  0  0  0  0  0  0  0  0  0  0
  145.1411  132.5861  150.5239 C   0  0  0  0  0  0  0  0  0  0  0  0
  146.1802  132.2222  151.5938 C   0  0  0  0  0  0  0  0  0  0  0  0
  147.2634  133.3174  151.7112 C   0  0  2  0  0  0  0  0  0  0  0  0
  148.3198  132.9953  152.7858 C   0  0  0  0  0  0  0  0  0  0  0  0
  147.7555  133.1267  154.0846 O   0  0  0  0  0  0  0  0  0  0  0  0
  149.3593  137.2561  160.5974 H   0  0  0  0  0  0  0  0  0  0  0  0
  147.0668  136.1879  160.5843 H   0  0  0  0  0  0  0  0  0  0  0  0
  148.1193  133.1233  156.7854 H   0  0  0  0  0  0  0  0  0  0  0  0
  145.9528  133.8832  155.9316 H   0  0  0  0  0  0  0  0  0  0  0  0
  146.5367  135.5357  156.0512 H   0  0  0  0  0  0  0  0  0  0  0  0
  148.1583  135.1511  154.2287 H   0  0  0  0  0  0  0  0  0  0  0  0
  145.3304  134.1851  153.5520 H   0  0  0  0  0  0  0  0  0  0  0  0
  145.8827  135.8459  153.5252 H   0  0  0  0  0  0  0  0  0  0  0  0
  145.2170  136.0053  151.1949 H   0  0  0  0  0  0  0  0  0  0  0  0
  146.1546  135.1583  149.9902 H   0  0  0  0  0  0  0  0  0  0  0  0
  143.9385  133.9325  151.7148 H   0  0  0  0  0  0  0  0  0  0  0  0
  143.8616  134.2504  150.0034 H   0  0  0  0  0  0  0  0  0  0  0  0
  144.3522  131.8341  150.4942 H   0  0  0  0  0  0  0  0  0  0  0  0
  145.6111  132.5842  149.5397 H   0  0  0  0  0  0  0  0  0  0  0  0
  145.6830  132.0737  152.5529 H   0  0  0  0  0  0  0  0  0  0  0  0
  146.6429  131.2675  151.3418 H   0  0  0  0  0  0  0  0  0  0  0  0
  147.7784  133.3722  150.7510 H   0  0  0  0  0  0  0  0  0  0  0  0
  148.6946  131.9793  152.6603 H   0  0  0  0  0  0  0  0  0  0  0  0
  149.1807  133.6590  152.6902 H   0  0  0  0  0  0  0  0  0  0  0  0
  147.4191  135.3209  151.8616 H   0  0  0  0  0  0  0  0  0  0  0  0
  1  2  3  0  0  0  0
  2  3  1  0  0  0  0
  3  8  1  0  0  0  0
  3  4  2  0  0  0  0
  4  5  1  0  0  0  0
  5  6  2  0  0  0  0
  5 21  1  0  0  0  0
  6  7  1  0  0  0  0
  6 22  1  0  0  0  0
  7  8  2  0  0  0  0
  8  9  1  0  0  0  0
  9 10  1  0  0  0  0
  9 23  1  0  0  0  0
 10 11  1  0  0  0  0
 10 24  1  0  0  0  0
 10 25  1  0  0  0  0
 11 20  1  0  0  0  0
 11 12  1  0  0  0  0
 11 26  1  0  0  0  0
 12 13  1  0  0  0  0
 12 27  1  0  0  0  0
 12 28  1  0  0  0  0
 13 18  1  0  0  0  0
 13 14  1  0  0  0  0
 13 40  1  0  0  0  0
 14 15  1  0  0  0  0
 14 29  1  0  0  0  0
 14 30  1  0  0  0  0
 15 16  1  0  0  0  0
 15 31  1  0  0  0  0
 15 32  1  0  0  0  0
 16 17  1  0  0  0  0
 16 33  1  0  0  0  0
 16 34  1  0  0  0  0
 17 18  1  0  0  0  0
 17 35  1  0  0  0  0
 17 36  1  0  0  0  0
 18 19  1  0  0  0  0
 18 37  1  0  0  0  0
 19 20  1  0  0  0  0
 19 38  1  0  0  0  0
 19 39  1  0  0  0  0
M  CHG  1  13   1
M  END
> <s_m_source_file>
AV-unprocessed.smi

> <i_m_source_file_index>
3068

> <i_lp_mmshare_version>
43012

> <i_f3d_flags>
0

> <s_epik_input>
TiNDYzFuW2NIXVtjSF1uYzFbTkhdW0NIMl1bQ0BIXShbQ0gyXTIpT1tDSDJdW0NAQEhdKE4yMylbQ0gyXVtDSDJdW0NIMl1bQ0gyXTM=

> <s_epik_cmdline>
J2VwaWtfcHl0aG9uJywgJy1waCcsICc3LjAnLCAnLXRuJywgJzgnLCAnLW1hJywgJzIwMCcsICctbWV0YWxfYmluZGluZycsICctaW1hZScsICc8aW5maWxlLm1hZT4nLCAnLW9tYWUnLCAnPG91dGZpbGUubWFlPic=

> <r_epik_Ionization_Penalty>
0.0804321

> <r_epik_Ionization_Penalty_Charging>
0.0803403

> <r_epik_Ionization_Penalty_Neutral>
9.17277e-05

> <r_epik_State_Penalty>
0.0711481

> <r_epik_Charging_Adjusted_Penalty>
0.151488

> <i_epik_Tot_Q>
1

> <i_epik_Tot_abs_Q>
1

> <r_epik_Metal_State_Penalty>
0.0711481

> <b_epik_Metal_Only>
0

> <s_lp_Force_Field>
OPLS_2005

> <r_lp_Energy>
39.3749

> <b_lp_Chiralities_Consistent>
1

> <s_lp_Variant>
AV-unprocessed.smi:3068-5

> <Gold.Version>
5.8.1

> <Gold.Id.Protein>
6NUR|6NUR_protein|mol2

> <Gold.PLP.Fitness>
35.6929

> <Gold.PLP.PLP>
-25.6663

> <Gold.PLP.part.hbond>
-3.0000

> <Gold.PLP.part.metal>
0.0000

> <Gold.PLP.part.buried>
-3.7603

> <Gold.PLP.part.nonpolar>
-19.9294

> <Gold.PLP.part.repulsive>
0.1510

> <Gold.PLP.ligand.clash>
0.0000

> <Gold.PLP.ligand.torsion>
0.6650

> <Gold.PLP.Chemscore.Hbond>
3.7853

> <Gold.PLP.Chemscore.CHOScore>
0.0000

> <Gold.PLP.Chemscore.Metal>
0.0000

> <Gold.Chemscore.Hbonds>
donor molecule, donor type, donor heavy atom, donor atom, acceptor molecule, acceptor atom, score
      L1  H    13    40       P1  7948  2.00
      P1  H  6896  6908       L1     4  0.79
      P1  H 10752 10765       L1     1  0.99

> <Gold.PLP.Chemscore.Internal.Correction>
0.0007

> <Gold.Rescore>
     Score         DG    S(hbond)    S(metal)    S(lipo)     H(rot)  DE(clash)    DE(int)     intcor
     14.89     -15.59       1.96        0.00      59.20       1.32       0.02       0.68       ----

> <Gold.Chemscore.Fitness>
14.8917

> <Gold.Chemscore.DG>
-15.5893

> <Gold.Chemscore.ZeroCoef>
-5.4800

> <Gold.Chemscore.Hbond>
1.9643

> <Gold.Chemscore.Metal>
0.0000

> <Gold.Chemscore.Lipo>
59.1973

> <Gold.Chemscore.Internal_Hbond>
0.0000

> <Gold.Chemscore.DEClash>
0.0159

> <Gold.Chemscore.DEInternal>
0.6817

> <Gold.Chemscore.Rot>
1.3193

> <Gold.Chemscore.Internal.Correction>
   9.000000E+99

> <Gold.Chemscore.Hbonds>
donor molecule, donor type, donor heavy atom, donor atom, acceptor molecule, acceptor atom, score
      L1  H    13    40       P1  7948  0.98
      P1  H  6896  6908       L1     4  0.03
      P1  H 10752 10765       L1     1  0.87

> <Gold.Chemscore.Hbond.Weighted>
-6.5606

> <Gold.Chemscore.Metal.Weighted>
-0.0000

> <Gold.Chemscore.Lipo.Weighted>
-6.9261

> <Gold.Chemscore.Internal_Hbond.Weighted>
0.0000

> <Gold.Chemscore.DEClash.Weighted>
0.0159

> <Gold.Chemscore.DEInternal.Weighted>
0.6817

> <Gold.Chemscore.Rot.Weighted>
3.3774

> <Gold.Chemscore.Internal.Correction.Weighted>
   9.000000E+99

> <Gold.Protein.RotatedTorsions>
[ 6907 6896 6895 6894 ] final -147.25 input  -60.11 | X-H torsion
[ 7974 7965 7964 7962 ] final -150.50 input  175.53 | X-H torsion
[ 8008 7997 7996 7995 ] final -132.95 input   59.86 | X-H torsion
[ 10167 10162 10161 10158 ] final  -94.47 input  -65.29 | X-H torsion
[ 10718 10713 10712 10709 ] final -150.22 input   66.30 | X-H torsion
[ 10763 10752 10751 10750 ] final -163.01 input  -60.55 | X-H torsion
[ 11005 11000 10999 10996 ] final   77.21 input  -57.11 | X-H torsion

> <Gold.Protein.ActiveResidues>
 VAL166  LYS551  ARG553  GLY616  TRP617  ASP618  TYR619  PRO620  LYS621  CYS622 
 ASP623  PHE694  ASN695  SER759  ASP760  ASP761  ALA762  ILE779  LEU786  VAL792 
 PHE793  MET794  SER795  GLU796  ALA797  LYS798  CYS799  TRP800  GLU811  SER814 

> <Gold.Protein.RotatedAtoms>
  151.1530  133.4895  159.2594 H   0  0  0  0  0  0  0  0  0  0  0  0  # atno 6907 bound_to 6896
  151.1534  135.0238  159.8688 H   0  0  0  0  0  0  0  0  0  0  0  0  # atno 6908 bound_to 6896
  152.5463  134.1412  159.8532 H   0  0  0  0  0  0  0  0  0  0  0  0  # atno 6909 bound_to 6896
  144.7904  140.4923  143.5777 H   0  0  0  0  0  0  0  0  0  0  0  0  # atno 7974 bound_to 7965
  155.3373  140.0470  157.3044 H   0  0  0  0  0  0  0  0  0  0  0  0  # atno 8008 bound_to 7997
  154.5296  140.2252  155.8794 H   0  0  0  0  0  0  0  0  0  0  0  0  # atno 8009 bound_to 7997
  156.1774  140.3082  155.9092 H   0  0  0  0  0  0  0  0  0  0  0  0  # atno 8010 bound_to 7997
  140.3141  143.3087  152.0116 H   0  0  0  0  0  0  0  0  0  0  0  0  # atno 10167 bound_to 10162
  156.4433  130.8132  151.2362 H   0  0  0  0  0  0  0  0  0  0  0  0  # atno 10718 bound_to 10713
  154.7161  135.3016  154.9121 H   0  0  0  0  0  0  0  0  0  0  0  0  # atno 10763 bound_to 10752
  154.0007  135.6707  153.4763 H   0  0  0  0  0  0  0  0  0  0  0  0  # atno 10764 bound_to 10752
  153.0795  135.5016  154.8389 H   0  0  0  0  0  0  0  0  0  0  0  0  # atno 10765 bound_to 10752
  139.9264  134.7664  156.1492 H   0  0  0  0  0  0  0  0  0  0  0  0  # atno 11005 bound_to 11000
  145.5810  139.1489  143.3235 LP  0  0  0  0  0  0  0  0  0  0  0  0  # atno 17320 bound_to 7965
  146.2153  140.5940  142.9041 LP  0  0  0  0  0  0  0  0  0  0  0  0  # atno 17321 bound_to 7965
  139.4887  144.6362  151.6971 LP  0  0  0  0  0  0  0  0  0  0  0  0  # atno 17342 bound_to 10162
  140.5542  144.0376  150.6140 LP  0  0  0  0  0  0  0  0  0  0  0  0  # atno 17343 bound_to 10162
  157.7505  131.0161  150.3532 LP  0  0  0  0  0  0  0  0  0  0  0  0  # atno 17370 bound_to 10713
  156.3894  130.3895  149.7041 LP  0  0  0  0  0  0  0  0  0  0  0  0  # atno 17371 bound_to 10713
  141.0825  133.6748  156.2366 LP  0  0  0  0  0  0  0  0  0  0  0  0  # atno 17394 bound_to 11000
  140.6323  134.5251  157.5561 LP  0  0  0  0  0  0  0  0  0  0  0  0  # atno 17395 bound_to 11000

$$$$
