#       Name:                AV-unprocessed.smi:767
#       Creating user name   scv26
#       Creation time:       Fri Mar 27 01:07:54 2020


#       File generated by GOLD software.
#

@<TRIPOS>MOLECULE
AV-unprocessed.smi:767
    52    54     1
SMALL
NO_CHARGES


@<TRIPOS>ATOM
      1 ****        -1.9799   3.5753  -2.8852 C.3            1 S1                 0.0000
      2 ****        -2.3752   2.8887  -1.5952 C.ar           1 S1                 0.0000
      3 ****        -1.7982   3.2302  -0.3533 C.ar           1 S1                 0.0000
      4 ****        -2.2088   2.5440   0.8083 C.ar           1 S1                 0.0000
      5 ****        -3.1874   1.5305   0.7055 C.ar           1 S1                 0.0000
      6 ****        -3.6195   0.7406   1.9291 C.3            1 S1                 0.0000
      7 ****        -3.0501  -0.6918   1.9728 C.3            1 S1                 0.0000
      8 ****        -1.5888  -0.7150   1.9609 N.am           1 S1                 0.0000
      9 ****        -0.8231  -0.8348   0.8665 C.2            1 S1                 0.0000
     10 ****        -1.2648  -0.9535  -0.2768 O.2            1 S1                 0.0000
     11 ****         0.4819  -0.7891   1.1628 N.am           1 S1                 0.0000
     12 ****         1.5470  -0.8389   0.1672 C.3            1 S1                 0.0000
     13 ****         2.9405  -0.6344   0.7810 C.3            1 S1                 0.0000
     14 ****         3.7399   0.5908   0.4307 C.3            1 S1                 0.0000
     15 ****         4.6211   0.1051  -0.7238 C.3            1 S1                 0.0000
     16 ****         3.9434  -1.0381  -1.2408 O.3            1 S1                 0.0000
     17 ****         3.4081  -1.7576  -0.1324 C.3            1 S1                 0.0000
     18 ****         1.9576  -2.2666  -0.2733 C.3            1 S1                 0.0000
     19 ****         1.6030  -3.4283   0.6661 C.3            1 S1                 0.0000
     20 ****         1.5273  -2.6892  -1.6788 C.3            1 S1                 0.0000
     21 ****        -3.7363   1.2397  -0.5619 C.ar           1 S1                 0.0000
     22 ****        -3.3146   1.9182  -1.6512 N.pl3          1 S1                 1.0000
     23 ****        -1.0270   4.0940  -2.7749 H              1 S1                 0.0000
     24 ****        -2.7368   4.3060  -3.1717 H              1 S1                 0.0000
     25 ****        -1.8779   2.8494  -3.6928 H              1 S1                 0.0000
     26 ****        -1.0463   4.0031  -0.2899 H              1 S1                 0.0000
     27 ****        -1.7656   2.7850   1.7634 H              1 S1                 0.0000
     28 ****        -3.3210   1.2807   2.8286 H              1 S1                 0.0000
     29 ****        -4.7092   0.7006   1.9492 H              1 S1                 0.0000
     30 ****        -3.3862  -1.1884   2.8832 H              1 S1                 0.0000
     31 ****        -3.4469  -1.2816   1.1446 H              1 S1                 0.0000
     32 ****        -1.1269  -0.6251   2.8542 H              1 S1                 0.0000
     33 ****         0.7575  -0.6935   2.1293 H              1 S1                 0.0000
     34 ****         1.3815  -0.1757  -0.6853 H              1 S1                 0.0000
     35 ****         2.9866  -0.9256   1.8320 H              1 S1                 0.0000
     36 ****         3.0875   1.4027   0.1076 H              1 S1                 0.0000
     37 ****         4.3391   0.9542   1.2660 H              1 S1                 0.0000
     38 ****         4.7664   0.8663  -1.4906 H              1 S1                 0.0000
     39 ****         5.6012  -0.2009  -0.3552 H              1 S1                 0.0000
     40 ****         4.1191  -2.4435   0.3307 H              1 S1                 0.0000
     41 ****         2.1249  -4.3425   0.3819 H              1 S1                 0.0000
     42 ****         0.5345  -3.6460   0.6538 H              1 S1                 0.0000
     43 ****         1.8784  -3.2130   1.6988 H              1 S1                 0.0000
     44 ****         2.0654  -3.5772  -2.0118 H              1 S1                 0.0000
     45 ****         1.7165  -1.9038  -2.4109 H              1 S1                 0.0000
     46 ****         0.4609  -2.9131  -1.7197 H              1 S1                 0.0000
     47 ****        -4.4807   0.4774  -0.7394 H              1 S1                 0.0000
     48 ****        -3.7185   1.6825  -2.5579 H              1 S1                 0.0000
     49 ****        -2.2525  -0.9648  -0.4326 LP             1 S1                 0.0000
     50 ****        -0.6358  -1.0385  -1.0495 LP             1 S1                 0.0000
     51 ****         4.5850  -1.6160  -1.7452 LP             1 S1                 0.0000
     52 ****         3.2044  -0.7502  -1.8499 LP             1 S1                 0.0000
@<TRIPOS>BOND
    1    1    2 1     
    2    1   23 1     
    3    1   24 1     
    4    1   25 1     
    5    2   22 ar    
    6    2    3 ar    
    7    3    4 ar    
    8    3   26 1     
    9    4    5 ar    
   10    4   27 1     
   11    5    6 1     
   12    5   21 ar    
   13    6    7 1     
   14    6   28 1     
   15    6   29 1     
   16    7    8 1     
   17    7   30 1     
   18    7   31 1     
   19    8    9 am    
   20    8   32 1     
   21    9   10 2     
   22    9   11 am    
   23   11   12 1     
   24   11   33 1     
   25   12   18 1     
   26   12   13 1     
   27   12   34 1     
   28   13   17 1     
   29   13   14 1     
   30   13   35 1     
   31   14   15 1     
   32   14   36 1     
   33   14   37 1     
   34   15   16 1     
   35   15   38 1     
   36   15   39 1     
   37   16   17 1     
   38   17   18 1     
   39   17   40 1     
   40   18   19 1     
   41   18   20 1     
   42   19   41 1     
   43   19   42 1     
   44   19   43 1     
   45   20   44 1     
   46   20   45 1     
   47   20   46 1     
   48   21   22 ar    
   49   21   47 1     
   50   22   48 1     
   51   10   49 1     
   52   10   50 1     
   53   16   51 1     
   54   16   52 1     
@<TRIPOS>SUBSTRUCTURE
      1 S1             1
@<TRIPOS>SET
LONE_PAIRS      STATIC     ATOMS    <user>   **** ""
4 49 50 51 52
DONOR_HYDROGENS      STATIC     ATOMS    <user>   **** ""
3 32 33 48
ATOM$BLUE        STATIC     ATOMS    COLORGROUP SYSTEM
4 49 50 51 52
ATOM$RED        STATIC     ATOMS    COLORGROUP SYSTEM
3 32 33 48
