AV-unprocessed.smi:832|AV-procd|sdf|3878|dock6
  -GOLD-   22720 1333D 1   1.00000     0.00000
 Structure written by MMmdl.
 42 43  0  0  0  0  0  0  0  0  2 V2000
  150.4312  142.1010  156.6681 C   0  0  0  0  0  0  0  0  0  0  0  0
  150.2362  140.9893  155.6948 C   0  0  0  0  0  0  0  0  0  0  0  0
  149.1257  140.4500  155.1089 C   0  0  0  0  0  0  0  0  0  0  0  0
  149.6644  139.4259  154.2854 C   0  0  0  0  0  0  0  0  0  0  0  0
  148.8193  138.6151  153.4853 N   0  0  0  0  0  0  0  0  0  0  0  0
  147.4755  138.6016  153.4680 C   0  0  0  0  0  0  0  0  0  0  0  0
  146.7501  139.3283  154.1475 O   0  0  0  0  0  0  0  0  0  0  0  0
  147.0075  137.6862  152.6064 N   0  0  0  0  0  0  0  0  0  0  0  0
  145.5972  137.3901  152.3716 C   0  0  0  0  0  0  0  0  0  0  0  0
  145.4034  136.1264  151.5114 C   0  0  2  0  0  0  0  0  0  0  0  0
  143.9519  135.7462  151.2243 C   0  0  0  0  0  0  0  0  0  0  0  0
  144.0568  134.2635  150.8885 C   0  0  0  0  0  0  0  0  0  0  0  0
  145.0781  133.7303  151.8170 N   0  3  1  0  0  0  0  0  0  0  0  0
  145.7470  132.4691  151.3883 C   0  0  0  0  0  0  0  0  0  0  0  0
  144.7266  131.3538  151.0892 C   0  0  0  0  0  0  0  0  0  0  0  0
  146.7413  131.9776  152.4577 C   0  0  0  0  0  0  0  0  0  0  0  0
  145.9924  134.8548  152.1444 C   0  0  0  0  0  0  0  0  0  0  0  0
  150.9837  139.3440  154.3652 N   0  0  0  0  0  0  0  0  0  0  0  0
  151.3569  140.3459  155.2689 O   0  0  0  0  0  0  0  0  0  0  0  0
  149.4870  142.6022  156.8818 H   0  0  0  0  0  0  0  0  0  0  0  0
  151.1256  142.8429  156.2735 H   0  0  0  0  0  0  0  0  0  0  0  0
  150.8349  141.7245  157.6080 H   0  0  0  0  0  0  0  0  0  0  0  0
  148.0963  140.7456  155.2468 H   0  0  0  0  0  0  0  0  0  0  0  0
  149.2896  137.9641  152.8741 H   0  0  0  0  0  0  0  0  0  0  0  0
  147.6780  137.1368  152.0888 H   0  0  0  0  0  0  0  0  0  0  0  0
  145.1265  137.2431  153.3440 H   0  0  0  0  0  0  0  0  0  0  0  0
  145.0922  138.2449  151.9179 H   0  0  0  0  0  0  0  0  0  0  0  0
  145.9003  136.2781  150.5514 H   0  0  0  0  0  0  0  0  0  0  0  0
  143.3381  135.8811  152.1162 H   0  0  0  0  0  0  0  0  0  0  0  0
  143.5099  136.3314  150.4172 H   0  0  0  0  0  0  0  0  0  0  0  0
  143.1014  133.7492  150.9956 H   0  0  0  0  0  0  0  0  0  0  0  0
  144.3954  134.1452  149.8577 H   0  0  0  0  0  0  0  0  0  0  0  0
  146.3012  132.6744  150.4709 H   0  0  0  0  0  0  0  0  0  0  0  0
  145.2323  130.4252  150.8221 H   0  0  0  0  0  0  0  0  0  0  0  0
  144.0743  131.6070  150.2536 H   0  0  0  0  0  0  0  0  0  0  0  0
  144.0977  131.1477  151.9559 H   0  0  0  0  0  0  0  0  0  0  0  0
  147.2126  131.0429  152.1521 H   0  0  0  0  0  0  0  0  0  0  0  0
  146.2409  131.7975  153.4098 H   0  0  0  0  0  0  0  0  0  0  0  0
  147.5448  132.6921  152.6351 H   0  0  0  0  0  0  0  0  0  0  0  0
  147.0031  134.6913  151.7681 H   0  0  0  0  0  0  0  0  0  0  0  0
  146.0548  134.9378  153.2302 H   0  0  0  0  0  0  0  0  0  0  0  0
  144.5838  133.5218  152.6730 H   0  0  0  0  0  0  0  0  0  0  0  0
  1  2  1  0  0  0  0
  1 20  1  0  0  0  0
  1 21  1  0  0  0  0
  1 22  1  0  0  0  0
  2 19  1  0  0  0  0
  2  3  2  0  0  0  0
  3  4  1  0  0  0  0
  3 23  1  0  0  0  0
  4  5  1  0  0  0  0
  4 18  2  0  0  0  0
  5  6  1  0  0  0  0
  5 24  1  0  0  0  0
  6  7  2  0  0  0  0
  6  8  1  0  0  0  0
  8  9  1  0  0  0  0
  8 25  1  0  0  0  0
  9 10  1  0  0  0  0
  9 26  1  0  0  0  0
  9 27  1  0  0  0  0
 10 17  1  0  0  0  0
 10 11  1  0  0  0  0
 10 28  1  0  0  0  0
 11 12  1  0  0  0  0
 11 29  1  0  0  0  0
 11 30  1  0  0  0  0
 12 13  1  0  0  0  0
 12 31  1  0  0  0  0
 12 32  1  0  0  0  0
 13 14  1  0  0  0  0
 13 17  1  0  0  0  0
 13 42  1  0  0  0  0
 14 15  1  0  0  0  0
 14 16  1  0  0  0  0
 14 33  1  0  0  0  0
 15 34  1  0  0  0  0
 15 35  1  0  0  0  0
 15 36  1  0  0  0  0
 16 37  1  0  0  0  0
 16 38  1  0  0  0  0
 16 39  1  0  0  0  0
 17 40  1  0  0  0  0
 17 41  1  0  0  0  0
 18 19  1  0  0  0  0
M  CHG  1  13   1
M  END
> <s_m_source_file>
AV-unprocessed.smi

> <i_m_source_file_index>
832

> <i_lp_mmshare_version>
43012

> <i_f3d_flags>
0

> <s_epik_input>
W0NIM11jMVtjSF1jKG5vMSlbTkhdQyg9TylbTkhdW0NIMl1bQ0BASF0yW0NIMl1bQ0gyXU4oW0NIMl0yKVtDSF0oW0NIM10pW0NIM10=

> <s_epik_cmdline>
J2VwaWtfcHl0aG9uJywgJy1waCcsICc3LjAnLCAnLXRuJywgJzgnLCAnLW1hJywgJzIwMCcsICctbWV0YWxfYmluZGluZycsICctaW1hZScsICc8aW5maWxlLm1hZT4nLCAnLW9tYWUnLCAnPG91dGZpbGUubWFlPic=

> <r_lp_tautomer_probability>
1

> <r_epik_Ionization_Penalty>
0.000242791

> <r_epik_Ionization_Penalty_Charging>
0.000220876

> <r_epik_Ionization_Penalty_Neutral>
2.19143e-05

> <r_epik_State_Penalty>
-0

> <r_epik_Charging_Adjusted_Penalty>
0.000220876

> <i_epik_Tot_Q>
1

> <i_epik_Tot_abs_Q>
1

> <r_epik_Metal_State_Penalty>
-0

> <b_epik_Metal_Only>
0

> <s_lp_Force_Field>
OPLS_2005

> <r_lp_Energy>
27.9623

> <b_lp_Chiralities_Consistent>
1

> <s_lp_Variant>
AV-unprocessed.smi:832-3

> <Gold.Version>
5.8.1

> <Gold.Id.Protein>
6NUR|6NUR_protein|mol2

> <Gold.PLP.Fitness>
38.2722

> <Gold.PLP.PLP>
-32.8813

> <Gold.PLP.part.hbond>
-4.9089

> <Gold.PLP.part.metal>
0.0000

> <Gold.PLP.part.buried>
-3.8891

> <Gold.PLP.part.nonpolar>
-25.5273

> <Gold.PLP.part.repulsive>
0.4105

> <Gold.PLP.ligand.clash>
0.0000

> <Gold.PLP.ligand.torsion>
0.0668

> <Gold.PLP.Chemscore.Hbond>
1.8320

> <Gold.PLP.Chemscore.CHOScore>
0.0000

> <Gold.PLP.Chemscore.Metal>
0.0000

> <Gold.Chemscore.Hbonds>
donor molecule, donor type, donor heavy atom, donor atom, acceptor molecule, acceptor atom, score
      L1  H     5    24       P1  7948  0.85
      L1  H     8    25       P1  7948  1.00

> <Gold.PLP.Chemscore.Internal.Correction>
0.0286

> <Gold.Rescore>
     Score         DG    S(hbond)    S(metal)    S(lipo)     H(rot)  DE(clash)    DE(int)     intcor
     14.10     -15.56       1.77        0.00      68.67       1.51       0.00       1.46       ----

> <Gold.Chemscore.Fitness>
14.1007

> <Gold.Chemscore.DG>
-15.5633

> <Gold.Chemscore.ZeroCoef>
-5.4800

> <Gold.Chemscore.Hbond>
1.7745

> <Gold.Chemscore.Metal>
0.0000

> <Gold.Chemscore.Lipo>
68.6662

> <Gold.Chemscore.Internal_Hbond>
0.0000

> <Gold.Chemscore.DEClash>
0.0029

> <Gold.Chemscore.DEInternal>
1.4597

> <Gold.Chemscore.Rot>
1.5146

> <Gold.Chemscore.Internal.Correction>
   9.000000E+99

> <Gold.Chemscore.Hbonds>
donor molecule, donor type, donor heavy atom, donor atom, acceptor molecule, acceptor atom, score
      L1  H     5    24       P1  7948  0.76
      L1  H     8    25       P1  7948  0.95

> <Gold.Chemscore.Hbond.Weighted>
-5.9268

> <Gold.Chemscore.Metal.Weighted>
-0.0000

> <Gold.Chemscore.Lipo.Weighted>
-8.0339

> <Gold.Chemscore.Internal_Hbond.Weighted>
0.0000

> <Gold.Chemscore.DEClash.Weighted>
0.0029

> <Gold.Chemscore.DEInternal.Weighted>
1.4597

> <Gold.Chemscore.Rot.Weighted>
3.8774

> <Gold.Chemscore.Internal.Correction.Weighted>
   9.000000E+99

> <Gold.Protein.RotatedTorsions>
[ 6907 6896 6895 6894 ] final   20.19 input  -60.11 | X-H torsion
[ 7974 7965 7964 7962 ] final -103.65 input  175.53 | X-H torsion
[ 8008 7997 7996 7995 ] final  -32.09 input   59.86 | X-H torsion
[ 10167 10162 10161 10158 ] final   53.68 input  -65.29 | X-H torsion
[ 10718 10713 10712 10709 ] final -118.85 input   66.30 | X-H torsion
[ 10763 10752 10751 10750 ] final  154.31 input  -60.55 | X-H torsion
[ 11005 11000 10999 10996 ] final   41.94 input  -57.11 | X-H torsion

> <Gold.Protein.ActiveResidues>
 VAL166  LYS551  ARG553  GLY616  TRP617  ASP618  TYR619  PRO620  LYS621  CYS622 
 ASP623  PHE694  ASN695  SER759  ASP760  ASP761  ALA762  ILE779  LEU786  VAL792 
 PHE793  MET794  SER795  GLU796  ALA797  LYS798  CYS799  TRP800  GLU811  SER814 

> <Gold.Protein.RotatedAtoms>
  151.8926  135.0410  160.0498 H   0  0  0  0  0  0  0  0  0  0  0  0  # atno 6907 bound_to 6896
  152.2424  133.5142  159.5286 H   0  0  0  0  0  0  0  0  0  0  0  0  # atno 6908 bound_to 6896
  150.7057  134.0988  159.4000 H   0  0  0  0  0  0  0  0  0  0  0  0  # atno 6909 bound_to 6896
  145.2532  140.9245  143.3083 H   0  0  0  0  0  0  0  0  0  0  0  0  # atno 7974 bound_to 7965
  154.4191  140.1747  156.1672 H   0  0  0  0  0  0  0  0  0  0  0  0  # atno 8008 bound_to 7997
  155.9790  140.3379  155.6621 H   0  0  0  0  0  0  0  0  0  0  0  0  # atno 8009 bound_to 7997
  155.6525  140.0692  157.2572 H   0  0  0  0  0  0  0  0  0  0  0  0  # atno 8010 bound_to 7997
  140.2382  144.3613  150.6390 H   0  0  0  0  0  0  0  0  0  0  0  0  # atno 10167 bound_to 10162
  156.1137  130.6269  150.9343 H   0  0  0  0  0  0  0  0  0  0  0  0  # atno 10718 bound_to 10713
  154.1503  135.2815  155.3137 H   0  0  0  0  0  0  0  0  0  0  0  0  # atno 10763 bound_to 10752
  154.6222  135.5463  153.7591 H   0  0  0  0  0  0  0  0  0  0  0  0  # atno 10764 bound_to 10752
  153.0223  135.6442  154.1647 H   0  0  0  0  0  0  0  0  0  0  0  0  # atno 10765 bound_to 10752
  140.1786  134.4132  155.8214 H   0  0  0  0  0  0  0  0  0  0  0  0  # atno 11005 bound_to 11000
  144.9485  139.4109  143.6414 LP  0  0  0  0  0  0  0  0  0  0  0  0  # atno 17320 bound_to 7965
  146.3297  139.8480  142.8878 LP  0  0  0  0  0  0  0  0  0  0  0  0  # atno 17321 bound_to 7965
  140.6134  143.2171  151.6841 LP  0  0  0  0  0  0  0  0  0  0  0  0  # atno 17342 bound_to 10162
  139.5086  144.3604  152.0567 LP  0  0  0  0  0  0  0  0  0  0  0  0  # atno 17343 bound_to 10162
  157.6319  131.0920  150.8423 LP  0  0  0  0  0  0  0  0  0  0  0  0  # atno 17370 bound_to 10713
  156.8530  130.5087  149.5310 LP  0  0  0  0  0  0  0  0  0  0  0  0  # atno 17371 bound_to 10713
  141.2222  133.6989  156.7890 LP  0  0  0  0  0  0  0  0  0  0  0  0  # atno 17394 bound_to 11000
  140.2294  134.8697  157.3460 LP  0  0  0  0  0  0  0  0  0  0  0  0  # atno 17395 bound_to 11000

$$$$
