#       Name:                AV-unprocessed.smi:3056
#       Creating user name   scv26
#       Creation time:       Fri Mar 27 17:05:29 2020


#       File generated by GOLD software.
#

@<TRIPOS>MOLECULE
AV-unprocessed.smi:3056
    53    54     1
SMALL
NO_CHARGES


@<TRIPOS>ATOM
      1 ****        -3.4451  -2.6803   2.3861 C.3            1 S1                 0.0000
      2 ****        -3.1136  -1.2684   1.9971 C.2            1 S1                 0.0000
      3 ****        -2.4236  -0.2908   2.7675 C.2            1 S1                 0.0000
      4 ****        -2.2869   0.8615   2.1330 N.2            1 S1                 0.0000
      5 ****        -2.8891   0.6663   0.9379 N.pl3          1 S1                 0.0000
      6 ****        -2.9153   1.7317  -0.0605 C.3            1 S1                 0.0000
      7 ****        -3.5938   2.9854   0.5253 C.3            1 S1                 0.0000
      8 ****        -1.4940   2.0097  -0.6209 C.3            1 S1                 0.0000
      9 ****        -1.4733   3.1035  -1.7060 C.3            1 S1                 0.0000
     10 ****        -0.9801   0.7762  -1.2119 N.3            1 S1                 0.0000
     11 ****         0.4795   0.6515  -1.0971 C.3            1 S1                 0.0000
     12 ****         1.0166  -0.6692  -1.6739 C.2            1 S1                 0.0000
     13 ****         0.2414  -1.4248  -2.2639 O.2            1 S1                 0.0000
     14 ****         2.3286  -0.9661  -1.5149 N.am           1 S1                 0.0000
     15 ****         2.9226  -2.2361  -1.9394 C.3            1 S1                 0.0000
     16 ****         3.3709  -2.9963  -0.6786 C.3            1 S1                 0.0000
     17 ****         4.2871  -2.1958   0.0665 O.3            1 S1                 0.0000
     18 ****         3.7500  -0.9337   0.4623 C.3            1 S1                 0.0000
     19 ****         4.8198  -0.1876   1.2666 C.3            1 S1                 0.0000
     20 ****         3.3178  -0.1566  -0.7975 C.3            1 S1                 0.0000
     21 ****        -3.3917  -0.6139   0.8306 C.2            1 S1                 0.0000
     22 ****        -4.1450  -2.7128   3.2211 H              1 S1                 0.0000
     23 ****        -2.5557  -3.2330   2.6891 H              1 S1                 0.0000
     24 ****        -3.9006  -3.2323   1.5635 H              1 S1                 0.0000
     25 ****        -2.0177  -0.3855   3.7638 H              1 S1                 0.0000
     26 ****        -3.5446   1.3812  -0.8804 H              1 S1                 0.0000
     27 ****        -3.7983   3.7282  -0.2450 H              1 S1                 0.0000
     28 ****        -2.9737   3.4578   1.2877 H              1 S1                 0.0000
     29 ****        -4.5504   2.7325   0.9840 H              1 S1                 0.0000
     30 ****        -0.8557   2.3211   0.2080 H              1 S1                 0.0000
     31 ****        -1.7731   4.0707  -1.3036 H              1 S1                 0.0000
     32 ****        -2.1477   2.8613  -2.5280 H              1 S1                 0.0000
     33 ****        -0.4761   3.2378  -2.1251 H              1 S1                 0.0000
     34 ****        -1.2922   0.6986  -2.1694 H              1 S1                 0.0000
     35 ****         0.9627   1.4825  -1.6113 H              1 S1                 0.0000
     36 ****         0.7504   0.7042  -0.0415 H              1 S1                 0.0000
     37 ****         2.2380  -2.8549  -2.5207 H              1 S1                 0.0000
     38 ****         3.7783  -2.0403  -2.5873 H              1 S1                 0.0000
     39 ****         2.5128  -3.2552  -0.0563 H              1 S1                 0.0000
     40 ****         3.8602  -3.9308  -0.9531 H              1 S1                 0.0000
     41 ****         2.8840  -1.1018   1.1053 H              1 S1                 0.0000
     42 ****         4.4515   0.7813   1.6048 H              1 S1                 0.0000
     43 ****         5.7154  -0.0162   0.6690 H              1 S1                 0.0000
     44 ****         5.1116  -0.7577   2.1489 H              1 S1                 0.0000
     45 ****         4.1779   0.0141  -1.4468 H              1 S1                 0.0000
     46 ****         2.9583   0.8340  -0.5232 H              1 S1                 0.0000
     47 ****        -3.8976  -0.9521  -0.0616 H              1 S1                 0.0000
     48 ****        -1.8383   1.6920   2.4633 LP             1 S1                 0.0000
     49 ****        -1.3536   0.0098  -0.6893 LP             1 S1                 0.0000
     50 ****        -0.7221  -1.1755  -2.3621 LP             1 S1                 0.0000
     51 ****         0.5761  -2.2869  -2.6443 LP             1 S1                 0.0000
     52 ****         5.0962  -2.0324  -0.4980 LP             1 S1                 0.0000
     53 ****         4.5509  -2.6994   0.8891 LP             1 S1                 0.0000
@<TRIPOS>BOND
    1    1    2 1     
    2    1   22 1     
    3    1   23 1     
    4    1   24 1     
    5    2   21 2     
    6    2    3 1     
    7    3    4 2     
    8    3   25 1     
    9    4    5 1     
   10    5    6 1     
   11    5   21 1     
   12    6    7 1     
   13    6    8 1     
   14    6   26 1     
   15    7   27 1     
   16    7   28 1     
   17    7   29 1     
   18    8    9 1     
   19    8   10 1     
   20    8   30 1     
   21    9   31 1     
   22    9   32 1     
   23    9   33 1     
   24   10   11 1     
   25   10   34 1     
   26   11   12 1     
   27   11   35 1     
   28   11   36 1     
   29   12   13 2     
   30   12   14 am    
   31   14   20 1     
   32   14   15 1     
   33   15   16 1     
   34   15   37 1     
   35   15   38 1     
   36   16   17 1     
   37   16   39 1     
   38   16   40 1     
   39   17   18 1     
   40   18   19 1     
   41   18   20 1     
   42   18   41 1     
   43   19   42 1     
   44   19   43 1     
   45   19   44 1     
   46   20   45 1     
   47   20   46 1     
   48   21   47 1     
   49    4   48 1     
   50   10   49 1     
   51   13   50 1     
   52   13   51 1     
   53   17   52 1     
   54   17   53 1     
@<TRIPOS>SUBSTRUCTURE
      1 S1             1
@<TRIPOS>SET
LONE_PAIRS      STATIC     ATOMS    <user>   **** ""
6 48 49 50 51 52 53
DONOR_HYDROGENS      STATIC     ATOMS    <user>   **** ""
1 34
ATOM$BLUE        STATIC     ATOMS    COLORGROUP SYSTEM
6 48 49 50 51 52 53
ATOM$RED        STATIC     ATOMS    COLORGROUP SYSTEM
1 34
