#       Name:                AV-unprocessed.smi:1699
#       Creating user name   scv26
#       Creation time:       Fri Mar 27 07:59:31 2020


#       File generated by GOLD software.
#

@<TRIPOS>MOLECULE
AV-unprocessed.smi:1699
    42    43     1
SMALL
NO_CHARGES


@<TRIPOS>ATOM
      1 ****        -4.0123  -0.6173  -1.2040 C.3            1 S1                 0.0000
      2 ****        -3.8126   0.8398  -0.8189 C.ar           1 S1                 0.0000
      3 ****        -4.9385   1.6810  -0.6912 C.ar           1 S1                 0.0000
      4 ****        -4.7518   3.0271  -0.3333 C.ar           1 S1                 0.0000
      5 ****        -3.4385   3.4778  -0.1163 C.ar           1 S1                 0.0000
      6 ****        -2.3570   2.6814  -0.2370 N.ar           1 S1                 0.0000
      7 ****        -2.5196   1.3792  -0.5822 C.ar           1 S1                 0.0000
      8 ****        -1.4248   0.4820  -0.7336 N.am           1 S1                 0.0000
      9 ****        -0.1147   0.7190  -0.5450 C.2            1 S1                 0.0000
     10 ****         0.3700   1.7878  -0.1727 O.2            1 S1                 0.0000
     11 ****         0.6150  -0.3749  -0.8112 N.am           1 S1                 0.0000
     12 ****         2.0670  -0.4820  -0.6873 C.3            1 S1                 0.0000
     13 ****         2.6036  -1.2702  -1.8920 C.3            1 S1                 0.0000
     14 ****         2.4266  -1.1492   0.6561 C.3            1 S1                 0.0000
     15 ****         3.9262  -1.2584   0.9380 C.3            1 S1                 0.0000
     16 ****         4.0075  -1.3051   2.4565 C.3            1 S1                 0.0000
     17 ****         2.6189  -0.8568   2.9190 C.3            1 S1                 0.0000
     18 ****         1.9848  -0.3597   1.7500 O.3            1 S1                 0.0000
     19 ****        -5.0684  -0.8508  -1.3413 H              1 S1                 0.0000
     20 ****        -3.6221  -1.2739  -0.4259 H              1 S1                 0.0000
     21 ****        -3.4955  -0.8403  -2.1379 H              1 S1                 0.0000
     22 ****        -5.9349   1.3020  -0.8647 H              1 S1                 0.0000
     23 ****        -5.5926   3.6962  -0.2277 H              1 S1                 0.0000
     24 ****        -3.2501   4.5045   0.1608 H              1 S1                 0.0000
     25 ****        -1.6709  -0.4523  -1.0241 H              1 S1                 0.0000
     26 ****         0.1269  -1.2068  -1.1084 H              1 S1                 0.0000
     27 ****         2.5149   0.5130  -0.7184 H              1 S1                 0.0000
     28 ****         3.6922  -1.3275  -1.8768 H              1 S1                 0.0000
     29 ****         2.3178  -0.7933  -2.8302 H              1 S1                 0.0000
     30 ****         2.2168  -2.2898  -1.9048 H              1 S1                 0.0000
     31 ****         1.9640  -2.1359   0.7267 H              1 S1                 0.0000
     32 ****         4.3810  -2.1285   0.4638 H              1 S1                 0.0000
     33 ****         4.4439  -0.3696   0.5747 H              1 S1                 0.0000
     34 ****         4.2276  -2.3107   2.8170 H              1 S1                 0.0000
     35 ****         4.7882  -0.6377   2.8230 H              1 S1                 0.0000
     36 ****         2.0490  -1.7049   3.3014 H              1 S1                 0.0000
     37 ****         2.6610  -0.0953   3.6979 H              1 S1                 0.0000
     38 ****        -1.4411   3.0481  -0.0732 LP             1 S1                 0.0000
     39 ****        -0.2259   2.5685   0.0155 LP             1 S1                 0.0000
     40 ****         1.3596   1.8752  -0.0585 LP             1 S1                 0.0000
     41 ****         0.9918  -0.4313   1.8436 LP             1 S1                 0.0000
     42 ****         2.2379   0.5968   1.6049 LP             1 S1                 0.0000
@<TRIPOS>BOND
    1    1    2 1     
    2    1   19 1     
    3    1   20 1     
    4    1   21 1     
    5    2    7 ar    
    6    2    3 ar    
    7    3    4 ar    
    8    3   22 1     
    9    4    5 ar    
   10    4   23 1     
   11    5    6 ar    
   12    5   24 1     
   13    6    7 ar    
   14    7    8 1     
   15    8    9 am    
   16    8   25 1     
   17    9   10 2     
   18    9   11 am    
   19   11   12 1     
   20   11   26 1     
   21   12   13 1     
   22   12   14 1     
   23   12   27 1     
   24   13   28 1     
   25   13   29 1     
   26   13   30 1     
   27   14   18 1     
   28   14   15 1     
   29   14   31 1     
   30   15   16 1     
   31   15   32 1     
   32   15   33 1     
   33   16   17 1     
   34   16   34 1     
   35   16   35 1     
   36   17   18 1     
   37   17   36 1     
   38   17   37 1     
   39    6   38 1     
   40   10   39 1     
   41   10   40 1     
   42   18   41 1     
   43   18   42 1     
@<TRIPOS>SUBSTRUCTURE
      1 S1             1
@<TRIPOS>SET
LONE_PAIRS      STATIC     ATOMS    <user>   **** ""
5 38 39 40 41 42
DONOR_HYDROGENS      STATIC     ATOMS    <user>   **** ""
2 25 26
ATOM$BLUE        STATIC     ATOMS    COLORGROUP SYSTEM
5 38 39 40 41 42
ATOM$RED        STATIC     ATOMS    COLORGROUP SYSTEM
2 25 26
