AV-unprocessed.smi:1050|AV-procd|sdf|4612|dock4
  -GOLD-   22720 3113D 1   1.00000     0.00000
 Structure written by MMmdl.
 48 49  0  0  0  0  0  0  0  0  1 V2000
  147.1477  136.6146  162.6496 C   0  0  0  0  0  0  0  0  0  0  0  0
  147.5190  137.1424  161.3806 O   0  0  0  0  0  0  0  0  0  0  0  0
  147.8741  136.2575  160.3832 C   0  0  0  0  0  0  0  0  0  0  0  0
  147.8587  134.8796  160.6643 C   0  0  0  0  0  0  0  0  0  0  0  0
  148.2202  133.9770  159.6481 C   0  0  0  0  0  0  0  0  0  0  0  0
  148.5770  134.4764  158.3719 C   0  0  0  0  0  0  0  0  0  0  0  0
  148.9935  133.6370  157.2979 N   0  0  0  0  0  0  0  0  0  0  0  0
  149.7788  132.5448  157.3275 C   0  0  0  0  0  0  0  0  0  0  0  0
  150.2963  132.0816  158.3435 O   0  0  0  0  0  0  0  0  0  0  0  0
  150.0063  131.8560  155.9710 C   0  0  2  0  0  0  0  0  0  0  0  0
  151.5027  131.7121  155.6534 C   0  0  0  0  0  0  0  0  0  0  0  0
  149.4127  132.6146  154.9204 O   0  0  0  0  0  0  0  0  0  0  0  0
  149.4478  132.0054  153.6358 C   0  0  0  0  0  0  0  0  0  0  0  0
  148.5771  135.8843  158.1856 C   0  0  0  0  0  0  0  0  0  0  0  0
  148.9278  136.4407  156.9400 N   0  0  0  0  0  0  0  0  0  0  0  0
  150.3392  136.7783  156.7453 C   0  0  0  0  0  0  0  0  0  0  0  0
  150.6020  137.1674  155.2791 C   0  0  0  0  0  0  0  0  0  0  0  0
  149.6921  138.2613  154.9140 N   0  0  0  0  0  0  0  0  0  0  0  0
  150.0604  139.5396  154.6608 C   0  0  0  0  0  0  0  0  0  0  0  0
  148.9813  140.5852  154.3715 C   0  0  0  0  0  0  0  0  0  0  0  0
  151.2363  139.9034  154.6514 O   0  0  0  0  0  0  0  0  0  0  0  0
  148.2886  137.8365  155.0001 C   0  0  0  0  0  0  0  0  0  0  0  0
  147.9725  137.4373  156.4549 C   0  0  0  0  0  0  0  0  0  0  0  0
  148.2295  136.7457  159.1711 N   0  0  0  0  0  0  0  0  0  0  0  0
  146.9003  137.4347  163.3232 H   0  0  0  0  0  0  0  0  0  0  0  0
  147.9649  136.0503  163.1013 H   0  0  0  0  0  0  0  0  0  0  0  0
  146.2688  135.9724  162.5730 H   0  0  0  0  0  0  0  0  0  0  0  0
  147.5813  134.5204  161.6443 H   0  0  0  0  0  0  0  0  0  0  0  0
  148.2327  132.9231  159.8764 H   0  0  0  0  0  0  0  0  0  0  0  0
  148.5796  133.8533  156.4025 H   0  0  0  0  0  0  0  0  0  0  0  0
  149.5673  130.8563  155.9878 H   0  0  0  0  0  0  0  0  0  0  0  0
  152.0203  131.1499  156.4316 H   0  0  0  0  0  0  0  0  0  0  0  0
  151.9903  132.6833  155.5595 H   0  0  0  0  0  0  0  0  0  0  0  0
  151.6480  131.1808  154.7125 H   0  0  0  0  0  0  0  0  0  0  0  0
  149.0421  132.6971  152.8978 H   0  0  0  0  0  0  0  0  0  0  0  0
  148.8495  131.0947  153.5955 H   0  0  0  0  0  0  0  0  0  0  0  0
  150.4703  131.7661  153.3413 H   0  0  0  0  0  0  0  0  0  0  0  0
  150.6149  137.6066  157.3997 H   0  0  0  0  0  0  0  0  0  0  0  0
  150.9610  135.9262  157.0224 H   0  0  0  0  0  0  0  0  0  0  0  0
  151.6556  137.4070  155.1442 H   0  0  0  0  0  0  0  0  0  0  0  0
  150.4110  136.3134  154.6273 H   0  0  0  0  0  0  0  0  0  0  0  0
  148.3879  140.2995  153.5022 H   0  0  0  0  0  0  0  0  0  0  0  0
  149.4323  141.5556  154.1608 H   0  0  0  0  0  0  0  0  0  0  0  0
  148.3200  140.7051  155.2299 H   0  0  0  0  0  0  0  0  0  0  0  0
  147.5903  138.6064  154.6695 H   0  0  0  0  0  0  0  0  0  0  0  0
  148.1307  136.9856  154.3357 H   0  0  0  0  0  0  0  0  0  0  0  0
  146.9536  137.0549  156.5173 H   0  0  0  0  0  0  0  0  0  0  0  0
  148.0192  138.3156  157.1004 H   0  0  0  0  0  0  0  0  0  0  0  0
  1  2  1  0  0  0  0
  1 25  1  0  0  0  0
  1 26  1  0  0  0  0
  1 27  1  0  0  0  0
  2  3  1  0  0  0  0
  3 24  1  0  0  0  0
  3  4  2  0  0  0  0
  4  5  1  0  0  0  0
  4 28  1  0  0  0  0
  5  6  2  0  0  0  0
  5 29  1  0  0  0  0
  6  7  1  0  0  0  0
  6 14  1  0  0  0  0
  7  8  1  0  0  0  0
  7 30  1  0  0  0  0
  8  9  2  0  0  0  0
  8 10  1  0  0  0  0
 10 11  1  0  0  0  0
 10 12  1  0  0  0  0
 10 31  1  0  0  0  0
 11 32  1  0  0  0  0
 11 33  1  0  0  0  0
 11 34  1  0  0  0  0
 12 13  1  0  0  0  0
 13 35  1  0  0  0  0
 13 36  1  0  0  0  0
 13 37  1  0  0  0  0
 14 15  1  0  0  0  0
 14 24  2  0  0  0  0
 15 23  1  0  0  0  0
 15 16  1  0  0  0  0
 16 17  1  0  0  0  0
 16 38  1  0  0  0  0
 16 39  1  0  0  0  0
 17 18  1  0  0  0  0
 17 40  1  0  0  0  0
 17 41  1  0  0  0  0
 18 19  1  0  0  0  0
 18 22  1  0  0  0  0
 19 20  1  0  0  0  0
 19 21  2  0  0  0  0
 20 42  1  0  0  0  0
 20 43  1  0  0  0  0
 20 44  1  0  0  0  0
 22 23  1  0  0  0  0
 22 45  1  0  0  0  0
 22 46  1  0  0  0  0
 23 47  1  0  0  0  0
 23 48  1  0  0  0  0
M  END
> <s_m_source_file>
AV-unprocessed.smi

> <i_m_source_file_index>
1050

> <i_lp_mmshare_version>
43012

> <i_f3d_flags>
0

> <s_epik_input>
W0NIM11PYzFbY0hdW2NIXWMoW05IXUMoPU8pW0NASF0oW0NIM10pT1tDSDNdKWMobjEpTjJbQ0gyXVtDSDJdTihDKD1PKVtDSDNdKVtDSDJdW0NIMl0y

> <s_epik_cmdline>
J2VwaWtfcHl0aG9uJywgJy1waCcsICc3LjAnLCAnLXRuJywgJzgnLCAnLW1hJywgJzIwMCcsICctbWV0YWxfYmluZGluZycsICctaW1hZScsICc8aW5maWxlLm1hZT4nLCAnLW9tYWUnLCAnPG91dGZpbGUubWFlPic=

> <r_lp_tautomer_probability>
1

> <r_epik_Ionization_Penalty>
0.000150604

> <r_epik_Ionization_Penalty_Charging>
0

> <r_epik_Ionization_Penalty_Neutral>
0.000150604

> <r_epik_State_Penalty>
-0

> <r_epik_Charging_Adjusted_Penalty>
0

> <i_epik_Tot_Q>
0

> <i_epik_Tot_abs_Q>
0

> <r_epik_Metal_State_Penalty>
-0

> <b_epik_Metal_Only>
0

> <s_lp_Force_Field>
OPLS_2005

> <r_lp_Energy>
41.1233

> <b_lp_Chiralities_Consistent>
1

> <s_lp_Variant>
AV-unprocessed.smi:1050-1

> <Gold.Version>
5.8.1

> <Gold.Id.Protein>
6NUR|6NUR_protein|mol2

> <Gold.PLP.Fitness>
40.9503

> <Gold.PLP.PLP>
-31.6257

> <Gold.PLP.part.hbond>
-4.0000

> <Gold.PLP.part.metal>
0.0000

> <Gold.PLP.part.buried>
-5.0992

> <Gold.PLP.part.nonpolar>
-22.7348

> <Gold.PLP.part.repulsive>
0.1517

> <Gold.PLP.ligand.clash>
0.6974

> <Gold.PLP.ligand.torsion>
0.8728

> <Gold.PLP.Chemscore.Hbond>
3.8080

> <Gold.PLP.Chemscore.CHOScore>
0.0000

> <Gold.PLP.Chemscore.Metal>
0.0000

> <Gold.Chemscore.Hbonds>
donor molecule, donor type, donor heavy atom, donor atom, acceptor molecule, acceptor atom, score
      P1  H  6896  6907       L1     9  1.00
      P1  H  6931  6943       L1     2  0.96
      P1  H  6934  6947       L1     2  0.90
      P1  H  7989  7998       L1    21  1.00

> <Gold.PLP.Chemscore.Internal.Correction>
0.3437

> <Gold.Rescore>
     Score         DG    S(hbond)    S(metal)    S(lipo)     H(rot)  DE(clash)    DE(int)     intcor
     17.36     -18.39       3.29        0.00      53.87       1.71       0.01       1.02       ----

> <Gold.Chemscore.Fitness>
17.3620

> <Gold.Chemscore.DG>
-18.3944

> <Gold.Chemscore.ZeroCoef>
-5.4800

> <Gold.Chemscore.Hbond>
3.2905

> <Gold.Chemscore.Metal>
0.0000

> <Gold.Chemscore.Lipo>
53.8713

> <Gold.Chemscore.Internal_Hbond>
0.0000

> <Gold.Chemscore.DEClash>
0.0077

> <Gold.Chemscore.DEInternal>
1.0246

> <Gold.Chemscore.Rot>
1.7106

> <Gold.Chemscore.Internal.Correction>
   9.000000E+99

> <Gold.Chemscore.Hbonds>
donor molecule, donor type, donor heavy atom, donor atom, acceptor molecule, acceptor atom, score
      P1  H  6896  6907       L1     9  0.74
      P1  H  6931  6943       L1     2  0.18
      P1  H  6934  6947       L1     2  0.84
      P1  H  7989  7998       L1    21  0.88

> <Gold.Chemscore.Hbond.Weighted>
-10.9904

> <Gold.Chemscore.Metal.Weighted>
-0.0000

> <Gold.Chemscore.Lipo.Weighted>
-6.3029

> <Gold.Chemscore.Internal_Hbond.Weighted>
0.0000

> <Gold.Chemscore.DEClash.Weighted>
0.0077

> <Gold.Chemscore.DEInternal.Weighted>
1.0246

> <Gold.Chemscore.Rot.Weighted>
4.3790

> <Gold.Chemscore.Internal.Correction.Weighted>
   9.000000E+99

> <Gold.Protein.RotatedTorsions>
[ 6907 6896 6895 6894 ] final -152.50 input  -60.11 | X-H torsion
[ 7974 7965 7964 7962 ] final  -28.72 input  175.53 | X-H torsion
[ 8008 7997 7996 7995 ] final  140.35 input   59.86 | X-H torsion
[ 10167 10162 10161 10158 ] final   86.95 input  -65.29 | X-H torsion
[ 10718 10713 10712 10709 ] final  -51.47 input   66.30 | X-H torsion
[ 10763 10752 10751 10750 ] final -176.65 input  -60.55 | X-H torsion
[ 11005 11000 10999 10996 ] final  -78.97 input  -57.11 | X-H torsion

> <Gold.Protein.ActiveResidues>
 VAL166  LYS551  ARG553  GLY616  TRP617  ASP618  TYR619  PRO620  LYS621  CYS622 
 ASP623  PHE694  ASN695  SER759  ASP760  ASP761  ALA762  ILE779  LEU786  VAL792 
 PHE793  MET794  SER795  GLU796  ALA797  LYS798  CYS799  TRP800  GLU811  SER814 

> <Gold.Protein.RotatedAtoms>
  151.2287  133.4462  159.2602 H   0  0  0  0  0  0  0  0  0  0  0  0  # atno 6907 bound_to 6896
  151.0816  134.9861  159.8369 H   0  0  0  0  0  0  0  0  0  0  0  0  # atno 6908 bound_to 6896
  152.5425  134.2226  159.8846 H   0  0  0  0  0  0  0  0  0  0  0  0  # atno 6909 bound_to 6896
  146.1268  140.5319  142.8711 H   0  0  0  0  0  0  0  0  0  0  0  0  # atno 7974 bound_to 7965
  156.2980  140.2343  156.4387 H   0  0  0  0  0  0  0  0  0  0  0  0  # atno 8008 bound_to 7997
  154.8205  140.0438  157.1428 H   0  0  0  0  0  0  0  0  0  0  0  0  # atno 8009 bound_to 7997
  154.9320  140.3018  155.5166 H   0  0  0  0  0  0  0  0  0  0  0  0  # atno 8010 bound_to 7997
  139.8823  144.6433  150.8829 H   0  0  0  0  0  0  0  0  0  0  0  0  # atno 10167 bound_to 10162
  156.1707  130.4149  149.9652 H   0  0  0  0  0  0  0  0  0  0  0  0  # atno 10718 bound_to 10713
  154.5698  135.2827  155.0838 H   0  0  0  0  0  0  0  0  0  0  0  0  # atno 10763 bound_to 10752
  154.2215  135.6390  153.5150 H   0  0  0  0  0  0  0  0  0  0  0  0  # atno 10764 bound_to 10752
  153.0054  135.5515  154.6318 H   0  0  0  0  0  0  0  0  0  0  0  0  # atno 10765 bound_to 10752
  141.1666  133.7086  156.8052 H   0  0  0  0  0  0  0  0  0  0  0  0  # atno 11005 bound_to 11000
  144.7650  140.5510  143.6709 LP  0  0  0  0  0  0  0  0  0  0  0  0  # atno 17320 bound_to 7965
  145.5348  139.1475  143.3479 LP  0  0  0  0  0  0  0  0  0  0  0  0  # atno 17321 bound_to 7965
  140.7742  143.3576  151.1891 LP  0  0  0  0  0  0  0  0  0  0  0  0  # atno 17342 bound_to 10162
  139.7185  143.9262  152.2976 LP  0  0  0  0  0  0  0  0  0  0  0  0  # atno 17343 bound_to 10162
  156.7453  130.9095  151.3634 LP  0  0  0  0  0  0  0  0  0  0  0  0  # atno 17370 bound_to 10713
  157.6800  130.9131  150.0244 LP  0  0  0  0  0  0  0  0  0  0  0  0  # atno 17371 bound_to 10713
  140.2227  134.8745  157.3394 LP  0  0  0  0  0  0  0  0  0  0  0  0  # atno 17394 bound_to 11000
  140.1971  134.4300  155.7683 LP  0  0  0  0  0  0  0  0  0  0  0  0  # atno 17395 bound_to 11000

$$$$
