AV-unprocessed.smi:1726|AV-procd|sdf|6964|dock6
  -GOLD-   22720 8173D 1   1.00000     0.00000
 Structure written by MMmdl.
 42 43  0  0  0  0  0  0  0  0  3 V2000
  146.2046  137.8554  152.3076 C   0  0  0  0  0  0  0  0  0  0  0  0
  145.8350  136.7203  151.3415 C   0  0  0  0  0  0  0  0  0  0  0  0
  146.1246  135.3754  151.9009 N   0  3  2  0  0  0  0  0  0  0  0  0
  145.8606  134.2934  150.9167 C   0  0  0  0  0  0  0  0  0  0  0  0
  146.2908  132.9225  151.4646 C   0  0  0  0  0  0  0  0  0  0  0  0
  145.6005  132.6221  152.8009 C   0  0  0  0  0  0  0  0  0  0  0  0
  145.8671  133.7621  153.7957 C   0  0  2  0  0  0  0  0  0  0  0  0
  145.1637  133.5043  155.0484 N   0  0  0  0  0  0  0  0  0  0  0  0
  145.4877  134.0339  156.2370 C   0  0  0  0  0  0  0  0  0  0  0  0
  146.4311  134.8099  156.3910 O   0  0  0  0  0  0  0  0  0  0  0  0
  144.6378  133.6211  157.1941 N   0  0  0  0  0  0  0  0  0  0  0  0
  144.6308  133.9209  158.5668 C   0  0  0  0  0  0  0  0  0  0  0  0
  145.7013  134.3931  159.2638 C   0  0  0  0  0  0  0  0  0  0  0  0
  145.6387  134.6750  160.6925 C   0  0  0  0  0  0  0  0  0  0  0  0
  146.8303  135.1320  161.5153 C   0  0  0  0  0  0  0  0  0  0  0  0
  146.5359  136.2265  162.2176 F   0  0  0  0  0  0  0  0  0  0  0  0
  147.2198  134.1802  162.3635 F   0  0  0  0  0  0  0  0  0  0  0  0
  147.8537  135.4172  160.7118 F   0  0  0  0  0  0  0  0  0  0  0  0
  144.4026  134.3768  161.2322 C   0  0  0  0  0  0  0  0  0  0  0  0
  143.2939  133.9138  160.6142 N   0  5  0  0  0  0  0  0  0  0  0  0
  143.3602  133.6644  159.2759 C   0  0  0  0  0  0  0  0  0  0  0  0
  142.3898  133.2345  158.6511 O   0  0  0  0  0  0  0  0  0  0  0  0
  145.4357  135.1163  153.1933 C   0  0  0  0  0  0  0  0  0  0  0  0
  146.0818  138.8242  151.8229 H   0  0  0  0  0  0  0  0  0  0  0  0
  147.2439  137.7774  152.6285 H   0  0  0  0  0  0  0  0  0  0  0  0
  145.5755  137.8602  153.1972 H   0  0  0  0  0  0  0  0  0  0  0  0
  144.7857  136.7878  151.0505 H   0  0  0  0  0  0  0  0  0  0  0  0
  146.4173  136.8602  150.4299 H   0  0  0  0  0  0  0  0  0  0  0  0
  144.7992  134.2817  150.6640 H   0  0  0  0  0  0  0  0  0  0  0  0
  146.4044  134.4939  149.9926 H   0  0  0  0  0  0  0  0  0  0  0  0
  146.0564  132.1415  150.7407 H   0  0  0  0  0  0  0  0  0  0  0  0
  147.3733  132.9047  151.5988 H   0  0  0  0  0  0  0  0  0  0  0  0
  144.5273  132.5066  152.6412 H   0  0  0  0  0  0  0  0  0  0  0  0
  145.9615  131.6744  153.2025 H   0  0  0  0  0  0  0  0  0  0  0  0
  146.9400  133.7911  153.9977 H   0  0  0  0  0  0  0  0  0  0  0  0
  144.3720  132.8786  155.0088 H   0  0  0  0  0  0  0  0  0  0  0  0
  143.8661  133.0429  156.8942 H   0  0  0  0  0  0  0  0  0  0  0  0
  146.6478  134.5599  158.7770 H   0  0  0  0  0  0  0  0  0  0  0  0
  144.2885  134.5305  162.3264 H   0  0  0  0  0  0  0  0  0  0  0  0
  145.6669  135.9118  153.9009 H   0  0  0  0  0  0  0  0  0  0  0  0
  144.3553  135.1362  153.0398 H   0  0  0  0  0  0  0  0  0  0  0  0
  147.1170  135.3509  152.0877 H   0  0  0  0  0  0  0  0  0  0  0  0
  1  2  1  0  0  0  0
  1 24  1  0  0  0  0
  1 25  1  0  0  0  0
  1 26  1  0  0  0  0
  2  3  1  0  0  0  0
  2 27  1  0  0  0  0
  2 28  1  0  0  0  0
  3 23  1  0  0  0  0
  3  4  1  0  0  0  0
  3 42  1  0  0  0  0
  4  5  1  0  0  0  0
  4 29  1  0  0  0  0
  4 30  1  0  0  0  0
  5  6  1  0  0  0  0
  5 31  1  0  0  0  0
  5 32  1  0  0  0  0
  6  7  1  0  0  0  0
  6 33  1  0  0  0  0
  6 34  1  0  0  0  0
  7  8  1  0  0  0  0
  7 23  1  0  0  0  0
  7 35  1  0  0  0  0
  8  9  1  0  0  0  0
  8 36  1  0  0  0  0
  9 10  2  0  0  0  0
  9 11  1  0  0  0  0
 11 12  1  0  0  0  0
 11 37  1  0  0  0  0
 12 21  1  0  0  0  0
 12 13  2  0  0  0  0
 13 14  1  0  0  0  0
 13 38  1  0  0  0  0
 14 15  1  0  0  0  0
 14 19  2  0  0  0  0
 15 16  1  0  0  0  0
 15 17  1  0  0  0  0
 15 18  1  0  0  0  0
 19 20  1  0  0  0  0
 19 39  1  0  0  0  0
 20 21  1  0  0  0  0
 21 22  2  0  0  0  0
 23 40  1  0  0  0  0
 23 41  1  0  0  0  0
M  CHG  1   3   1
M  CHG  1  20  -1
M  END
> <s_m_source_file>
AV-unprocessed.smi

> <i_m_source_file_index>
1726

> <i_lp_mmshare_version>
43012

> <i_f3d_flags>
0

> <s_epik_input>
W0NIM11bQ0gyXU4xW0NIMl1bQ0gyXVtDSDJdW0NASF0oW0NIMl0xKVtOSF1DKD1PKVtOSF1jMltjSF1jKEMoRikoRilGKVtjSF1bbkhdYzI9Tw==

> <s_epik_cmdline>
J2VwaWtfcHl0aG9uJywgJy1waCcsICc3LjAnLCAnLXRuJywgJzgnLCAnLW1hJywgJzIwMCcsICctbWV0YWxfYmluZGluZycsICctaW1hZScsICc8aW5maWxlLm1hZT4nLCAnLW9tYWUnLCAnPG91dGZpbGUubWFlPic=

> <r_lp_tautomer_probability>
1

> <r_epik_Ionization_Penalty>
3.01007

> <r_epik_Ionization_Penalty_Charging>
0.14897

> <r_epik_Ionization_Penalty_Neutral>
2.8611

> <r_epik_State_Penalty>
2.85632

> <r_epik_Charging_Adjusted_Penalty>
3.00529

> <i_epik_Tot_Q>
0

> <i_epik_Tot_abs_Q>
2

> <r_epik_Metal_State_Penalty>
0.443826

> <b_epik_Metal_Only>
1

> <s_lp_Force_Field>
OPLS_2005

> <r_lp_Energy>
27.5552

> <b_lp_Chiralities_Consistent>
1

> <s_lp_Variant>
AV-unprocessed.smi:1726-8

> <Gold.Version>
5.8.1

> <Gold.Id.Protein>
6NUR|6NUR_protein|mol2

> <Gold.PLP.Fitness>
37.7534

> <Gold.PLP.PLP>
-26.9038

> <Gold.PLP.part.hbond>
-2.9581

> <Gold.PLP.part.metal>
0.0000

> <Gold.PLP.part.buried>
-2.3364

> <Gold.PLP.part.nonpolar>
-21.9537

> <Gold.PLP.part.repulsive>
0.0986

> <Gold.PLP.ligand.clash>
0.0000

> <Gold.PLP.ligand.torsion>
0.5131

> <Gold.PLP.Chemscore.Hbond>
3.9345

> <Gold.PLP.Chemscore.CHOScore>
0.0000

> <Gold.PLP.Chemscore.Metal>
0.0000

> <Gold.Chemscore.Hbonds>
donor molecule, donor type, donor heavy atom, donor atom, acceptor molecule, acceptor atom, score
      L1  H     3    42       P1  7948  1.92
      L1  H     8    36       P1 10957  0.98
      P1  H 11000 11005       L1    22  0.99

> <Gold.PLP.Chemscore.Internal.Correction>
0.0724

> <Gold.Rescore>
     Score         DG    S(hbond)    S(metal)    S(lipo)     H(rot)  DE(clash)    DE(int)     intcor
     15.85     -17.61       2.81        0.00      51.37       1.28       0.23       1.52       ----

> <Gold.Chemscore.Fitness>
15.8522

> <Gold.Chemscore.DG>
-17.6084

> <Gold.Chemscore.ZeroCoef>
-5.4800

> <Gold.Chemscore.Hbond>
2.8127

> <Gold.Chemscore.Metal>
0.0000

> <Gold.Chemscore.Lipo>
51.3661

> <Gold.Chemscore.Internal_Hbond>
0.0000

> <Gold.Chemscore.DEClash>
0.2336

> <Gold.Chemscore.DEInternal>
1.5227

> <Gold.Chemscore.Rot>
1.2796

> <Gold.Chemscore.Internal.Correction>
   9.000000E+99

> <Gold.Chemscore.Hbonds>
donor molecule, donor type, donor heavy atom, donor atom, acceptor molecule, acceptor atom, score
      L1  H     3    42       P1  7948  0.87
      L1  H     8    36       P1 10957  0.92
      P1  H 11000 11005       L1    22  0.90

> <Gold.Chemscore.Hbond.Weighted>
-9.3944

> <Gold.Chemscore.Metal.Weighted>
-0.0000

> <Gold.Chemscore.Lipo.Weighted>
-6.0098

> <Gold.Chemscore.Internal_Hbond.Weighted>
0.0000

> <Gold.Chemscore.DEClash.Weighted>
0.2336

> <Gold.Chemscore.DEInternal.Weighted>
1.5227

> <Gold.Chemscore.Rot.Weighted>
3.2759

> <Gold.Chemscore.Internal.Correction.Weighted>
   9.000000E+99

> <Gold.Protein.RotatedTorsions>
[ 6907 6896 6895 6894 ] final   82.77 input  -60.11 | X-H torsion
[ 7974 7965 7964 7962 ] final   22.16 input  175.53 | X-H torsion
[ 8008 7997 7996 7995 ] final -129.37 input   59.86 | X-H torsion
[ 10167 10162 10161 10158 ] final  -41.27 input  -65.29 | X-H torsion
[ 10718 10713 10712 10709 ] final -122.10 input   66.30 | X-H torsion
[ 10763 10752 10751 10750 ] final  161.08 input  -60.55 | X-H torsion
[ 11005 11000 10999 10996 ] final -129.98 input  -57.11 | X-H torsion

> <Gold.Protein.ActiveResidues>
 VAL166  LYS551  ARG553  GLY616  TRP617  ASP618  TYR619  PRO620  LYS621  CYS622 
 ASP623  PHE694  ASN695  SER759  ASP760  ASP761  ALA762  ILE779  LEU786  VAL792 
 PHE793  MET794  SER795  GLU796  ALA797  LYS798  CYS799  TRP800  GLU811  SER814 

> <Gold.Protein.RotatedAtoms>
  152.5308  134.2999  159.9074 H   0  0  0  0  0  0  0  0  0  0  0  0  # atno 6907 bound_to 6896
  151.2950  133.4141  159.2643 H   0  0  0  0  0  0  0  0  0  0  0  0  # atno 6908 bound_to 6896
  151.0168  134.9455  159.8094 H   0  0  0  0  0  0  0  0  0  0  0  0  # atno 6909 bound_to 6896
  146.2041  139.7925  142.8739 H   0  0  0  0  0  0  0  0  0  0  0  0  # atno 7974 bound_to 7965
  155.2780  140.0443  157.3013 H   0  0  0  0  0  0  0  0  0  0  0  0  # atno 8008 bound_to 7997
  154.5613  140.2347  155.8299 H   0  0  0  0  0  0  0  0  0  0  0  0  # atno 8009 bound_to 7997
  156.2050  140.3015  155.9614 H   0  0  0  0  0  0  0  0  0  0  0  0  # atno 8010 bound_to 7997
  140.7008  143.3104  151.3043 H   0  0  0  0  0  0  0  0  0  0  0  0  # atno 10167 bound_to 10162
  156.1391  130.6453  150.9743 H   0  0  0  0  0  0  0  0  0  0  0  0  # atno 10718 bound_to 10713
  154.2575  135.2769  155.2792 H   0  0  0  0  0  0  0  0  0  0  0  0  # atno 10763 bound_to 10752
  154.5412  135.5702  153.6845 H   0  0  0  0  0  0  0  0  0  0  0  0  # atno 10764 bound_to 10752
  152.9968  135.6251  154.2724 H   0  0  0  0  0  0  0  0  0  0  0  0  # atno 10765 bound_to 10752
  140.9385  134.1224  157.4172 H   0  0  0  0  0  0  0  0  0  0  0  0  # atno 11005 bound_to 11000
  145.3382  141.0282  143.3407 LP  0  0  0  0  0  0  0  0  0  0  0  0  # atno 17320 bound_to 7965
  144.8750  139.4983  143.6749 LP  0  0  0  0  0  0  0  0  0  0  0  0  # atno 17321 bound_to 7965
  139.6525  144.0336  152.2636 LP  0  0  0  0  0  0  0  0  0  0  0  0  # atno 17342 bound_to 10162
  139.9877  144.6383  150.7842 LP  0  0  0  0  0  0  0  0  0  0  0  0  # atno 17343 bound_to 10162
  157.6559  131.0889  150.7947 LP  0  0  0  0  0  0  0  0  0  0  0  0  # atno 17370 bound_to 10713
  156.8024  130.4925  149.5368 LP  0  0  0  0  0  0  0  0  0  0  0  0  # atno 17371 bound_to 10713
  139.8814  135.0029  156.6153 LP  0  0  0  0  0  0  0  0  0  0  0  0  # atno 17394 bound_to 11000
  140.7766  133.8694  155.8534 LP  0  0  0  0  0  0  0  0  0  0  0  0  # atno 17395 bound_to 11000

$$$$
