AV-unprocessed.smi:703|AV-procd|sdf|3434|dock1
  -GOLD-   22720 0423D 1   1.00000     0.00000
 Structure written by MMmdl.
 37 38  0  0  0  0  0  0  0  0  3 V2000
  151.4874  138.3320  154.4462 C   0  0  0  0  0  0  0  0  0  0  0  0
  149.9775  138.1170  154.6166 C   0  0  0  0  0  0  0  0  0  0  0  0
  149.5929  136.6916  154.4724 N   0  3  1  0  0  0  0  0  0  0  0  0
  150.5621  135.7250  155.0422 C   0  0  0  0  0  0  0  0  0  0  0  0
  149.7187  134.5470  155.5405 C   0  0  1  0  0  0  0  0  0  0  0  0
  150.4419  133.6038  156.5251 C   0  0  0  0  0  0  0  0  0  0  0  0
  148.4191  135.2198  156.0195 C   0  0  1  0  0  0  0  0  0  0  0  0
  148.5768  135.7794  157.3574 N   0  5  0  0  0  0  0  0  0  0  0  0
  148.1071  134.9128  158.6433 S   0  0  0  0  0  0  0  0  0  0  0  0
  146.6422  134.8123  158.7458 O   0  0  0  0  0  0  0  0  0  0  0  0
  148.8752  133.6663  158.7939 O   0  0  0  0  0  0  0  0  0  0  0  0
  148.6482  136.0204  160.0140 C   0  0  0  0  0  0  0  0  0  0  0  0
  147.5912  136.0782  161.0810 C   0  0  0  0  0  0  0  0  0  0  0  0
  147.1117  135.0272  161.9113 C   0  0  0  0  0  0  0  0  0  0  0  0
  146.1709  135.6381  162.6887 C   0  0  0  0  0  0  0  0  0  0  0  0
  146.0795  136.9555  162.3772 O   0  0  0  0  0  0  0  0  0  0  0  0
  146.9929  137.2279  161.3523 N   0  0  0  0  0  0  0  0  0  0  0  0
  148.2465  136.3676  155.0118 C   0  0  0  0  0  0  0  0  0  0  0  0
  151.7322  139.3934  154.4912 H   0  0  0  0  0  0  0  0  0  0  0  0
  151.8341  137.9524  153.4847 H   0  0  0  0  0  0  0  0  0  0  0  0
  152.0566  137.8325  155.2305 H   0  0  0  0  0  0  0  0  0  0  0  0
  149.6447  138.4950  155.5845 H   0  0  0  0  0  0  0  0  0  0  0  0
  149.4545  138.6978  153.8559 H   0  0  0  0  0  0  0  0  0  0  0  0
  151.2924  135.4176  154.2930 H   0  0  0  0  0  0  0  0  0  0  0  0
  151.1162  136.1795  155.8681 H   0  0  0  0  0  0  0  0  0  0  0  0
  149.4557  133.9493  154.6659 H   0  0  0  0  0  0  0  0  0  0  0  0
  150.8023  134.1245  157.4140 H   0  0  0  0  0  0  0  0  0  0  0  0
  151.3106  133.1503  156.0475 H   0  0  0  0  0  0  0  0  0  0  0  0
  149.7943  132.7897  156.8555 H   0  0  0  0  0  0  0  0  0  0  0  0
  147.5803  134.5260  155.9540 H   0  0  0  0  0  0  0  0  0  0  0  0
  149.5862  135.6361  160.4141 H   0  0  0  0  0  0  0  0  0  0  0  0
  148.8446  137.0078  159.5956 H   0  0  0  0  0  0  0  0  0  0  0  0
  147.4075  133.9887  161.9266 H   0  0  0  0  0  0  0  0  0  0  0  0
  145.5147  135.2885  163.4718 H   0  0  0  0  0  0  0  0  0  0  0  0
  147.7395  137.2333  155.4430 H   0  0  0  0  0  0  0  0  0  0  0  0
  147.6324  136.0313  154.1758 H   0  0  0  0  0  0  0  0  0  0  0  0
  149.5408  136.4997  153.4825 H   0  0  0  0  0  0  0  0  0  0  0  0
  1  2  1  0  0  0  0
  1 19  1  0  0  0  0
  1 20  1  0  0  0  0
  1 21  1  0  0  0  0
  2  3  1  0  0  0  0
  2 22  1  0  0  0  0
  2 23  1  0  0  0  0
  3 18  1  0  0  0  0
  3  4  1  0  0  0  0
  3 37  1  0  0  0  0
  4  5  1  0  0  0  0
  4 24  1  0  0  0  0
  4 25  1  0  0  0  0
  5  6  1  0  0  0  0
  5  7  1  0  0  0  0
  5 26  1  0  0  0  0
  6 27  1  0  0  0  0
  6 28  1  0  0  0  0
  6 29  1  0  0  0  0
  7  8  1  0  0  0  0
  7 18  1  0  0  0  0
  7 30  1  0  0  0  0
  8  9  1  0  0  0  0
  9 10  2  0  0  0  0
  9 11  2  0  0  0  0
  9 12  1  0  0  0  0
 12 13  1  0  0  0  0
 12 31  1  0  0  0  0
 12 32  1  0  0  0  0
 13 17  2  0  0  0  0
 13 14  1  0  0  0  0
 14 15  2  0  0  0  0
 14 33  1  0  0  0  0
 15 16  1  0  0  0  0
 15 34  1  0  0  0  0
 16 17  1  0  0  0  0
 18 35  1  0  0  0  0
 18 36  1  0  0  0  0
M  CHG  1   3   1
M  CHG  1   8  -1
M  END
> <s_m_source_file>
AV-unprocessed.smi

> <i_m_source_file_index>
703

> <i_lp_mmshare_version>
43012

> <i_f3d_flags>
0

> <s_epik_input>
W0NIM11bQ0gyXU4xW0NIMl1bQ0BASF0oW0NIM10pW0NASF0oW0NIMl0xKVtOSF1TKD1PKSg9TylbQ0gyXWMyW2NIXVtjSF1vbjI=

> <s_epik_cmdline>
J2VwaWtfcHl0aG9uJywgJy1waCcsICc3LjAnLCAnLXRuJywgJzgnLCAnLW1hJywgJzIwMCcsICctbWV0YWxfYmluZGluZycsICctaW1hZScsICc8aW5maWxlLm1hZT4nLCAnLW9tYWUnLCAnPG91dGZpbGUubWFlPic=

> <r_epik_Ionization_Penalty>
3.62494

> <r_epik_Ionization_Penalty_Charging>
3.62494

> <r_epik_Ionization_Penalty_Neutral>
2.0321e-10

> <r_epik_State_Penalty>
3.62558

> <r_epik_Charging_Adjusted_Penalty>
7.25052

> <i_epik_Tot_Q>
0

> <i_epik_Tot_abs_Q>
2

> <r_epik_Metal_State_Penalty>
0.530836

> <b_epik_Metal_Only>
1

> <s_lp_Force_Field>
OPLS_2005

> <r_lp_Energy>
18.2255

> <b_lp_Chiralities_Consistent>
1

> <s_lp_Variant>
AV-unprocessed.smi:703-9

> <Gold.Version>
5.8.1

> <Gold.Id.Protein>
6NUR|6NUR_protein|mol2

> <Gold.PLP.Fitness>
39.1988

> <Gold.PLP.PLP>
-26.7493

> <Gold.PLP.part.hbond>
-4.0000

> <Gold.PLP.part.metal>
0.0000

> <Gold.PLP.part.buried>
-3.0632

> <Gold.PLP.part.nonpolar>
-20.2266

> <Gold.PLP.part.repulsive>
0.0292

> <Gold.PLP.ligand.clash>
0.0000

> <Gold.PLP.ligand.torsion>
1.5510

> <Gold.PLP.Chemscore.Hbond>
4.8240

> <Gold.PLP.Chemscore.CHOScore>
0.0000

> <Gold.PLP.Chemscore.Metal>
0.0000

> <Gold.Chemscore.Hbonds>
donor molecule, donor type, donor heavy atom, donor atom, acceptor molecule, acceptor atom, score
      L1  H     3    37       P1  7948  2.00
      P1  H  6896  6909       L1    11  0.99
      P1  H  6931  6943       L1    17  0.12
      P1  H  6934  6947       L1    17  1.00

> <Gold.PLP.Chemscore.Internal.Correction>
1.0795

> <Gold.Rescore>
     Score         DG    S(hbond)    S(metal)    S(lipo)     H(rot)  DE(clash)    DE(int)     intcor
     16.78     -18.19       2.87        0.00      62.57       1.63       0.06       1.34       ----

> <Gold.Chemscore.Fitness>
16.7847

> <Gold.Chemscore.DG>
-18.1899

> <Gold.Chemscore.ZeroCoef>
-5.4800

> <Gold.Chemscore.Hbond>
2.8659

> <Gold.Chemscore.Metal>
0.0000

> <Gold.Chemscore.Lipo>
62.5668

> <Gold.Chemscore.Internal_Hbond>
0.0000

> <Gold.Chemscore.DEClash>
0.0641

> <Gold.Chemscore.DEInternal>
1.3411

> <Gold.Chemscore.Rot>
1.6338

> <Gold.Chemscore.Internal.Correction>
   9.000000E+99

> <Gold.Chemscore.Hbonds>
donor molecule, donor type, donor heavy atom, donor atom, acceptor molecule, acceptor atom, score
      L1  H     3    37       P1  7948  0.65
      P1  H  6896  6909       L1    11  0.89
      P1  H  6931  6943       L1    17  0.01
      P1  H  6934  6947       L1    17  0.87

> <Gold.Chemscore.Hbond.Weighted>
-9.5721

> <Gold.Chemscore.Metal.Weighted>
-0.0000

> <Gold.Chemscore.Lipo.Weighted>
-7.3203

> <Gold.Chemscore.Internal_Hbond.Weighted>
0.0000

> <Gold.Chemscore.DEClash.Weighted>
0.0641

> <Gold.Chemscore.DEInternal.Weighted>
1.3411

> <Gold.Chemscore.Rot.Weighted>
4.1825

> <Gold.Chemscore.Internal.Correction.Weighted>
   9.000000E+99

> <Gold.Protein.RotatedTorsions>
[ 6907 6896 6895 6894 ] final   -0.06 input  -60.11 | X-H torsion
[ 7974 7965 7964 7962 ] final    7.83 input  175.53 | X-H torsion
[ 8008 7997 7996 7995 ] final  130.70 input   59.86 | X-H torsion
[ 10167 10162 10161 10158 ] final  -98.57 input  -65.29 | X-H torsion
[ 10718 10713 10712 10709 ] final   -7.65 input   66.30 | X-H torsion
[ 10763 10752 10751 10750 ] final   19.46 input  -60.55 | X-H torsion
[ 11005 11000 10999 10996 ] final  150.28 input  -57.11 | X-H torsion

> <Gold.Protein.ActiveResidues>
 VAL166  LYS551  ARG553  GLY616  TRP617  ASP618  TYR619  PRO620  LYS621  CYS622 
 ASP623  PHE694  ASN695  SER759  ASP760  ASP761  ALA762  ILE779  LEU786  VAL792 
 PHE793  MET794  SER795  GLU796  ALA797  LYS798  CYS799  TRP800  GLU811  SER814 

> <Gold.Protein.RotatedAtoms>
  151.5684  135.1063  159.9989 H   0  0  0  0  0  0  0  0  0  0  0  0  # atno 6907 bound_to 6896
  152.4413  133.7449  159.6672 H   0  0  0  0  0  0  0  0  0  0  0  0  # atno 6908 bound_to 6896
  150.8319  133.8008  159.3119 H   0  0  0  0  0  0  0  0  0  0  0  0  # atno 6909 bound_to 6896
  146.2423  140.0025  142.8414 H   0  0  0  0  0  0  0  0  0  0  0  0  # atno 7974 bound_to 7965
  156.2959  140.2589  156.2805 H   0  0  0  0  0  0  0  0  0  0  0  0  # atno 8008 bound_to 7997
  154.9606  140.0392  157.2207 H   0  0  0  0  0  0  0  0  0  0  0  0  # atno 8009 bound_to 7997
  154.7950  140.2818  155.5968 H   0  0  0  0  0  0  0  0  0  0  0  0  # atno 8010 bound_to 7997
  140.2716  143.3340  152.0529 H   0  0  0  0  0  0  0  0  0  0  0  0  # atno 10167 bound_to 10162
  156.7141  130.5131  149.5884 H   0  0  0  0  0  0  0  0  0  0  0  0  # atno 10718 bound_to 10713
  153.1160  135.6708  153.9418 H   0  0  0  0  0  0  0  0  0  0  0  0  # atno 10763 bound_to 10752
  153.8947  135.3043  155.3449 H   0  0  0  0  0  0  0  0  0  0  0  0  # atno 10764 bound_to 10752
  154.7576  135.5004  153.9482 H   0  0  0  0  0  0  0  0  0  0  0  0  # atno 10765 bound_to 10752
  140.1117  134.8920  157.1946 H   0  0  0  0  0  0  0  0  0  0  0  0  # atno 11005 bound_to 11000
  145.1402  140.9567  143.4493 LP  0  0  0  0  0  0  0  0  0  0  0  0  # atno 17320 bound_to 7965
  145.0303  139.3347  143.6028 LP  0  0  0  0  0  0  0  0  0  0  0  0  # atno 17321 bound_to 7965
  139.4987  144.6652  151.6371 LP  0  0  0  0  0  0  0  0  0  0  0  0  # atno 17342 bound_to 10162
  140.5885  143.9821  150.6310 LP  0  0  0  0  0  0  0  0  0  0  0  0  # atno 17343 bound_to 10162
  156.1640  130.6393  151.0755 LP  0  0  0  0  0  0  0  0  0  0  0  0  # atno 17370 bound_to 10713
  157.6924  131.0805  150.7068 LP  0  0  0  0  0  0  0  0  0  0  0  0  # atno 17371 bound_to 10713
  140.3082  134.3054  155.7273 LP  0  0  0  0  0  0  0  0  0  0  0  0  # atno 17394 bound_to 11000
  141.2132  133.7634  156.9738 LP  0  0  0  0  0  0  0  0  0  0  0  0  # atno 17395 bound_to 11000

$$$$
