AV-unprocessed.smi:2006|AV-procd|sdf|8131|dock5
  -GOLD-   2272010363D 1   1.00000     0.00000
 Structure written by MMmdl.
 32 33  0  0  0  0  0  0  0  0  1 V2000
  151.8892  145.4365  159.2951 C   0  0  0  0  0  0  0  0  0  0  0  0
  152.4480  144.0101  159.2600 C   0  0  2  0  0  0  0  0  0  0  0  0
  151.8096  143.1653  158.1402 C   0  0  0  0  0  0  0  0  0  0  0  0
  152.2977  141.7934  158.2060 N   0  0  0  0  0  0  0  0  0  0  0  0
  151.8502  140.9974  157.1420 C   0  0  0  0  0  0  0  0  0  0  0  0
  150.5908  141.2691  156.5672 C   0  0  0  0  0  0  0  0  0  0  0  0
  150.1418  140.4595  155.5061 C   0  0  0  0  0  0  0  0  0  0  0  0
  150.9661  139.4082  155.0569 C   0  0  0  0  0  0  0  0  0  0  0  0
  150.5244  138.5026  153.9263 C   0  0  0  0  0  0  0  0  0  0  0  0
  149.2266  138.8734  153.3989 N   0  0  0  0  0  0  0  0  0  0  0  0
  152.2083  139.2157  155.6960 C   0  0  0  0  0  0  0  0  0  0  0  0
  152.6463  139.9883  156.7131 N   0  0  0  0  0  0  0  0  0  0  0  0
  152.0912  141.1922  159.5175 C   0  0  0  0  0  0  0  0  0  0  0  0
  152.7223  142.0782  160.6043 C   0  0  0  0  0  0  0  0  0  0  0  0
  152.1828  143.3944  160.5188 O   0  0  0  0  0  0  0  0  0  0  0  0
  152.0769  145.9554  158.3547 H   0  0  0  0  0  0  0  0  0  0  0  0
  152.3527  146.0164  160.0935 H   0  0  0  0  0  0  0  0  0  0  0  0
  150.8123  145.4342  159.4671 H   0  0  0  0  0  0  0  0  0  0  0  0
  153.5278  144.0631  159.1095 H   0  0  0  0  0  0  0  0  0  0  0  0
  150.7232  143.1730  158.2404 H   0  0  0  0  0  0  0  0  0  0  0  0
  152.0468  143.5934  157.1654 H   0  0  0  0  0  0  0  0  0  0  0  0
  149.9781  142.0806  156.9323 H   0  0  0  0  0  0  0  0  0  0  0  0
  149.1808  140.6421  155.0482 H   0  0  0  0  0  0  0  0  0  0  0  0
  151.2593  138.5376  153.1215 H   0  0  0  0  0  0  0  0  0  0  0  0
  150.4852  137.4705  154.2765 H   0  0  0  0  0  0  0  0  0  0  0  0
  149.3385  139.6208  152.7288 H   0  0  0  0  0  0  0  0  0  0  0  0
  148.8388  138.0952  152.8848 H   0  0  0  0  0  0  0  0  0  0  0  0
  152.8687  138.4193  155.3859 H   0  0  0  0  0  0  0  0  0  0  0  0
  151.0234  141.0773  159.7096 H   0  0  0  0  0  0  0  0  0  0  0  0
  152.5344  140.1958  159.5414 H   0  0  0  0  0  0  0  0  0  0  0  0
  152.5101  141.6706  161.5926 H   0  0  0  0  0  0  0  0  0  0  0  0
  153.8079  142.1106  160.4985 H   0  0  0  0  0  0  0  0  0  0  0  0
  1  2  1  0  0  0  0
  1 16  1  0  0  0  0
  1 17  1  0  0  0  0
  1 18  1  0  0  0  0
  2 15  1  0  0  0  0
  2  3  1  0  0  0  0
  2 19  1  0  0  0  0
  3  4  1  0  0  0  0
  3 20  1  0  0  0  0
  3 21  1  0  0  0  0
  4  5  1  0  0  0  0
  4 13  1  0  0  0  0
  5 12  1  0  0  0  0
  5  6  2  0  0  0  0
  6  7  1  0  0  0  0
  6 22  1  0  0  0  0
  7  8  2  0  0  0  0
  7 23  1  0  0  0  0
  8  9  1  0  0  0  0
  8 11  1  0  0  0  0
  9 10  1  0  0  0  0
  9 24  1  0  0  0  0
  9 25  1  0  0  0  0
 10 26  1  0  0  0  0
 10 27  1  0  0  0  0
 11 12  2  0  0  0  0
 11 28  1  0  0  0  0
 13 14  1  0  0  0  0
 13 29  1  0  0  0  0
 13 30  1  0  0  0  0
 14 15  1  0  0  0  0
 14 31  1  0  0  0  0
 14 32  1  0  0  0  0
M  END
> <s_m_source_file>
AV-unprocessed.smi

> <i_m_source_file_index>
2006

> <i_lp_mmshare_version>
43012

> <i_f3d_flags>
0

> <s_epik_input>
W0NIM11bQ0BASF0xW0NIMl1OKFtDSDJdW0NIMl1PMSljMltjSF1bY0hdYyhbY0hdbjIpW0NIMl1bTkgyXQ==

> <s_epik_cmdline>
J2VwaWtfcHl0aG9uJywgJy1waCcsICc3LjAnLCAnLXRuJywgJzgnLCAnLW1hJywgJzIwMCcsICctbWV0YWxfYmluZGluZycsICctaW1hZScsICc8aW5maWxlLm1hZT4nLCAnLW9tYWUnLCAnPG91dGZpbGUubWFlPic=

> <r_lp_tautomer_probability>
1

> <r_epik_Ionization_Penalty>
1.39389

> <r_epik_Ionization_Penalty_Charging>
0

> <r_epik_Ionization_Penalty_Neutral>
1.39389

> <r_epik_State_Penalty>
1.46818

> <r_epik_Charging_Adjusted_Penalty>
1.46818

> <i_epik_Tot_Q>
0

> <i_epik_Tot_abs_Q>
0

> <r_epik_Metal_State_Penalty>
1.46201

> <b_epik_Metal_Only>
0

> <s_lp_Force_Field>
OPLS_2005

> <r_lp_Energy>
16.9161

> <b_lp_Chiralities_Consistent>
1

> <s_lp_Variant>
AV-unprocessed.smi:2006-3

> <Gold.Version>
5.8.1

> <Gold.Id.Protein>
6NUR|6NUR_protein|mol2

> <Gold.PLP.Fitness>
43.1441

> <Gold.PLP.PLP>
-35.4354

> <Gold.PLP.part.hbond>
-3.0000

> <Gold.PLP.part.metal>
0.0000

> <Gold.PLP.part.buried>
-3.5503

> <Gold.PLP.part.nonpolar>
-28.7400

> <Gold.PLP.part.repulsive>
0.0630

> <Gold.PLP.ligand.clash>
0.0479

> <Gold.PLP.ligand.torsion>
0.6716

> <Gold.PLP.Chemscore.Hbond>
3.0000

> <Gold.PLP.Chemscore.CHOScore>
0.0000

> <Gold.PLP.Chemscore.Metal>
0.0000

> <Gold.Chemscore.Hbonds>
donor molecule, donor type, donor heavy atom, donor atom, acceptor molecule, acceptor atom, score
      L1  H    10    26       P1  7957  0.93
      L1  H    10    27       P1  7948  0.83
      P1  H  7997  8008       L1    12  1.00

> <Gold.PLP.Chemscore.Internal.Correction>
0.0997

> <Gold.Rescore>
     Score         DG    S(hbond)    S(metal)    S(lipo)     H(rot)  DE(clash)    DE(int)     intcor
     21.64     -22.36       2.87        0.00      90.40       1.28       0.04       0.69       ----

> <Gold.Chemscore.Fitness>
21.6351

> <Gold.Chemscore.DG>
-22.3623

> <Gold.Chemscore.ZeroCoef>
-5.4800

> <Gold.Chemscore.Hbond>
2.8659

> <Gold.Chemscore.Metal>
0.0000

> <Gold.Chemscore.Lipo>
90.4028

> <Gold.Chemscore.Internal_Hbond>
0.0000

> <Gold.Chemscore.DEClash>
0.0354

> <Gold.Chemscore.DEInternal>
0.6918

> <Gold.Chemscore.Rot>
1.2762

> <Gold.Chemscore.Internal.Correction>
   9.000000E+99

> <Gold.Chemscore.Hbonds>
donor molecule, donor type, donor heavy atom, donor atom, acceptor molecule, acceptor atom, score
      L1  H    10    26       P1  7957  0.89
      L1  H    10    27       P1  7948  0.78
      P1  H  7997  8008       L1    12  0.44

> <Gold.Chemscore.Hbond.Weighted>
-9.5722

> <Gold.Chemscore.Metal.Weighted>
-0.0000

> <Gold.Chemscore.Lipo.Weighted>
-10.5771

> <Gold.Chemscore.Internal_Hbond.Weighted>
0.0000

> <Gold.Chemscore.DEClash.Weighted>
0.0354

> <Gold.Chemscore.DEInternal.Weighted>
0.6918

> <Gold.Chemscore.Rot.Weighted>
3.2671

> <Gold.Chemscore.Internal.Correction.Weighted>
   9.000000E+99

> <Gold.Protein.RotatedTorsions>
[ 6907 6896 6895 6894 ] final   84.90 input  -60.11 | X-H torsion
[ 7974 7965 7964 7962 ] final -161.22 input  175.53 | X-H torsion
[ 8008 7997 7996 7995 ] final  -46.77 input   59.86 | X-H torsion
[ 10167 10162 10161 10158 ] final  103.98 input  -65.29 | X-H torsion
[ 10718 10713 10712 10709 ] final  141.97 input   66.30 | X-H torsion
[ 10763 10752 10751 10750 ] final  156.69 input  -60.55 | X-H torsion
[ 11005 11000 10999 10996 ] final  -27.80 input  -57.11 | X-H torsion

> <Gold.Protein.ActiveResidues>
 VAL166  LYS551  ARG553  GLY616  TRP617  ASP618  TYR619  PRO620  LYS621  CYS622 
 ASP623  PHE694  ASN695  SER759  ASP760  ASP761  ALA762  ILE779  LEU786  VAL792 
 PHE793  MET794  SER795  GLU796  ALA797  LYS798  CYS799  TRP800  GLU811  SER814 

> <Gold.Protein.RotatedAtoms>
  152.5363  134.2669  159.8956 H   0  0  0  0  0  0  0  0  0  0  0  0  # atno 6907 bound_to 6896
  151.2627  133.4287  159.2624 H   0  0  0  0  0  0  0  0  0  0  0  0  # atno 6908 bound_to 6896
  151.0438  134.9640  159.8232 H   0  0  0  0  0  0  0  0  0  0  0  0  # atno 6909 bound_to 6896
  144.7399  140.3429  143.6131 H   0  0  0  0  0  0  0  0  0  0  0  0  # atno 7974 bound_to 7965
  154.4010  140.1363  156.4065 H   0  0  0  0  0  0  0  0  0  0  0  0  # atno 8008 bound_to 7997
  155.7774  140.3482  155.5259 H   0  0  0  0  0  0  0  0  0  0  0  0  # atno 8009 bound_to 7997
  155.8707  140.0971  157.1542 H   0  0  0  0  0  0  0  0  0  0  0  0  # atno 8010 bound_to 7997
  139.7216  144.7057  151.0864 H   0  0  0  0  0  0  0  0  0  0  0  0  # atno 10167 bound_to 10162
  157.3859  131.0998  151.0694 H   0  0  0  0  0  0  0  0  0  0  0  0  # atno 10718 bound_to 10713
  154.1884  135.2796  155.3030 H   0  0  0  0  0  0  0  0  0  0  0  0  # atno 10763 bound_to 10752
  154.5948  135.5548  153.7318 H   0  0  0  0  0  0  0  0  0  0  0  0  # atno 10764 bound_to 10752
  153.0119  135.6377  154.2022 H   0  0  0  0  0  0  0  0  0  0  0  0  # atno 10765 bound_to 10752
  140.9152  133.7435  156.0725 H   0  0  0  0  0  0  0  0  0  0  0  0  # atno 11005 bound_to 11000
  145.7355  139.1749  143.2405 LP  0  0  0  0  0  0  0  0  0  0  0  0  # atno 17320 bound_to 7965
  146.1173  140.7353  142.9474 LP  0  0  0  0  0  0  0  0  0  0  0  0  # atno 17321 bound_to 7965
  140.7755  143.5159  150.9596 LP  0  0  0  0  0  0  0  0  0  0  0  0  # atno 17342 bound_to 10162
  139.8846  143.7029  152.3153 LP  0  0  0  0  0  0  0  0  0  0  0  0  # atno 17343 bound_to 10162
  157.1745  130.6282  149.5651 LP  0  0  0  0  0  0  0  0  0  0  0  0  # atno 17370 bound_to 10713
  155.9786  130.4774  150.6668 LP  0  0  0  0  0  0  0  0  0  0  0  0  # atno 17371 bound_to 10713
  140.8059  134.3455  157.5426 LP  0  0  0  0  0  0  0  0  0  0  0  0  # atno 17394 bound_to 11000
  139.8765  134.9225  156.3302 LP  0  0  0  0  0  0  0  0  0  0  0  0  # atno 17395 bound_to 11000

$$$$
