AV-unprocessed.smi:3343|AV-procd|sdf|12893|dock9
  -GOLD-   2272019303D 1   1.00000     0.00000
 Structure written by MMmdl.
 41 42  0  0  0  0  0  0  0  0  1 V2000
  151.0419  144.3999  159.5744 C   0  0  0  0  0  0  0  0  0  0  0  0
  152.1701  143.3711  159.3561 C   0  0  2  0  0  0  0  0  0  0  0  0
  151.7052  142.1194  158.5937 C   0  0  0  0  0  0  0  0  0  0  0  0
  152.5075  141.2463  158.2611 O   0  0  0  0  0  0  0  0  0  0  0  0
  150.3971  142.0653  158.2999 N   0  0  0  0  0  0  0  0  0  0  0  0
  149.7690  141.0807  157.4280 C   0  0  0  0  0  0  0  0  0  0  0  0
  148.6745  141.7369  156.5665 C   0  0  0  0  0  0  0  0  0  0  0  0
  148.5085  141.1763  155.2244 N   0  0  0  0  0  0  0  0  0  0  0  0
  148.3697  139.7201  155.2849 C   0  0  0  0  0  0  0  0  0  0  0  0
  148.2066  139.1027  153.8836 C   0  0  0  0  0  0  0  0  0  0  0  0
  147.0384  139.6483  153.1966 N   0  0  0  0  0  0  0  0  0  0  0  0
  146.8703  139.0606  151.8766 C   0  0  0  0  0  0  0  0  0  0  0  0
  147.1702  141.1011  153.1244 C   0  0  0  0  0  0  0  0  0  0  0  0
  147.3411  141.7212  154.5230 C   0  0  0  0  0  0  0  0  0  0  0  0
  152.8059  142.9808  160.6103 N   0  0  0  0  0  0  0  0  0  0  0  0
  153.7808  142.0982  160.8399 C   0  0  0  0  0  0  0  0  0  0  0  0
  154.0755  141.9418  162.1230 N   0  0  0  0  0  0  0  0  0  0  0  0
  153.1777  142.8132  162.6709 C   0  0  0  0  0  0  0  0  0  0  0  0
  152.3864  143.4539  161.8108 N   0  0  0  0  0  0  0  0  0  0  0  0
  150.6187  144.7270  158.6243 H   0  0  0  0  0  0  0  0  0  0  0  0
  151.4190  145.2862  160.0853 H   0  0  0  0  0  0  0  0  0  0  0  0
  150.2278  143.9940  160.1764 H   0  0  0  0  0  0  0  0  0  0  0  0
  152.9348  143.8530  158.7446 H   0  0  0  0  0  0  0  0  0  0  0  0
  149.8090  142.8173  158.6277 H   0  0  0  0  0  0  0  0  0  0  0  0
  150.4918  140.5611  156.7963 H   0  0  0  0  0  0  0  0  0  0  0  0
  149.3176  140.3245  158.0711 H   0  0  0  0  0  0  0  0  0  0  0  0
  147.7333  141.6051  157.1019 H   0  0  0  0  0  0  0  0  0  0  0  0
  148.8294  142.8159  156.5119 H   0  0  0  0  0  0  0  0  0  0  0  0
  149.2472  139.2860  155.7655 H   0  0  0  0  0  0  0  0  0  0  0  0
  147.5114  139.4520  155.9031 H   0  0  0  0  0  0  0  0  0  0  0  0
  149.1072  139.2852  153.2951 H   0  0  0  0  0  0  0  0  0  0  0  0
  148.1074  138.0206  153.9752 H   0  0  0  0  0  0  0  0  0  0  0  0
  145.9827  139.4618  151.3865 H   0  0  0  0  0  0  0  0  0  0  0  0
  146.7502  137.9791  151.9479 H   0  0  0  0  0  0  0  0  0  0  0  0
  147.7322  139.2659  151.2403 H   0  0  0  0  0  0  0  0  0  0  0  0
  148.0232  141.3697  152.4992 H   0  0  0  0  0  0  0  0  0  0  0  0
  146.2871  141.5279  152.6474 H   0  0  0  0  0  0  0  0  0  0  0  0
  146.4378  141.5558  155.1123 H   0  0  0  0  0  0  0  0  0  0  0  0
  147.4459  142.7980  154.4013 H   0  0  0  0  0  0  0  0  0  0  0  0
  154.2779  141.5500  160.0529 H   0  0  0  0  0  0  0  0  0  0  0  0
  153.0990  142.9745  163.7360 H   0  0  0  0  0  0  0  0  0  0  0  0
  1  2  1  0  0  0  0
  1 20  1  0  0  0  0
  1 21  1  0  0  0  0
  1 22  1  0  0  0  0
  2  3  1  0  0  0  0
  2 15  1  0  0  0  0
  2 23  1  0  0  0  0
  3  4  2  0  0  0  0
  3  5  1  0  0  0  0
  5  6  1  0  0  0  0
  5 24  1  0  0  0  0
  6  7  1  0  0  0  0
  6 25  1  0  0  0  0
  6 26  1  0  0  0  0
  7  8  1  0  0  0  0
  7 27  1  0  0  0  0
  7 28  1  0  0  0  0
  8 14  1  0  0  0  0
  8  9  1  0  0  0  0
  9 10  1  0  0  0  0
  9 29  1  0  0  0  0
  9 30  1  0  0  0  0
 10 11  1  0  0  0  0
 10 31  1  0  0  0  0
 10 32  1  0  0  0  0
 11 12  1  0  0  0  0
 11 13  1  0  0  0  0
 12 33  1  0  0  0  0
 12 34  1  0  0  0  0
 12 35  1  0  0  0  0
 13 14  1  0  0  0  0
 13 36  1  0  0  0  0
 13 37  1  0  0  0  0
 14 38  1  0  0  0  0
 14 39  1  0  0  0  0
 15 19  1  0  0  0  0
 15 16  1  0  0  0  0
 16 17  2  0  0  0  0
 16 40  1  0  0  0  0
 17 18  1  0  0  0  0
 18 19  2  0  0  0  0
 18 41  1  0  0  0  0
M  END
> <s_m_source_file>
AV-unprocessed.smi

> <i_m_source_file_index>
3343

> <i_lp_mmshare_version>
43012

> <i_f3d_flags>
0

> <s_epik_input>
bjFbY0hdbltjSF1uMVtDQEhdKFtDSDNdKUMoPU8pW05IXVtDSDJdW0NIMl1OMltDSDJdW0NIMl1OKFtDSDNdKVtDSDJdW0NIMl0y

> <s_epik_cmdline>
J2VwaWtfcHl0aG9uJywgJy1waCcsICc3LjAnLCAnLXRuJywgJzgnLCAnLW1hJywgJzIwMCcsICctbWV0YWxfYmluZGluZycsICctaW1hZScsICc8aW5maWxlLm1hZT4nLCAnLW9tYWUnLCAnPG91dGZpbGUubWFlPic=

> <r_lp_tautomer_probability>
1

> <r_epik_Ionization_Penalty>
1.97295

> <r_epik_Ionization_Penalty_Charging>
0

> <r_epik_Ionization_Penalty_Neutral>
1.97295

> <r_epik_State_Penalty>
1.8027

> <r_epik_Charging_Adjusted_Penalty>
1.8027

> <i_epik_Tot_Q>
0

> <i_epik_Tot_abs_Q>
0

> <r_epik_Metal_State_Penalty>
1.8027

> <b_epik_Metal_Only>
0

> <s_lp_Force_Field>
OPLS_2005

> <r_lp_Energy>
39.2202

> <b_lp_Chiralities_Consistent>
1

> <s_lp_Variant>
AV-unprocessed.smi:3343-3

> <Gold.Version>
5.8.1

> <Gold.Id.Protein>
6NUR|6NUR_protein|mol2

> <Gold.PLP.Fitness>
35.5006

> <Gold.PLP.PLP>
-36.8096

> <Gold.PLP.part.hbond>
-1.0000

> <Gold.PLP.part.metal>
0.0000

> <Gold.PLP.part.buried>
-5.3338

> <Gold.PLP.part.nonpolar>
-30.2020

> <Gold.PLP.part.repulsive>
0.6084

> <Gold.PLP.ligand.clash>
0.4758

> <Gold.PLP.ligand.torsion>
0.4805

> <Gold.PLP.Chemscore.Hbond>
0.0000

> <Gold.PLP.Chemscore.CHOScore>
0.0000

> <Gold.PLP.Chemscore.Metal>
0.0000

> <Gold.PLP.Chemscore.Internal.Correction>
0.1277

> <Gold.Rescore>
     Score         DG    S(hbond)    S(metal)    S(lipo)     H(rot)  DE(clash)    DE(int)     intcor
      5.10      -6.24       0.01        0.00      62.24       2.56       0.04       1.10       ----

> <Gold.Chemscore.Fitness>
5.1031

> <Gold.Chemscore.DG>
-6.2426

> <Gold.Chemscore.ZeroCoef>
-5.4800

> <Gold.Chemscore.Hbond>
0.0085

> <Gold.Chemscore.Metal>
0.0000

> <Gold.Chemscore.Lipo>
62.2375

> <Gold.Chemscore.Internal_Hbond>
0.0000

> <Gold.Chemscore.DEClash>
0.0425

> <Gold.Chemscore.DEInternal>
1.0969

> <Gold.Chemscore.Rot>
2.5577

> <Gold.Chemscore.Internal.Correction>
   9.000000E+99

> <Gold.Chemscore.Hbond.Weighted>
-0.0285

> <Gold.Chemscore.Metal.Weighted>
-0.0000

> <Gold.Chemscore.Lipo.Weighted>
-7.2818

> <Gold.Chemscore.Internal_Hbond.Weighted>
0.0000

> <Gold.Chemscore.DEClash.Weighted>
0.0425

> <Gold.Chemscore.DEInternal.Weighted>
1.0969

> <Gold.Chemscore.Rot.Weighted>
6.5477

> <Gold.Chemscore.Internal.Correction.Weighted>
   9.000000E+99

> <Gold.Protein.RotatedTorsions>
[ 6907 6896 6895 6894 ] final  100.14 input  -60.11 | X-H torsion
[ 7974 7965 7964 7962 ] final   -1.24 input  175.53 | X-H torsion
[ 8008 7997 7996 7995 ] final  164.31 input   59.86 | X-H torsion
[ 10167 10162 10161 10158 ] final -156.49 input  -65.29 | X-H torsion
[ 10718 10713 10712 10709 ] final   -5.02 input   66.30 | X-H torsion
[ 10763 10752 10751 10750 ] final  128.17 input  -60.55 | X-H torsion
[ 11005 11000 10999 10996 ] final   76.97 input  -57.11 | X-H torsion

> <Gold.Protein.ActiveResidues>
 VAL166  LYS551  ARG553  GLY616  TRP617  ASP618  TYR619  PRO620  LYS621  CYS622 
 ASP623  PHE694  ASN695  SER759  ASP760  ASP761  ALA762  ILE779  LEU786  VAL792 
 PHE793  MET794  SER795  GLU796  ALA797  LYS798  CYS799  TRP800  GLU811  SER814 

> <Gold.Protein.RotatedAtoms>
  152.5378  134.0321  159.8029 H   0  0  0  0  0  0  0  0  0  0  0  0  # atno 6907 bound_to 6896
  151.0490  133.5632  159.2651 H   0  0  0  0  0  0  0  0  0  0  0  0  # atno 6908 bound_to 6896
  151.2573  135.0650  159.9139 H   0  0  0  0  0  0  0  0  0  0  0  0  # atno 6909 bound_to 6896
  146.2419  140.1390  142.8336 H   0  0  0  0  0  0  0  0  0  0  0  0  # atno 7974 bound_to 7965
  156.1890  140.1700  156.8130 H   0  0  0  0  0  0  0  0  0  0  0  0  # atno 8008 bound_to 7997
  154.5448  140.0729  156.8602 H   0  0  0  0  0  0  0  0  0  0  0  0  # atno 8009 bound_to 7997
  155.3144  140.3369  155.4245 H   0  0  0  0  0  0  0  0  0  0  0  0  # atno 8010 bound_to 7997
  139.6846  143.9523  152.2354 H   0  0  0  0  0  0  0  0  0  0  0  0  # atno 10167 bound_to 10162
  156.7527  130.5244  149.5800 H   0  0  0  0  0  0  0  0  0  0  0  0  # atno 10718 bound_to 10713
  153.7212  135.3253  155.3267 H   0  0  0  0  0  0  0  0  0  0  0  0  # atno 10763 bound_to 10752
  154.8355  135.4500  154.1216 H   0  0  0  0  0  0  0  0  0  0  0  0  # atno 10764 bound_to 10752
  153.2337  135.6963  153.7941 H   0  0  0  0  0  0  0  0  0  0  0  0  # atno 10765 bound_to 10752
  139.9275  134.7645  156.1463 H   0  0  0  0  0  0  0  0  0  0  0  0  # atno 11005 bound_to 11000
  145.0262  140.8834  143.5137 LP  0  0  0  0  0  0  0  0  0  0  0  0  # atno 17320 bound_to 7965
  145.1447  139.2551  143.5472 LP  0  0  0  0  0  0  0  0  0  0  0  0  # atno 17321 bound_to 7965
  139.9322  144.6734  150.8351 LP  0  0  0  0  0  0  0  0  0  0  0  0  # atno 17342 bound_to 10162
  140.7663  143.3301  151.2430 LP  0  0  0  0  0  0  0  0  0  0  0  0  # atno 17343 bound_to 10162
  156.1390  130.6231  151.0441 LP  0  0  0  0  0  0  0  0  0  0  0  0  # atno 17370 bound_to 10713
  157.6770  131.0848  150.7470 LP  0  0  0  0  0  0  0  0  0  0  0  0  # atno 17371 bound_to 10713
  141.0842  133.6741  156.2400 LP  0  0  0  0  0  0  0  0  0  0  0  0  # atno 17394 bound_to 11000
  140.6296  134.5278  157.5558 LP  0  0  0  0  0  0  0  0  0  0  0  0  # atno 17395 bound_to 11000

$$$$
