#       Name:                AV-unprocessed.smi:1125
#       Creating user name   scv26
#       Creation time:       Fri Mar 27 03:39:50 2020


#       File generated by GOLD software.
#

@<TRIPOS>MOLECULE
AV-unprocessed.smi:1125
    49    50     1
SMALL
NO_CHARGES


@<TRIPOS>ATOM
      1 ****        -4.7409  -3.5487  -0.5165 C.3            1 S1                 0.0000
      2 ****        -3.3635  -3.0114  -0.5435 N.4            1 S1                 1.0000
      3 ****        -3.3000  -1.5987  -0.0924 C.3            1 S1                 0.0000
      4 ****        -1.8448  -1.1060  -0.0165 C.3            1 S1                 0.0000
      5 ****        -1.1314  -1.2795  -1.3673 C.3            1 S1                 0.0000
      6 ****         0.2626  -0.8652  -1.2493 N.am           1 S1                 0.0000
      7 ****         1.0493  -0.4937  -2.2722 C.2            1 S1                 0.0000
      8 ****         0.6844  -0.5089  -3.4476 O.2            1 S1                 0.0000
      9 ****         2.4635  -0.0334  -1.9151 C.3            1 S1                 0.0000
     10 ****         2.4112   1.2823  -1.1940 C.2            1 S1                 0.0000
     11 ****         2.3216   2.5292  -1.7594 C.2            1 S1                 0.0000
     12 ****         2.2638   3.7842  -0.5548 S.3            1 S1                 0.0000
     13 ****         2.3698   2.5513   0.7073 C.2            1 S1                 0.0000
     14 ****         2.3898   2.8303   2.1909 C.3            1 S1                 0.0000
     15 ****         1.2168   2.1020   2.8759 C.3            1 S1                 0.0000
     16 ****         2.2316   4.3386   2.4806 C.3            1 S1                 0.0000
     17 ****         3.7352   2.3766   2.7889 C.3            1 S1                 0.0000
     18 ****         2.4468   1.3139   0.2035 N.2            1 S1                 0.0000
     19 ****        -1.2397  -2.7472  -1.8212 C.3            1 S1                 0.0000
     20 ****        -2.7072  -3.2055  -1.8604 C.3            1 S1                 0.0000
     21 ****        -5.3841  -3.0121  -1.2151 H              1 S1                 0.0000
     22 ****        -5.1699  -3.4590   0.4821 H              1 S1                 0.0000
     23 ****        -4.7482  -4.6052  -0.7870 H              1 S1                 0.0000
     24 ****        -3.8731  -0.9705  -0.7764 H              1 S1                 0.0000
     25 ****        -3.7670  -1.5071   0.8889 H              1 S1                 0.0000
     26 ****        -1.8261  -0.0580   0.2857 H              1 S1                 0.0000
     27 ****        -1.3144  -1.6603   0.7593 H              1 S1                 0.0000
     28 ****        -1.6279  -0.6410  -2.1008 H              1 S1                 0.0000
     29 ****         0.6508  -0.8181  -0.3179 H              1 S1                 0.0000
     30 ****         2.9452  -0.7977  -1.3036 H              1 S1                 0.0000
     31 ****         3.0579   0.0531  -2.8254 H              1 S1                 0.0000
     32 ****         2.2785   2.7837  -2.8082 H              1 S1                 0.0000
     33 ****         1.1963   2.3012   3.9480 H              1 S1                 0.0000
     34 ****         1.2877   1.0211   2.7492 H              1 S1                 0.0000
     35 ****         0.2582   2.4188   2.4633 H              1 S1                 0.0000
     36 ****         1.2894   4.7263   2.0911 H              1 S1                 0.0000
     37 ****         3.0406   4.9214   2.0386 H              1 S1                 0.0000
     38 ****         2.2422   4.5389   3.5525 H              1 S1                 0.0000
     39 ****         3.7846   2.5793   3.8593 H              1 S1                 0.0000
     40 ****         4.5721   2.8927   2.3169 H              1 S1                 0.0000
     41 ****         3.8916   1.3058   2.6540 H              1 S1                 0.0000
     42 ****        -0.7922  -2.8729  -2.8077 H              1 S1                 0.0000
     43 ****        -0.6760  -3.3890  -1.1425 H              1 S1                 0.0000
     44 ****        -2.7514  -4.2589  -2.1398 H              1 S1                 0.0000
     45 ****        -3.2527  -2.6511  -2.6258 H              1 S1                 0.0000
     46 ****        -2.8327  -3.5518   0.1247 H              1 S1                 0.0000
     47 ****        -0.2407  -0.8091  -3.6801 LP             1 S1                 0.0000
     48 ****         1.3131  -0.2211  -4.1701 LP             1 S1                 0.0000
     49 ****         2.5223   0.4934   0.7701 LP             1 S1                 0.0000
@<TRIPOS>BOND
    1    1    2 1     
    2    1   21 1     
    3    1   22 1     
    4    1   23 1     
    5    2   20 1     
    6    2    3 1     
    7    2   46 1     
    8    3    4 1     
    9    3   24 1     
   10    3   25 1     
   11    4    5 1     
   12    4   26 1     
   13    4   27 1     
   14    5    6 1     
   15    5   19 1     
   16    5   28 1     
   17    6    7 am    
   18    6   29 1     
   19    7    8 2     
   20    7    9 1     
   21    9   10 1     
   22    9   30 1     
   23    9   31 1     
   24   10   18 1     
   25   10   11 2     
   26   11   12 1     
   27   11   32 1     
   28   12   13 1     
   29   13   14 1     
   30   13   18 2     
   31   14   15 1     
   32   14   16 1     
   33   14   17 1     
   34   15   33 1     
   35   15   34 1     
   36   15   35 1     
   37   16   36 1     
   38   16   37 1     
   39   16   38 1     
   40   17   39 1     
   41   17   40 1     
   42   17   41 1     
   43   19   20 1     
   44   19   42 1     
   45   19   43 1     
   46   20   44 1     
   47   20   45 1     
   48    8   47 1     
   49    8   48 1     
   50   18   49 1     
@<TRIPOS>SUBSTRUCTURE
      1 S1             1
@<TRIPOS>SET
LONE_PAIRS      STATIC     ATOMS    <user>   **** ""
3 47 48 49
DONOR_HYDROGENS      STATIC     ATOMS    <user>   **** ""
2 46 29
ATOM$BLUE        STATIC     ATOMS    COLORGROUP SYSTEM
3 47 48 49
ATOM$RED        STATIC     ATOMS    COLORGROUP SYSTEM
2 46 29
