#       Name:                AV-unprocessed.smi:546
#       Creating user name   scv26
#       Creation time:       Thu Mar 26 23:37:56 2020


#       File generated by GOLD software.
#

@<TRIPOS>MOLECULE
AV-unprocessed.smi:546
    59    61     1
SMALL
NO_CHARGES


@<TRIPOS>ATOM
      1 ****        -1.7940   3.4380   3.4268 C.3            1 S1                 0.0000
      2 ****        -2.2219   2.8416   2.0843 C.3            1 S1                 0.0000
      3 ****        -1.7614   1.5042   2.0188 O.3            1 S1                 0.0000
      4 ****        -2.0873   0.8632   0.7975 C.3            1 S1                 0.0000
      5 ****        -1.5108  -0.5604   0.7797 C.3            1 S1                 0.0000
      6 ****        -0.0619  -0.5589   0.9441 N.pl3          1 S1                 0.0000
      7 ****         0.8853  -0.5143  -0.0268 C.2            1 S1                 0.0000
      8 ****         0.5388  -0.5062  -1.3746 N.pl3          1 S1                 0.0000
      9 ****         0.7131  -1.6926  -2.2092 C.3            1 S1                 0.0000
     10 ****        -0.3722  -1.8202  -3.2925 C.3            1 S1                 0.0000
     11 ****        -0.1835  -3.0962  -4.1241 C.3            1 S1                 0.0000
     12 ****        -0.3640  -0.5650  -4.1793 C.3            1 S1                 0.0000
     13 ****        -0.4815   0.7124  -3.3307 C.3            1 S1                 0.0000
     14 ****        -1.9154   0.9594  -2.8345 C.3            1 S1                 0.0000
     15 ****         0.5629   0.7081  -2.1911 C.3            1 S1                 0.0000
     16 ****         2.1455  -0.5080   0.4154 N.2            1 S1                 0.0000
     17 ****         1.9860  -0.5566   1.7925 C.2            1 S1                 0.0000
     18 ****         0.6722  -0.5945   2.1303 C.2            1 S1                 0.0000
     19 ****         0.2206  -0.6569   3.5265 C.2            1 S1                 0.0000
     20 ****        -0.9620  -0.7031   3.8576 O.2            1 S1                 0.0000
     21 ****         1.2441  -0.6612   4.4149 N.am           1 S1                 0.0000
     22 ****         2.5844  -0.6216   4.1424 C.2            1 S1                 0.0000
     23 ****         3.3947  -0.6302   5.0684 O.2            1 S1                 0.0000
     24 ****         2.9652  -0.5737   2.8239 N.am           1 S1                 0.0000
     25 ****         4.3734  -0.5335   2.4248 C.3            1 S1                 0.0000
     26 ****         0.9880  -0.6997   5.3906 H              1 S1                 0.0000
     27 ****        -2.1264   4.4722   3.5176 H              1 S1                 0.0000
     28 ****        -0.7088   3.4236   3.5325 H              1 S1                 0.0000
     29 ****        -2.2186   2.8743   4.2579 H              1 S1                 0.0000
     30 ****        -3.3082   2.8711   1.9895 H              1 S1                 0.0000
     31 ****        -1.8007   3.4271   1.2657 H              1 S1                 0.0000
     32 ****        -3.1699   0.8291   0.6688 H              1 S1                 0.0000
     33 ****        -1.6746   1.4378  -0.0312 H              1 S1                 0.0000
     34 ****        -1.9619  -1.1662   1.5642 H              1 S1                 0.0000
     35 ****        -1.7641  -1.0589  -0.1557 H              1 S1                 0.0000
     36 ****         1.7033  -1.6609  -2.6657 H              1 S1                 0.0000
     37 ****         0.6962  -2.5764  -1.5702 H              1 S1                 0.0000
     38 ****        -1.3414  -1.8942  -2.7978 H              1 S1                 0.0000
     39 ****         0.7743  -3.0924  -4.6453 H              1 S1                 0.0000
     40 ****        -0.9701  -3.1969  -4.8722 H              1 S1                 0.0000
     41 ****        -0.2147  -3.9839  -3.4917 H              1 S1                 0.0000
     42 ****         0.5684  -0.5309  -4.7449 H              1 S1                 0.0000
     43 ****        -1.1667  -0.6093  -4.9162 H              1 S1                 0.0000
     44 ****        -0.2421   1.5540  -3.9817 H              1 S1                 0.0000
     45 ****        -2.2497   0.1828  -2.1481 H              1 S1                 0.0000
     46 ****        -2.6176   0.9850  -3.6680 H              1 S1                 0.0000
     47 ****        -1.9901   1.9170  -2.3194 H              1 S1                 0.0000
     48 ****         0.4152   1.5772  -1.5489 H              1 S1                 0.0000
     49 ****         1.5632   0.8098  -2.6139 H              1 S1                 0.0000
     50 ****         5.0740  -0.5794   3.2590 H              1 S1                 0.0000
     51 ****         4.5775   0.3862   1.8757 H              1 S1                 0.0000
     52 ****         4.5975  -1.3732   1.7662 H              1 S1                 0.0000
     53 ****        -2.1746   0.9883   2.7692 LP             1 S1                 0.0000
     54 ****        -0.7668   1.5046   2.1225 LP             1 S1                 0.0000
     55 ****         2.9930  -0.4761  -0.1144 LP             1 S1                 0.0000
     56 ****        -1.6774  -0.6993   3.1588 LP             1 S1                 0.0000
     57 ****        -1.2090  -0.7444   4.8257 LP             1 S1                 0.0000
     58 ****         3.0725  -0.6660   6.0144 LP             1 S1                 0.0000
     59 ****         4.3753  -0.6014   4.8749 LP             1 S1                 0.0000
@<TRIPOS>BOND
    1    1    2 1     
    2    1   27 1     
    3    1   28 1     
    4    1   29 1     
    5    2    3 1     
    6    2   30 1     
    7    2   31 1     
    8    3    4 1     
    9    4    5 1     
   10    4   32 1     
   11    4   33 1     
   12    5    6 1     
   13    5   34 1     
   14    5   35 1     
   15    6   18 1     
   16    6    7 1     
   17    7    8 1     
   18    7   16 2     
   19    8   15 1     
   20    8    9 1     
   21    9   10 1     
   22    9   36 1     
   23    9   37 1     
   24   10   11 1     
   25   10   12 1     
   26   10   38 1     
   27   11   39 1     
   28   11   40 1     
   29   11   41 1     
   30   12   13 1     
   31   12   42 1     
   32   12   43 1     
   33   13   14 1     
   34   13   15 1     
   35   13   44 1     
   36   14   45 1     
   37   14   46 1     
   38   14   47 1     
   39   15   48 1     
   40   15   49 1     
   41   16   17 1     
   42   17   24 1     
   43   17   18 2     
   44   18   19 1     
   45   19   20 2     
   46   19   21 1     
   47   21   26 1     
   48   21   22 1     
   49   22   23 2     
   50   22   24 1     
   51   24   25 1     
   52   25   50 1     
   53   25   51 1     
   54   25   52 1     
   55    3   53 1     
   56    3   54 1     
   57   16   55 1     
   58   20   56 1     
   59   20   57 1     
   60   23   58 1     
   61   23   59 1     
@<TRIPOS>SUBSTRUCTURE
      1 S1             1
@<TRIPOS>SET
LONE_PAIRS      STATIC     ATOMS    <user>   **** ""
7 53 54 55 56 57 58 59
DONOR_HYDROGENS      STATIC     ATOMS    <user>   **** ""
1 26
ATOM$BLUE        STATIC     ATOMS    COLORGROUP SYSTEM
7 53 54 55 56 57 58 59
ATOM$RED        STATIC     ATOMS    COLORGROUP SYSTEM
1 26
