AV-unprocessed.smi:2527|AV-procd|sdf|9945|dock8
  -GOLD-   2272013583D 1   1.00000     0.00000
 Structure written by MMmdl.
 35 37  0  0  0  0  0  0  0  0  2 V2000
  150.8447  138.2690  154.4958 C   0  0  0  0  0  0  0  0  0  0  0  0
  151.0588  139.6467  154.7442 O   0  0  0  0  0  0  0  0  0  0  0  0
  152.0188  139.8745  155.7635 C   0  0  0  0  0  0  0  0  0  0  0  0
  151.4711  139.3751  157.1079 C   0  0  0  0  0  0  0  0  0  0  0  0
  151.9931  140.1424  158.2295 N   0  0  0  0  0  0  0  0  0  0  0  0
  152.7110  139.6885  159.2873 C   0  0  0  0  0  0  0  0  0  0  0  0
  153.1377  137.9777  159.4409 S   0  0  0  0  0  0  0  0  0  0  0  0
  154.9225  138.0559  159.1093 C   0  0  0  0  0  0  0  0  0  0  0  0
  155.3507  137.2980  157.8724 C   0  0  0  0  0  0  0  0  0  0  0  0
  156.6690  137.3326  157.5215 N   0  0  0  0  0  0  0  0  0  0  0  0
  156.7856  136.5948  156.4221 C   0  0  0  0  0  0  0  0  0  0  0  0
  157.8611  136.4254  155.8516 O   0  0  0  0  0  0  0  0  0  0  0  0
  155.5643  136.1080  156.0915 N   0  5  0  0  0  0  0  0  0  0  0  0
  154.6388  136.5921  157.0728 N   0  0  0  0  0  0  0  0  0  0  0  0
  153.0681  140.6187  160.1754 N   0  0  0  0  0  0  0  0  0  0  0  0
  152.5369  141.7764  159.6444 C   0  0  0  0  0  0  0  0  0  0  0  0
  152.5766  143.1067  160.1190 C   0  0  0  0  0  0  0  0  0  0  0  0
  151.9564  144.1431  159.3905 C   0  0  0  0  0  0  0  0  0  0  0  0
  152.0158  145.7623  159.9829 Cl  0  0  0  0  0  0  0  0  0  0  0  0
  151.2892  143.8628  158.1800 C   0  0  0  0  0  0  0  0  0  0  0  0
  151.2371  142.5435  157.6908 C   0  0  0  0  0  0  0  0  0  0  0  0
  151.8573  141.5135  158.4228 C   0  0  0  0  0  0  0  0  0  0  0  0
  157.4022  137.8251  158.0092 H   0  0  0  0  0  0  0  0  0  0  0  0
  150.0995  138.1509  153.7090 H   0  0  0  0  0  0  0  0  0  0  0  0
  150.4765  137.7598  155.3874 H   0  0  0  0  0  0  0  0  0  0  0  0
  151.7626  137.7805  154.1664 H   0  0  0  0  0  0  0  0  0  0  0  0
  152.9460  139.3508  155.5262 H   0  0  0  0  0  0  0  0  0  0  0  0
  152.2522  140.9386  155.8263 H   0  0  0  0  0  0  0  0  0  0  0  0
  150.3831  139.4445  157.1147 H   0  0  0  0  0  0  0  0  0  0  0  0
  151.7074  138.3205  157.2498 H   0  0  0  0  0  0  0  0  0  0  0  0
  155.2158  139.1020  159.0129 H   0  0  0  0  0  0  0  0  0  0  0  0
  155.4628  137.6503  159.9652 H   0  0  0  0  0  0  0  0  0  0  0  0
  153.0868  143.3291  161.0445 H   0  0  0  0  0  0  0  0  0  0  0  0
  150.8179  144.6608  157.6251 H   0  0  0  0  0  0  0  0  0  0  0  0
  150.7303  142.3271  156.7622 H   0  0  0  0  0  0  0  0  0  0  0  0
  1  2  1  0  0  0  0
  1 24  1  0  0  0  0
  1 25  1  0  0  0  0
  1 26  1  0  0  0  0
  2  3  1  0  0  0  0
  3  4  1  0  0  0  0
  3 27  1  0  0  0  0
  3 28  1  0  0  0  0
  4  5  1  0  0  0  0
  4 29  1  0  0  0  0
  4 30  1  0  0  0  0
  5 22  1  0  0  0  0
  5  6  1  0  0  0  0
  6  7  1  0  0  0  0
  6 15  2  0  0  0  0
  7  8  1  0  0  0  0
  8 31  1  0  0  0  0
  8 32  1  0  0  0  0
  8  9  1  0  0  0  0
  9 14  2  0  0  0  0
  9 10  1  0  0  0  0
 10 11  1  0  0  0  0
 10 23  1  0  0  0  0
 11 13  1  0  0  0  0
 11 12  2  0  0  0  0
 13 14  1  0  0  0  0
 15 16  1  0  0  0  0
 16 22  2  0  0  0  0
 16 17  1  0  0  0  0
 17 18  2  0  0  0  0
 17 33  1  0  0  0  0
 18 19  1  0  0  0  0
 18 20  1  0  0  0  0
 20 21  2  0  0  0  0
 20 34  1  0  0  0  0
 21 22  1  0  0  0  0
 21 35  1  0  0  0  0
M  CHG  1  13  -1
M  END
> <s_m_source_file>
AV-unprocessed.smi

> <i_m_source_file_index>
2527

> <i_lp_mmshare_version>
43012

> <i_f3d_flags>
0

> <s_epik_input>
W2NIXTFjKENsKVtjSF1bY0hdYyhjMTIpbihbQ0gyXVtDSDJdT1tDSDNdKWMobjIpU1tDSDJdYzNuYyg9TylbbkhdW25IXTM=

> <s_epik_cmdline>
J2VwaWtfcHl0aG9uJywgJy1waCcsICc3LjAnLCAnLXRuJywgJzgnLCAnLW1hJywgJzIwMCcsICctbWV0YWxfYmluZGluZycsICctaW1hZScsICc8aW5maWxlLm1hZT4nLCAnLW9tYWUnLCAnPG91dGZpbGUubWFlPic=

> <r_lp_tautomer_probability>
0.999897

> <r_epik_Ionization_Penalty>
2.94119

> <r_epik_Ionization_Penalty_Charging>
1.40065e-06

> <r_epik_Ionization_Penalty_Neutral>
2.94119

> <r_epik_State_Penalty>
4.57578

> <r_epik_Charging_Adjusted_Penalty>
4.57578

> <i_epik_Tot_Q>
-1

> <i_epik_Tot_abs_Q>
1

> <r_epik_Metal_State_Penalty>
2.1052

> <b_epik_Metal_Only>
1

> <s_lp_Force_Field>
OPLS_2005

> <r_lp_Energy>
14.3955

> <b_lp_Chiralities_Consistent>
1

> <s_lp_Variant>
AV-unprocessed.smi:2527-4

> <Gold.Version>
5.8.1

> <Gold.Id.Protein>
6NUR|6NUR_protein|mol2

> <Gold.PLP.Fitness>
48.9673

> <Gold.PLP.PLP>
-41.2752

> <Gold.PLP.part.hbond>
-2.7541

> <Gold.PLP.part.metal>
0.0000

> <Gold.PLP.part.buried>
-5.5801

> <Gold.PLP.part.nonpolar>
-33.0495

> <Gold.PLP.part.repulsive>
0.2641

> <Gold.PLP.ligand.clash>
0.0000

> <Gold.PLP.ligand.torsion>
0.6905

> <Gold.PLP.Chemscore.Hbond>
3.0000

> <Gold.PLP.Chemscore.CHOScore>
0.0000

> <Gold.PLP.Chemscore.Metal>
0.0000

> <Gold.Chemscore.Hbonds>
donor molecule, donor type, donor heavy atom, donor atom, acceptor molecule, acceptor atom, score
      P1  H  7989  7998       L1     2  1.00
      P1  H 10752 10764       L1    13  1.82

> <Gold.PLP.Chemscore.Internal.Correction>
0.0730

> <Gold.Rescore>
     Score         DG    S(hbond)    S(metal)    S(lipo)     H(rot)  DE(clash)    DE(int)     intcor
     15.00     -16.39       1.66        0.00     107.35       2.81       0.57       0.82       ----

> <Gold.Chemscore.Fitness>
15.0014

> <Gold.Chemscore.DG>
-16.3869

> <Gold.Chemscore.ZeroCoef>
-5.4800

> <Gold.Chemscore.Hbond>
1.6584

> <Gold.Chemscore.Metal>
0.0000

> <Gold.Chemscore.Lipo>
107.3452

> <Gold.Chemscore.Internal_Hbond>
0.0000

> <Gold.Chemscore.DEClash>
0.5663

> <Gold.Chemscore.DEInternal>
0.8192

> <Gold.Chemscore.Rot>
2.8092

> <Gold.Chemscore.Internal.Correction>
   9.000000E+99

> <Gold.Chemscore.Hbonds>
donor molecule, donor type, donor heavy atom, donor atom, acceptor molecule, acceptor atom, score
      P1  H  7989  7998       L1     2  0.26
      P1  H 10752 10764       L1    13  0.73

> <Gold.Chemscore.Hbond.Weighted>
-5.5392

> <Gold.Chemscore.Metal.Weighted>
-0.0000

> <Gold.Chemscore.Lipo.Weighted>
-12.5594

> <Gold.Chemscore.Internal_Hbond.Weighted>
0.0000

> <Gold.Chemscore.DEClash.Weighted>
0.5663

> <Gold.Chemscore.DEInternal.Weighted>
0.8192

> <Gold.Chemscore.Rot.Weighted>
7.1916

> <Gold.Chemscore.Internal.Correction.Weighted>
   9.000000E+99

> <Gold.Protein.RotatedTorsions>
[ 6907 6896 6895 6894 ] final  100.61 input  -60.11 | X-H torsion
[ 7974 7965 7964 7962 ] final  -12.85 input  175.53 | X-H torsion
[ 8008 7997 7996 7995 ] final -119.01 input   59.86 | X-H torsion
[ 10167 10162 10161 10158 ] final   12.57 input  -65.29 | X-H torsion
[ 10718 10713 10712 10709 ] final  -44.71 input   66.30 | X-H torsion
[ 10763 10752 10751 10750 ] final   84.62 input  -60.55 | X-H torsion
[ 11005 11000 10999 10996 ] final  154.79 input  -57.11 | X-H torsion

> <Gold.Protein.ActiveResidues>
 VAL166  LYS551  ARG553  GLY616  TRP617  ASP618  TYR619  PRO620  LYS621  CYS622 
 ASP623  PHE694  ASN695  SER759  ASP760  ASP761  ALA762  ILE779  LEU786  VAL792 
 PHE793  MET794  SER795  GLU796  ALA797  LYS798  CYS799  TRP800  GLU811  SER814 

> <Gold.Protein.RotatedAtoms>
  152.5368  134.0251  159.7999 H   0  0  0  0  0  0  0  0  0  0  0  0  # atno 6907 bound_to 6896
  151.0431  133.5681  159.2656 H   0  0  0  0  0  0  0  0  0  0  0  0  # atno 6908 bound_to 6896
  151.2643  135.0672  159.9164 H   0  0  0  0  0  0  0  0  0  0  0  0  # atno 6909 bound_to 6896
  146.2136  140.3118  142.8383 H   0  0  0  0  0  0  0  0  0  0  0  0  # atno 7974 bound_to 7965
  155.1089  140.0397  157.2718 H   0  0  0  0  0  0  0  0  0  0  0  0  # atno 8008 bound_to 7997
  154.6700  140.2610  155.6991 H   0  0  0  0  0  0  0  0  0  0  0  0  # atno 8009 bound_to 7997
  156.2654  140.2799  156.1206 H   0  0  0  0  0  0  0  0  0  0  0  0  # atno 8010 bound_to 7997
  140.6059  143.8509  150.7013 H   0  0  0  0  0  0  0  0  0  0  0  0  # atno 10167 bound_to 10162
  156.2358  130.4176  149.8819 H   0  0  0  0  0  0  0  0  0  0  0  0  # atno 10718 bound_to 10713
  153.1398  135.4647  154.9478 H   0  0  0  0  0  0  0  0  0  0  0  0  # atno 10763 bound_to 10752
  154.7737  135.3167  154.8138 H   0  0  0  0  0  0  0  0  0  0  0  0  # atno 10764 bound_to 10752
  153.8663  135.6908  153.4832 H   0  0  0  0  0  0  0  0  0  0  0  0  # atno 10765 bound_to 10752
  140.1521  134.8667  157.2468 H   0  0  0  0  0  0  0  0  0  0  0  0  # atno 11005 bound_to 11000
  144.8983  140.7611  143.5883 LP  0  0  0  0  0  0  0  0  0  0  0  0  # atno 17320 bound_to 7965
  145.3042  139.1840  143.4673 LP  0  0  0  0  0  0  0  0  0  0  0  0  # atno 17321 bound_to 7965
  140.2066  143.3917  152.1751 LP  0  0  0  0  0  0  0  0  0  0  0  0  # atno 17342 bound_to 10162
  139.5324  144.7174  151.5008 LP  0  0  0  0  0  0  0  0  0  0  0  0  # atno 17343 bound_to 10162
  156.6418  130.8708  151.3515 LP  0  0  0  0  0  0  0  0  0  0  0  0  # atno 17370 bound_to 10713
  157.7154  130.9490  150.1235 LP  0  0  0  0  0  0  0  0  0  0  0  0  # atno 17371 bound_to 10713
  140.2591  134.3592  155.7413 LP  0  0  0  0  0  0  0  0  0  0  0  0  # atno 17394 bound_to 11000
  141.2200  133.7359  156.9053 LP  0  0  0  0  0  0  0  0  0  0  0  0  # atno 17395 bound_to 11000

$$$$
