AV-unprocessed.smi:2973|AV-procd|sdf|11351|dock6
  -GOLD-   2272016263D 1   1.00000     0.00000
 Structure written by MMmdl.
 49 51  0  0  0  0  0  0  0  0  3 V2000
  149.9344  138.8488  157.5096 C   0  0  0  0  0  0  0  0  0  0  0  0
  150.7775  140.1338  157.3573 C   0  0  2  0  0  0  0  0  0  0  0  0
  151.4510  140.5080  158.6953 C   0  0  0  0  0  0  0  0  0  0  0  0
  152.3829  141.7195  158.5467 C   0  0  0  0  0  0  0  0  0  0  0  0
  151.6304  142.9293  157.9787 C   0  0  0  0  0  0  0  0  0  0  0  0
  150.9563  142.5861  156.6395 C   0  0  0  0  0  0  0  0  0  0  0  0
  150.0204  141.3532  156.7360 C   0  0  2  0  0  0  0  0  0  0  0  0
  148.8243  141.6919  157.4897 N   0  5  0  0  0  0  0  0  0  0  0  0
  147.7464  141.5915  156.6775 C   0  0  0  0  0  0  0  0  0  0  0  0
  146.5753  141.8186  156.9786 O   0  0  0  0  0  0  0  0  0  0  0  0
  148.1093  141.2021  155.4405 N   0  0  0  0  0  0  0  0  0  0  0  0
  147.1982  141.0246  154.3022 C   0  0  0  0  0  0  0  0  0  0  0  0
  147.3666  139.6549  153.6334 C   0  0  0  0  0  0  0  0  0  0  0  0
  148.3539  138.9584  153.8725 O   0  0  0  0  0  0  0  0  0  0  0  0
  146.3911  139.2794  152.7912 N   0  0  0  0  0  0  0  0  0  0  0  0
  146.3304  138.0015  152.0850 C   0  0  0  0  0  0  0  0  0  0  0  0
  145.3150  137.0244  152.7125 C   0  0  0  0  0  0  0  0  0  0  0  0
  145.3214  135.6387  152.0887 C   0  0  0  0  0  0  0  0  0  0  0  0
  144.1345  134.9941  151.6772 C   0  0  0  0  0  0  0  0  0  0  0  0
  144.2089  133.6957  151.1320 C   0  0  0  0  0  0  0  0  0  0  0  0
  145.4658  133.0694  151.0090 C   0  0  0  0  0  0  0  0  0  0  0  0
  146.6191  133.7598  151.4325 C   0  0  0  0  0  0  0  0  0  0  0  0
  146.5078  135.0045  151.9461 N   0  3  0  0  0  0  0  0  0  0  0  0
  149.4348  141.0392  155.3672 C   0  0  0  0  0  0  0  0  0  0  0  0
  150.0952  140.7031  154.3827 O   0  0  0  0  0  0  0  0  0  0  0  0
  149.1012  138.9946  158.1976 H   0  0  0  0  0  0  0  0  0  0  0  0
  150.5406  138.0318  157.9013 H   0  0  0  0  0  0  0  0  0  0  0  0
  149.5253  138.5137  156.5569 H   0  0  0  0  0  0  0  0  0  0  0  0
  151.5866  139.8808  156.6698 H   0  0  0  0  0  0  0  0  0  0  0  0
  150.6900  140.7224  159.4468 H   0  0  0  0  0  0  0  0  0  0  0  0
  152.0225  139.6600  159.0738 H   0  0  0  0  0  0  0  0  0  0  0  0
  152.8176  141.9741  159.5136 H   0  0  0  0  0  0  0  0  0  0  0  0
  153.2152  141.4635  157.8899 H   0  0  0  0  0  0  0  0  0  0  0  0
  150.8794  143.2635  158.6957 H   0  0  0  0  0  0  0  0  0  0  0  0
  152.3181  143.7643  157.8433 H   0  0  0  0  0  0  0  0  0  0  0  0
  150.4087  143.4570  156.2752 H   0  0  0  0  0  0  0  0  0  0  0  0
  151.7381  142.3930  155.9036 H   0  0  0  0  0  0  0  0  0  0  0  0
  146.1666  141.1518  154.6364 H   0  0  0  0  0  0  0  0  0  0  0  0
  147.3637  141.7998  153.5528 H   0  0  0  0  0  0  0  0  0  0  0  0
  145.6235  139.9191  152.6444 H   0  0  0  0  0  0  0  0  0  0  0  0
  146.0539  138.1983  151.0490 H   0  0  0  0  0  0  0  0  0  0  0  0
  147.3190  137.5407  152.0488 H   0  0  0  0  0  0  0  0  0  0  0  0
  145.5178  136.9285  153.7799 H   0  0  0  0  0  0  0  0  0  0  0  0
  144.3099  137.4400  152.6336 H   0  0  0  0  0  0  0  0  0  0  0  0
  143.1757  135.4781  151.7916 H   0  0  0  0  0  0  0  0  0  0  0  0
  143.3102  133.1823  150.8230 H   0  0  0  0  0  0  0  0  0  0  0  0
  145.5419  132.0707  150.6042 H   0  0  0  0  0  0  0  0  0  0  0  0
  147.6191  133.3547  151.3826 H   0  0  0  0  0  0  0  0  0  0  0  0
  147.3552  135.4799  152.2569 H   0  0  0  0  0  0  0  0  0  0  0  0
  1  2  1  0  0  0  0
  1 26  1  0  0  0  0
  1 27  1  0  0  0  0
  1 28  1  0  0  0  0
  2  7  1  0  0  0  0
  2  3  1  0  0  0  0
  2 29  1  0  0  0  0
  3  4  1  0  0  0  0
  3 30  1  0  0  0  0
  3 31  1  0  0  0  0
  4  5  1  0  0  0  0
  4 32  1  0  0  0  0
  4 33  1  0  0  0  0
  5  6  1  0  0  0  0
  5 34  1  0  0  0  0
  5 35  1  0  0  0  0
  6  7  1  0  0  0  0
  6 36  1  0  0  0  0
  6 37  1  0  0  0  0
  7 24  1  0  0  0  0
  7  8  1  0  0  0  0
  8  9  1  0  0  0  0
  9 10  2  0  0  0  0
  9 11  1  0  0  0  0
 11 12  1  0  0  0  0
 11 24  1  0  0  0  0
 12 13  1  0  0  0  0
 12 38  1  0  0  0  0
 12 39  1  0  0  0  0
 13 14  2  0  0  0  0
 13 15  1  0  0  0  0
 15 16  1  0  0  0  0
 15 40  1  0  0  0  0
 16 17  1  0  0  0  0
 16 41  1  0  0  0  0
 16 42  1  0  0  0  0
 17 18  1  0  0  0  0
 17 43  1  0  0  0  0
 17 44  1  0  0  0  0
 18 23  1  0  0  0  0
 18 19  2  0  0  0  0
 19 20  1  0  0  0  0
 19 45  1  0  0  0  0
 20 21  2  0  0  0  0
 20 46  1  0  0  0  0
 21 22  1  0  0  0  0
 21 47  1  0  0  0  0
 22 23  2  0  0  0  0
 22 48  1  0  0  0  0
 23 49  1  0  0  0  0
 24 25  2  0  0  0  0
M  CHG  1   8  -1
M  CHG  1  23   1
M  END
> <s_m_source_file>
AV-unprocessed.smi

> <i_m_source_file_index>
2973

> <i_lp_mmshare_version>
43012

> <i_f3d_flags>
0

> <s_epik_input>
W0NIMl0xW0NIMl1bQ0gyXVtDSDJdW0NAQEhdKFtDSDNdKVtDQF0xMltOSF1DKD1PKU4oQzI9TylbQ0gyXUMoPU8pW05IXVtDSDJdW0NIMl1jM1tjSF1bY0hdW2NIXVtjSF1uMw==

> <s_epik_cmdline>
J2VwaWtfcHl0aG9uJywgJy1waCcsICc3LjAnLCAnLXRuJywgJzgnLCAnLW1hJywgJzIwMCcsICctbWV0YWxfYmluZGluZycsICctaW1hZScsICc8aW5maWxlLm1hZT4nLCAnLW9tYWUnLCAnPG91dGZpbGUubWFlPic=

> <r_lp_tautomer_probability>
1

> <r_epik_Ionization_Penalty>
7.89073

> <r_epik_Ionization_Penalty_Charging>
7.89073

> <r_epik_Ionization_Penalty_Neutral>
1.56557e-07

> <r_epik_State_Penalty>
8.01193

> <r_epik_Charging_Adjusted_Penalty>
15.9027

> <i_epik_Tot_Q>
0

> <i_epik_Tot_abs_Q>
2

> <r_epik_Metal_State_Penalty>
3.98737

> <b_epik_Metal_Only>
1

> <s_lp_Force_Field>
OPLS_2005

> <r_lp_Energy>
16.8567

> <b_lp_Chiralities_Consistent>
1

> <s_lp_Variant>
AV-unprocessed.smi:2973-15

> <Gold.Version>
5.8.1

> <Gold.Id.Protein>
6NUR|6NUR_protein|mol2

> <Gold.PLP.Fitness>
50.3708

> <Gold.PLP.PLP>
-39.8656

> <Gold.PLP.part.hbond>
-3.0000

> <Gold.PLP.part.metal>
0.0000

> <Gold.PLP.part.buried>
-7.0300

> <Gold.PLP.part.nonpolar>
-32.2658

> <Gold.PLP.part.repulsive>
0.8913

> <Gold.PLP.ligand.clash>
0.0000

> <Gold.PLP.ligand.torsion>
0.4531

> <Gold.PLP.Chemscore.Hbond>
3.7833

> <Gold.PLP.Chemscore.CHOScore>
0.0000

> <Gold.PLP.Chemscore.Metal>
0.0000

> <Gold.Chemscore.Hbonds>
donor molecule, donor type, donor heavy atom, donor atom, acceptor molecule, acceptor atom, score
      L1  H    15    40       P1 10175  1.00
      L1  H    23    49       P1  7948  1.92
      P1  H  7989  7998       L1    25  0.75

> <Gold.PLP.Chemscore.Internal.Correction>
0.0616

> <Gold.Rescore>
     Score         DG    S(hbond)    S(metal)    S(lipo)     H(rot)  DE(clash)    DE(int)     intcor
     16.61     -20.13       2.75        0.00      88.57       1.92       0.01       3.50       ----

> <Gold.Chemscore.Fitness>
16.6144

> <Gold.Chemscore.DG>
-20.1265

> <Gold.Chemscore.ZeroCoef>
-5.4800

> <Gold.Chemscore.Hbond>
2.7523

> <Gold.Chemscore.Metal>
0.0000

> <Gold.Chemscore.Lipo>
88.5692

> <Gold.Chemscore.Internal_Hbond>
0.0000

> <Gold.Chemscore.DEClash>
0.0106

> <Gold.Chemscore.DEInternal>
3.5015

> <Gold.Chemscore.Rot>
1.9175

> <Gold.Chemscore.Internal.Correction>
   9.000000E+99

> <Gold.Chemscore.Hbonds>
donor molecule, donor type, donor heavy atom, donor atom, acceptor molecule, acceptor atom, score
      L1  H    15    40       P1 10175  0.91
      L1  H    23    49       P1  7948  0.92
      P1  H  7989  7998       L1    25  0.76

> <Gold.Chemscore.Hbond.Weighted>
-9.1927

> <Gold.Chemscore.Metal.Weighted>
-0.0000

> <Gold.Chemscore.Lipo.Weighted>
-10.3626

> <Gold.Chemscore.Internal_Hbond.Weighted>
0.0000

> <Gold.Chemscore.DEClash.Weighted>
0.0106

> <Gold.Chemscore.DEInternal.Weighted>
3.5015

> <Gold.Chemscore.Rot.Weighted>
4.9087

> <Gold.Chemscore.Internal.Correction.Weighted>
   9.000000E+99

> <Gold.Protein.RotatedTorsions>
[ 6907 6896 6895 6894 ] final  148.97 input  -60.11 | X-H torsion
[ 7974 7965 7964 7962 ] final -115.04 input  175.53 | X-H torsion
[ 8008 7997 7996 7995 ] final   80.24 input   59.86 | X-H torsion
[ 10167 10162 10161 10158 ] final  172.12 input  -65.29 | X-H torsion
[ 10718 10713 10712 10709 ] final  -32.37 input   66.30 | X-H torsion
[ 10763 10752 10751 10750 ] final -159.69 input  -60.55 | X-H torsion
[ 11005 11000 10999 10996 ] final  -86.24 input  -57.11 | X-H torsion

> <Gold.Protein.ActiveResidues>
 VAL166  LYS551  ARG553  GLY616  TRP617  ASP618  TYR619  PRO620  LYS621  CYS622 
 ASP623  PHE694  ASN695  SER759  ASP760  ASP761  ALA762  ILE779  LEU786  VAL792 
 PHE793  MET794  SER795  GLU796  ALA797  LYS798  CYS799  TRP800  GLU811  SER814 

> <Gold.Protein.RotatedAtoms>
  152.1343  133.4426  159.4735 H   0  0  0  0  0  0  0  0  0  0  0  0  # atno 6907 bound_to 6896
  150.6880  134.2382  159.4471 H   0  0  0  0  0  0  0  0  0  0  0  0  # atno 6908 bound_to 6896
  152.0268  134.9790  160.0622 H   0  0  0  0  0  0  0  0  0  0  0  0  # atno 6909 bound_to 6896
  145.1130  140.8623  143.3858 H   0  0  0  0  0  0  0  0  0  0  0  0  # atno 7974 bound_to 7965
  155.8808  140.3444  155.5886 H   0  0  0  0  0  0  0  0  0  0  0  0  # atno 8008 bound_to 7997
  155.7722  140.0847  157.2121 H   0  0  0  0  0  0  0  0  0  0  0  0  # atno 8009 bound_to 7997
  154.4024  140.1516  156.2942 H   0  0  0  0  0  0  0  0  0  0  0  0  # atno 8010 bound_to 7997
  139.5067  144.3409  152.0019 H   0  0  0  0  0  0  0  0  0  0  0  0  # atno 10167 bound_to 10162
  156.3758  130.4347  149.7509 H   0  0  0  0  0  0  0  0  0  0  0  0  # atno 10718 bound_to 10713
  154.7454  135.3079  154.8654 H   0  0  0  0  0  0  0  0  0  0  0  0  # atno 10763 bound_to 10752
  153.9457  135.6769  153.4748 H   0  0  0  0  0  0  0  0  0  0  0  0  # atno 10764 bound_to 10752
  153.1051  135.4893  154.8862 H   0  0  0  0  0  0  0  0  0  0  0  0  # atno 10765 bound_to 10752
  141.1632  133.7443  156.9132 H   0  0  0  0  0  0  0  0  0  0  0  0  # atno 11005 bound_to 11000
  145.0825  139.2949  143.5776 LP  0  0  0  0  0  0  0  0  0  0  0  0  # atno 17320 bound_to 7965
  146.3525  140.0336  142.8648 LP  0  0  0  0  0  0  0  0  0  0  0  0  # atno 17321 bound_to 7965
  140.2847  144.3821  150.6107 LP  0  0  0  0  0  0  0  0  0  0  0  0  # atno 17342 bound_to 10162
  140.5992  143.2167  151.7106 LP  0  0  0  0  0  0  0  0  0  0  0  0  # atno 17343 bound_to 10162
  156.4619  130.7955  151.2975 LP  0  0  0  0  0  0  0  0  0  0  0  0  # atno 17370 bound_to 10713
  157.7488  131.0063  150.3147 LP  0  0  0  0  0  0  0  0  0  0  0  0  # atno 17371 bound_to 10713
  140.1502  134.9235  157.2583 LP  0  0  0  0  0  0  0  0  0  0  0  0  # atno 17394 bound_to 11000
  140.2731  134.3436  155.7367 LP  0  0  0  0  0  0  0  0  0  0  0  0  # atno 17395 bound_to 11000

$$$$
