#       Name:                AV-unprocessed.smi:1079
#       Creating user name   scv26
#       Creation time:       Fri Mar 27 03:23:03 2020


#       File generated by GOLD software.
#

@<TRIPOS>MOLECULE
AV-unprocessed.smi:1079
    52    53     1
SMALL
NO_CHARGES


@<TRIPOS>ATOM
      1 ****        -4.6073   2.9372  -0.2750 C.3            1 S1                 0.0000
      2 ****        -3.9429   1.6875  -0.3218 O.3            1 S1                 0.0000
      3 ****        -4.1588   1.0024  -1.5447 C.3            1 S1                 0.0000
      4 ****        -3.3822  -0.3253  -1.5429 C.3            1 S1                 0.0000
      5 ****        -1.9197  -0.1081  -1.6060 N.am           1 S1                 0.0000
      6 ****        -1.1636  -0.0872  -0.4026 C.2            1 S1                 0.0000
      7 ****        -1.8192  -0.2458   0.8101 N.pl3          1 S1                 0.0000
      8 ****         0.1802   0.1207  -0.4460 C.2            1 S1                 0.0000
      9 ****         0.9763   0.1077   0.7176 N.am           1 S1                 0.0000
     10 ****         1.1495  -1.1850   1.4013 C.3            1 S1                 0.0000
     11 ****         2.5538  -1.7561   1.2783 C.ar           1 S1                 0.0000
     12 ****         3.0319  -2.2027   0.0281 C.ar           1 S1                 0.0000
     13 ****         4.3339  -2.7264  -0.0875 C.ar           1 S1                 0.0000
     14 ****         5.1629  -2.8096   1.0478 C.ar           1 S1                 0.0000
     15 ****         4.6890  -2.3687   2.2984 C.ar           1 S1                 0.0000
     16 ****         3.3871  -1.8439   2.4137 C.ar           1 S1                 0.0000
     17 ****         1.4707   1.2483   1.2680 C.2            1 S1                 0.0000
     18 ****         1.1413   2.6039   0.6303 C.3            1 S1                 0.0000
     19 ****         2.1564   1.2469   2.2914 O.2            1 S1                 0.0000
     20 ****         0.8284   0.2876  -1.7536 C.2            1 S1                 0.0000
     21 ****         2.0489   0.4305  -1.8277 O.2            1 S1                 0.0000
     22 ****         0.0373   0.2754  -2.8583 N.pl3          1 S1                -1.0000
     23 ****        -1.3125   0.0901  -2.8163 C.2            1 S1                 0.0000
     24 ****        -1.9975   0.0975  -3.8403 O.2            1 S1                 0.0000
     25 ****        -4.4090   3.4213   0.6810 H              1 S1                 0.0000
     26 ****        -5.6865   2.8135  -0.3732 H              1 S1                 0.0000
     27 ****        -4.2562   3.6003  -1.0669 H              1 S1                 0.0000
     28 ****        -5.2241   0.7988  -1.6603 H              1 S1                 0.0000
     29 ****        -3.8566   1.6230  -2.3898 H              1 S1                 0.0000
     30 ****        -3.6759  -0.9285  -0.6844 H              1 S1                 0.0000
     31 ****        -3.7073  -0.9267  -2.3934 H              1 S1                 0.0000
     32 ****        -2.8196  -0.3751   0.8516 H              1 S1                 0.0000
     33 ****        -1.3077  -0.4819   1.6484 H              1 S1                 0.0000
     34 ****         0.8749  -1.0873   2.4532 H              1 S1                 0.0000
     35 ****         0.4622  -1.9273   0.9921 H              1 S1                 0.0000
     36 ****         2.4007  -2.1445  -0.8463 H              1 S1                 0.0000
     37 ****         4.6961  -3.0635  -1.0475 H              1 S1                 0.0000
     38 ****         6.1614  -3.2113   0.9592 H              1 S1                 0.0000
     39 ****         5.3243  -2.4309   3.1695 H              1 S1                 0.0000
     40 ****         3.0324  -1.5032   3.3754 H              1 S1                 0.0000
     41 ****         0.0712   2.7051   0.4467 H              1 S1                 0.0000
     42 ****         1.6741   2.7290  -0.3122 H              1 S1                 0.0000
     43 ****         1.4408   3.4184   1.2907 H              1 S1                 0.0000
     44 ****        -4.2784   1.1178   0.4284 LP             1 S1                 0.0000
     45 ****        -2.9613   1.8420  -0.2098 LP             1 S1                 0.0000
     46 ****         2.3687   0.3840   2.7499 LP             1 S1                 0.0000
     47 ****         2.5008   2.1088   2.6637 LP             1 S1                 0.0000
     48 ****         2.6034   0.4333  -0.9955 LP             1 S1                 0.0000
     49 ****         2.4858   0.5438  -2.7200 LP             1 S1                 0.0000
     50 ****         0.4687   0.4097  -3.7504 LP             1 S1                 0.0000
     51 ****        -2.9862  -0.0403  -3.7815 LP             1 S1                 0.0000
     52 ****        -1.5648   0.2414  -4.7303 LP             1 S1                 0.0000
@<TRIPOS>BOND
    1    1    2 1     
    2    1   25 1     
    3    1   26 1     
    4    1   27 1     
    5    2    3 1     
    6    3    4 1     
    7    3   28 1     
    8    3   29 1     
    9    4    5 1     
   10    4   30 1     
   11    4   31 1     
   12    5   23 am    
   13    5    6 1     
   14    6    7 1     
   15    6    8 2     
   16    7   32 1     
   17    7   33 1     
   18    8    9 1     
   19    8   20 1     
   20    9   10 1     
   21    9   17 am    
   22   10   11 1     
   23   10   34 1     
   24   10   35 1     
   25   11   16 ar    
   26   11   12 ar    
   27   12   13 ar    
   28   12   36 1     
   29   13   14 ar    
   30   13   37 1     
   31   14   15 ar    
   32   14   38 1     
   33   15   16 ar    
   34   15   39 1     
   35   16   40 1     
   36   17   18 1     
   37   17   19 2     
   38   18   41 1     
   39   18   42 1     
   40   18   43 1     
   41   20   21 2     
   42   20   22 1     
   43   22   23 1     
   44   23   24 2     
   45    2   44 1     
   46    2   45 1     
   47   19   46 1     
   48   19   47 1     
   49   21   48 1     
   50   21   49 1     
   51   22   50 1     
   52   24   51 1     
   53   24   52 1     
@<TRIPOS>SUBSTRUCTURE
      1 S1             1
@<TRIPOS>SET
LONE_PAIRS      STATIC     ATOMS    <user>   **** ""
9 44 45 46 47 48 49 50 51 52
DONOR_HYDROGENS      STATIC     ATOMS    <user>   **** ""
2 32 33
ATOM$BLUE        STATIC     ATOMS    COLORGROUP SYSTEM
9 44 45 46 47 48 49 50 51 52
ATOM$RED        STATIC     ATOMS    COLORGROUP SYSTEM
2 32 33
