AV-unprocessed.smi:402|AV-procd|sdf|2495|dock4
  -GOLD-   2262022443D 1   1.00000     0.00000
 Structure written by MMmdl.
 38 39  0  0  0  0  0  0  0  0  1 V2000
  152.4334  140.1376  155.4028 O   0  0  0  0  0  0  0  0  0  0  0  0
  151.3633  139.9174  155.9687 C   0  0  0  0  0  0  0  0  0  0  0  0
  150.1567  139.4530  155.1336 C   0  0  0  0  0  0  0  0  0  0  0  0
  148.9907  140.3554  155.1669 N   0  0  0  0  0  0  0  0  0  0  0  0
  148.6748  141.0343  153.9731 C   0  0  0  0  0  0  0  0  0  0  0  0
  147.6322  141.8756  153.8890 C   0  0  0  0  0  0  0  0  0  0  0  0
  146.8225  142.0789  155.0669 C   0  0  0  0  0  0  0  0  0  0  0  0
  147.1135  141.4321  156.2130 C   0  0  0  0  0  0  0  0  0  0  0  0
  148.2500  140.5086  156.3084 C   0  0  0  0  0  0  0  0  0  0  0  0
  148.5145  139.9032  157.3471 O   0  0  0  0  0  0  0  0  0  0  0  0
  151.1983  140.0689  157.2923 N   0  0  0  0  0  0  0  0  0  0  0  0
  152.2180  140.5444  158.2168 C   0  0  0  0  0  0  0  0  0  0  0  0
  151.8284  141.9064  158.8223 C   0  0  0  0  0  0  0  0  0  0  0  0
  151.6115  142.9910  157.7421 C   0  0  0  0  0  0  0  0  0  0  0  0
  151.2441  144.3483  158.3633 C   0  0  0  0  0  0  0  0  0  0  0  0
  152.3004  144.8000  159.3828 C   0  0  0  0  0  0  0  0  0  0  0  0
  152.5139  143.7319  160.4656 C   0  0  0  0  0  0  0  0  0  0  0  0
  152.8844  142.3757  159.8436 C   0  0  0  0  0  0  0  0  0  0  0  0
  150.4876  139.3051  154.1041 H   0  0  0  0  0  0  0  0  0  0  0  0
  149.8713  138.4587  155.4800 H   0  0  0  0  0  0  0  0  0  0  0  0
  149.3261  140.8227  153.1374 H   0  0  0  0  0  0  0  0  0  0  0  0
  147.4040  142.3851  152.9645 H   0  0  0  0  0  0  0  0  0  0  0  0
  145.9791  142.7527  155.0288 H   0  0  0  0  0  0  0  0  0  0  0  0
  146.4959  141.5960  157.0838 H   0  0  0  0  0  0  0  0  0  0  0  0
  150.2899  139.8649  157.6830 H   0  0  0  0  0  0  0  0  0  0  0  0
  152.3434  139.8020  159.0064 H   0  0  0  0  0  0  0  0  0  0  0  0
  153.1772  140.6287  157.7028 H   0  0  0  0  0  0  0  0  0  0  0  0
  150.8867  141.7742  159.3581 H   0  0  0  0  0  0  0  0  0  0  0  0
  152.5174  143.0989  157.1438 H   0  0  0  0  0  0  0  0  0  0  0  0
  150.8219  142.6928  157.0515 H   0  0  0  0  0  0  0  0  0  0  0  0
  151.1398  145.0991  157.5794 H   0  0  0  0  0  0  0  0  0  0  0  0
  150.2719  144.2748  158.8519 H   0  0  0  0  0  0  0  0  0  0  0  0
  153.2434  144.9954  158.8706 H   0  0  0  0  0  0  0  0  0  0  0  0
  151.9965  145.7410  159.8421 H   0  0  0  0  0  0  0  0  0  0  0  0
  153.2974  144.0519  161.1531 H   0  0  0  0  0  0  0  0  0  0  0  0
  151.6055  143.6265  161.0598 H   0  0  0  0  0  0  0  0  0  0  0  0
  152.9950  141.6323  160.6339 H   0  0  0  0  0  0  0  0  0  0  0  0
  153.8578  142.4542  159.3573 H   0  0  0  0  0  0  0  0  0  0  0  0
  1  2  2  0  0  0  0
  2  3  1  0  0  0  0
  2 11  1  0  0  0  0
  3  4  1  0  0  0  0
  3 19  1  0  0  0  0
  3 20  1  0  0  0  0
  4  9  1  0  0  0  0
  4  5  1  0  0  0  0
  5  6  2  0  0  0  0
  5 21  1  0  0  0  0
  6  7  1  0  0  0  0
  6 22  1  0  0  0  0
  7  8  2  0  0  0  0
  7 23  1  0  0  0  0
  8  9  1  0  0  0  0
  8 24  1  0  0  0  0
  9 10  2  0  0  0  0
 11 12  1  0  0  0  0
 11 25  1  0  0  0  0
 12 13  1  0  0  0  0
 12 26  1  0  0  0  0
 12 27  1  0  0  0  0
 13 18  1  0  0  0  0
 13 14  1  0  0  0  0
 13 28  1  0  0  0  0
 14 15  1  0  0  0  0
 14 29  1  0  0  0  0
 14 30  1  0  0  0  0
 15 16  1  0  0  0  0
 15 31  1  0  0  0  0
 15 32  1  0  0  0  0
 16 17  1  0  0  0  0
 16 33  1  0  0  0  0
 16 34  1  0  0  0  0
 17 18  1  0  0  0  0
 17 35  1  0  0  0  0
 17 36  1  0  0  0  0
 18 37  1  0  0  0  0
 18 38  1  0  0  0  0
M  END
> <s_m_source_file>
AV-unprocessed.smi

> <i_m_source_file_index>
402

> <i_lp_mmshare_version>
43012

> <i_f3d_flags>
0

> <s_epik_input>
W0NIMl0xW0NIMl1bQ0gyXVtDSDJdW0NIMl1bQ0hdMVtDSDJdW05IXUMoPU8pW0NIMl1uMltjSF1bY0hdW2NIXVtjSF1jMj1P

> <s_epik_cmdline>
J2VwaWtfcHl0aG9uJywgJy1waCcsICc3LjAnLCAnLXRuJywgJzgnLCAnLW1hJywgJzIwMCcsICctbWV0YWxfYmluZGluZycsICctaW1hZScsICc8aW5maWxlLm1hZT4nLCAnLW9tYWUnLCAnPG91dGZpbGUubWFlPic=

> <r_lp_tautomer_probability>
1

> <r_epik_Ionization_Penalty>
3.79717e-07

> <r_epik_Ionization_Penalty_Charging>
3.5992e-07

> <r_epik_Ionization_Penalty_Neutral>
1.97978e-08

> <r_epik_State_Penalty>
-0

> <r_epik_Charging_Adjusted_Penalty>
3.5992e-07

> <i_epik_Tot_Q>
0

> <i_epik_Tot_abs_Q>
0

> <r_epik_Metal_State_Penalty>
-0

> <b_epik_Metal_Only>
0

> <s_lp_Force_Field>
OPLS_2005

> <r_lp_Energy>
19.8269

> <b_lp_Chiralities_Consistent>
1

> <s_lp_Variant>
AV-unprocessed.smi:402-1

> <Gold.Version>
5.8.1

> <Gold.Id.Protein>
6NUR|6NUR_protein|mol2

> <Gold.PLP.Fitness>
45.2769

> <Gold.PLP.PLP>
-38.1891

> <Gold.PLP.part.hbond>
-1.9261

> <Gold.PLP.part.metal>
0.0000

> <Gold.PLP.part.buried>
-2.6803

> <Gold.PLP.part.nonpolar>
-33.4717

> <Gold.PLP.part.repulsive>
0.0683

> <Gold.PLP.ligand.clash>
0.0000

> <Gold.PLP.ligand.torsion>
0.0937

> <Gold.PLP.Chemscore.Hbond>
1.4204

> <Gold.PLP.Chemscore.CHOScore>
1.0000

> <Gold.PLP.Chemscore.Metal>
0.0000

> <Gold.Chemscore.Hbonds>
donor molecule, donor type, donor heavy atom, donor atom, acceptor molecule, acceptor atom, score
      P1  H  7989  7998       L1     1  0.37
      P1  H  7997  8008       L1     1  0.94
      L1  C     5    21       P1  7957  1.00

> <Gold.PLP.Chemscore.Internal.Correction>
0.0140

> <Gold.Rescore>
     Score         DG    S(hbond)    S(metal)    S(lipo)     H(rot)  DE(clash)    DE(int)     intcor
     16.63     -16.85       1.00        0.00     103.04       1.57       0.05       0.17       ----

> <Gold.Chemscore.Fitness>
16.6313

> <Gold.Chemscore.DG>
-16.8521

> <Gold.Chemscore.ZeroCoef>
-5.4800

> <Gold.Chemscore.Hbond>
0.9998

> <Gold.Chemscore.Metal>
0.0000

> <Gold.Chemscore.Lipo>
103.0418

> <Gold.Chemscore.Internal_Hbond>
0.0000

> <Gold.Chemscore.DEClash>
0.0462

> <Gold.Chemscore.DEInternal>
0.1746

> <Gold.Chemscore.Rot>
1.5715

> <Gold.Chemscore.Internal.Correction>
   9.000000E+99

> <Gold.Chemscore.Hbonds>
donor molecule, donor type, donor heavy atom, donor atom, acceptor molecule, acceptor atom, score
      P1  H  7989  7998       L1     1  0.08
      P1  H  7997  8008       L1     1  0.90

> <Gold.Chemscore.Hbond.Weighted>
-3.3393

> <Gold.Chemscore.Metal.Weighted>
-0.0000

> <Gold.Chemscore.Lipo.Weighted>
-12.0559

> <Gold.Chemscore.Internal_Hbond.Weighted>
0.0000

> <Gold.Chemscore.DEClash.Weighted>
0.0462

> <Gold.Chemscore.DEInternal.Weighted>
0.1746

> <Gold.Chemscore.Rot.Weighted>
4.0231

> <Gold.Chemscore.Internal.Correction.Weighted>
   9.000000E+99

> <Gold.Protein.RotatedTorsions>
[ 6907 6896 6895 6894 ] final  -48.88 input  -60.11 | X-H torsion
[ 7974 7965 7964 7962 ] final  -93.84 input  175.53 | X-H torsion
[ 8008 7997 7996 7995 ] final  -23.52 input   59.86 | X-H torsion
[ 10167 10162 10161 10158 ] final  -98.71 input  -65.29 | X-H torsion
[ 10718 10713 10712 10709 ] final   31.98 input   66.30 | X-H torsion
[ 10763 10752 10751 10750 ] final   67.71 input  -60.55 | X-H torsion
[ 11005 11000 10999 10996 ] final  103.87 input  -57.11 | X-H torsion

> <Gold.Protein.ActiveResidues>
 VAL166  LYS551  ARG553  GLY616  TRP617  ASP618  TYR619  PRO620  LYS621  CYS622 
 ASP623  PHE694  ASN695  SER759  ASP760  ASP761  ALA762  ILE779  LEU786  VAL792 
 PHE793  MET794  SER795  GLU796  ALA797  LYS798  CYS799  TRP800  GLU811  SER814 

> <Gold.Protein.RotatedAtoms>
  150.8861  134.8259  159.7259 H   0  0  0  0  0  0  0  0  0  0  0  0  # atno 6907 bound_to 6896
  152.4808  134.4720  159.9648 H   0  0  0  0  0  0  0  0  0  0  0  0  # atno 6908 bound_to 6896
  151.4789  133.3512  159.2870 H   0  0  0  0  0  0  0  0  0  0  0  0  # atno 6909 bound_to 6896
  145.3812  140.9518  143.2393 H   0  0  0  0  0  0  0  0  0  0  0  0  # atno 7974 bound_to 7965
  154.4580  140.1978  156.0324 H   0  0  0  0  0  0  0  0  0  0  0  0  # atno 8008 bound_to 7997
  156.0785  140.3275  155.7636 H   0  0  0  0  0  0  0  0  0  0  0  0  # atno 8009 bound_to 7997
  155.5150  140.0565  157.2907 H   0  0  0  0  0  0  0  0  0  0  0  0  # atno 8010 bound_to 7997
  140.2701  143.3350  152.0543 H   0  0  0  0  0  0  0  0  0  0  0  0  # atno 10167 bound_to 10162
  157.2794  130.7247  149.6548 H   0  0  0  0  0  0  0  0  0  0  0  0  # atno 10718 bound_to 10713
  153.0199  135.5274  154.7022 H   0  0  0  0  0  0  0  0  0  0  0  0  # atno 10763 bound_to 10752
  154.6128  135.2880  155.0416 H   0  0  0  0  0  0  0  0  0  0  0  0  # atno 10764 bound_to 10752
  154.1431  135.6575  153.4999 H   0  0  0  0  0  0  0  0  0  0  0  0  # atno 10765 bound_to 10752
  139.8787  134.9279  156.5275 H   0  0  0  0  0  0  0  0  0  0  0  0  # atno 11005 bound_to 11000
  144.8506  139.5327  143.6858 LP  0  0  0  0  0  0  0  0  0  0  0  0  # atno 17320 bound_to 7965
  146.2841  139.6956  142.9208 LP  0  0  0  0  0  0  0  0  0  0  0  0  # atno 17321 bound_to 7965
  139.4991  144.6662  151.6350 LP  0  0  0  0  0  0  0  0  0  0  0  0  # atno 17342 bound_to 10162
  140.5897  143.9802  150.6317 LP  0  0  0  0  0  0  0  0  0  0  0  0  # atno 17343 bound_to 10162
  155.9664  130.4343  150.5042 LP  0  0  0  0  0  0  0  0  0  0  0  0  # atno 17370 bound_to 10713
  157.2982  131.0640  151.2086 LP  0  0  0  0  0  0  0  0  0  0  0  0  # atno 17371 bound_to 10713
  140.8405  133.8209  155.9070 LP  0  0  0  0  0  0  0  0  0  0  0  0  # atno 17394 bound_to 11000
  140.9242  134.2104  157.4907 LP  0  0  0  0  0  0  0  0  0  0  0  0  # atno 17395 bound_to 11000

$$$$
