AV-unprocessed.smi:970|AV-procd|sdf|4294|dock4
  -GOLD-   22720 2203D 1   1.00000     0.00000
 Structure written by MMmdl.
 31 31  0  0  0  0  0  0  0  0  1 V2000
  148.4980  145.2612  160.6368 C   0  0  0  0  0  0  0  0  0  0  0  0
  149.2563  145.0856  159.4079 N   0  0  0  0  0  0  0  0  0  0  0  0
  150.5910  144.9710  159.3542 C   0  0  0  0  0  0  0  0  0  0  0  0
  151.3107  145.0114  160.3537 O   0  0  0  0  0  0  0  0  0  0  0  0
  151.2036  144.8009  157.9542 C   0  0  1  0  0  0  0  0  0  0  0  0
  152.7246  144.6400  158.1142 C   0  0  0  0  0  0  0  0  0  0  0  0
  150.6903  143.5939  157.3092 N   0  0  0  0  0  0  0  0  0  0  0  0
  150.8707  142.3392  157.7540 C   0  0  0  0  0  0  0  0  0  0  0  0
  151.4994  142.0744  158.7795 O   0  0  0  0  0  0  0  0  0  0  0  0
  150.2420  141.2218  156.9075 C   0  0  1  0  0  0  0  0  0  0  0  0
  149.3326  141.7668  155.7873 C   0  0  0  0  0  0  0  0  0  0  0  0
  151.2810  140.3356  156.3966 N   0  0  0  0  0  0  0  0  0  0  0  0
  152.2452  139.6807  157.0475 C   0  0  0  0  0  0  0  0  0  0  0  0
  153.0599  138.9956  156.2575 N   0  0  0  0  0  0  0  0  0  0  0  0
  152.5113  139.3013  155.0446 C   0  0  0  0  0  0  0  0  0  0  0  0
  151.4514  140.1088  155.0699 N   0  0  0  0  0  0  0  0  0  0  0  0
  147.4301  145.2535  160.4193 H   0  0  0  0  0  0  0  0  0  0  0  0
  148.7433  146.2132  161.1092 H   0  0  0  0  0  0  0  0  0  0  0  0
  148.7078  144.4568  161.3432 H   0  0  0  0  0  0  0  0  0  0  0  0
  148.7346  145.0424  158.5444 H   0  0  0  0  0  0  0  0  0  0  0  0
  150.9901  145.6757  157.3366 H   0  0  0  0  0  0  0  0  0  0  0  0
  153.1683  145.5153  158.5908 H   0  0  0  0  0  0  0  0  0  0  0  0
  153.2071  144.5214  157.1435 H   0  0  0  0  0  0  0  0  0  0  0  0
  152.9806  143.7673  158.7171 H   0  0  0  0  0  0  0  0  0  0  0  0
  150.1700  143.7238  156.4540 H   0  0  0  0  0  0  0  0  0  0  0  0
  149.6116  140.6254  157.5695 H   0  0  0  0  0  0  0  0  0  0  0  0
  148.5277  142.3770  156.1982 H   0  0  0  0  0  0  0  0  0  0  0  0
  148.8713  140.9512  155.2299 H   0  0  0  0  0  0  0  0  0  0  0  0
  149.8824  142.3833  155.0748 H   0  0  0  0  0  0  0  0  0  0  0  0
  152.3564  139.7096  158.1216 H   0  0  0  0  0  0  0  0  0  0  0  0
  152.9090  138.9231  154.1143 H   0  0  0  0  0  0  0  0  0  0  0  0
  1  2  1  0  0  0  0
  1 17  1  0  0  0  0
  1 18  1  0  0  0  0
  1 19  1  0  0  0  0
  2  3  1  0  0  0  0
  2 20  1  0  0  0  0
  3  4  2  0  0  0  0
  3  5  1  0  0  0  0
  5  6  1  0  0  0  0
  5  7  1  0  0  0  0
  5 21  1  0  0  0  0
  6 22  1  0  0  0  0
  6 23  1  0  0  0  0
  6 24  1  0  0  0  0
  7  8  1  0  0  0  0
  7 25  1  0  0  0  0
  8  9  2  0  0  0  0
  8 10  1  0  0  0  0
 10 11  1  0  0  0  0
 10 12  1  0  0  0  0
 10 26  1  0  0  0  0
 11 27  1  0  0  0  0
 11 28  1  0  0  0  0
 11 29  1  0  0  0  0
 12 16  1  0  0  0  0
 12 13  1  0  0  0  0
 13 14  2  0  0  0  0
 13 30  1  0  0  0  0
 14 15  1  0  0  0  0
 15 16  2  0  0  0  0
 15 31  1  0  0  0  0
M  END
> <s_m_source_file>
AV-unprocessed.smi

> <i_m_source_file_index>
970

> <i_lp_mmshare_version>
43012

> <i_f3d_flags>
0

> <s_epik_input>
W0NIM11bTkhdQyg9TylbQ0BIXShbQ0gzXSlbTkhdQyg9TylbQ0BIXShbQ0gzXSluMVtjSF1uW2NIXW4x

> <s_epik_cmdline>
J2VwaWtfcHl0aG9uJywgJy1waCcsICc3LjAnLCAnLXRuJywgJzgnLCAnLW1hJywgJzIwMCcsICctbWV0YWxfYmluZGluZycsICctaW1hZScsICc8aW5maWxlLm1hZT4nLCAnLW9tYWUnLCAnPG91dGZpbGUubWFlPic=

> <r_lp_tautomer_probability>
1

> <r_epik_Ionization_Penalty>
1.07271e-05

> <r_epik_Ionization_Penalty_Charging>
0

> <r_epik_Ionization_Penalty_Neutral>
1.07271e-05

> <r_epik_State_Penalty>
-0

> <r_epik_Charging_Adjusted_Penalty>
0

> <i_epik_Tot_Q>
0

> <i_epik_Tot_abs_Q>
0

> <r_epik_Metal_State_Penalty>
-0

> <b_epik_Metal_Only>
0

> <s_lp_Force_Field>
OPLS_2005

> <r_lp_Energy>
8.70478

> <b_lp_Chiralities_Consistent>
1

> <s_lp_Variant>
AV-unprocessed.smi:970-4

> <Gold.Version>
5.8.1

> <Gold.Id.Protein>
6NUR|6NUR_protein|mol2

> <Gold.PLP.Fitness>
42.9345

> <Gold.PLP.PLP>
-32.7709

> <Gold.PLP.part.hbond>
-4.0000

> <Gold.PLP.part.metal>
0.0000

> <Gold.PLP.part.buried>
-4.0328

> <Gold.PLP.part.nonpolar>
-24.7937

> <Gold.PLP.part.repulsive>
0.4357

> <Gold.PLP.ligand.clash>
0.4284

> <Gold.PLP.ligand.torsion>
0.1238

> <Gold.PLP.Chemscore.Hbond>
3.5765

> <Gold.PLP.Chemscore.CHOScore>
0.0000

> <Gold.PLP.Chemscore.Metal>
0.0000

> <Gold.Chemscore.Hbonds>
donor molecule, donor type, donor heavy atom, donor atom, acceptor molecule, acceptor atom, score
      L1  H     2    20       P1  8029  0.93
      L1  H     7    25       P1  8028  0.86
      P1  H  7989  7998       L1    16  0.95
      P1  H  7997  8009       L1    14  0.76

> <Gold.PLP.Chemscore.Internal.Correction>
0.1101

> <Gold.Rescore>
     Score         DG    S(hbond)    S(metal)    S(lipo)     H(rot)  DE(clash)    DE(int)     intcor
     10.65     -12.32       2.45        0.00      45.00       2.59       0.03       1.65       ----

> <Gold.Chemscore.Fitness>
10.6490

> <Gold.Chemscore.DG>
-12.3230

> <Gold.Chemscore.ZeroCoef>
-5.4800

> <Gold.Chemscore.Hbond>
2.4540

> <Gold.Chemscore.Metal>
0.0000

> <Gold.Chemscore.Lipo>
44.9989

> <Gold.Chemscore.Internal_Hbond>
0.0000

> <Gold.Chemscore.DEClash>
0.0279

> <Gold.Chemscore.DEInternal>
1.6462

> <Gold.Chemscore.Rot>
2.5852

> <Gold.Chemscore.Internal.Correction>
   9.000000E+99

> <Gold.Chemscore.Hbonds>
donor molecule, donor type, donor heavy atom, donor atom, acceptor molecule, acceptor atom, score
      L1  H     2    20       P1  8029  0.88
      L1  H     7    25       P1  8028  0.85
      P1  H  7989  7998       L1    16  0.21
      P1  H  7997  8009       L1    14  0.03

> <Gold.Chemscore.Hbond.Weighted>
-8.1964

> <Gold.Chemscore.Metal.Weighted>
-0.0000

> <Gold.Chemscore.Lipo.Weighted>
-5.2649

> <Gold.Chemscore.Internal_Hbond.Weighted>
0.0000

> <Gold.Chemscore.DEClash.Weighted>
0.0279

> <Gold.Chemscore.DEInternal.Weighted>
1.6462

> <Gold.Chemscore.Rot.Weighted>
6.6182

> <Gold.Chemscore.Internal.Correction.Weighted>
   9.000000E+99

> <Gold.Protein.RotatedTorsions>
[ 6907 6896 6895 6894 ] final  141.80 input  -60.11 | X-H torsion
[ 7974 7965 7964 7962 ] final  167.56 input  175.53 | X-H torsion
[ 8008 7997 7996 7995 ] final -153.73 input   59.86 | X-H torsion
[ 10167 10162 10161 10158 ] final  -40.25 input  -65.29 | X-H torsion
[ 10718 10713 10712 10709 ] final  -73.97 input   66.30 | X-H torsion
[ 10763 10752 10751 10750 ] final  -76.87 input  -60.55 | X-H torsion
[ 11005 11000 10999 10996 ] final  176.06 input  -57.11 | X-H torsion

> <Gold.Protein.ActiveResidues>
 VAL166  LYS551  ARG553  GLY616  TRP617  ASP618  TYR619  PRO620  LYS621  CYS622 
 ASP623  PHE694  ASN695  SER759  ASP760  ASP761  ALA762  ILE779  LEU786  VAL792 
 PHE793  MET794  SER795  GLU796  ALA797  LYS798  CYS799  TRP800  GLU811  SER814 

> <Gold.Protein.RotatedAtoms>
  152.2266  133.5025  159.5191 H   0  0  0  0  0  0  0  0  0  0  0  0  # atno 6907 bound_to 6896
  150.7026  134.1272  159.4065 H   0  0  0  0  0  0  0  0  0  0  0  0  # atno 6908 bound_to 6896
  151.9193  135.0305  160.0571 H   0  0  0  0  0  0  0  0  0  0  0  0  # atno 6909 bound_to 6896
  144.7420  139.8779  143.6394 H   0  0  0  0  0  0  0  0  0  0  0  0  # atno 7974 bound_to 7965
  155.6753  140.0738  157.2505 H   0  0  0  0  0  0  0  0  0  0  0  0  # atno 8008 bound_to 7997
  154.4115  140.1691  156.1975 H   0  0  0  0  0  0  0  0  0  0  0  0  # atno 8009 bound_to 7997
  155.9581  140.3372  155.6470 H   0  0  0  0  0  0  0  0  0  0  0  0  # atno 8010 bound_to 7997
  140.7040  143.3165  151.2897 H   0  0  0  0  0  0  0  0  0  0  0  0  # atno 10167 bound_to 10162
  156.0260  130.4406  150.2821 H   0  0  0  0  0  0  0  0  0  0  0  0  # atno 10718 bound_to 10713
  154.5055  135.5783  153.6564 H   0  0  0  0  0  0  0  0  0  0  0  0  # atno 10763 bound_to 10752
  152.9887  135.6146  154.2947 H   0  0  0  0  0  0  0  0  0  0  0  0  # atno 10764 bound_to 10752
  154.2857  135.2850  155.2657 H   0  0  0  0  0  0  0  0  0  0  0  0  # atno 10765 bound_to 10752
  140.3690  134.7047  157.4380 H   0  0  0  0  0  0  0  0  0  0  0  0  # atno 11005 bound_to 11000
  146.1233  139.4255  143.0215 LP  0  0  0  0  0  0  0  0  0  0  0  0  # atno 17320 bound_to 7965
  145.7272  141.0055  143.1371 LP  0  0  0  0  0  0  0  0  0  0  0  0  # atno 17321 bound_to 7965
  139.6605  144.0198  152.2689 LP  0  0  0  0  0  0  0  0  0  0  0  0  # atno 17342 bound_to 10162
  139.9763  144.6459  150.7942 LP  0  0  0  0  0  0  0  0  0  0  0  0  # atno 17343 bound_to 10162
  157.0925  131.0173  151.3116 LP  0  0  0  0  0  0  0  0  0  0  0  0  # atno 17370 bound_to 10713
  157.4843  130.7784  149.7445 LP  0  0  0  0  0  0  0  0  0  0  0  0  # atno 17371 bound_to 10713
  140.0567  134.6054  155.8797 LP  0  0  0  0  0  0  0  0  0  0  0  0  # atno 17394 bound_to 11000
  141.1960  133.6590  156.5673 LP  0  0  0  0  0  0  0  0  0  0  0  0  # atno 17395 bound_to 11000

$$$$
