AV-unprocessed.smi:2531|AV-procd|sdf|9965|dock9
  -GOLD-   2272014 03D 1   1.00000     0.00000
 Structure written by MMmdl.
 47 49  0  0  0  0  0  0  0  0  2 V2000
  151.7133  140.6252  155.1216 O   0  0  0  0  0  0  0  0  0  0  0  0
  151.0067  140.1287  155.9998 C   0  0  0  0  0  0  0  0  0  0  0  0
  150.4067  141.0028  157.1181 C   0  0  0  0  0  0  0  0  0  0  0  0
  150.7024  142.5012  156.9073 C   0  0  0  0  0  0  0  0  0  0  0  0
  151.8758  142.8208  157.8320 C   0  0  0  0  0  0  0  0  0  0  0  0
  151.6212  141.9448  159.0550 C   0  0  0  0  0  0  0  0  0  0  0  0
  151.0007  140.6558  158.5027 C   0  0  0  0  0  0  0  0  0  0  0  0
  150.7847  138.7513  156.0693 N   0  0  0  0  0  0  0  0  0  0  0  0
  150.5071  137.9588  154.8808 C   0  0  0  0  0  0  0  0  0  0  0  0
  149.6843  137.0519  155.8061 C   0  0  0  0  0  0  0  0  0  0  0  0
  150.6315  135.5604  156.3621 S   0  0  0  0  0  0  0  0  0  0  0  0
  152.0593  135.9114  156.4108 O   0  0  0  0  0  0  0  0  0  0  0  0
  149.9841  134.9625  157.5398 O   0  0  0  0  0  0  0  0  0  0  0  0
  150.4042  134.4674  155.0445 N   0  0  0  0  0  0  0  0  0  0  0  0
  149.0391  134.0806  154.6774 C   0  0  0  0  0  0  0  0  0  0  0  0
  149.0274  132.8908  153.7008 C   0  0  0  0  0  0  0  0  0  0  0  0
  147.7573  132.7972  152.8746 C   0  0  0  0  0  0  0  0  0  0  0  0
  146.9509  131.6385  152.8694 C   0  0  0  0  0  0  0  0  0  0  0  0
  145.8016  131.6030  152.0525 C   0  0  0  0  0  0  0  0  0  0  0  0
  145.4829  132.7251  151.2598 C   0  0  0  0  0  0  0  0  0  0  0  0
  146.3229  133.8562  151.3034 C   0  0  0  0  0  0  0  0  0  0  0  0
  147.4154  133.8514  152.0982 N   0  3  0  0  0  0  0  0  0  0  0  0
  149.6688  138.2011  156.8234 C   0  0  0  0  0  0  0  0  0  0  0  0
  149.3243  140.8674  157.1297 H   0  0  0  0  0  0  0  0  0  0  0  0
  150.9177  142.7648  155.8705 H   0  0  0  0  0  0  0  0  0  0  0  0
  149.8324  143.0864  157.2079 H   0  0  0  0  0  0  0  0  0  0  0  0
  152.8139  142.5303  157.3569 H   0  0  0  0  0  0  0  0  0  0  0  0
  151.9397  143.8806  158.0792 H   0  0  0  0  0  0  0  0  0  0  0  0
  152.5271  141.7598  159.6328 H   0  0  0  0  0  0  0  0  0  0  0  0
  150.9062  142.4410  159.7128 H   0  0  0  0  0  0  0  0  0  0  0  0
  150.2363  140.2716  159.1791 H   0  0  0  0  0  0  0  0  0  0  0  0
  151.7697  139.8847  158.4289 H   0  0  0  0  0  0  0  0  0  0  0  0
  149.8966  138.4823  154.1425 H   0  0  0  0  0  0  0  0  0  0  0  0
  151.3908  137.4947  154.4413 H   0  0  0  0  0  0  0  0  0  0  0  0
  148.7095  136.7809  155.4002 H   0  0  0  0  0  0  0  0  0  0  0  0
  150.9322  134.7683  154.2249 H   0  0  0  0  0  0  0  0  0  0  0  0
  148.4655  133.8449  155.5750 H   0  0  0  0  0  0  0  0  0  0  0  0
  148.5526  134.9394  154.2147 H   0  0  0  0  0  0  0  0  0  0  0  0
  149.8772  132.9715  153.0220 H   0  0  0  0  0  0  0  0  0  0  0  0
  149.1682  131.9584  154.2497 H   0  0  0  0  0  0  0  0  0  0  0  0
  147.2138  130.7830  153.4745 H   0  0  0  0  0  0  0  0  0  0  0  0
  145.1744  130.7236  152.0311 H   0  0  0  0  0  0  0  0  0  0  0  0
  144.6080  132.7164  150.6261 H   0  0  0  0  0  0  0  0  0  0  0  0
  146.1578  134.7560  150.7291 H   0  0  0  0  0  0  0  0  0  0  0  0
  149.9151  137.9226  157.8482 H   0  0  0  0  0  0  0  0  0  0  0  0
  148.7630  138.8078  156.7640 H   0  0  0  0  0  0  0  0  0  0  0  0
  148.0141  134.6772  152.1096 H   0  0  0  0  0  0  0  0  0  0  0  0
  1  2  2  0  0  0  0
  2  3  1  0  0  0  0
  2  8  1  0  0  0  0
  3  7  1  0  0  0  0
  3  4  1  0  0  0  0
  3 24  1  0  0  0  0
  4  5  1  0  0  0  0
  4 25  1  0  0  0  0
  4 26  1  0  0  0  0
  5  6  1  0  0  0  0
  5 27  1  0  0  0  0
  5 28  1  0  0  0  0
  6  7  1  0  0  0  0
  6 29  1  0  0  0  0
  6 30  1  0  0  0  0
  7 31  1  0  0  0  0
  7 32  1  0  0  0  0
  8 23  1  0  0  0  0
  8  9  1  0  0  0  0
  9 10  1  0  0  0  0
  9 33  1  0  0  0  0
  9 34  1  0  0  0  0
 10 11  1  0  0  0  0
 10 23  1  0  0  0  0
 10 35  1  0  0  0  0
 11 12  2  0  0  0  0
 11 13  2  0  0  0  0
 11 14  1  0  0  0  0
 14 15  1  0  0  0  0
 14 36  1  0  0  0  0
 15 16  1  0  0  0  0
 15 37  1  0  0  0  0
 15 38  1  0  0  0  0
 16 17  1  0  0  0  0
 16 39  1  0  0  0  0
 16 40  1  0  0  0  0
 17 22  1  0  0  0  0
 17 18  2  0  0  0  0
 18 19  1  0  0  0  0
 18 41  1  0  0  0  0
 19 20  2  0  0  0  0
 19 42  1  0  0  0  0
 20 21  1  0  0  0  0
 20 43  1  0  0  0  0
 21 22  2  0  0  0  0
 21 44  1  0  0  0  0
 22 47  1  0  0  0  0
 23 45  1  0  0  0  0
 23 46  1  0  0  0  0
M  CHG  1  22   1
M  END
> <s_m_source_file>
AV-unprocessed.smi

> <i_m_source_file_index>
2531

> <i_lp_mmshare_version>
43012

> <i_f3d_flags>
0

> <s_epik_input>
W0NIMl0xW0NIMl1bQ0gyXVtDSDJdW0NIXTFDKD1PKU4yW0NIMl1bQ0hdKFtDSDJdMilTKD1PKSg9TylbTkhdW0NIMl1bQ0gyXWMzW2NIXVtjSF1bY0hdW2NIXW4z

> <s_epik_cmdline>
J2VwaWtfcHl0aG9uJywgJy1waCcsICc3LjAnLCAnLXRuJywgJzgnLCAnLW1hJywgJzIwMCcsICctbWV0YWxfYmluZGluZycsICctaW1hZScsICc8aW5maWxlLm1hZT4nLCAnLW9tYWUnLCAnPG91dGZpbGUubWFlPic=

> <r_epik_Ionization_Penalty>
2.00952

> <r_epik_Ionization_Penalty_Charging>
2.00945

> <r_epik_Ionization_Penalty_Neutral>
6.7549e-05

> <r_epik_State_Penalty>
2.13885

> <r_epik_Charging_Adjusted_Penalty>
4.1483

> <i_epik_Tot_Q>
1

> <i_epik_Tot_abs_Q>
1

> <r_epik_Metal_State_Penalty>
2.25125

> <b_epik_Metal_Only>
0

> <s_lp_Force_Field>
OPLS_2005

> <r_lp_Energy>
39.4399

> <b_lp_Chiralities_Consistent>
1

> <s_lp_Variant>
AV-unprocessed.smi:2531-2

> <Gold.Version>
5.8.1

> <Gold.Id.Protein>
6NUR|6NUR_protein|mol2

> <Gold.PLP.Fitness>
49.2230

> <Gold.PLP.PLP>
-35.9324

> <Gold.PLP.part.hbond>
-4.0000

> <Gold.PLP.part.metal>
0.0000

> <Gold.PLP.part.buried>
-4.8497

> <Gold.PLP.part.nonpolar>
-27.1264

> <Gold.PLP.part.repulsive>
0.0606

> <Gold.PLP.ligand.clash>
0.0000

> <Gold.PLP.ligand.torsion>
1.1685

> <Gold.PLP.Chemscore.Hbond>
4.6480

> <Gold.PLP.Chemscore.CHOScore>
0.0000

> <Gold.PLP.Chemscore.Metal>
0.0000

> <Gold.Chemscore.Hbonds>
donor molecule, donor type, donor heavy atom, donor atom, acceptor molecule, acceptor atom, score
      L1  H    22    47       P1  7948  2.00
      P1  H  6896  6908       L1    13  0.64
      P1  H  7989  7998       L1     1  0.72
      P1  H 10752 10765       L1    12  1.00

> <Gold.PLP.Chemscore.Internal.Correction>
1.6836

> <Gold.Rescore>
     Score         DG    S(hbond)    S(metal)    S(lipo)     H(rot)  DE(clash)    DE(int)     intcor
     20.53     -22.00       3.46        0.00      85.72       1.97       0.00       1.47       ----

> <Gold.Chemscore.Fitness>
20.5259

> <Gold.Chemscore.DG>
-21.9986

> <Gold.Chemscore.ZeroCoef>
-5.4800

> <Gold.Chemscore.Hbond>
3.4565

> <Gold.Chemscore.Metal>
0.0000

> <Gold.Chemscore.Lipo>
85.7222

> <Gold.Chemscore.Internal_Hbond>
0.0000

> <Gold.Chemscore.DEClash>
0.0019

> <Gold.Chemscore.DEInternal>
1.4708

> <Gold.Chemscore.Rot>
1.9749

> <Gold.Chemscore.Internal.Correction>
   9.000000E+99

> <Gold.Chemscore.Hbonds>
donor molecule, donor type, donor heavy atom, donor atom, acceptor molecule, acceptor atom, score
      L1  H    22    47       P1  7948  0.30
      P1  H  6896  6908       L1    13  0.62
      P1  H  7989  7998       L1     1  0.71
      P1  H 10752 10765       L1    12  0.99

> <Gold.Chemscore.Hbond.Weighted>
-11.5447

> <Gold.Chemscore.Metal.Weighted>
-0.0000

> <Gold.Chemscore.Lipo.Weighted>
-10.0295

> <Gold.Chemscore.Internal_Hbond.Weighted>
0.0000

> <Gold.Chemscore.DEClash.Weighted>
0.0019

> <Gold.Chemscore.DEInternal.Weighted>
1.4708

> <Gold.Chemscore.Rot.Weighted>
5.0556

> <Gold.Chemscore.Internal.Correction.Weighted>
   9.000000E+99

> <Gold.Protein.RotatedTorsions>
[ 6907 6896 6895 6894 ] final  139.59 input  -60.11 | X-H torsion
[ 7974 7965 7964 7962 ] final   87.87 input  175.53 | X-H torsion
[ 8008 7997 7996 7995 ] final -128.70 input   59.86 | X-H torsion
[ 10167 10162 10161 10158 ] final   16.09 input  -65.29 | X-H torsion
[ 10718 10713 10712 10709 ] final  -69.49 input   66.30 | X-H torsion
[ 10763 10752 10751 10750 ] final -130.72 input  -60.55 | X-H torsion
[ 11005 11000 10999 10996 ] final  -74.19 input  -57.11 | X-H torsion

> <Gold.Protein.ActiveResidues>
 VAL166  LYS551  ARG553  GLY616  TRP617  ASP618  TYR619  PRO620  LYS621  CYS622 
 ASP623  PHE694  ASN695  SER759  ASP760  ASP761  ALA762  ILE779  LEU786  VAL792 
 PHE793  MET794  SER795  GLU796  ALA797  LYS798  CYS799  TRP800  GLU811  SER814 

> <Gold.Protein.RotatedAtoms>
  152.2531  133.5232  159.5336 H   0  0  0  0  0  0  0  0  0  0  0  0  # atno 6907 bound_to 6896
  150.7100  134.0932  159.3948 H   0  0  0  0  0  0  0  0  0  0  0  0  # atno 6908 bound_to 6896
  151.8852  135.0438  160.0543 H   0  0  0  0  0  0  0  0  0  0  0  0  # atno 6909 bound_to 6896
  145.5532  139.2297  143.2501 H   0  0  0  0  0  0  0  0  0  0  0  0  # atno 7974 bound_to 7965
  155.2670  140.0438  157.3003 H   0  0  0  0  0  0  0  0  0  0  0  0  # atno 8008 bound_to 7997
  154.5676  140.2364  155.8208 H   0  0  0  0  0  0  0  0  0  0  0  0  # atno 8009 bound_to 7997
  156.2097  140.3002  155.9714 H   0  0  0  0  0  0  0  0  0  0  0  0  # atno 8010 bound_to 7997
  140.5822  143.8959  150.6799 H   0  0  0  0  0  0  0  0  0  0  0  0  # atno 10167 bound_to 10162
  156.0453  130.4313  150.2155 H   0  0  0  0  0  0  0  0  0  0  0  0  # atno 10718 bound_to 10713
  154.8754  135.3853  154.4129 H   0  0  0  0  0  0  0  0  0  0  0  0  # atno 10763 bound_to 10752
  153.4841  135.7030  153.5926 H   0  0  0  0  0  0  0  0  0  0  0  0  # atno 10764 bound_to 10752
  153.4329  135.3874  155.2149 H   0  0  0  0  0  0  0  0  0  0  0  0  # atno 10765 bound_to 10752
  141.1632  133.6903  156.7326 H   0  0  0  0  0  0  0  0  0  0  0  0  # atno 11005 bound_to 11000
  146.1902  140.6355  142.9149 LP  0  0  0  0  0  0  0  0  0  0  0  0  # atno 17320 bound_to 7965
  144.7519  140.5212  143.6796 LP  0  0  0  0  0  0  0  0  0  0  0  0  # atno 17321 bound_to 7965
  140.2461  143.3628  152.1445 LP  0  0  0  0  0  0  0  0  0  0  0  0  # atno 17342 bound_to 10162
  139.5176  144.6994  151.5536 LP  0  0  0  0  0  0  0  0  0  0  0  0  # atno 17343 bound_to 10162
  157.0246  130.9989  151.3330 LP  0  0  0  0  0  0  0  0  0  0  0  0  # atno 17370 bound_to 10713
  157.5320  130.8065  149.7928 LP  0  0  0  0  0  0  0  0  0  0  0  0  # atno 17371 bound_to 10713
  140.2734  134.8374  157.3867 LP  0  0  0  0  0  0  0  0  0  0  0  0  # atno 17394 bound_to 11000
  140.1500  134.4861  155.7968 LP  0  0  0  0  0  0  0  0  0  0  0  0  # atno 17395 bound_to 11000

$$$$
