AV-unprocessed.smi:2504|AV-procd|sdf|9849|dock1
  -GOLD-   2272013473D 1   1.00000     0.00000
 Structure written by MMmdl.
 46 48  0  0  0  0  0  0  0  0  1 V2000
  153.1460  141.3771  160.1479 O   0  0  0  0  0  0  0  0  0  0  0  0
  152.0452  141.5247  159.6158 C   0  0  0  0  0  0  0  0  0  0  0  0
  151.3639  142.9092  159.5640 C   0  0  0  0  0  0  0  0  0  0  0  0
  151.3667  143.5591  158.1638 C   0  0  0  0  0  0  0  0  0  0  0  0
  151.4465  145.0616  158.4222 C   0  0  0  0  0  0  0  0  0  0  0  0
  152.3648  145.1704  159.6347 C   0  0  0  0  0  0  0  0  0  0  0  0
  152.0195  143.9538  160.4999 C   0  0  0  0  0  0  0  0  0  0  0  0
  151.4213  140.4700  158.9419 N   0  0  0  0  0  0  0  0  0  0  0  0
  150.7237  140.6693  157.6801 C   0  0  0  0  0  0  0  0  0  0  0  0
  151.0846  139.2067  157.3866 C   0  0  0  0  0  0  0  0  0  0  0  0
  151.7543  138.9004  155.6926 S   0  0  0  0  0  0  0  0  0  0  0  0
  150.9608  139.6499  154.7060 O   0  0  0  0  0  0  0  0  0  0  0  0
  153.2171  139.0507  155.7233 O   0  0  0  0  0  0  0  0  0  0  0  0
  151.4154  137.2269  155.4678 N   0  0  0  0  0  0  0  0  0  0  0  0
  150.0153  136.8068  155.4296 C   0  0  0  0  0  0  0  0  0  0  0  0
  149.8044  135.5435  156.2782 C   0  0  0  0  0  0  0  0  0  0  0  0
  149.3100  134.3600  155.4652 C   0  0  0  0  0  0  0  0  0  0  0  0
  149.3332  133.0557  156.0003 C   0  0  0  0  0  0  0  0  0  0  0  0
  148.8562  131.9904  155.2125 C   0  0  0  0  0  0  0  0  0  0  0  0
  148.3745  132.2759  153.9194 C   0  0  0  0  0  0  0  0  0  0  0  0
  148.3486  133.5207  153.3958 N   0  0  0  0  0  0  0  0  0  0  0  0
  148.8102  134.5360  154.1570 C   0  0  0  0  0  0  0  0  0  0  0  0
  152.1819  139.3308  158.4499 C   0  0  0  0  0  0  0  0  0  0  0  0
  150.3233  142.7840  159.8658 H   0  0  0  0  0  0  0  0  0  0  0  0
  152.2410  143.2607  157.5830 H   0  0  0  0  0  0  0  0  0  0  0  0
  150.4818  143.2938  157.5843 H   0  0  0  0  0  0  0  0  0  0  0  0
  151.8187  145.6178  157.5613 H   0  0  0  0  0  0  0  0  0  0  0  0
  150.4572  145.4490  158.6705 H   0  0  0  0  0  0  0  0  0  0  0  0
  153.4045  145.1059  159.3107 H   0  0  0  0  0  0  0  0  0  0  0  0
  152.2424  146.1129  160.1696 H   0  0  0  0  0  0  0  0  0  0  0  0
  151.3091  144.2411  161.2759 H   0  0  0  0  0  0  0  0  0  0  0  0
  152.9117  143.5854  161.0086 H   0  0  0  0  0  0  0  0  0  0  0  0
  149.6547  140.8547  157.7871 H   0  0  0  0  0  0  0  0  0  0  0  0
  151.2109  141.3958  157.0280 H   0  0  0  0  0  0  0  0  0  0  0  0
  150.3078  138.4881  157.6532 H   0  0  0  0  0  0  0  0  0  0  0  0
  151.9229  136.8600  154.6626 H   0  0  0  0  0  0  0  0  0  0  0  0
  149.3890  137.6172  155.8036 H   0  0  0  0  0  0  0  0  0  0  0  0
  149.7235  136.6254  154.3945 H   0  0  0  0  0  0  0  0  0  0  0  0
  150.7332  135.2744  156.7834 H   0  0  0  0  0  0  0  0  0  0  0  0
  149.0799  135.7508  157.0666 H   0  0  0  0  0  0  0  0  0  0  0  0
  149.7075  132.8742  156.9972 H   0  0  0  0  0  0  0  0  0  0  0  0
  148.8585  130.9785  155.5901 H   0  0  0  0  0  0  0  0  0  0  0  0
  148.0001  131.4832  153.2887 H   0  0  0  0  0  0  0  0  0  0  0  0
  148.7714  135.5191  153.7109 H   0  0  0  0  0  0  0  0  0  0  0  0
  153.1581  139.6021  158.0422 H   0  0  0  0  0  0  0  0  0  0  0  0
  152.2345  138.4954  159.1484 H   0  0  0  0  0  0  0  0  0  0  0  0
  1  2  2  0  0  0  0
  2  3  1  0  0  0  0
  2  8  1  0  0  0  0
  3  7  1  0  0  0  0
  3  4  1  0  0  0  0
  3 24  1  0  0  0  0
  4  5  1  0  0  0  0
  4 25  1  0  0  0  0
  4 26  1  0  0  0  0
  5  6  1  0  0  0  0
  5 27  1  0  0  0  0
  5 28  1  0  0  0  0
  6  7  1  0  0  0  0
  6 29  1  0  0  0  0
  6 30  1  0  0  0  0
  7 31  1  0  0  0  0
  7 32  1  0  0  0  0
  8 23  1  0  0  0  0
  8  9  1  0  0  0  0
  9 10  1  0  0  0  0
  9 33  1  0  0  0  0
  9 34  1  0  0  0  0
 10 11  1  0  0  0  0
 10 23  1  0  0  0  0
 10 35  1  0  0  0  0
 11 12  2  0  0  0  0
 11 13  2  0  0  0  0
 11 14  1  0  0  0  0
 14 15  1  0  0  0  0
 14 36  1  0  0  0  0
 15 16  1  0  0  0  0
 15 37  1  0  0  0  0
 15 38  1  0  0  0  0
 16 17  1  0  0  0  0
 16 39  1  0  0  0  0
 16 40  1  0  0  0  0
 17 22  1  0  0  0  0
 17 18  2  0  0  0  0
 18 19  1  0  0  0  0
 18 41  1  0  0  0  0
 19 20  2  0  0  0  0
 19 42  1  0  0  0  0
 20 21  1  0  0  0  0
 20 43  1  0  0  0  0
 21 22  2  0  0  0  0
 22 44  1  0  0  0  0
 23 45  1  0  0  0  0
 23 46  1  0  0  0  0
M  END
> <s_m_source_file>
AV-unprocessed.smi

> <i_m_source_file_index>
2504

> <i_lp_mmshare_version>
43012

> <i_f3d_flags>
0

> <s_epik_input>
W0NIMl0xW0NIMl1bQ0gyXVtDSDJdW0NIXTFDKD1PKU4yW0NIMl1bQ0hdKFtDSDJdMilTKD1PKSg9TylbTkhdW0NIMl1bQ0gyXWMzW2NIXVtjSF1bY0hdbltjSF0z

> <s_epik_cmdline>
J2VwaWtfcHl0aG9uJywgJy1waCcsICc3LjAnLCAnLXRuJywgJzgnLCAnLW1hJywgJzIwMCcsICctbWV0YWxfYmluZGluZycsICctaW1hZScsICc8aW5maWxlLm1hZT4nLCAnLW9tYWUnLCAnPG91dGZpbGUubWFlPic=

> <r_epik_Ionization_Penalty>
0.0107611

> <r_epik_Ionization_Penalty_Charging>
0

> <r_epik_Ionization_Penalty_Neutral>
0.0107611

> <r_epik_State_Penalty>
0.00821942

> <r_epik_Charging_Adjusted_Penalty>
0.00821942

> <i_epik_Tot_Q>
0

> <i_epik_Tot_abs_Q>
0

> <r_epik_Metal_State_Penalty>
0.0376733

> <b_epik_Metal_Only>
0

> <s_lp_Force_Field>
OPLS_2005

> <r_lp_Energy>
34.3459

> <b_lp_Chiralities_Consistent>
1

> <s_lp_Variant>
AV-unprocessed.smi:2504-1

> <Gold.Version>
5.8.1

> <Gold.Id.Protein>
6NUR|6NUR_protein|mol2

> <Gold.PLP.Fitness>
52.7638

> <Gold.PLP.PLP>
-46.3649

> <Gold.PLP.part.hbond>
-2.8519

> <Gold.PLP.part.metal>
0.0000

> <Gold.PLP.part.buried>
-8.0362

> <Gold.PLP.part.nonpolar>
-36.0863

> <Gold.PLP.part.repulsive>
0.2602

> <Gold.PLP.ligand.clash>
0.0090

> <Gold.PLP.ligand.torsion>
2.2788

> <Gold.PLP.Chemscore.Hbond>
2.0000

> <Gold.PLP.Chemscore.CHOScore>
1.0000

> <Gold.PLP.Chemscore.Metal>
0.0000

> <Gold.Chemscore.Hbonds>
donor molecule, donor type, donor heavy atom, donor atom, acceptor molecule, acceptor atom, score
      P1  H  7989  7998       L1    12  1.00
      P1  H  7997  8010       L1    13  1.00
      L1  C    22    44       P1  7948  0.84

> <Gold.PLP.Chemscore.Internal.Correction>
1.9656

> <Gold.Rescore>
     Score         DG    S(hbond)    S(metal)    S(lipo)     H(rot)  DE(clash)    DE(int)     intcor
     17.15     -19.63       1.88        0.00     107.69       1.85       0.07       2.41       ----

> <Gold.Chemscore.Fitness>
17.1542

> <Gold.Chemscore.DG>
-19.6323

> <Gold.Chemscore.ZeroCoef>
-5.4800

> <Gold.Chemscore.Hbond>
1.8823

> <Gold.Chemscore.Metal>
0.0000

> <Gold.Chemscore.Lipo>
107.6921

> <Gold.Chemscore.Internal_Hbond>
0.0000

> <Gold.Chemscore.DEClash>
0.0723

> <Gold.Chemscore.DEInternal>
2.4057

> <Gold.Chemscore.Rot>
1.8494

> <Gold.Chemscore.Internal.Correction>
   9.000000E+99

> <Gold.Chemscore.Hbonds>
donor molecule, donor type, donor heavy atom, donor atom, acceptor molecule, acceptor atom, score
      P1  H  7989  7998       L1    12  1.00
      P1  H  7997  8010       L1    13  0.99

> <Gold.Chemscore.Hbond.Weighted>
-6.2869

> <Gold.Chemscore.Metal.Weighted>
-0.0000

> <Gold.Chemscore.Lipo.Weighted>
-12.6000

> <Gold.Chemscore.Internal_Hbond.Weighted>
0.0000

> <Gold.Chemscore.DEClash.Weighted>
0.0723

> <Gold.Chemscore.DEInternal.Weighted>
2.4057

> <Gold.Chemscore.Rot.Weighted>
4.7346

> <Gold.Chemscore.Internal.Correction.Weighted>
   9.000000E+99

> <Gold.Protein.RotatedTorsions>
[ 6907 6896 6895 6894 ] final -113.54 input  -60.11 | X-H torsion
[ 7974 7965 7964 7962 ] final  -95.97 input  175.53 | X-H torsion
[ 8008 7997 7996 7995 ] final   86.38 input   59.86 | X-H torsion
[ 10167 10162 10161 10158 ] final   98.89 input  -65.29 | X-H torsion
[ 10718 10713 10712 10709 ] final  -21.67 input   66.30 | X-H torsion
[ 10763 10752 10751 10750 ] final -127.33 input  -60.55 | X-H torsion
[ 11005 11000 10999 10996 ] final -110.97 input  -57.11 | X-H torsion

> <Gold.Protein.ActiveResidues>
 VAL166  LYS551  ARG553  GLY616  TRP617  ASP618  TYR619  PRO620  LYS621  CYS622 
 ASP623  PHE694  ASN695  SER759  ASP760  ASP761  ALA762  ILE779  LEU786  VAL792 
 PHE793  MET794  SER795  GLU796  ALA797  LYS798  CYS799  TRP800  GLU811  SER814 

> <Gold.Protein.RotatedAtoms>
  150.7837  133.8929  159.3318 H   0  0  0  0  0  0  0  0  0  0  0  0  # atno 6907 bound_to 6896
  151.6786  135.0963  160.0221 H   0  0  0  0  0  0  0  0  0  0  0  0  # atno 6908 bound_to 6896
  152.3895  133.6620  159.6261 H   0  0  0  0  0  0  0  0  0  0  0  0  # atno 6909 bound_to 6896
  145.3531  140.9480  143.2543 H   0  0  0  0  0  0  0  0  0  0  0  0  # atno 7974 bound_to 7965
  155.9621  140.3392  155.6499 H   0  0  0  0  0  0  0  0  0  0  0  0  # atno 8008 bound_to 7997
  155.6785  140.0735  157.2512 H   0  0  0  0  0  0  0  0  0  0  0  0  # atno 8009 bound_to 7997
  154.4145  140.1678  156.1944 H   0  0  0  0  0  0  0  0  0  0  0  0  # atno 8010 bound_to 7997
  139.7667  144.6936  151.0214 H   0  0  0  0  0  0  0  0  0  0  0  0  # atno 10167 bound_to 10162
  156.5150  130.4619  149.6627 H   0  0  0  0  0  0  0  0  0  0  0  0  # atno 10718 bound_to 10713
  154.8751  135.3965  154.3576 H   0  0  0  0  0  0  0  0  0  0  0  0  # atno 10763 bound_to 10752
  153.4353  135.7026  153.6209 H   0  0  0  0  0  0  0  0  0  0  0  0  # atno 10764 bound_to 10752
  153.4813  135.3768  155.2413 H   0  0  0  0  0  0  0  0  0  0  0  0  # atno 10765 bound_to 10752
  141.0761  133.9298  157.2386 H   0  0  0  0  0  0  0  0  0  0  0  0  # atno 11005 bound_to 11000
  144.8703  139.5048  143.6771 LP  0  0  0  0  0  0  0  0  0  0  0  0  # atno 17320 bound_to 7965
  146.2959  139.7278  142.9127 LP  0  0  0  0  0  0  0  0  0  0  0  0  # atno 17321 bound_to 7965
  140.7811  143.4634  151.0245 LP  0  0  0  0  0  0  0  0  0  0  0  0  # atno 17342 bound_to 10162
  139.8319  143.7679  152.3180 LP  0  0  0  0  0  0  0  0  0  0  0  0  # atno 17343 bound_to 10162
  156.3204  130.7277  151.2188 LP  0  0  0  0  0  0  0  0  0  0  0  0  # atno 17370 bound_to 10713
  157.7445  131.0457  150.4857 LP  0  0  0  0  0  0  0  0  0  0  0  0  # atno 17371 bound_to 10713
  139.9574  135.0162  156.9166 LP  0  0  0  0  0  0  0  0  0  0  0  0  # atno 17394 bound_to 11000
  140.5569  134.0572  155.7386 LP  0  0  0  0  0  0  0  0  0  0  0  0  # atno 17395 bound_to 11000

$$$$
