AV-unprocessed.smi:356|AV-procd|sdf|2415|dock7
  -GOLD-   2262022353D 1   1.00000     0.00000
 Structure written by MMmdl.
 43 45  0  0  0  0  0  0  0  0  3 V2000
  149.1020  141.3527  154.1596 C   0  0  0  0  0  0  0  0  0  0  0  0
  149.9148  141.4311  155.4080 C   0  0  0  0  0  0  0  0  0  0  0  0
  149.8556  142.4216  156.3418 N   0  3  0  0  0  0  0  0  0  0  0  0
  150.7594  142.1550  157.3710 C   0  0  0  0  0  0  0  0  0  0  0  0
  151.0554  142.8675  158.5291 C   0  0  0  0  0  0  0  0  0  0  0  0
  152.0399  142.3181  159.3761 C   0  0  0  0  0  0  0  0  0  0  0  0
  152.6867  141.1060  159.0592 C   0  0  0  0  0  0  0  0  0  0  0  0
  152.3765  140.3912  157.8833 C   0  0  0  0  0  0  0  0  0  0  0  0
  151.4025  140.9415  157.0495 C   0  0  0  0  0  0  0  0  0  0  0  0
  150.8505  140.5322  155.8284 N   0  0  0  0  0  0  0  0  0  0  0  0
  151.3089  139.2846  155.1954 C   0  0  0  0  0  0  0  0  0  0  0  0
  150.1481  138.3356  154.8354 C   0  0  1  0  0  0  0  0  0  0  0  0
  149.8380  138.4650  153.4612 O   0  0  0  0  0  0  0  0  0  0  0  0
  150.4978  136.8629  155.1283 C   0  0  0  0  0  0  0  0  0  0  0  0
  149.5254  135.9147  154.5262 N   0  3  0  0  0  0  0  0  0  0  0  0
  149.9517  134.5015  154.6604 C   0  0  0  0  0  0  0  0  0  0  0  0
  148.9470  133.5680  153.9637 C   0  0  0  0  0  0  0  0  0  0  0  0
  147.6501  133.7692  154.5112 O   0  0  0  0  0  0  0  0  0  0  0  0
  147.1903  135.1005  154.3152 C   0  0  0  0  0  0  0  0  0  0  0  0
  148.1374  136.0844  155.0236 C   0  0  0  0  0  0  0  0  0  0  0  0
  148.4666  142.2330  154.0596 H   0  0  0  0  0  0  0  0  0  0  0  0
  148.4668  140.4671  154.1802 H   0  0  0  0  0  0  0  0  0  0  0  0
  149.7532  141.2952  153.2875 H   0  0  0  0  0  0  0  0  0  0  0  0
  150.5607  143.7964  158.7736 H   0  0  0  0  0  0  0  0  0  0  0  0
  152.3044  142.8370  160.2863 H   0  0  0  0  0  0  0  0  0  0  0  0
  153.4372  140.7167  159.7321 H   0  0  0  0  0  0  0  0  0  0  0  0
  152.8818  139.4655  157.6536 H   0  0  0  0  0  0  0  0  0  0  0  0
  151.9151  139.5225  154.3211 H   0  0  0  0  0  0  0  0  0  0  0  0
  151.9800  138.7956  155.9025 H   0  0  0  0  0  0  0  0  0  0  0  0
  149.2705  138.6344  155.4075 H   0  0  0  0  0  0  0  0  0  0  0  0
  149.8705  137.6094  153.0609 H   0  0  0  0  0  0  0  0  0  0  0  0
  151.4970  136.6612  154.7385 H   0  0  0  0  0  0  0  0  0  0  0  0
  150.5518  136.6873  156.2039 H   0  0  0  0  0  0  0  0  0  0  0  0
  150.9398  134.3678  154.2185 H   0  0  0  0  0  0  0  0  0  0  0  0
  150.0334  134.2427  155.7175 H   0  0  0  0  0  0  0  0  0  0  0  0
  148.9329  133.7433  152.8866 H   0  0  0  0  0  0  0  0  0  0  0  0
  149.2356  132.5274  154.1131 H   0  0  0  0  0  0  0  0  0  0  0  0
  147.1224  135.3225  153.2490 H   0  0  0  0  0  0  0  0  0  0  0  0
  146.1833  135.1889  154.7232 H   0  0  0  0  0  0  0  0  0  0  0  0
  148.1105  135.9142  156.1011 H   0  0  0  0  0  0  0  0  0  0  0  0
  147.7896  137.1025  154.8531 H   0  0  0  0  0  0  0  0  0  0  0  0
  149.5113  136.1119  153.5352 H   0  0  0  0  0  0  0  0  0  0  0  0
  149.2406  143.2228  156.2776 H   0  0  0  0  0  0  0  0  0  0  0  0
  1  2  1  0  0  0  0
  1 21  1  0  0  0  0
  1 22  1  0  0  0  0
  1 23  1  0  0  0  0
  2 10  1  0  0  0  0
  2  3  2  0  0  0  0
  3  4  1  0  0  0  0
  3 43  1  0  0  0  0
  4  9  2  0  0  0  0
  4  5  1  0  0  0  0
  5  6  2  0  0  0  0
  5 24  1  0  0  0  0
  6  7  1  0  0  0  0
  6 25  1  0  0  0  0
  7  8  2  0  0  0  0
  7 26  1  0  0  0  0
  8  9  1  0  0  0  0
  8 27  1  0  0  0  0
  9 10  1  0  0  0  0
 10 11  1  0  0  0  0
 11 12  1  0  0  0  0
 11 28  1  0  0  0  0
 11 29  1  0  0  0  0
 12 13  1  0  0  0  0
 12 14  1  0  0  0  0
 12 30  1  0  0  0  0
 13 31  1  0  0  0  0
 14 15  1  0  0  0  0
 14 32  1  0  0  0  0
 14 33  1  0  0  0  0
 15 20  1  0  0  0  0
 15 16  1  0  0  0  0
 15 42  1  0  0  0  0
 16 17  1  0  0  0  0
 16 34  1  0  0  0  0
 16 35  1  0  0  0  0
 17 18  1  0  0  0  0
 17 36  1  0  0  0  0
 17 37  1  0  0  0  0
 18 19  1  0  0  0  0
 19 20  1  0  0  0  0
 19 38  1  0  0  0  0
 19 39  1  0  0  0  0
 20 40  1  0  0  0  0
 20 41  1  0  0  0  0
M  CHG  1   3   1
M  CHG  1  15   1
M  END
> <s_m_source_file>
AV-unprocessed.smi

> <i_m_source_file_index>
356

> <i_lp_mmshare_version>
43012

> <i_f3d_flags>
0

> <s_epik_input>
W2NIXTFbY0hdW2NIXVtjSF1jKGMxMiluKGMobjIpW0NIM10pW0NIMl1bQ0BIXShbT0hdKVtDSDJdTjNbQ0gyXVtDSDJdT1tDSDJdW0NIMl0z

> <s_epik_cmdline>
J2VwaWtfcHl0aG9uJywgJy1waCcsICc3LjAnLCAnLXRuJywgJzgnLCAnLW1hJywgJzIwMCcsICctbWV0YWxfYmluZGluZycsICctaW1hZScsICc8aW5maWxlLm1hZT4nLCAnLW9tYWUnLCAnPG91dGZpbGUubWFlPic=

> <r_epik_Ionization_Penalty>
1.81899

> <r_epik_Ionization_Penalty_Charging>
1.81898

> <r_epik_Ionization_Penalty_Neutral>
1.42224e-05

> <r_epik_State_Penalty>
1.87399

> <r_epik_Charging_Adjusted_Penalty>
3.69296

> <i_epik_Tot_Q>
2

> <i_epik_Tot_abs_Q>
2

> <r_epik_Metal_State_Penalty>
5.87601

> <b_epik_Metal_Only>
0

> <s_lp_Force_Field>
OPLS_2005

> <r_lp_Energy>
27.965

> <b_lp_Chiralities_Consistent>
1

> <s_lp_Variant>
AV-unprocessed.smi:356-8

> <Gold.Version>
5.8.1

> <Gold.Id.Protein>
6NUR|6NUR_protein|mol2

> <Gold.PLP.Fitness>
51.6359

> <Gold.PLP.PLP>
-38.0998

> <Gold.PLP.part.hbond>
-4.0000

> <Gold.PLP.part.metal>
0.0000

> <Gold.PLP.part.buried>
-3.0218

> <Gold.PLP.part.nonpolar>
-31.4036

> <Gold.PLP.part.repulsive>
0.1692

> <Gold.PLP.ligand.clash>
0.0000

> <Gold.PLP.ligand.torsion>
0.7088

> <Gold.PLP.Chemscore.Hbond>
4.9760

> <Gold.PLP.Chemscore.CHOScore>
0.0000

> <Gold.PLP.Chemscore.Metal>
0.0000

> <Gold.Chemscore.Hbonds>
donor molecule, donor type, donor heavy atom, donor atom, acceptor molecule, acceptor atom, score
      L1  H     3    43       P1  8028  2.00
      L1  H    13    31       P1  7948  0.98
      L1  H    15    42       P1  7948  2.00

> <Gold.PLP.Chemscore.Internal.Correction>
0.0255

> <Gold.Rescore>
     Score         DG    S(hbond)    S(metal)    S(lipo)     H(rot)  DE(clash)    DE(int)     intcor
     18.78     -19.50       2.90        0.00      83.68       2.13       0.01       0.71       ----

> <Gold.Chemscore.Fitness>
18.7794

> <Gold.Chemscore.DG>
-19.4989

> <Gold.Chemscore.ZeroCoef>
-5.4800

> <Gold.Chemscore.Hbond>
2.9005

> <Gold.Chemscore.Metal>
0.0000

> <Gold.Chemscore.Lipo>
83.6833

> <Gold.Chemscore.Internal_Hbond>
0.0000

> <Gold.Chemscore.DEClash>
0.0095

> <Gold.Chemscore.DEInternal>
0.7100

> <Gold.Chemscore.Rot>
2.1327

> <Gold.Chemscore.Internal.Correction>
   9.000000E+99

> <Gold.Chemscore.Hbonds>
donor molecule, donor type, donor heavy atom, donor atom, acceptor molecule, acceptor atom, score
      L1  H     3    43       P1  8028  0.95
      L1  H    13    31       P1  7948  0.35
      L1  H    15    42       P1  7948  0.50

> <Gold.Chemscore.Hbond.Weighted>
-9.6875

> <Gold.Chemscore.Metal.Weighted>
-0.0000

> <Gold.Chemscore.Lipo.Weighted>
-9.7910

> <Gold.Chemscore.Internal_Hbond.Weighted>
0.0000

> <Gold.Chemscore.DEClash.Weighted>
0.0095

> <Gold.Chemscore.DEInternal.Weighted>
0.7100

> <Gold.Chemscore.Rot.Weighted>
5.4596

> <Gold.Chemscore.Internal.Correction.Weighted>
   9.000000E+99

> <Gold.Protein.RotatedTorsions>
[ 6907 6896 6895 6894 ] final  -98.32 input  -60.11 | X-H torsion
[ 7974 7965 7964 7962 ] final  164.94 input  175.53 | X-H torsion
[ 8008 7997 7996 7995 ] final  -22.41 input   59.86 | X-H torsion
[ 10167 10162 10161 10158 ] final   19.72 input  -65.29 | X-H torsion
[ 10718 10713 10712 10709 ] final  -81.28 input   66.30 | X-H torsion
[ 10763 10752 10751 10750 ] final -127.70 input  -60.55 | X-H torsion
[ 11005 11000 10999 10996 ] final   86.87 input  -57.11 | X-H torsion

> <Gold.Protein.ActiveResidues>
 VAL166  LYS551  ARG553  GLY616  TRP617  ASP618  TYR619  PRO620  LYS621  CYS622 
 ASP623  PHE694  ASN695  SER759  ASP760  ASP761  ALA762  ILE779  LEU786  VAL792 
 PHE793  MET794  SER795  GLU796  ALA797  LYS798  CYS799  TRP800  GLU811  SER814 

> <Gold.Protein.RotatedAtoms>
  150.7043  134.1212  159.4035 H   0  0  0  0  0  0  0  0  0  0  0  0  # atno 6907 bound_to 6896
  151.9198  135.0301  160.0530 H   0  0  0  0  0  0  0  0  0  0  0  0  # atno 6908 bound_to 6896
  152.2265  133.4989  159.5228 H   0  0  0  0  0  0  0  0  0  0  0  0  # atno 6909 bound_to 6896
  144.7524  139.8398  143.6362 H   0  0  0  0  0  0  0  0  0  0  0  0  # atno 7974 bound_to 7965
  154.4646  140.2008  156.0153 H   0  0  0  0  0  0  0  0  0  0  0  0  # atno 8008 bound_to 7997
  156.0903  140.3259  155.7778 H   0  0  0  0  0  0  0  0  0  0  0  0  # atno 8009 bound_to 7997
  155.4968  140.0550  157.2936 H   0  0  0  0  0  0  0  0  0  0  0  0  # atno 8010 bound_to 7997
  140.5558  143.9428  150.6608 H   0  0  0  0  0  0  0  0  0  0  0  0  # atno 10167 bound_to 10162
  156.0053  130.4599  150.3928 H   0  0  0  0  0  0  0  0  0  0  0  0  # atno 10718 bound_to 10713
  154.8753  135.3953  154.3637 H   0  0  0  0  0  0  0  0  0  0  0  0  # atno 10763 bound_to 10752
  153.4406  135.7027  153.6177 H   0  0  0  0  0  0  0  0  0  0  0  0  # atno 10764 bound_to 10752
  153.4759  135.3780  155.2385 H   0  0  0  0  0  0  0  0  0  0  0  0  # atno 10765 bound_to 10752
  139.8933  134.8384  156.2780 H   0  0  0  0  0  0  0  0  0  0  0  0  # atno 11005 bound_to 11000
  146.1491  139.4568  143.0060 LP  0  0  0  0  0  0  0  0  0  0  0  0  # atno 17320 bound_to 7965
  145.6899  141.0167  143.1561 LP  0  0  0  0  0  0  0  0  0  0  0  0  # atno 17321 bound_to 7965
  140.2865  143.3353  152.1102 LP  0  0  0  0  0  0  0  0  0  0  0  0  # atno 17342 bound_to 10162
  139.5047  144.6781  151.6079 LP  0  0  0  0  0  0  0  0  0  0  0  0  # atno 17343 bound_to 10162
  157.2002  131.0436  151.2654 LP  0  0  0  0  0  0  0  0  0  0  0  0  # atno 17370 bound_to 10713
  157.3983  130.7319  149.6748 LP  0  0  0  0  0  0  0  0  0  0  0  0  # atno 17371 bound_to 10713
  141.0057  133.7125  156.1031 LP  0  0  0  0  0  0  0  0  0  0  0  0  # atno 17394 bound_to 11000
  140.7437  134.4122  157.5551 LP  0  0  0  0  0  0  0  0  0  0  0  0  # atno 17395 bound_to 11000

$$$$
