AV-unprocessed.smi:1552|AV-procd|sdf|6235|dock2
  -GOLD-   22720 6413D 1   1.00000     0.00000
 Structure written by MMmdl.
 50 51  0  0  0  0  0  0  0  0  2 V2000
  145.6205  136.8119  152.5487 C   0  0  0  0  0  0  0  0  0  0  0  0
  146.6593  135.9300  153.1373 N   0  3  0  0  0  0  0  0  0  0  0  0
  147.0953  136.4245  154.4636 C   0  0  0  0  0  0  0  0  0  0  0  0
  146.3629  134.4620  153.1338 C   0  0  1  0  0  0  0  0  0  0  0  0
  145.5096  133.9984  154.3431 C   0  0  0  0  0  0  0  0  0  0  0  0
  145.6099  132.5584  154.5505 N   0  0  0  0  0  0  0  0  0  0  0  0
  146.7249  131.8115  154.6141 C   0  0  0  0  0  0  0  0  0  0  0  0
  147.8303  132.3400  154.5178 O   0  0  0  0  0  0  0  0  0  0  0  0
  146.6354  130.2901  154.8414 C   0  0  0  0  0  0  0  0  0  0  0  0
  147.2321  129.5454  153.7244 N   0  0  0  0  0  0  0  0  0  0  0  0
  146.4155  128.8104  152.8765 C   0  0  0  0  0  0  0  0  0  0  0  0
  146.8791  128.1073  151.8164 C   0  0  0  0  0  0  0  0  0  0  0  0
  148.3047  128.0912  151.5079 C   0  0  0  0  0  0  0  0  0  0  0  0
  148.8209  127.4840  150.5725 O   0  0  0  0  0  0  0  0  0  0  0  0
  149.0937  128.8447  152.3810 N   0  0  0  0  0  0  0  0  0  0  0  0
  148.6222  129.5734  153.4742 C   0  0  0  0  0  0  0  0  0  0  0  0
  149.4079  130.2088  154.1760 O   0  0  0  0  0  0  0  0  0  0  0  0
  145.8281  133.9849  151.7515 C   0  0  0  0  0  0  0  0  0  0  0  0
  144.3184  133.6579  151.7850 C   0  0  0  0  0  0  0  0  0  0  0  0
  143.7837  133.3182  150.3836 C   0  0  0  0  0  0  0  0  0  0  0  0
  144.5789  132.1701  149.7426 C   0  0  0  0  0  0  0  0  0  0  0  0
  146.0819  132.4870  149.7092 C   0  0  0  0  0  0  0  0  0  0  0  0
  146.6118  132.8151  151.1141 C   0  0  0  0  0  0  0  0  0  0  0  0
  150.0877  128.8665  152.2054 H   0  0  0  0  0  0  0  0  0  0  0  0
  144.7418  136.8771  153.1914 H   0  0  0  0  0  0  0  0  0  0  0  0
  145.2980  136.4687  151.5674 H   0  0  0  0  0  0  0  0  0  0  0  0
  146.0135  137.8215  152.4247 H   0  0  0  0  0  0  0  0  0  0  0  0
  146.2984  136.3203  155.2011 H   0  0  0  0  0  0  0  0  0  0  0  0
  147.3768  137.4767  154.4110 H   0  0  0  0  0  0  0  0  0  0  0  0
  147.9665  135.8717  154.8174 H   0  0  0  0  0  0  0  0  0  0  0  0
  147.3197  133.9484  153.2459 H   0  0  0  0  0  0  0  0  0  0  0  0
  145.8390  134.5030  155.2524 H   0  0  0  0  0  0  0  0  0  0  0  0
  144.4633  134.2588  154.1859 H   0  0  0  0  0  0  0  0  0  0  0  0
  144.7372  132.0724  154.7001 H   0  0  0  0  0  0  0  0  0  0  0  0
  147.1425  130.0630  155.7804 H   0  0  0  0  0  0  0  0  0  0  0  0
  145.6179  129.9375  155.0025 H   0  0  0  0  0  0  0  0  0  0  0  0
  145.3516  128.7976  153.0663 H   0  0  0  0  0  0  0  0  0  0  0  0
  146.1914  127.5545  151.1926 H   0  0  0  0  0  0  0  0  0  0  0  0
  145.9284  134.8296  151.0687 H   0  0  0  0  0  0  0  0  0  0  0  0
  144.1294  132.8166  152.4528 H   0  0  0  0  0  0  0  0  0  0  0  0
  143.7597  134.5032  152.1882 H   0  0  0  0  0  0  0  0  0  0  0  0
  142.7284  133.0508  150.4429 H   0  0  0  0  0  0  0  0  0  0  0  0
  143.8419  134.2018  149.7464 H   0  0  0  0  0  0  0  0  0  0  0  0
  144.4114  131.2501  150.3042 H   0  0  0  0  0  0  0  0  0  0  0  0
  144.2153  131.9850  148.7313 H   0  0  0  0  0  0  0  0  0  0  0  0
  146.6302  131.6408  149.2936 H   0  0  0  0  0  0  0  0  0  0  0  0
  146.2645  133.3303  149.0419 H   0  0  0  0  0  0  0  0  0  0  0  0
  147.6732  133.0530  151.0463 H   0  0  0  0  0  0  0  0  0  0  0  0
  146.5254  131.9226  151.7330 H   0  0  0  0  0  0  0  0  0  0  0  0
  147.4710  136.0314  152.5445 H   0  0  0  0  0  0  0  0  0  0  0  0
  1  2  1  0  0  0  0
  1 25  1  0  0  0  0
  1 26  1  0  0  0  0
  1 27  1  0  0  0  0
  2  3  1  0  0  0  0
  2  4  1  0  0  0  0
  2 50  1  0  0  0  0
  3 28  1  0  0  0  0
  3 29  1  0  0  0  0
  3 30  1  0  0  0  0
  4  5  1  0  0  0  0
  4 18  1  0  0  0  0
  4 31  1  0  0  0  0
  5  6  1  0  0  0  0
  5 32  1  0  0  0  0
  5 33  1  0  0  0  0
  6  7  1  0  0  0  0
  6 34  1  0  0  0  0
  7  8  2  0  0  0  0
  7  9  1  0  0  0  0
  9 10  1  0  0  0  0
  9 35  1  0  0  0  0
  9 36  1  0  0  0  0
 10 16  1  0  0  0  0
 10 11  1  0  0  0  0
 11 12  2  0  0  0  0
 11 37  1  0  0  0  0
 12 13  1  0  0  0  0
 12 38  1  0  0  0  0
 13 14  2  0  0  0  0
 13 15  1  0  0  0  0
 15 24  1  0  0  0  0
 15 16  1  0  0  0  0
 16 17  2  0  0  0  0
 18 23  1  0  0  0  0
 18 19  1  0  0  0  0
 18 39  1  0  0  0  0
 19 20  1  0  0  0  0
 19 40  1  0  0  0  0
 19 41  1  0  0  0  0
 20 21  1  0  0  0  0
 20 42  1  0  0  0  0
 20 43  1  0  0  0  0
 21 22  1  0  0  0  0
 21 44  1  0  0  0  0
 21 45  1  0  0  0  0
 22 23  1  0  0  0  0
 22 46  1  0  0  0  0
 22 47  1  0  0  0  0
 23 48  1  0  0  0  0
 23 49  1  0  0  0  0
M  CHG  1   2   1
M  END
> <s_m_source_file>
AV-unprocessed.smi

> <i_m_source_file_index>
1552

> <i_lp_mmshare_version>
43012

> <i_f3d_flags>
0

> <s_epik_input>
W0NIMl0xW0NIMl1bQ0gyXVtDSDJdW0NIMl1bQ0hdMVtDQEhdKE4oW0NIM10pW0NIM10pW0NIMl1bTkhdQyg9TylbQ0gyXW4yW2NIXVtjSF1jKD1PKVtuSF1jMj1P

> <s_epik_cmdline>
J2VwaWtfcHl0aG9uJywgJy1waCcsICc3LjAnLCAnLXRuJywgJzgnLCAnLW1hJywgJzIwMCcsICctbWV0YWxfYmluZGluZycsICctaW1hZScsICc8aW5maWxlLm1hZT4nLCAnLW9tYWUnLCAnPG91dGZpbGUubWFlPic=

> <r_lp_tautomer_probability>
1

> <r_epik_Ionization_Penalty>
0.00705217

> <r_epik_Ionization_Penalty_Charging>
0.00705209

> <r_epik_Ionization_Penalty_Neutral>
7.66101e-08

> <r_epik_State_Penalty>
-0

> <r_epik_Charging_Adjusted_Penalty>
0.00705209

> <i_epik_Tot_Q>
1

> <i_epik_Tot_abs_Q>
1

> <r_epik_Metal_State_Penalty>
0.375122

> <b_epik_Metal_Only>
0

> <s_lp_Force_Field>
OPLS_2005

> <r_lp_Energy>
31.5593

> <b_lp_Chiralities_Consistent>
1

> <s_lp_Variant>
AV-unprocessed.smi:1552-2

> <Gold.Version>
5.8.1

> <Gold.Id.Protein>
6NUR|6NUR_protein|mol2

> <Gold.PLP.Fitness>
41.6214

> <Gold.PLP.PLP>
-32.5016

> <Gold.PLP.part.hbond>
-2.9575

> <Gold.PLP.part.metal>
0.0000

> <Gold.PLP.part.buried>
-2.0922

> <Gold.PLP.part.nonpolar>
-28.0294

> <Gold.PLP.part.repulsive>
0.3986

> <Gold.PLP.ligand.clash>
0.0000

> <Gold.PLP.ligand.torsion>
1.7375

> <Gold.PLP.Chemscore.Hbond>
3.0000

> <Gold.PLP.Chemscore.CHOScore>
1.0000

> <Gold.PLP.Chemscore.Metal>
0.0000

> <Gold.Chemscore.Hbonds>
donor molecule, donor type, donor heavy atom, donor atom, acceptor molecule, acceptor atom, score
      L1  H     2    50       P1  7948  2.00
      L1  H     6    34       P1 10957  0.91
      L1  H    15    24       P1 10737  0.32
      L1  C    11    37       P1 10956  0.37

> <Gold.PLP.Chemscore.Internal.Correction>
0.5949

> <Gold.Rescore>
     Score         DG    S(hbond)    S(metal)    S(lipo)     H(rot)  DE(clash)    DE(int)     intcor
     10.82     -14.04       1.82        0.00      75.81       2.50       0.01       3.21       ----

> <Gold.Chemscore.Fitness>
10.8217

> <Gold.Chemscore.DG>
-14.0387

> <Gold.Chemscore.ZeroCoef>
-5.4800

> <Gold.Chemscore.Hbond>
1.8206

> <Gold.Chemscore.Metal>
0.0000

> <Gold.Chemscore.Lipo>
75.8086

> <Gold.Chemscore.Internal_Hbond>
0.0000

> <Gold.Chemscore.DEClash>
0.0078

> <Gold.Chemscore.DEInternal>
3.2092

> <Gold.Chemscore.Rot>
2.4968

> <Gold.Chemscore.Internal.Correction>
   9.000000E+99

> <Gold.Chemscore.Hbonds>
donor molecule, donor type, donor heavy atom, donor atom, acceptor molecule, acceptor atom, score
      L1  H     2    50       P1  7948  1.00
      L1  H     6    34       P1 10957  0.30
      L1  H    15    24       P1 10737  0.22

> <Gold.Chemscore.Hbond.Weighted>
-6.0807

> <Gold.Chemscore.Metal.Weighted>
-0.0000

> <Gold.Chemscore.Lipo.Weighted>
-8.8696

> <Gold.Chemscore.Internal_Hbond.Weighted>
0.0000

> <Gold.Chemscore.DEClash.Weighted>
0.0078

> <Gold.Chemscore.DEInternal.Weighted>
3.2092

> <Gold.Chemscore.Rot.Weighted>
6.3917

> <Gold.Chemscore.Internal.Correction.Weighted>
   9.000000E+99

> <Gold.Protein.RotatedTorsions>
[ 6907 6896 6895 6894 ] final -169.45 input  -60.11 | X-H torsion
[ 7974 7965 7964 7962 ] final -137.79 input  175.53 | X-H torsion
[ 8008 7997 7996 7995 ] final -160.09 input   59.86 | X-H torsion
[ 10167 10162 10161 10158 ] final  -58.76 input  -65.29 | X-H torsion
[ 10718 10713 10712 10709 ] final  -99.85 input   66.30 | X-H torsion
[ 10763 10752 10751 10750 ] final   78.11 input  -60.55 | X-H torsion
[ 11005 11000 10999 10996 ] final  127.62 input  -57.11 | X-H torsion

> <Gold.Protein.ActiveResidues>
 VAL166  LYS551  ARG553  GLY616  TRP617  ASP618  TYR619  PRO620  LYS621  CYS622 
 ASP623  PHE694  ASN695  SER759  ASP760  ASP761  ALA762  ILE779  LEU786  VAL792 
 PHE793  MET794  SER795  GLU796  ALA797  LYS798  CYS799  TRP800  GLU811  SER814 

> <Gold.Protein.RotatedAtoms>
  151.4919  133.3523  159.2854 H   0  0  0  0  0  0  0  0  0  0  0  0  # atno 6907 bound_to 6896
  150.8829  134.8225  159.7249 H   0  0  0  0  0  0  0  0  0  0  0  0  # atno 6908 bound_to 6896
  152.4774  134.4819  159.9720 H   0  0  0  0  0  0  0  0  0  0  0  0  # atno 6909 bound_to 6896
  144.8812  140.6510  143.5205 H   0  0  0  0  0  0  0  0  0  0  0  0  # atno 7974 bound_to 7965
  155.7722  140.0853  157.2102 H   0  0  0  0  0  0  0  0  0  0  0  0  # atno 8008 bound_to 7997
  154.3995  140.1523  156.3012 H   0  0  0  0  0  0  0  0  0  0  0  0  # atno 8009 bound_to 7997
  155.8736  140.3424  155.5841 H   0  0  0  0  0  0  0  0  0  0  0  0  # atno 8010 bound_to 7997
  140.6177  143.2408  151.5556 H   0  0  0  0  0  0  0  0  0  0  0  0  # atno 10167 bound_to 10162
  156.0146  130.5301  150.6731 H   0  0  0  0  0  0  0  0  0  0  0  0  # atno 10718 bound_to 10713
  153.0849  135.4889  154.8577 H   0  0  0  0  0  0  0  0  0  0  0  0  # atno 10763 bound_to 10752
  154.7198  135.3037  154.9068 H   0  0  0  0  0  0  0  0  0  0  0  0  # atno 10764 bound_to 10752
  153.9735  135.6798  153.4801 H   0  0  0  0  0  0  0  0  0  0  0  0  # atno 10765 bound_to 10752
  139.9517  134.9621  156.8881 H   0  0  0  0  0  0  0  0  0  0  0  0  # atno 11005 bound_to 11000
  145.3951  139.1609  143.4208 LP  0  0  0  0  0  0  0  0  0  0  0  0  # atno 17320 bound_to 7965
  146.2995  140.4043  142.8709 LP  0  0  0  0  0  0  0  0  0  0  0  0  # atno 17321 bound_to 7965
  139.5412  144.2642  152.1355 LP  0  0  0  0  0  0  0  0  0  0  0  0  # atno 17342 bound_to 10162
  140.1855  144.4803  150.6506 LP  0  0  0  0  0  0  0  0  0  0  0  0  # atno 17343 bound_to 10162
  157.4449  131.0865  151.0906 LP  0  0  0  0  0  0  0  0  0  0  0  0  # atno 17370 bound_to 10713
  157.1439  130.6155  149.5563 LP  0  0  0  0  0  0  0  0  0  0  0  0  # atno 17371 bound_to 10713
  140.5704  134.0449  155.7428 LP  0  0  0  0  0  0  0  0  0  0  0  0  # atno 17394 bound_to 11000
  141.1181  133.9507  157.2783 LP  0  0  0  0  0  0  0  0  0  0  0  0  # atno 17395 bound_to 11000

$$$$
