#       Name:                AV-unprocessed.smi:2886
#       Creating user name   scv26
#       Creation time:       Fri Mar 27 15:56:48 2020


#       File generated by GOLD software.
#

@<TRIPOS>MOLECULE
AV-unprocessed.smi:2886
    33    35     1
SMALL
NO_CHARGES


@<TRIPOS>ATOM
      1 ****        -4.2635  -3.6144  -0.9388 O.2            1 S1                 0.0000
      2 ****        -3.7823  -2.4830  -0.9068 C.2            1 S1                 0.0000
      3 ****        -4.4830  -1.3823  -1.3166 N.pl3          1 S1                -1.0000
      4 ****        -3.8780  -0.0707  -1.2509 N.2            1 S1                 0.0000
      5 ****        -2.6878   0.0832  -0.8220 C.2            1 S1                 0.0000
      6 ****        -1.8512  -1.0568  -0.3724 C.2            1 S1                 0.0000
      7 ****        -0.5534  -0.8907   0.0954 N.pl3          1 S1                 0.0000
      8 ****         0.2146   0.3381   0.2380 C.3            1 S1                 0.0000
      9 ****         0.3702   0.7661   1.6994 C.3            1 S1                 0.0000
     10 ****         1.8954   0.8521   1.8397 C.3            1 S1                 0.0000
     11 ****         2.4894   2.0191   1.0389 C.3            1 S1                 0.0000
     12 ****         2.3697   1.5063  -0.3964 C.3            1 S1                 0.0000
     13 ****         1.6790   0.1513  -0.1912 C.3            1 S1                 0.0000
     14 ****         2.2819  -0.2448   1.0306 O.3            1 S1                 0.0000
     15 ****        -2.4117  -2.2924  -0.4173 C.2            1 S1                 0.0000
     16 ****        -1.5190  -3.6870   0.0970 Cl             1 S1                 0.0000
     17 ****        -2.2334   1.0746  -0.7631 H              1 S1                 0.0000
     18 ****        -0.0194  -1.7360   0.2383 H              1 S1                 0.0000
     19 ****        -0.2329   1.1301  -0.3616 H              1 S1                 0.0000
     20 ****        -0.1239   1.7140   1.9146 H              1 S1                 0.0000
     21 ****        -0.0296   0.0139   2.3810 H              1 S1                 0.0000
     22 ****         2.2479   0.7961   2.8699 H              1 S1                 0.0000
     23 ****         1.9471   2.9508   1.2034 H              1 S1                 0.0000
     24 ****         3.5355   2.1807   1.3011 H              1 S1                 0.0000
     25 ****         1.7975   2.1749  -1.0402 H              1 S1                 0.0000
     26 ****         3.3583   1.3717  -0.8368 H              1 S1                 0.0000
     27 ****         1.8242  -0.5441  -1.0189 H              1 S1                 0.0000
     28 ****        -3.7217  -4.3970  -0.6325 LP             1 S1                 0.0000
     29 ****        -5.1967  -3.7516  -1.2711 LP             1 S1                 0.0000
     30 ****        -5.4157  -1.4848  -1.6624 LP             1 S1                 0.0000
     31 ****        -4.4017   0.7283  -1.5467 LP             1 S1                 0.0000
     32 ****         1.9093  -1.1090   1.3688 LP             1 S1                 0.0000
     33 ****         3.2759  -0.3189   0.9506 LP             1 S1                 0.0000
@<TRIPOS>BOND
    1    1    2 2     
    2    2   15 1     
    3    2    3 1     
    4    3    4 1     
    5    4    5 2     
    6    5    6 1     
    7    5   17 1     
    8    6    7 1     
    9    6   15 2     
   10    7    8 1     
   11    7   18 1     
   12    8   13 1     
   13    8    9 1     
   14    8   19 1     
   15    9   10 1     
   16    9   20 1     
   17    9   21 1     
   18   10   14 1     
   19   10   11 1     
   20   10   22 1     
   21   11   12 1     
   22   11   23 1     
   23   11   24 1     
   24   12   13 1     
   25   12   25 1     
   26   12   26 1     
   27   13   14 1     
   28   13   27 1     
   29   15   16 1     
   30    1   28 1     
   31    1   29 1     
   32    3   30 1     
   33    4   31 1     
   34   14   32 1     
   35   14   33 1     
@<TRIPOS>SUBSTRUCTURE
      1 S1             1
@<TRIPOS>SET
LONE_PAIRS      STATIC     ATOMS    <user>   **** ""
6 28 29 30 31 32 33
DONOR_HYDROGENS      STATIC     ATOMS    <user>   **** ""
1 18
ATOM$BLUE        STATIC     ATOMS    COLORGROUP SYSTEM
6 28 29 30 31 32 33
ATOM$RED        STATIC     ATOMS    COLORGROUP SYSTEM
1 18
