AV-unprocessed.smi:3132|AV-procd|sdf|11932|dock2
  -GOLD-   2272017323D 1   1.00000     0.00000
 Structure written by MMmdl.
 34 35  0  0  0  0  0  0  0  0  2 V2000
  149.3080  141.1034  156.7037 C   0  0  0  0  0  0  0  0  0  0  0  0
  150.7911  140.7889  156.9413 C   0  0  1  0  0  0  0  0  0  0  0  0
  151.5107  140.4447  155.6189 C   0  0  0  0  0  0  0  0  0  0  0  0
  151.1874  139.1030  155.1220 N   0  0  0  0  0  0  0  0  0  0  0  0
  151.6308  137.9029  155.6170 C   0  0  0  0  0  0  0  0  0  0  0  0
  151.0523  136.9257  154.8487 C   0  0  0  0  0  0  0  0  0  0  0  0
  150.2865  137.5700  153.9143 N   0  3  0  0  0  0  0  0  0  0  0  0
  150.3722  138.8939  154.0802 C   0  0  0  0  0  0  0  0  0  0  0  0
  151.4219  141.9350  157.5952 N   0  0  0  0  0  0  0  0  0  0  0  0
  152.0065  141.9231  158.8040 C   0  0  0  0  0  0  0  0  0  0  0  0
  152.0538  140.9234  159.5222 O   0  0  0  0  0  0  0  0  0  0  0  0
  152.6756  143.2304  159.2412 C   0  0  1  0  0  0  0  0  0  0  0  0
  152.5212  144.3907  158.2399 C   0  0  0  0  0  0  0  0  0  0  0  0
  151.5089  145.3006  158.9064 C   0  0  0  0  0  0  0  0  0  0  0  0
  151.8058  145.0609  160.3799 C   0  0  0  0  0  0  0  0  0  0  0  0
  152.0387  143.6618  160.4436 O   0  0  0  0  0  0  0  0  0  0  0  0
  148.7964  140.2577  156.2432 H   0  0  0  0  0  0  0  0  0  0  0  0
  149.1835  141.9648  156.0464 H   0  0  0  0  0  0  0  0  0  0  0  0
  148.7976  141.3235  157.6421 H   0  0  0  0  0  0  0  0  0  0  0  0
  150.8323  139.9201  157.6007 H   0  0  0  0  0  0  0  0  0  0  0  0
  151.2366  141.1566  154.8388 H   0  0  0  0  0  0  0  0  0  0  0  0
  152.5933  140.5096  155.7388 H   0  0  0  0  0  0  0  0  0  0  0  0
  152.2988  137.8350  156.4634 H   0  0  0  0  0  0  0  0  0  0  0  0
  151.1250  135.8490  154.8968 H   0  0  0  0  0  0  0  0  0  0  0  0
  149.8716  139.6451  153.4957 H   0  0  0  0  0  0  0  0  0  0  0  0
  151.4378  142.8016  157.0765 H   0  0  0  0  0  0  0  0  0  0  0  0
  153.7348  143.0555  159.4375 H   0  0  0  0  0  0  0  0  0  0  0  0
  153.4740  144.9114  158.1341 H   0  0  0  0  0  0  0  0  0  0  0  0
  152.2078  144.0850  157.2407 H   0  0  0  0  0  0  0  0  0  0  0  0
  151.6121  146.3458  158.6132 H   0  0  0  0  0  0  0  0  0  0  0  0
  150.4950  144.9746  158.6694 H   0  0  0  0  0  0  0  0  0  0  0  0
  152.7072  145.5942  160.6861 H   0  0  0  0  0  0  0  0  0  0  0  0
  150.9859  145.3627  161.0321 H   0  0  0  0  0  0  0  0  0  0  0  0
  149.7312  137.1127  153.2020 H   0  0  0  0  0  0  0  0  0  0  0  0
  1  2  1  0  0  0  0
  1 17  1  0  0  0  0
  1 18  1  0  0  0  0
  1 19  1  0  0  0  0
  2  3  1  0  0  0  0
  2  9  1  0  0  0  0
  2 20  1  0  0  0  0
  3  4  1  0  0  0  0
  3 21  1  0  0  0  0
  3 22  1  0  0  0  0
  4  8  1  0  0  0  0
  4  5  1  0  0  0  0
  5  6  2  0  0  0  0
  5 23  1  0  0  0  0
  6  7  1  0  0  0  0
  6 24  1  0  0  0  0
  7  8  2  0  0  0  0
  7 34  1  0  0  0  0
  8 25  1  0  0  0  0
  9 10  1  0  0  0  0
  9 26  1  0  0  0  0
 10 11  2  0  0  0  0
 10 12  1  0  0  0  0
 12 16  1  0  0  0  0
 12 13  1  0  0  0  0
 12 27  1  0  0  0  0
 13 14  1  0  0  0  0
 13 28  1  0  0  0  0
 13 29  1  0  0  0  0
 14 15  1  0  0  0  0
 14 30  1  0  0  0  0
 14 31  1  0  0  0  0
 15 16  1  0  0  0  0
 15 32  1  0  0  0  0
 15 33  1  0  0  0  0
M  CHG  1   7   1
M  END
> <s_m_source_file>
AV-unprocessed.smi

> <i_m_source_file_index>
3132

> <i_lp_mmshare_version>
43012

> <i_f3d_flags>
0

> <s_epik_input>
W2NIXTFuW2NIXVtjSF1uMVtDSDJdW0NAQEhdKFtDSDNdKVtOSF1DKD1PKVtDQEBIXTJbQ0gyXVtDSDJdW0NIMl1PMg==

> <s_epik_cmdline>
J2VwaWtfcHl0aG9uJywgJy1waCcsICc3LjAnLCAnLXRuJywgJzgnLCAnLW1hJywgJzIwMCcsICctbWV0YWxfYmluZGluZycsICctaW1hZScsICc8aW5maWxlLm1hZT4nLCAnLW9tYWUnLCAnPG91dGZpbGUubWFlPic=

> <r_lp_tautomer_probability>
1

> <r_epik_Ionization_Penalty>
0.250802

> <r_epik_Ionization_Penalty_Charging>
0

> <r_epik_Ionization_Penalty_Neutral>
0.250802

> <r_epik_State_Penalty>
0.242139

> <r_epik_Charging_Adjusted_Penalty>
0.242139

> <i_epik_Tot_Q>
1

> <i_epik_Tot_abs_Q>
1

> <r_epik_Metal_State_Penalty>
0.533361

> <b_epik_Metal_Only>
0

> <s_lp_Force_Field>
OPLS_2005

> <r_lp_Energy>
20.1872

> <b_lp_Chiralities_Consistent>
1

> <s_lp_Variant>
AV-unprocessed.smi:3132-4

> <Gold.Version>
5.8.1

> <Gold.Id.Protein>
6NUR|6NUR_protein|mol2

> <Gold.PLP.Fitness>
45.3434

> <Gold.PLP.PLP>
-36.9182

> <Gold.PLP.part.hbond>
-1.8508

> <Gold.PLP.part.metal>
0.0000

> <Gold.PLP.part.buried>
-3.4295

> <Gold.PLP.part.nonpolar>
-31.7500

> <Gold.PLP.part.repulsive>
0.1752

> <Gold.PLP.ligand.clash>
0.0000

> <Gold.PLP.ligand.torsion>
0.3051

> <Gold.PLP.Chemscore.Hbond>
2.0000

> <Gold.PLP.Chemscore.CHOScore>
1.0000

> <Gold.PLP.Chemscore.Metal>
0.0000

> <Gold.Chemscore.Hbonds>
donor molecule, donor type, donor heavy atom, donor atom, acceptor molecule, acceptor atom, score
      L1  H     7    34       P1  7948  2.00
      L1  C     8    25       P1  7957  1.00

> <Gold.PLP.Chemscore.Internal.Correction>
0.0353

> <Gold.Rescore>
     Score         DG    S(hbond)    S(metal)    S(lipo)     H(rot)  DE(clash)    DE(int)     intcor
     12.86     -13.04       0.96        0.00      79.52       1.93       0.01       0.18       ----

> <Gold.Chemscore.Fitness>
12.8617

> <Gold.Chemscore.DG>
-13.0423

> <Gold.Chemscore.ZeroCoef>
-5.4800

> <Gold.Chemscore.Hbond>
0.9586

> <Gold.Chemscore.Metal>
0.0000

> <Gold.Chemscore.Lipo>
79.5182

> <Gold.Chemscore.Internal_Hbond>
0.0000

> <Gold.Chemscore.DEClash>
0.0050

> <Gold.Chemscore.DEInternal>
0.1755

> <Gold.Chemscore.Rot>
1.9308

> <Gold.Chemscore.Internal.Correction>
   9.000000E+99

> <Gold.Chemscore.Hbonds>
donor molecule, donor type, donor heavy atom, donor atom, acceptor molecule, acceptor atom, score
      L1  H     7    34       P1  7948  0.50

> <Gold.Chemscore.Hbond.Weighted>
-3.2016

> <Gold.Chemscore.Metal.Weighted>
-0.0000

> <Gold.Chemscore.Lipo.Weighted>
-9.3036

> <Gold.Chemscore.Internal_Hbond.Weighted>
0.0000

> <Gold.Chemscore.DEClash.Weighted>
0.0050

> <Gold.Chemscore.DEInternal.Weighted>
0.1755

> <Gold.Chemscore.Rot.Weighted>
4.9429

> <Gold.Chemscore.Internal.Correction.Weighted>
   9.000000E+99

> <Gold.Protein.RotatedTorsions>
[ 6907 6896 6895 6894 ] final  -44.94 input  -60.11 | X-H torsion
[ 7974 7965 7964 7962 ] final  118.53 input  175.53 | X-H torsion
[ 8008 7997 7996 7995 ] final  -57.33 input   59.86 | X-H torsion
[ 10167 10162 10161 10158 ] final    3.12 input  -65.29 | X-H torsion
[ 10718 10713 10712 10709 ] final   91.60 input   66.30 | X-H torsion
[ 10763 10752 10751 10750 ] final  -11.00 input  -60.55 | X-H torsion
[ 11005 11000 10999 10996 ] final  -78.99 input  -57.11 | X-H torsion

> <Gold.Protein.ActiveResidues>
 VAL166  LYS551  ARG553  GLY616  TRP617  ASP618  TYR619  PRO620  LYS621  CYS622 
 ASP623  PHE694  ASN695  SER759  ASP760  ASP761  ALA762  ILE779  LEU786  VAL792 
 PHE793  MET794  SER795  GLU796  ALA797  LYS798  CYS799  TRP800  GLU811  SER814 

> <Gold.Protein.RotatedAtoms>
  150.9274  134.8690  159.7528 H   0  0  0  0  0  0  0  0  0  0  0  0  # atno 6907 bound_to 6896
  152.5022  134.4129  159.9465 H   0  0  0  0  0  0  0  0  0  0  0  0  # atno 6908 bound_to 6896
  151.4159  133.3673  159.2785 H   0  0  0  0  0  0  0  0  0  0  0  0  # atno 6909 bound_to 6896
  145.1541  139.3193  143.4551 H   0  0  0  0  0  0  0  0  0  0  0  0  # atno 7974 bound_to 7965
  154.4264  140.1109  156.5780 H   0  0  0  0  0  0  0  0  0  0  0  0  # atno 8008 bound_to 7997
  155.6142  140.3494  155.4613 H   0  0  0  0  0  0  0  0  0  0  0  0  # atno 8009 bound_to 7997
  156.0075  140.1212  157.0476 H   0  0  0  0  0  0  0  0  0  0  0  0  # atno 8010 bound_to 7997
  140.6602  143.7324  150.7724 H   0  0  0  0  0  0  0  0  0  0  0  0  # atno 10167 bound_to 10162
  157.6960  131.0413  150.3754 H   0  0  0  0  0  0  0  0  0  0  0  0  # atno 10718 bound_to 10713
  153.4774  135.7017  153.5958 H   0  0  0  0  0  0  0  0  0  0  0  0  # atno 10763 bound_to 10752
  153.4186  135.3831  155.2097 H   0  0  0  0  0  0  0  0  0  0  0  0  # atno 10764 bound_to 10752
  154.8723  135.3922  154.4219 H   0  0  0  0  0  0  0  0  0  0  0  0  # atno 10765 bound_to 10752
  141.1666  133.7086  156.8055 H   0  0  0  0  0  0  0  0  0  0  0  0  # atno 11005 bound_to 11000
  146.3491  140.1626  142.8590 LP  0  0  0  0  0  0  0  0  0  0  0  0  # atno 17320 bound_to 7965
  145.0400  140.8938  143.5058 LP  0  0  0  0  0  0  0  0  0  0  0  0  # atno 17321 bound_to 7965
  140.0991  143.4804  152.2435 LP  0  0  0  0  0  0  0  0  0  0  0  0  # atno 17342 bound_to 10162
  139.5834  144.7520  151.3583 LP  0  0  0  0  0  0  0  0  0  0  0  0  # atno 17343 bound_to 10162
  156.4174  130.3946  149.6849 LP  0  0  0  0  0  0  0  0  0  0  0  0  # atno 17370 bound_to 10713
  156.4112  130.7723  151.2736 LP  0  0  0  0  0  0  0  0  0  0  0  0  # atno 17371 bound_to 10713
  140.2225  134.8746  157.3392 LP  0  0  0  0  0  0  0  0  0  0  0  0  # atno 17394 bound_to 11000
  140.1973  134.4298  155.7682 LP  0  0  0  0  0  0  0  0  0  0  0  0  # atno 17395 bound_to 11000

$$$$
