AV-unprocessed.smi:1430|AV-procd|sdf|5824|dock3
  -GOLD-   22720 5483D 1   1.00000     0.00000
 Structure written by MMmdl.
 46 47  0  0  0  0  0  0  0  0  1 V2000
  146.3712  128.8554  152.6910 C   0  0  0  0  0  0  0  0  0  0  0  0
  146.9533  129.2565  153.9263 O   0  0  0  0  0  0  0  0  0  0  0  0
  147.5122  130.5153  154.0088 C   0  0  0  0  0  0  0  0  0  0  0  0
  148.3059  130.8284  155.1300 C   0  0  0  0  0  0  0  0  0  0  0  0
  148.8807  132.1105  155.2225 C   0  0  0  0  0  0  0  0  0  0  0  0
  148.6362  133.0464  154.1887 C   0  0  0  0  0  0  0  0  0  0  0  0
  149.1672  134.3648  154.1500 N   0  0  0  0  0  0  0  0  0  0  0  0
  149.9434  134.9909  155.0514 C   0  0  0  0  0  0  0  0  0  0  0  0
  150.3280  134.5135  156.1184 O   0  0  0  0  0  0  0  0  0  0  0  0
  150.2449  136.2331  154.6474 N   0  0  0  0  0  0  0  0  0  0  0  0
  151.0626  137.1820  155.3933 C   0  0  0  0  0  0  0  0  0  0  0  0
  151.5389  138.3378  154.4938 C   0  0  0  0  0  0  0  0  0  0  0  0
  150.9661  139.6445  154.8130 N   0  0  0  0  0  0  0  0  0  0  0  0
  150.7632  139.8336  156.2480 C   0  0  0  0  0  0  0  0  0  0  0  0
  150.1235  141.1954  156.5871 C   0  0  1  0  0  0  0  0  0  0  0  0
  151.0981  142.3774  156.4498 C   0  0  0  0  0  0  0  0  0  0  0  0
  148.9373  141.3946  155.8163 O   0  0  0  0  0  0  0  0  0  0  0  0
  149.0917  141.2244  154.4086 C   0  0  2  0  0  0  0  0  0  0  0  0
  147.7175  141.3989  153.7540 C   0  0  0  0  0  0  0  0  0  0  0  0
  149.6953  139.8372  154.1263 C   0  0  0  0  0  0  0  0  0  0  0  0
  147.8365  132.6294  153.1045 C   0  0  0  0  0  0  0  0  0  0  0  0
  147.2827  131.4024  153.0096 N   0  0  0  0  0  0  0  0  0  0  0  0
  145.9738  127.8456  152.7910 H   0  0  0  0  0  0  0  0  0  0  0  0
  147.1091  128.8424  151.8876 H   0  0  0  0  0  0  0  0  0  0  0  0
  145.5448  129.5094  152.4085 H   0  0  0  0  0  0  0  0  0  0  0  0
  148.4753  130.0951  155.9048 H   0  0  0  0  0  0  0  0  0  0  0  0
  149.5021  132.3386  156.0737 H   0  0  0  0  0  0  0  0  0  0  0  0
  148.8837  134.9177  153.3542 H   0  0  0  0  0  0  0  0  0  0  0  0
  149.8824  136.5462  153.7590 H   0  0  0  0  0  0  0  0  0  0  0  0
  150.4526  137.5559  156.2147 H   0  0  0  0  0  0  0  0  0  0  0  0
  151.9154  136.6718  155.8443 H   0  0  0  0  0  0  0  0  0  0  0  0
  152.6242  138.4038  154.5835 H   0  0  0  0  0  0  0  0  0  0  0  0
  151.3401  138.0942  153.4491 H   0  0  0  0  0  0  0  0  0  0  0  0
  150.1197  139.0392  156.6292 H   0  0  0  0  0  0  0  0  0  0  0  0
  151.7080  139.7474  156.7832 H   0  0  0  0  0  0  0  0  0  0  0  0
  149.8082  141.1650  157.6303 H   0  0  0  0  0  0  0  0  0  0  0  0
  151.9448  142.2622  157.1269 H   0  0  0  0  0  0  0  0  0  0  0  0
  150.6048  143.3178  156.6958 H   0  0  0  0  0  0  0  0  0  0  0  0
  151.4990  142.4641  155.4402 H   0  0  0  0  0  0  0  0  0  0  0  0
  149.7563  141.9966  154.0200 H   0  0  0  0  0  0  0  0  0  0  0  0
  147.7816  141.2876  152.6713 H   0  0  0  0  0  0  0  0  0  0  0  0
  147.3095  142.3881  153.9623 H   0  0  0  0  0  0  0  0  0  0  0  0
  147.0066  140.6603  154.1253 H   0  0  0  0  0  0  0  0  0  0  0  0
  149.8366  139.7212  153.0511 H   0  0  0  0  0  0  0  0  0  0  0  0
  148.9895  139.0631  154.4324 H   0  0  0  0  0  0  0  0  0  0  0  0
  147.6300  133.3028  152.2854 H   0  0  0  0  0  0  0  0  0  0  0  0
  1  2  1  0  0  0  0
  1 23  1  0  0  0  0
  1 24  1  0  0  0  0
  1 25  1  0  0  0  0
  2  3  1  0  0  0  0
  3 22  1  0  0  0  0
  3  4  2  0  0  0  0
  4  5  1  0  0  0  0
  4 26  1  0  0  0  0
  5  6  2  0  0  0  0
  5 27  1  0  0  0  0
  6  7  1  0  0  0  0
  6 21  1  0  0  0  0
  7  8  1  0  0  0  0
  7 28  1  0  0  0  0
  8  9  2  0  0  0  0
  8 10  1  0  0  0  0
 10 11  1  0  0  0  0
 10 29  1  0  0  0  0
 11 12  1  0  0  0  0
 11 30  1  0  0  0  0
 11 31  1  0  0  0  0
 12 13  1  0  0  0  0
 12 32  1  0  0  0  0
 12 33  1  0  0  0  0
 13 20  1  0  0  0  0
 13 14  1  0  0  0  0
 14 15  1  0  0  0  0
 14 34  1  0  0  0  0
 14 35  1  0  0  0  0
 15 16  1  0  0  0  0
 15 17  1  0  0  0  0
 15 36  1  0  0  0  0
 16 37  1  0  0  0  0
 16 38  1  0  0  0  0
 16 39  1  0  0  0  0
 17 18  1  0  0  0  0
 18 19  1  0  0  0  0
 18 20  1  0  0  0  0
 18 40  1  0  0  0  0
 19 41  1  0  0  0  0
 19 42  1  0  0  0  0
 19 43  1  0  0  0  0
 20 44  1  0  0  0  0
 20 45  1  0  0  0  0
 21 22  2  0  0  0  0
 21 46  1  0  0  0  0
M  END
> <s_m_source_file>
AV-unprocessed.smi

> <i_m_source_file_index>
1430

> <i_lp_mmshare_version>
43012

> <i_f3d_flags>
0

> <s_epik_input>
W0NIM11PYzFbY0hdW2NIXWMoW2NIXW4xKVtOSF1DKD1PKVtOSF1bQ0gyXVtDSDJdTjJbQ0gyXVtDQEBIXShbQ0gzXSlPW0NAQEhdKFtDSDNdKVtDSDJdMg==

> <s_epik_cmdline>
J2VwaWtfcHl0aG9uJywgJy1waCcsICc3LjAnLCAnLXRuJywgJzgnLCAnLW1hJywgJzIwMCcsICctbWV0YWxfYmluZGluZycsICctaW1hZScsICc8aW5maWxlLm1hZT4nLCAnLW9tYWUnLCAnPG91dGZpbGUubWFlPic=

> <r_lp_tautomer_probability>
1

> <r_epik_Ionization_Penalty>
0.266083

> <r_epik_Ionization_Penalty_Charging>
0

> <r_epik_Ionization_Penalty_Neutral>
0.266083

> <r_epik_State_Penalty>
0.257924

> <r_epik_Charging_Adjusted_Penalty>
0.257924

> <i_epik_Tot_Q>
0

> <i_epik_Tot_abs_Q>
0

> <r_epik_Metal_State_Penalty>
0.257922

> <b_epik_Metal_Only>
0

> <s_lp_Force_Field>
OPLS_2005

> <r_lp_Energy>
26.0225

> <b_lp_Chiralities_Consistent>
1

> <s_lp_Variant>
AV-unprocessed.smi:1430-3

> <Gold.Version>
5.8.1

> <Gold.Id.Protein>
6NUR|6NUR_protein|mol2

> <Gold.PLP.Fitness>
43.7890

> <Gold.PLP.PLP>
-37.5192

> <Gold.PLP.part.hbond>
-3.9834

> <Gold.PLP.part.metal>
0.0000

> <Gold.PLP.part.buried>
-3.8606

> <Gold.PLP.part.nonpolar>
-30.7812

> <Gold.PLP.part.repulsive>
1.1453

> <Gold.PLP.ligand.clash>
0.0000

> <Gold.PLP.ligand.torsion>
0.8818

> <Gold.PLP.Chemscore.Hbond>
2.6665

> <Gold.PLP.Chemscore.CHOScore>
0.0000

> <Gold.PLP.Chemscore.Metal>
0.0000

> <Gold.Chemscore.Hbonds>
donor molecule, donor type, donor heavy atom, donor atom, acceptor molecule, acceptor atom, score
      L1  H     7    28       P1  7948  1.00
      L1  H    10    29       P1  7948  0.83
      P1  H  7989  7998       L1    13  0.20

> <Gold.PLP.Chemscore.Internal.Correction>
0.0339

> <Gold.Rescore>
     Score         DG    S(hbond)    S(metal)    S(lipo)     H(rot)  DE(clash)    DE(int)     intcor
     13.13     -15.15       1.43        0.00      79.15       1.71       0.03       1.99       ----

> <Gold.Chemscore.Fitness>
13.1318

> <Gold.Chemscore.DG>
-15.1506

> <Gold.Chemscore.ZeroCoef>
-5.4800

> <Gold.Chemscore.Hbond>
1.4340

> <Gold.Chemscore.Metal>
0.0000

> <Gold.Chemscore.Lipo>
79.1486

> <Gold.Chemscore.Internal_Hbond>
0.0000

> <Gold.Chemscore.DEClash>
0.0265

> <Gold.Chemscore.DEInternal>
1.9924

> <Gold.Chemscore.Rot>
1.7107

> <Gold.Chemscore.Internal.Correction>
   9.000000E+99

> <Gold.Chemscore.Hbonds>
donor molecule, donor type, donor heavy atom, donor atom, acceptor molecule, acceptor atom, score
      L1  H     7    28       P1  7948  0.34
      L1  H    10    29       P1  7948  0.28

> <Gold.Chemscore.Hbond.Weighted>
-4.7897

> <Gold.Chemscore.Metal.Weighted>
-0.0000

> <Gold.Chemscore.Lipo.Weighted>
-9.2604

> <Gold.Chemscore.Internal_Hbond.Weighted>
0.0000

> <Gold.Chemscore.DEClash.Weighted>
0.0265

> <Gold.Chemscore.DEInternal.Weighted>
1.9924

> <Gold.Chemscore.Rot.Weighted>
4.3794

> <Gold.Chemscore.Internal.Correction.Weighted>
   9.000000E+99

> <Gold.Protein.RotatedTorsions>
[ 6907 6896 6895 6894 ] final   35.45 input  -60.11 | X-H torsion
[ 7974 7965 7964 7962 ] final  121.77 input  175.53 | X-H torsion
[ 8008 7997 7996 7995 ] final -108.00 input   59.86 | X-H torsion
[ 10167 10162 10161 10158 ] final  124.65 input  -65.29 | X-H torsion
[ 10718 10713 10712 10709 ] final -163.97 input   66.30 | X-H torsion
[ 10763 10752 10751 10750 ] final -135.35 input  -60.55 | X-H torsion
[ 11005 11000 10999 10996 ] final  -70.84 input  -57.11 | X-H torsion

> <Gold.Protein.ActiveResidues>
 VAL166  LYS551  ARG553  GLY616  TRP617  ASP618  TYR619  PRO620  LYS621  CYS622 
 ASP623  PHE694  ASN695  SER759  ASP760  ASP761  ALA762  ILE779  LEU786  VAL792 
 PHE793  MET794  SER795  GLU796  ALA797  LYS798  CYS799  TRP800  GLU811  SER814 

> <Gold.Protein.RotatedAtoms>
  152.1163  134.9238  160.0564 H   0  0  0  0  0  0  0  0  0  0  0  0  # atno 6907 bound_to 6896
  152.0396  133.3967  159.4339 H   0  0  0  0  0  0  0  0  0  0  0  0  # atno 6908 bound_to 6896
  150.6846  134.3351  159.4887 H   0  0  0  0  0  0  0  0  0  0  0  0  # atno 6909 bound_to 6896
  145.1154  139.3425  143.4742 H   0  0  0  0  0  0  0  0  0  0  0  0  # atno 7974 bound_to 7965
  154.9377  140.0403  157.2081 H   0  0  0  0  0  0  0  0  0  0  0  0  # atno 8008 bound_to 7997
  154.8099  140.2866  155.5839 H   0  0  0  0  0  0  0  0  0  0  0  0  # atno 8009 bound_to 7997
  156.2970  140.2539  156.2985 H   0  0  0  0  0  0  0  0  0  0  0  0  # atno 8010 bound_to 7997
  139.5730  144.6949  151.3729 H   0  0  0  0  0  0  0  0  0  0  0  0  # atno 10167 bound_to 10162
  156.6324  130.8935  151.2980 H   0  0  0  0  0  0  0  0  0  0  0  0  # atno 10718 bound_to 10713
  154.8704  135.3706  154.4883 H   0  0  0  0  0  0  0  0  0  0  0  0  # atno 10763 bound_to 10752
  153.5532  135.7024  153.5586 H   0  0  0  0  0  0  0  0  0  0  0  0  # atno 10764 bound_to 10752
  153.3696  135.4025  155.1742 H   0  0  0  0  0  0  0  0  0  0  0  0  # atno 10765 bound_to 10752
  141.1581  133.6801  156.6814 H   0  0  0  0  0  0  0  0  0  0  0  0  # atno 11005 bound_to 11000
  146.3524  140.1090  142.8604 LP  0  0  0  0  0  0  0  0  0  0  0  0  # atno 17320 bound_to 7965
  145.0800  140.9214  143.4831 LP  0  0  0  0  0  0  0  0  0  0  0  0  # atno 17321 bound_to 7965
  140.7013  143.7623  150.7408 LP  0  0  0  0  0  0  0  0  0  0  0  0  # atno 17342 bound_to 10162
  140.1135  143.4677  152.2356 LP  0  0  0  0  0  0  0  0  0  0  0  0  # atno 17343 bound_to 10162
  157.7196  130.9541  150.1386 LP  0  0  0  0  0  0  0  0  0  0  0  0  # atno 17370 bound_to 10713
  156.2224  130.3675  149.8540 LP  0  0  0  0  0  0  0  0  0  0  0  0  # atno 17371 bound_to 10713
  140.3100  134.8094  157.4168 LP  0  0  0  0  0  0  0  0  0  0  0  0  # atno 17394 bound_to 11000
  140.1187  134.5248  155.8202 LP  0  0  0  0  0  0  0  0  0  0  0  0  # atno 17395 bound_to 11000

$$$$
