#       Name:                AV-unprocessed.smi:1563
#       Creating user name   scv26
#       Creation time:       Fri Mar 27 06:49:08 2020


#       File generated by GOLD software.
#

@<TRIPOS>MOLECULE
AV-unprocessed.smi:1563
    48    49     1
SMALL
NO_CHARGES


@<TRIPOS>ATOM
      1 ****        -2.8630   4.2027  -0.8471 C.3            1 S1                 0.0000
      2 ****        -1.9398   3.0022  -0.6706 C.2            1 S1                 0.0000
      3 ****        -0.9050   2.9154  -1.3321 O.2            1 S1                 0.0000
      4 ****        -2.3285   2.0831   0.2265 N.am           1 S1                 0.0000
      5 ****        -1.5903   0.8680   0.5526 C.3            1 S1                 0.0000
      6 ****        -2.5634  -0.2697   0.9275 C.3            1 S1                 0.0000
      7 ****        -1.8127  -1.5226   1.4226 C.3            1 S1                 0.0000
      8 ****        -0.7800  -1.1573   2.5053 C.3            1 S1                 0.0000
      9 ****         0.1231  -0.1289   1.9638 N.am           1 S1                 0.0000
     10 ****         1.3941  -0.3204   1.5330 C.2            1 S1                 0.0000
     11 ****         2.1058   0.5909   1.1082 O.2            1 S1                 0.0000
     12 ****         1.7912  -1.6055   1.5117 N.am           1 S1                 0.0000
     13 ****         3.0215  -2.1017   0.8980 C.3            1 S1                 0.0000
     14 ****         2.8014  -2.5802  -0.5532 C.3            1 S1                 0.0000
     15 ****         2.1370  -1.5477  -1.4500 C.ar           1 S1                 0.0000
     16 ****         0.7803  -1.6451  -1.8314 C.ar           1 S1                 0.0000
     17 ****         0.2132  -0.6281  -2.6272 C.ar           1 S1                 0.0000
     18 ****         1.0120   0.4638  -3.0243 C.ar           1 S1                 0.0000
     19 ****         2.3621   0.5073  -2.6215 C.ar           1 S1                 0.0000
     20 ****         2.8705  -0.4883  -1.8623 N.pl3          1 S1                 1.0000
     21 ****        -0.5943   1.1240   1.7039 C.3            1 S1                 0.0000
     22 ****        -3.0033   4.7185   0.1033 H              1 S1                 0.0000
     23 ****        -3.8381   3.8820  -1.2145 H              1 S1                 0.0000
     24 ****        -2.4449   4.9126  -1.5617 H              1 S1                 0.0000
     25 ****        -3.1941   2.2397   0.7226 H              1 S1                 0.0000
     26 ****        -1.0295   0.5461  -0.3264 H              1 S1                 0.0000
     27 ****        -3.2337   0.0732   1.7171 H              1 S1                 0.0000
     28 ****        -3.1951  -0.5250   0.0759 H              1 S1                 0.0000
     29 ****        -2.5222  -2.2542   1.8101 H              1 S1                 0.0000
     30 ****        -1.3048  -1.9988   0.5830 H              1 S1                 0.0000
     31 ****        -1.2896  -0.7592   3.3840 H              1 S1                 0.0000
     32 ****        -0.2618  -2.0503   2.8556 H              1 S1                 0.0000
     33 ****         1.1534  -2.2989   1.8753 H              1 S1                 0.0000
     34 ****         3.7950  -1.3324   0.9233 H              1 S1                 0.0000
     35 ****         3.3992  -2.9266   1.5021 H              1 S1                 0.0000
     36 ****         3.7562  -2.8696  -0.9937 H              1 S1                 0.0000
     37 ****         2.1877  -3.4819  -0.5461 H              1 S1                 0.0000
     38 ****         0.1760  -2.4795  -1.5064 H              1 S1                 0.0000
     39 ****        -0.8252  -0.6794  -2.9205 H              1 S1                 0.0000
     40 ****         0.5938   1.2589  -3.6244 H              1 S1                 0.0000
     41 ****         3.0437   1.3062  -2.8749 H              1 S1                 0.0000
     42 ****         0.0762   1.9467   1.4504 H              1 S1                 0.0000
     43 ****        -1.1222   1.4400   2.6051 H              1 S1                 0.0000
     44 ****         3.8464  -0.4279  -1.5710 H              1 S1                 0.0000
     45 ****        -0.6684   3.6332  -1.9869 LP             1 S1                 0.0000
     46 ****        -0.3010   2.1270  -1.2146 LP             1 S1                 0.0000
     47 ****         1.7517   1.5252   1.0694 LP             1 S1                 0.0000
     48 ****         3.0377   0.3963   0.8021 LP             1 S1                 0.0000
@<TRIPOS>BOND
    1    1    2 1     
    2    1   22 1     
    3    1   23 1     
    4    1   24 1     
    5    2    3 2     
    6    2    4 am    
    7    4    5 1     
    8    4   25 1     
    9    5   21 1     
   10    5    6 1     
   11    5   26 1     
   12    6    7 1     
   13    6   27 1     
   14    6   28 1     
   15    7    8 1     
   16    7   29 1     
   17    7   30 1     
   18    8    9 1     
   19    8   31 1     
   20    8   32 1     
   21    9   10 am    
   22    9   21 1     
   23   10   11 2     
   24   10   12 am    
   25   12   13 1     
   26   12   33 1     
   27   13   14 1     
   28   13   34 1     
   29   13   35 1     
   30   14   15 1     
   31   14   36 1     
   32   14   37 1     
   33   15   20 ar    
   34   15   16 ar    
   35   16   17 ar    
   36   16   38 1     
   37   17   18 ar    
   38   17   39 1     
   39   18   19 ar    
   40   18   40 1     
   41   19   20 ar    
   42   19   41 1     
   43   20   44 1     
   44   21   42 1     
   45   21   43 1     
   46    3   45 1     
   47    3   46 1     
   48   11   47 1     
   49   11   48 1     
@<TRIPOS>SUBSTRUCTURE
      1 S1             1
@<TRIPOS>SET
LONE_PAIRS      STATIC     ATOMS    <user>   **** ""
4 45 46 47 48
DONOR_HYDROGENS      STATIC     ATOMS    <user>   **** ""
3 25 33 44
ATOM$BLUE        STATIC     ATOMS    COLORGROUP SYSTEM
4 45 46 47 48
ATOM$RED        STATIC     ATOMS    COLORGROUP SYSTEM
3 25 33 44
