AV-unprocessed.smi:1209|AV-procd|sdf|5069|dock8
  -GOLD-   22720 4113D 1   1.00000     0.00000
 Structure written by MMmdl.
 48 50  0  0  0  0  0  0  0  0  1 V2000
  143.4022  145.3213  154.4649 C   0  0  0  0  0  0  0  0  0  0  0  0
  144.0523  144.0066  154.7285 C   0  0  0  0  0  0  0  0  0  0  0  0
  145.1245  143.3702  154.1715 C   0  0  0  0  0  0  0  0  0  0  0  0
  145.2015  142.1465  154.8930 C   0  0  0  0  0  0  0  0  0  0  0  0
  146.1900  141.0221  154.7277 C   0  0  0  0  0  0  0  0  0  0  0  0
  146.9710  140.7480  155.9356 N   0  0  0  0  0  0  0  0  0  0  0  0
  146.1374  140.1348  156.9702 C   0  0  0  0  0  0  0  0  0  0  0  0
  148.1343  139.9163  155.6128 C   0  0  0  0  0  0  0  0  0  0  0  0
  148.9099  140.3101  154.3385 C   0  0  2  0  0  0  0  0  0  0  0  0
  149.2988  139.1273  153.6667 O   0  0  0  0  0  0  0  0  0  0  0  0
  150.1660  141.1354  154.6776 C   0  0  0  0  0  0  0  0  0  0  0  0
  150.8688  140.6290  155.8438 N   0  0  0  0  0  0  0  0  0  0  0  0
  151.2768  139.3634  156.0575 C   0  0  0  0  0  0  0  0  0  0  0  0
  151.9078  139.1118  157.2009 N   0  0  0  0  0  0  0  0  0  0  0  0
  151.9100  140.3603  157.7991 C   0  0  0  0  0  0  0  0  0  0  0  0
  152.4303  140.7806  159.0430 C   0  0  0  0  0  0  0  0  0  0  0  0
  152.3143  142.1262  159.4595 C   0  0  0  0  0  0  0  0  0  0  0  0
  152.8867  142.5349  160.8055 C   0  0  0  0  0  0  0  0  0  0  0  0
  151.6698  143.0751  158.6259 C   0  0  0  0  0  0  0  0  0  0  0  0
  151.5315  144.5255  159.0529 C   0  0  0  0  0  0  0  0  0  0  0  0
  151.1465  142.6725  157.3794 C   0  0  0  0  0  0  0  0  0  0  0  0
  151.2679  141.3311  156.9761 C   0  0  0  0  0  0  0  0  0  0  0  0
  144.2494  142.0561  155.8073 N   0  0  0  0  0  0  0  0  0  0  0  0
  143.5103  143.2403  155.7099 O   0  0  0  0  0  0  0  0  0  0  0  0
  144.0902  146.0010  153.9621 H   0  0  0  0  0  0  0  0  0  0  0  0
  143.0835  145.7917  155.3953 H   0  0  0  0  0  0  0  0  0  0  0  0
  142.5250  145.1965  153.8299 H   0  0  0  0  0  0  0  0  0  0  0  0
  145.7593  143.7236  153.3726 H   0  0  0  0  0  0  0  0  0  0  0  0
  145.6817  140.1121  154.4043 H   0  0  0  0  0  0  0  0  0  0  0  0
  146.8664  141.2880  153.9145 H   0  0  0  0  0  0  0  0  0  0  0  0
  146.6856  140.0033  157.9015 H   0  0  0  0  0  0  0  0  0  0  0  0
  145.7678  139.1594  156.6514 H   0  0  0  0  0  0  0  0  0  0  0  0
  145.2759  140.7600  157.2054 H   0  0  0  0  0  0  0  0  0  0  0  0
  148.8174  139.9209  156.4639 H   0  0  0  0  0  0  0  0  0  0  0  0
  147.8182  138.8782  155.4985 H   0  0  0  0  0  0  0  0  0  0  0  0
  148.2873  140.8992  153.6668 H   0  0  0  0  0  0  0  0  0  0  0  0
  149.5847  139.3575  152.7958 H   0  0  0  0  0  0  0  0  0  0  0  0
  150.8583  141.1282  153.8346 H   0  0  0  0  0  0  0  0  0  0  0  0
  149.9039  142.1797  154.8537 H   0  0  0  0  0  0  0  0  0  0  0  0
  151.0994  138.5822  155.3326 H   0  0  0  0  0  0  0  0  0  0  0  0
  152.9203  140.0573  159.6781 H   0  0  0  0  0  0  0  0  0  0  0  0
  153.6438  143.3090  160.6792 H   0  0  0  0  0  0  0  0  0  0  0  0
  153.3534  141.6903  161.3127 H   0  0  0  0  0  0  0  0  0  0  0  0
  152.0999  142.9210  161.4537 H   0  0  0  0  0  0  0  0  0  0  0  0
  150.9925  145.1099  158.3067 H   0  0  0  0  0  0  0  0  0  0  0  0
  152.5134  144.9793  159.1884 H   0  0  0  0  0  0  0  0  0  0  0  0
  150.9831  144.5974  159.9923 H   0  0  0  0  0  0  0  0  0  0  0  0
  150.6514  143.3845  156.7356 H   0  0  0  0  0  0  0  0  0  0  0  0
  1  2  1  0  0  0  0
  1 25  1  0  0  0  0
  1 26  1  0  0  0  0
  1 27  1  0  0  0  0
  2 24  1  0  0  0  0
  2  3  2  0  0  0  0
  3  4  1  0  0  0  0
  3 28  1  0  0  0  0
  4  5  1  0  0  0  0
  4 23  2  0  0  0  0
  5  6  1  0  0  0  0
  5 29  1  0  0  0  0
  5 30  1  0  0  0  0
  6  7  1  0  0  0  0
  6  8  1  0  0  0  0
  7 31  1  0  0  0  0
  7 32  1  0  0  0  0
  7 33  1  0  0  0  0
  8  9  1  0  0  0  0
  8 34  1  0  0  0  0
  8 35  1  0  0  0  0
  9 10  1  0  0  0  0
  9 11  1  0  0  0  0
  9 36  1  0  0  0  0
 10 37  1  0  0  0  0
 11 12  1  0  0  0  0
 11 38  1  0  0  0  0
 11 39  1  0  0  0  0
 12 22  1  0  0  0  0
 12 13  1  0  0  0  0
 13 14  2  0  0  0  0
 13 40  1  0  0  0  0
 14 15  1  0  0  0  0
 15 22  2  0  0  0  0
 15 16  1  0  0  0  0
 16 17  2  0  0  0  0
 16 41  1  0  0  0  0
 17 18  1  0  0  0  0
 17 19  1  0  0  0  0
 18 42  1  0  0  0  0
 18 43  1  0  0  0  0
 18 44  1  0  0  0  0
 19 20  1  0  0  0  0
 19 21  2  0  0  0  0
 20 45  1  0  0  0  0
 20 46  1  0  0  0  0
 20 47  1  0  0  0  0
 21 22  1  0  0  0  0
 21 48  1  0  0  0  0
 23 24  1  0  0  0  0
M  END
> <s_m_source_file>
AV-unprocessed.smi

> <i_m_source_file_index>
1209

> <i_lp_mmshare_version>
43012

> <i_f3d_flags>
0

> <s_epik_input>
W0NIM11jMVtjSF1jKG5vMSlbQ0gyXU4oW0NIM10pW0NIMl1bQ0BIXShbT0hdKVtDSDJdbihbY0hdbjIpYyhjMjMpW2NIXWMoW0NIM10pYyhbY0hdMylbQ0gzXQ==

> <s_epik_cmdline>
J2VwaWtfcHl0aG9uJywgJy1waCcsICc3LjAnLCAnLXRuJywgJzgnLCAnLW1hJywgJzIwMCcsICctbWV0YWxfYmluZGluZycsICctaW1hZScsICc8aW5maWxlLm1hZT4nLCAnLW9tYWUnLCAnPG91dGZpbGUubWFlPic=

> <r_epik_Ionization_Penalty>
0.103258

> <r_epik_Ionization_Penalty_Charging>
0

> <r_epik_Ionization_Penalty_Neutral>
0.103258

> <r_epik_State_Penalty>
0.0919675

> <r_epik_Charging_Adjusted_Penalty>
0.0919675

> <i_epik_Tot_Q>
0

> <i_epik_Tot_abs_Q>
0

> <r_epik_Metal_State_Penalty>
0.0812522

> <b_epik_Metal_Only>
0

> <s_lp_Force_Field>
OPLS_2005

> <r_lp_Energy>
18.8485

> <b_lp_Chiralities_Consistent>
1

> <s_lp_Variant>
AV-unprocessed.smi:1209-1

> <Gold.Version>
5.8.1

> <Gold.Id.Protein>
6NUR|6NUR_protein|mol2

> <Gold.PLP.Fitness>
45.3969

> <Gold.PLP.PLP>
-44.1460

> <Gold.PLP.part.hbond>
-1.0000

> <Gold.PLP.part.metal>
0.0000

> <Gold.PLP.part.buried>
-3.6955

> <Gold.PLP.part.nonpolar>
-39.0657

> <Gold.PLP.part.repulsive>
0.2490

> <Gold.PLP.ligand.clash>
0.0000

> <Gold.PLP.ligand.torsion>
0.9754

> <Gold.PLP.Chemscore.Hbond>
1.0000

> <Gold.PLP.Chemscore.CHOScore>
0.0000

> <Gold.PLP.Chemscore.Metal>
0.0000

> <Gold.Chemscore.Hbonds>
donor molecule, donor type, donor heavy atom, donor atom, acceptor molecule, acceptor atom, score
      L1  H    10    37       P1  7957  1.00

> <Gold.PLP.Chemscore.Internal.Correction>
0.2017

> <Gold.Rescore>
     Score         DG    S(hbond)    S(metal)    S(lipo)     H(rot)  DE(clash)    DE(int)     intcor
     13.91     -17.10       0.99        0.00     124.46       2.45       2.11       1.07       ----

> <Gold.Chemscore.Fitness>
13.9134

> <Gold.Chemscore.DG>
-17.1010

> <Gold.Chemscore.ZeroCoef>
-5.4800

> <Gold.Chemscore.Hbond>
0.9943

> <Gold.Chemscore.Metal>
0.0000

> <Gold.Chemscore.Lipo>
124.4630

> <Gold.Chemscore.Internal_Hbond>
0.0000

> <Gold.Chemscore.DEClash>
2.1138

> <Gold.Chemscore.DEInternal>
1.0737

> <Gold.Chemscore.Rot>
2.4462

> <Gold.Chemscore.Internal.Correction>
   9.000000E+99

> <Gold.Chemscore.Hbonds>
donor molecule, donor type, donor heavy atom, donor atom, acceptor molecule, acceptor atom, score
      L1  H    10    37       P1  7957  1.00

> <Gold.Chemscore.Hbond.Weighted>
-3.3211

> <Gold.Chemscore.Metal.Weighted>
-0.0000

> <Gold.Chemscore.Lipo.Weighted>
-14.5622

> <Gold.Chemscore.Internal_Hbond.Weighted>
0.0000

> <Gold.Chemscore.DEClash.Weighted>
2.1138

> <Gold.Chemscore.DEInternal.Weighted>
1.0737

> <Gold.Chemscore.Rot.Weighted>
6.2623

> <Gold.Chemscore.Internal.Correction.Weighted>
   9.000000E+99

> <Gold.Protein.RotatedTorsions>
[ 6907 6896 6895 6894 ] final   24.67 input  -60.11 | X-H torsion
[ 7974 7965 7964 7962 ] final   46.27 input  175.53 | X-H torsion
[ 8008 7997 7996 7995 ] final   84.11 input   59.86 | X-H torsion
[ 10167 10162 10161 10158 ] final  -75.88 input  -65.29 | X-H torsion
[ 10718 10713 10712 10709 ] final -153.28 input   66.30 | X-H torsion
[ 10763 10752 10751 10750 ] final   94.61 input  -60.55 | X-H torsion
[ 11005 11000 10999 10996 ] final   -3.94 input  -57.11 | X-H torsion

> <Gold.Protein.ActiveResidues>
 VAL166  LYS551  ARG553  GLY616  TRP617  ASP618  TYR619  PRO620  LYS621  CYS622 
 ASP623  PHE694  ASN695  SER759  ASP760  ASP761  ALA762  ILE779  LEU786  VAL792 
 PHE793  MET794  SER795  GLU796  ALA797  LYS798  CYS799  TRP800  GLU811  SER814 

> <Gold.Protein.RotatedAtoms>
  151.9610  135.0123  160.0547 H   0  0  0  0  0  0  0  0  0  0  0  0  # atno 6907 bound_to 6896
  152.1868  133.4741  159.4995 H   0  0  0  0  0  0  0  0  0  0  0  0  # atno 6908 bound_to 6896
  150.6927  134.1680  159.4244 H   0  0  0  0  0  0  0  0  0  0  0  0  # atno 6909 bound_to 6896
  146.0405  139.4874  142.9781 H   0  0  0  0  0  0  0  0  0  0  0  0  # atno 7974 bound_to 7965
  155.9328  140.3413  155.6263 H   0  0  0  0  0  0  0  0  0  0  0  0  # atno 8008 bound_to 7997
  155.7137  140.0775  157.2379 H   0  0  0  0  0  0  0  0  0  0  0  0  # atno 8009 bound_to 7997
  154.4088  140.1618  156.2312 H   0  0  0  0  0  0  0  0  0  0  0  0  # atno 8010 bound_to 7997
  140.4905  143.2381  151.7915 H   0  0  0  0  0  0  0  0  0  0  0  0  # atno 10167 bound_to 10162
  156.4837  130.8315  151.2541 H   0  0  0  0  0  0  0  0  0  0  0  0  # atno 10718 bound_to 10713
  153.2436  135.4283  155.0723 H   0  0  0  0  0  0  0  0  0  0  0  0  # atno 10763 bound_to 10752
  154.8351  135.3408  154.6614 H   0  0  0  0  0  0  0  0  0  0  0  0  # atno 10764 bound_to 10752
  153.7037  135.7027  153.5112 H   0  0  0  0  0  0  0  0  0  0  0  0  # atno 10765 bound_to 10752
  140.6749  133.9204  155.8518 H   0  0  0  0  0  0  0  0  0  0  0  0  # atno 11005 bound_to 11000
  145.6892  141.0169  143.1564 LP  0  0  0  0  0  0  0  0  0  0  0  0  # atno 17320 bound_to 7965
  144.7072  139.8513  143.7426 LP  0  0  0  0  0  0  0  0  0  0  0  0  # atno 17321 bound_to 7965
  139.4850  144.4655  151.9489 LP  0  0  0  0  0  0  0  0  0  0  0  0  # atno 17342 bound_to 10162
  140.3742  144.2817  150.5916 LP  0  0  0  0  0  0  0  0  0  0  0  0  # atno 17343 bound_to 10162
  157.7481  131.0036  150.3046 LP  0  0  0  0  0  0  0  0  0  0  0  0  # atno 17370 bound_to 10713
  156.3496  130.3828  149.7340 LP  0  0  0  0  0  0  0  0  0  0  0  0  # atno 17371 bound_to 10713
  141.0363  134.0684  157.3955 LP  0  0  0  0  0  0  0  0  0  0  0  0  # atno 17394 bound_to 11000
  139.8970  135.0148  156.7078 LP  0  0  0  0  0  0  0  0  0  0  0  0  # atno 17395 bound_to 11000

$$$$
