AV-unprocessed.smi:2353|AV-procd|sdf|9382|dock10
  -GOLD-   2272013 13D 1   1.00000     0.00000
 Structure written by MMmdl.
 46 48  0  0  0  0  0  0  0  0  2 V2000
  150.6991  144.3229  159.4952 C   0  0  0  0  0  0  0  0  0  0  0  0
  151.6907  143.1877  159.6451 C   0  0  0  0  0  0  0  0  0  0  0  0
  152.5795  143.1593  160.7370 C   0  0  0  0  0  0  0  0  0  0  0  0
  153.4931  142.0985  160.8711 C   0  0  0  0  0  0  0  0  0  0  0  0
  153.5252  141.0617  159.9156 C   0  0  0  0  0  0  0  0  0  0  0  0
  154.5192  139.9265  160.0751 C   0  0  0  0  0  0  0  0  0  0  0  0
  152.6400  141.0790  158.8128 C   0  0  0  0  0  0  0  0  0  0  0  0
  152.7255  140.0355  157.9141 O   0  0  0  0  0  0  0  0  0  0  0  0
  151.6782  139.8637  156.9688 C   0  0  0  0  0  0  0  0  0  0  0  0
  152.1595  138.9029  155.8688 C   0  0  2  0  0  0  0  0  0  0  0  0
  153.0819  139.6141  155.0654 O   0  0  0  0  0  0  0  0  0  0  0  0
  150.9989  138.4417  154.9593 C   0  0  0  0  0  0  0  0  0  0  0  0
  150.3935  137.1915  155.4337 N   0  0  0  0  0  0  0  0  0  0  0  0
  149.0111  137.2203  155.4833 N   0  0  0  0  0  0  0  0  0  0  0  0
  148.3383  136.1824  155.8645 C   0  0  0  0  0  0  0  0  0  0  0  0
  146.8864  136.1568  155.9244 N   0  0  0  0  0  0  0  0  0  0  0  0
  146.0343  135.1614  156.3392 C   0  0  0  0  0  0  0  0  0  0  0  0
  144.7644  135.6576  156.1887 C   0  0  0  0  0  0  0  0  0  0  0  0
  144.8948  136.9274  155.6911 N   0  3  0  0  0  0  0  0  0  0  0  0
  146.1870  137.2328  155.5290 C   0  0  0  0  0  0  0  0  0  0  0  0
  149.0398  134.9697  156.2566 C   0  0  0  0  0  0  0  0  0  0  0  0
  150.3891  134.9514  156.2049 C   0  0  0  0  0  0  0  0  0  0  0  0
  151.1618  136.1124  155.7662 C   0  0  0  0  0  0  0  0  0  0  0  0
  152.3904  136.1177  155.6972 O   0  0  0  0  0  0  0  0  0  0  0  0
  151.7212  142.1525  158.6890 C   0  0  0  0  0  0  0  0  0  0  0  0
  150.9094  145.1301  160.1978 H   0  0  0  0  0  0  0  0  0  0  0  0
  149.6863  143.9645  159.6801 H   0  0  0  0  0  0  0  0  0  0  0  0
  150.7398  144.7330  158.4858 H   0  0  0  0  0  0  0  0  0  0  0  0
  152.5639  143.9481  161.4751 H   0  0  0  0  0  0  0  0  0  0  0  0
  154.1706  142.0845  161.7123 H   0  0  0  0  0  0  0  0  0  0  0  0
  155.2143  139.9137  159.2350 H   0  0  0  0  0  0  0  0  0  0  0  0
  153.9995  138.9685  160.1062 H   0  0  0  0  0  0  0  0  0  0  0  0
  155.0981  140.0276  160.9935 H   0  0  0  0  0  0  0  0  0  0  0  0
  150.8234  139.4241  157.4851 H   0  0  0  0  0  0  0  0  0  0  0  0
  151.3581  140.8157  156.5410 H   0  0  0  0  0  0  0  0  0  0  0  0
  152.6494  138.0429  156.3275 H   0  0  0  0  0  0  0  0  0  0  0  0
  152.9916  140.5365  155.2498 H   0  0  0  0  0  0  0  0  0  0  0  0
  150.2250  139.2108  154.9249 H   0  0  0  0  0  0  0  0  0  0  0  0
  151.3363  138.3430  153.9255 H   0  0  0  0  0  0  0  0  0  0  0  0
  146.3653  134.1999  156.7019 H   0  0  0  0  0  0  0  0  0  0  0  0
  143.8015  135.2126  156.3935 H   0  0  0  0  0  0  0  0  0  0  0  0
  146.5716  138.1647  155.1527 H   0  0  0  0  0  0  0  0  0  0  0  0
  148.5084  134.0904  156.5850 H   0  0  0  0  0  0  0  0  0  0  0  0
  150.9153  134.0535  156.4943 H   0  0  0  0  0  0  0  0  0  0  0  0
  151.0250  142.2033  157.8657 H   0  0  0  0  0  0  0  0  0  0  0  0
  144.1246  137.5480  155.4750 H   0  0  0  0  0  0  0  0  0  0  0  0
  1  2  1  0  0  0  0
  1 26  1  0  0  0  0
  1 27  1  0  0  0  0
  1 28  1  0  0  0  0
  2 25  1  0  0  0  0
  2  3  2  0  0  0  0
  3  4  1  0  0  0  0
  3 29  1  0  0  0  0
  4  5  2  0  0  0  0
  4 30  1  0  0  0  0
  5  6  1  0  0  0  0
  5  7  1  0  0  0  0
  6 31  1  0  0  0  0
  6 32  1  0  0  0  0
  6 33  1  0  0  0  0
  7  8  1  0  0  0  0
  7 25  2  0  0  0  0
  8  9  1  0  0  0  0
  9 10  1  0  0  0  0
  9 34  1  0  0  0  0
  9 35  1  0  0  0  0
 10 11  1  0  0  0  0
 10 12  1  0  0  0  0
 10 36  1  0  0  0  0
 11 37  1  0  0  0  0
 12 13  1  0  0  0  0
 12 38  1  0  0  0  0
 12 39  1  0  0  0  0
 13 23  1  0  0  0  0
 13 14  1  0  0  0  0
 14 15  2  0  0  0  0
 15 16  1  0  0  0  0
 15 21  1  0  0  0  0
 16 20  1  0  0  0  0
 16 17  1  0  0  0  0
 17 18  2  0  0  0  0
 17 40  1  0  0  0  0
 18 19  1  0  0  0  0
 18 41  1  0  0  0  0
 19 20  2  0  0  0  0
 19 46  1  0  0  0  0
 20 42  1  0  0  0  0
 21 22  2  0  0  0  0
 21 43  1  0  0  0  0
 22 23  1  0  0  0  0
 22 44  1  0  0  0  0
 23 24  2  0  0  0  0
 25 45  1  0  0  0  0
M  CHG  1  19   1
M  END
> <s_m_source_file>
AV-unprocessed.smi

> <i_m_source_file_index>
2353

> <i_lp_mmshare_version>
43012

> <i_f3d_flags>
0

> <s_epik_input>
W0NIM11jMVtjSF1bY0hdYyhbQ0gzXSljKFtjSF0xKU9bQ0gyXVtDQEhdKFtPSF0pW0NIMl1uMm5jKFtjSF1bY0hdYzI9TyktbjNbY0hdW2NIXW5bY0hdMw==

> <s_epik_cmdline>
J2VwaWtfcHl0aG9uJywgJy1waCcsICc3LjAnLCAnLXRuJywgJzgnLCAnLW1hJywgJzIwMCcsICctbWV0YWxfYmluZGluZycsICctaW1hZScsICc8aW5maWxlLm1hZT4nLCAnLW9tYWUnLCAnPG91dGZpbGUubWFlPic=

> <r_lp_tautomer_probability>
1

> <r_epik_Ionization_Penalty>
1.66053

> <r_epik_Ionization_Penalty_Charging>
2.43903e-09

> <r_epik_Ionization_Penalty_Neutral>
1.66053

> <r_epik_State_Penalty>
1.76336

> <r_epik_Charging_Adjusted_Penalty>
1.76336

> <i_epik_Tot_Q>
1

> <i_epik_Tot_abs_Q>
1

> <r_epik_Metal_State_Penalty>
1.79856

> <b_epik_Metal_Only>
0

> <s_lp_Force_Field>
OPLS_2005

> <r_lp_Energy>
37.6947

> <b_lp_Chiralities_Consistent>
1

> <s_lp_Variant>
AV-unprocessed.smi:2353-3

> <Gold.Version>
5.8.1

> <Gold.Id.Protein>
6NUR|6NUR_protein|mol2

> <Gold.PLP.Fitness>
53.4038

> <Gold.PLP.PLP>
-42.9934

> <Gold.PLP.part.hbond>
-3.6844

> <Gold.PLP.part.metal>
0.0000

> <Gold.PLP.part.buried>
-6.8823

> <Gold.PLP.part.nonpolar>
-33.1924

> <Gold.PLP.part.repulsive>
0.2363

> <Gold.PLP.ligand.clash>
0.0000

> <Gold.PLP.ligand.torsion>
0.8086

> <Gold.PLP.Chemscore.Hbond>
4.0000

> <Gold.PLP.Chemscore.CHOScore>
0.0000

> <Gold.PLP.Chemscore.Metal>
0.0000

> <Gold.Chemscore.Hbonds>
donor molecule, donor type, donor heavy atom, donor atom, acceptor molecule, acceptor atom, score
      P1  H  7997  8010       L1     8  0.98
      P1  H 10752 10763       L1    24  0.33

> <Gold.PLP.Chemscore.Internal.Correction>
0.0276

> <Gold.Rescore>
     Score         DG    S(hbond)    S(metal)    S(lipo)     H(rot)  DE(clash)    DE(int)     intcor
     17.83     -19.52       2.65        0.00     102.41       2.65       0.01       1.69       ----

> <Gold.Chemscore.Fitness>
17.8272

> <Gold.Chemscore.DG>
-19.5211

> <Gold.Chemscore.ZeroCoef>
-5.4800

> <Gold.Chemscore.Hbond>
2.6507

> <Gold.Chemscore.Metal>
0.0000

> <Gold.Chemscore.Lipo>
102.4056

> <Gold.Chemscore.Internal_Hbond>
0.0000

> <Gold.Chemscore.DEClash>
0.0060

> <Gold.Chemscore.DEInternal>
1.6879

> <Gold.Chemscore.Rot>
2.6537

> <Gold.Chemscore.Internal.Correction>
   9.000000E+99

> <Gold.Chemscore.Hbonds>
donor molecule, donor type, donor heavy atom, donor atom, acceptor molecule, acceptor atom, score
      P1  H  7997  8010       L1     8  0.52
      P1  H 10752 10763       L1    24  0.31

> <Gold.Chemscore.Hbond.Weighted>
-8.8532

> <Gold.Chemscore.Metal.Weighted>
-0.0000

> <Gold.Chemscore.Lipo.Weighted>
-11.9815

> <Gold.Chemscore.Internal_Hbond.Weighted>
0.0000

> <Gold.Chemscore.DEClash.Weighted>
0.0060

> <Gold.Chemscore.DEInternal.Weighted>
1.6879

> <Gold.Chemscore.Rot.Weighted>
6.7935

> <Gold.Chemscore.Internal.Correction.Weighted>
   9.000000E+99

> <Gold.Protein.RotatedTorsions>
[ 6907 6896 6895 6894 ] final   14.51 input  -60.11 | X-H torsion
[ 7974 7965 7964 7962 ] final   97.26 input  175.53 | X-H torsion
[ 8008 7997 7996 7995 ] final   39.83 input   59.86 | X-H torsion
[ 10167 10162 10161 10158 ] final   23.82 input  -65.29 | X-H torsion
[ 10718 10713 10712 10709 ] final  109.44 input   66.30 | X-H torsion
[ 10763 10752 10751 10750 ] final   62.74 input  -60.55 | X-H torsion
[ 11005 11000 10999 10996 ] final   -8.71 input  -57.11 | X-H torsion

> <Gold.Protein.ActiveResidues>
 VAL166  LYS551  ARG553  GLY616  TRP617  ASP618  TYR619  PRO620  LYS621  CYS622 
 ASP623  PHE694  ASN695  SER759  ASP760  ASP761  ALA762  ILE779  LEU786  VAL792 
 PHE793  MET794  SER795  GLU796  ALA797  LYS798  CYS799  TRP800  GLU811  SER814 

> <Gold.Protein.RotatedAtoms>
  151.8034  135.0702  160.0403 H   0  0  0  0  0  0  0  0  0  0  0  0  # atno 6907 bound_to 6896
  152.3072  133.5711  159.5665 H   0  0  0  0  0  0  0  0  0  0  0  0  # atno 6908 bound_to 6896
  150.7302  134.0121  159.3715 H   0  0  0  0  0  0  0  0  0  0  0  0  # atno 6909 bound_to 6896
  145.4279  139.2314  143.3160 H   0  0  0  0  0  0  0  0  0  0  0  0  # atno 7974 bound_to 7965
  155.2431  140.3347  155.4290 H   0  0  0  0  0  0  0  0  0  0  0  0  # atno 8008 bound_to 7997
  156.2247  140.1824  156.7436 H   0  0  0  0  0  0  0  0  0  0  0  0  # atno 8009 bound_to 7997
  154.5880  140.0642  156.9184 H   0  0  0  0  0  0  0  0  0  0  0  0  # atno 8010 bound_to 7997
  140.5238  143.9958  150.6430 H   0  0  0  0  0  0  0  0  0  0  0  0  # atno 10167 bound_to 10162
  157.6541  131.0913  150.6453 H   0  0  0  0  0  0  0  0  0  0  0  0  # atno 10718 bound_to 10713
  152.9993  135.5454  154.6240 H   0  0  0  0  0  0  0  0  0  0  0  0  # atno 10763 bound_to 10752
  154.5533  135.2828  155.0990 H   0  0  0  0  0  0  0  0  0  0  0  0  # atno 10764 bound_to 10752
  154.2221  135.6448  153.5201 H   0  0  0  0  0  0  0  0  0  0  0  0  # atno 10765 bound_to 10752
  140.7264  133.8785  155.8859 H   0  0  0  0  0  0  0  0  0  0  0  0  # atno 11005 bound_to 11000
  146.2623  140.5012  142.8848 LP  0  0  0  0  0  0  0  0  0  0  0  0  # atno 17320 bound_to 7965
  144.8202  140.6537  143.6358 LP  0  0  0  0  0  0  0  0  0  0  0  0  # atno 17321 bound_to 7965
  140.3314  143.3075  152.0683 LP  0  0  0  0  0  0  0  0  0  0  0  0  # atno 17342 bound_to 10162
  139.4932  144.6506  151.6683 LP  0  0  0  0  0  0  0  0  0  0  0  0  # atno 17343 bound_to 10162
  156.6762  130.4554  149.5642 LP  0  0  0  0  0  0  0  0  0  0  0  0  # atno 17370 bound_to 10713
  156.1962  130.6591  151.1117 LP  0  0  0  0  0  0  0  0  0  0  0  0  # atno 17371 bound_to 10713
  140.9959  134.1216  157.4364 LP  0  0  0  0  0  0  0  0  0  0  0  0  # atno 17394 bound_to 11000
  139.8836  135.0054  156.6312 LP  0  0  0  0  0  0  0  0  0  0  0  0  # atno 17395 bound_to 11000

$$$$
