AV-unprocessed.smi:7|AV-procd|sdf|44|dock2
  -GOLD-   2262015163D 1   1.00000     0.00000
 Structure written by MMmdl.
 45 48  0  0  0  0  0  0  0  0  1 V2000
  152.3174  138.0499  155.7412 O   0  0  0  0  0  0  0  0  0  0  0  0
  151.8431  139.1597  155.9862 C   0  0  0  0  0  0  0  0  0  0  0  0
  152.2517  139.9543  157.1679 C   0  0  0  0  0  0  0  0  0  0  0  0
  153.1539  139.6602  158.1894 N   0  0  0  0  0  0  0  0  0  0  0  0
  153.0927  140.7461  158.9591 C   0  0  0  0  0  0  0  0  0  0  0  0
  152.2372  141.6840  158.5106 N   0  0  0  0  0  0  0  0  0  0  0  0
  152.0685  142.9009  159.2111 C   0  0  0  0  0  0  0  0  0  0  0  0
  151.5932  144.0552  158.5486 C   0  0  0  0  0  0  0  0  0  0  0  0
  151.4338  145.2628  159.2563 C   0  0  0  0  0  0  0  0  0  0  0  0
  151.7493  145.3237  160.6274 C   0  0  0  0  0  0  0  0  0  0  0  0
  152.2257  144.1768  161.2910 C   0  0  0  0  0  0  0  0  0  0  0  0
  152.3860  142.9685  160.5850 C   0  0  0  0  0  0  0  0  0  0  0  0
  151.6821  141.1861  157.3403 C   0  0  0  0  0  0  0  0  0  0  0  0
  150.7500  141.8190  156.5499 N   0  0  0  0  0  0  0  0  0  0  0  0
  150.4035  141.0901  155.5209 C   0  0  0  0  0  0  0  0  0  0  0  0
  150.9003  139.7851  155.2208 N   0  0  0  0  0  0  0  0  0  0  0  0
  150.3563  139.1364  154.0187 C   0  0  0  0  0  0  0  0  0  0  0  0
  148.8266  138.9074  154.1254 C   0  0  1  0  0  0  0  0  0  0  0  0
  148.3580  138.5396  152.8412 O   0  0  0  0  0  0  0  0  0  0  0  0
  148.4385  137.8081  155.1522 C   0  0  0  0  0  0  0  0  0  0  0  0
  148.9701  136.5793  154.6849 O   0  0  0  0  0  0  0  0  0  0  0  0
  148.9975  138.0209  156.5687 C   0  0  0  0  0  0  0  0  0  0  0  0
  148.1434  137.1261  157.4735 C   0  0  0  0  0  0  0  0  0  0  0  0
  146.7835  136.9828  156.7730 C   0  0  0  0  0  0  0  0  0  0  0  0
  146.9284  137.6264  155.3854 C   0  0  0  0  0  0  0  0  0  0  0  0
  153.6873  140.8546  159.8548 H   0  0  0  0  0  0  0  0  0  0  0  0
  151.3544  144.0227  157.4955 H   0  0  0  0  0  0  0  0  0  0  0  0
  151.0709  146.1431  158.7464 H   0  0  0  0  0  0  0  0  0  0  0  0
  151.6271  146.2501  161.1695 H   0  0  0  0  0  0  0  0  0  0  0  0
  152.4681  144.2233  162.3425 H   0  0  0  0  0  0  0  0  0  0  0  0
  152.7487  142.0931  161.1032 H   0  0  0  0  0  0  0  0  0  0  0  0
  149.6788  141.4598  154.7933 H   0  0  0  0  0  0  0  0  0  0  0  0
  150.6038  139.6992  153.1160 H   0  0  0  0  0  0  0  0  0  0  0  0
  150.8742  138.1869  153.8736 H   0  0  0  0  0  0  0  0  0  0  0  0
  148.3231  139.8337  154.4076 H   0  0  0  0  0  0  0  0  0  0  0  0
  148.7090  137.6888  152.6253 H   0  0  0  0  0  0  0  0  0  0  0  0
  149.1101  136.6510  153.7532 H   0  0  0  0  0  0  0  0  0  0  0  0
  150.0633  137.8013  156.6461 H   0  0  0  0  0  0  0  0  0  0  0  0
  148.8610  139.0558  156.8836 H   0  0  0  0  0  0  0  0  0  0  0  0
  148.6107  136.1449  157.5671 H   0  0  0  0  0  0  0  0  0  0  0  0
  148.0484  137.5370  158.4792 H   0  0  0  0  0  0  0  0  0  0  0  0
  146.5169  135.9291  156.6837 H   0  0  0  0  0  0  0  0  0  0  0  0
  145.9909  137.4704  157.3416 H   0  0  0  0  0  0  0  0  0  0  0  0
  146.4331  138.5979  155.4012 H   0  0  0  0  0  0  0  0  0  0  0  0
  146.4457  137.0388  154.6032 H   0  0  0  0  0  0  0  0  0  0  0  0
  1  2  2  0  0  0  0
  2 16  1  0  0  0  0
  2  3  1  0  0  0  0
  3 13  2  0  0  0  0
  3  4  1  0  0  0  0
  4  5  2  0  0  0  0
  5  6  1  0  0  0  0
  5 26  1  0  0  0  0
  6  7  1  0  0  0  0
  6 13  1  0  0  0  0
  7 12  1  0  0  0  0
  7  8  2  0  0  0  0
  8  9  1  0  0  0  0
  8 27  1  0  0  0  0
  9 10  2  0  0  0  0
  9 28  1  0  0  0  0
 10 11  1  0  0  0  0
 10 29  1  0  0  0  0
 11 12  2  0  0  0  0
 11 30  1  0  0  0  0
 12 31  1  0  0  0  0
 13 14  1  0  0  0  0
 14 15  2  0  0  0  0
 15 16  1  0  0  0  0
 15 32  1  0  0  0  0
 16 17  1  0  0  0  0
 17 18  1  0  0  0  0
 17 33  1  0  0  0  0
 17 34  1  0  0  0  0
 18 19  1  0  0  0  0
 18 20  1  0  0  0  0
 18 35  1  0  0  0  0
 19 36  1  0  0  0  0
 20 25  1  0  0  0  0
 20 21  1  0  0  0  0
 20 22  1  0  0  0  0
 21 37  1  0  0  0  0
 22 23  1  0  0  0  0
 22 38  1  0  0  0  0
 22 39  1  0  0  0  0
 23 24  1  0  0  0  0
 23 40  1  0  0  0  0
 23 41  1  0  0  0  0
 24 25  1  0  0  0  0
 24 42  1  0  0  0  0
 24 43  1  0  0  0  0
 25 44  1  0  0  0  0
 25 45  1  0  0  0  0
M  END
> <s_m_source_file>
AV-unprocessed.smi

> <i_m_source_file_index>
7

> <i_lp_mmshare_version>
43012

> <i_f3d_flags>
0

> <s_epik_input>
W0NIMl0xW0NIMl1bQ0gyXVtDSDJdQzEoW09IXSlbQ0BASF0oW09IXSlbQ0gyXW4oYzI9TylbY0hdbmMoYzIzKW4oW2NIXW4zKS1jNFtjSF1bY0hdW2NIXVtjSF1bY0hdNA==

> <s_epik_cmdline>
J2VwaWtfcHl0aG9uJywgJy1waCcsICc3LjAnLCAnLXRuJywgJzgnLCAnLW1hJywgJzIwMCcsICctbWV0YWxfYmluZGluZycsICctaW1hZScsICc8aW5maWxlLm1hZT4nLCAnLW9tYWUnLCAnPG91dGZpbGUubWFlPic=

> <r_lp_tautomer_probability>
1

> <r_epik_Ionization_Penalty>
0.000116694

> <r_epik_Ionization_Penalty_Charging>
6.60428e-09

> <r_epik_Ionization_Penalty_Neutral>
0.000116688

> <r_epik_State_Penalty>
-0

> <r_epik_Charging_Adjusted_Penalty>
6.60428e-09

> <i_epik_Tot_Q>
0

> <i_epik_Tot_abs_Q>
0

> <r_epik_Metal_State_Penalty>
-0

> <b_epik_Metal_Only>
0

> <s_lp_Force_Field>
OPLS_2005

> <r_lp_Energy>
52.8935

> <b_lp_Chiralities_Consistent>
1

> <s_lp_Variant>
AV-unprocessed.smi:7-2

> <Gold.Version>
5.8.1

> <Gold.Id.Protein>
6NUR|6NUR_protein|mol2

> <Gold.PLP.Fitness>
54.0128

> <Gold.PLP.PLP>
-45.6486

> <Gold.PLP.part.hbond>
-4.0000

> <Gold.PLP.part.metal>
0.0000

> <Gold.PLP.part.buried>
-2.7900

> <Gold.PLP.part.nonpolar>
-38.5165

> <Gold.PLP.part.repulsive>
0.0827

> <Gold.PLP.ligand.clash>
0.0000

> <Gold.PLP.ligand.torsion>
0.3261

> <Gold.PLP.Chemscore.Hbond>
2.9920

> <Gold.PLP.Chemscore.CHOScore>
0.0000

> <Gold.PLP.Chemscore.Metal>
0.0000

> <Gold.Chemscore.Hbonds>
donor molecule, donor type, donor heavy atom, donor atom, acceptor molecule, acceptor atom, score
      L1  H    19    36       P1  7948  1.00
      L1  H    21    37       P1  7948  1.00
      P1  H  7997  8009       L1     4  0.85

> <Gold.PLP.Chemscore.Internal.Correction>
0.0403

> <Gold.Rescore>
     Score         DG    S(hbond)    S(metal)    S(lipo)     H(rot)  DE(clash)    DE(int)     intcor
     14.45     -16.10       2.00        0.00      94.63       2.79       0.14       1.51       ----

> <Gold.Chemscore.Fitness>
14.4499

> <Gold.Chemscore.DG>
-16.1009

> <Gold.Chemscore.ZeroCoef>
-5.4800

> <Gold.Chemscore.Hbond>
2.0003

> <Gold.Chemscore.Metal>
0.0000

> <Gold.Chemscore.Lipo>
94.6332

> <Gold.Chemscore.Internal_Hbond>
0.0000

> <Gold.Chemscore.DEClash>
0.1398

> <Gold.Chemscore.DEInternal>
1.5112

> <Gold.Chemscore.Rot>
2.7860

> <Gold.Chemscore.Internal.Correction>
   9.000000E+99

> <Gold.Chemscore.Hbonds>
donor molecule, donor type, donor heavy atom, donor atom, acceptor molecule, acceptor atom, score
      L1  H    19    36       P1  7948  0.99
      L1  H    21    37       P1  7948  0.98
      P1  H  7997  8009       L1     4  0.04

> <Gold.Chemscore.Hbond.Weighted>
-6.6810

> <Gold.Chemscore.Metal.Weighted>
-0.0000

> <Gold.Chemscore.Lipo.Weighted>
-11.0721

> <Gold.Chemscore.Internal_Hbond.Weighted>
0.0000

> <Gold.Chemscore.DEClash.Weighted>
0.1398

> <Gold.Chemscore.DEInternal.Weighted>
1.5112

> <Gold.Chemscore.Rot.Weighted>
7.1322

> <Gold.Chemscore.Internal.Correction.Weighted>
   9.000000E+99

> <Gold.Protein.RotatedTorsions>
[ 6907 6896 6895 6894 ] final  -90.17 input  -60.11 | X-H torsion
[ 7974 7965 7964 7962 ] final    2.54 input  175.53 | X-H torsion
[ 8008 7997 7996 7995 ] final  138.72 input   59.86 | X-H torsion
[ 10167 10162 10161 10158 ] final   19.14 input  -65.29 | X-H torsion
[ 10718 10713 10712 10709 ] final  -50.56 input   66.30 | X-H torsion
[ 10763 10752 10751 10750 ] final  -19.98 input  -60.55 | X-H torsion
[ 11005 11000 10999 10996 ] final   61.63 input  -57.11 | X-H torsion

> <Gold.Protein.ActiveResidues>
 VAL166  LYS551  ARG553  GLY616  TRP617  ASP618  TYR619  PRO620  LYS621  CYS622 
 ASP623  PHE694  ASN695  SER759  ASP760  ASP761  ALA762  ILE779  LEU786  VAL792 
 PHE793  MET794  SER795  GLU796  ALA797  LYS798  CYS799  TRP800  GLU811  SER814 

> <Gold.Protein.RotatedAtoms>
  150.6879  134.2473  159.4496 H   0  0  0  0  0  0  0  0  0  0  0  0  # atno 6907 bound_to 6896
  152.0413  134.9707  160.0583 H   0  0  0  0  0  0  0  0  0  0  0  0  # atno 6908 bound_to 6896
  152.1208  133.4317  159.4711 H   0  0  0  0  0  0  0  0  0  0  0  0  # atno 6909 bound_to 6896
  146.2444  140.0820  142.8356 H   0  0  0  0  0  0  0  0  0  0  0  0  # atno 7974 bound_to 7965
  156.2995  140.2386  156.4121 H   0  0  0  0  0  0  0  0  0  0  0  0  # atno 8008 bound_to 7997
  154.8432  140.0427  157.1575 H   0  0  0  0  0  0  0  0  0  0  0  0  # atno 8009 bound_to 7997
  154.9080  140.2986  155.5285 H   0  0  0  0  0  0  0  0  0  0  0  0  # atno 8010 bound_to 7997
  140.5601  143.9352  150.6637 H   0  0  0  0  0  0  0  0  0  0  0  0  # atno 10167 bound_to 10162
  156.1790  130.4150  149.9535 H   0  0  0  0  0  0  0  0  0  0  0  0  # atno 10718 bound_to 10713
  153.6133  135.6995  153.5338 H   0  0  0  0  0  0  0  0  0  0  0  0  # atno 10763 bound_to 10752
  153.2998  135.4132  155.1242 H   0  0  0  0  0  0  0  0  0  0  0  0  # atno 10764 bound_to 10752
  154.8559  135.3646  154.5672 H   0  0  0  0  0  0  0  0  0  0  0  0  # atno 10765 bound_to 10752
  140.0148  134.6241  155.9726 H   0  0  0  0  0  0  0  0  0  0  0  0  # atno 11005 bound_to 11000
  145.0724  140.9165  143.4874 LP  0  0  0  0  0  0  0  0  0  0  0  0  # atno 17320 bound_to 7965
  145.0957  139.2858  143.5712 LP  0  0  0  0  0  0  0  0  0  0  0  0  # atno 17321 bound_to 7965
  140.2801  143.3395  152.1159 LP  0  0  0  0  0  0  0  0  0  0  0  0  # atno 17342 bound_to 10162
  139.5066  144.6817  151.5992 LP  0  0  0  0  0  0  0  0  0  0  0  0  # atno 17343 bound_to 10162
  156.7312  130.9044  151.3626 LP  0  0  0  0  0  0  0  0  0  0  0  0  # atno 17370 bound_to 10713
  157.6855  130.9181  150.0375 LP  0  0  0  0  0  0  0  0  0  0  0  0  # atno 17371 bound_to 10713
  141.1735  133.6538  156.4741 LP  0  0  0  0  0  0  0  0  0  0  0  0  # atno 17394 bound_to 11000
  140.4490  134.6946  157.5030 LP  0  0  0  0  0  0  0  0  0  0  0  0  # atno 17395 bound_to 11000

$$$$
