AV-unprocessed.smi:3056|AV-procd|sdf|11652|dock9
  -GOLD-   2272017 53D 1   1.00000     0.00000
 Structure written by MMmdl.
 48 49  0  0  0  0  0  0  0  0  2 V2000
  145.2339  132.5570  149.6517 C   0  0  0  0  0  0  0  0  0  0  0  0
  145.5025  133.0771  151.0345 C   0  0  0  0  0  0  0  0  0  0  0  0
  145.2563  134.3848  151.5402 C   0  0  0  0  0  0  0  0  0  0  0  0
  145.6125  134.5214  152.8071 N   0  0  0  0  0  0  0  0  0  0  0  0
  146.0951  133.3100  153.1578 N   0  0  0  0  0  0  0  0  0  0  0  0
  146.5999  133.0954  154.5083 C   0  0  1  0  0  0  0  0  0  0  0  0
  146.7291  131.5856  154.7808 C   0  0  0  0  0  0  0  0  0  0  0  0
  147.9180  133.8754  154.7594 C   0  0  1  0  0  0  0  0  0  0  0  0
  149.0371  133.5080  153.7679 C   0  0  0  0  0  0  0  0  0  0  0  0
  147.6814  135.3347  154.6851 N   0  3  0  0  0  0  0  0  0  0  0  0
  148.6577  136.1658  155.4234 C   0  0  0  0  0  0  0  0  0  0  0  0
  148.3271  137.6641  155.3525 C   0  0  0  0  0  0  0  0  0  0  0  0
  147.2200  138.0456  155.7368 O   0  0  0  0  0  0  0  0  0  0  0  0
  149.2593  138.5201  154.8693 N   0  0  0  0  0  0  0  0  0  0  0  0
  149.1277  139.9776  154.7746 C   0  0  0  0  0  0  0  0  0  0  0  0
  150.1928  140.6219  155.6793 C   0  0  0  0  0  0  0  0  0  0  0  0
  151.4888  140.1735  155.2905 O   0  0  0  0  0  0  0  0  0  0  0  0
  151.6413  138.7568  155.3569 C   0  0  2  0  0  0  0  0  0  0  0  0
  153.0758  138.4087  154.9450 C   0  0  0  0  0  0  0  0  0  0  0  0
  150.5942  138.0942  154.4389 C   0  0  0  0  0  0  0  0  0  0  0  0
  146.0409  132.4197  152.1040 C   0  0  0  0  0  0  0  0  0  0  0  0
  144.4754  133.1474  149.1371 H   0  0  0  0  0  0  0  0  0  0  0  0
  144.8793  131.5263  149.6694 H   0  0  0  0  0  0  0  0  0  0  0  0
  146.1315  132.5782  149.0337 H   0  0  0  0  0  0  0  0  0  0  0  0
  144.8333  135.2350  151.0256 H   0  0  0  0  0  0  0  0  0  0  0  0
  145.8477  133.4839  155.1980 H   0  0  0  0  0  0  0  0  0  0  0  0
  146.9594  131.3865  155.8273 H   0  0  0  0  0  0  0  0  0  0  0  0
  147.5150  131.1341  154.1745 H   0  0  0  0  0  0  0  0  0  0  0  0
  145.7968  131.0672  154.5545 H   0  0  0  0  0  0  0  0  0  0  0  0
  148.2839  133.6236  155.7565 H   0  0  0  0  0  0  0  0  0  0  0  0
  149.3352  132.4634  153.8593 H   0  0  0  0  0  0  0  0  0  0  0  0
  149.9294  134.1093  153.9454 H   0  0  0  0  0  0  0  0  0  0  0  0
  148.7233  133.6760  152.7370 H   0  0  0  0  0  0  0  0  0  0  0  0
  147.7167  135.6111  153.7142 H   0  0  0  0  0  0  0  0  0  0  0  0
  148.6754  135.8503  156.4668 H   0  0  0  0  0  0  0  0  0  0  0  0
  149.6504  135.9991  155.0024 H   0  0  0  0  0  0  0  0  0  0  0  0
  149.2831  140.2839  153.7392 H   0  0  0  0  0  0  0  0  0  0  0  0
  148.1438  140.3529  155.0510 H   0  0  0  0  0  0  0  0  0  0  0  0
  150.1556  141.7079  155.5926 H   0  0  0  0  0  0  0  0  0  0  0  0
  150.0117  140.3781  156.7273 H   0  0  0  0  0  0  0  0  0  0  0  0
  151.4858  138.4314  156.3871 H   0  0  0  0  0  0  0  0  0  0  0  0
  153.2496  137.3337  154.9974 H   0  0  0  0  0  0  0  0  0  0  0  0
  153.7982  138.8938  155.6019 H   0  0  0  0  0  0  0  0  0  0  0  0
  153.2836  138.7320  153.9248 H   0  0  0  0  0  0  0  0  0  0  0  0
  150.7197  137.0107  154.4582 H   0  0  0  0  0  0  0  0  0  0  0  0
  150.7514  138.3973  153.4026 H   0  0  0  0  0  0  0  0  0  0  0  0
  146.3890  131.4017  152.1996 H   0  0  0  0  0  0  0  0  0  0  0  0
  146.7545  135.5319  155.0347 H   0  0  0  0  0  0  0  0  0  0  0  0
  1  2  1  0  0  0  0
  1 22  1  0  0  0  0
  1 23  1  0  0  0  0
  1 24  1  0  0  0  0
  2 21  2  0  0  0  0
  2  3  1  0  0  0  0
  3  4  2  0  0  0  0
  3 25  1  0  0  0  0
  4  5  1  0  0  0  0
  5  6  1  0  0  0  0
  5 21  1  0  0  0  0
  6  7  1  0  0  0  0
  6  8  1  0  0  0  0
  6 26  1  0  0  0  0
  7 27  1  0  0  0  0
  7 28  1  0  0  0  0
  7 29  1  0  0  0  0
  8  9  1  0  0  0  0
  8 10  1  0  0  0  0
  8 30  1  0  0  0  0
  9 31  1  0  0  0  0
  9 32  1  0  0  0  0
  9 33  1  0  0  0  0
 10 11  1  0  0  0  0
 10 34  1  0  0  0  0
 10 48  1  0  0  0  0
 11 12  1  0  0  0  0
 11 35  1  0  0  0  0
 11 36  1  0  0  0  0
 12 13  2  0  0  0  0
 12 14  1  0  0  0  0
 14 20  1  0  0  0  0
 14 15  1  0  0  0  0
 15 16  1  0  0  0  0
 15 37  1  0  0  0  0
 15 38  1  0  0  0  0
 16 17  1  0  0  0  0
 16 39  1  0  0  0  0
 16 40  1  0  0  0  0
 17 18  1  0  0  0  0
 18 19  1  0  0  0  0
 18 20  1  0  0  0  0
 18 41  1  0  0  0  0
 19 42  1  0  0  0  0
 19 43  1  0  0  0  0
 19 44  1  0  0  0  0
 20 45  1  0  0  0  0
 20 46  1  0  0  0  0
 21 47  1  0  0  0  0
M  CHG  1  10   1
M  END
> <s_m_source_file>
AV-unprocessed.smi

> <i_m_source_file_index>
3056

> <i_lp_mmshare_version>
43012

> <i_f3d_flags>
0

> <s_epik_input>
W0NIM11jMVtjSF1ubihbY0hdMSlbQ0BIXShbQ0gzXSlbQ0BIXShbQ0gzXSlbTkhdW0NIMl1DKD1PKU4yW0NIMl1bQ0gyXU9bQ0BASF0oW0NIM10pW0NIMl0y

> <s_epik_cmdline>
J2VwaWtfcHl0aG9uJywgJy1waCcsICc3LjAnLCAnLXRuJywgJzgnLCAnLW1hJywgJzIwMCcsICctbWV0YWxfYmluZGluZycsICctaW1hZScsICc8aW5maWxlLm1hZT4nLCAnLW9tYWUnLCAnPG91dGZpbGUubWFlPic=

> <r_lp_tautomer_probability>
1

> <r_epik_Ionization_Penalty>
0.233715

> <r_epik_Ionization_Penalty_Charging>
0.233698

> <r_epik_Ionization_Penalty_Neutral>
1.68157e-05

> <r_epik_State_Penalty>
0.225221

> <r_epik_Charging_Adjusted_Penalty>
0.458919

> <i_epik_Tot_Q>
1

> <i_epik_Tot_abs_Q>
1

> <r_epik_Metal_State_Penalty>
0.225535

> <b_epik_Metal_Only>
0

> <s_lp_Force_Field>
OPLS_2005

> <r_lp_Energy>
28.8948

> <b_lp_Chiralities_Consistent>
1

> <s_lp_Variant>
AV-unprocessed.smi:3056-8

> <Gold.Version>
5.8.1

> <Gold.Id.Protein>
6NUR|6NUR_protein|mol2

> <Gold.PLP.Fitness>
45.8510

> <Gold.PLP.PLP>
-36.2447

> <Gold.PLP.part.hbond>
-2.0000

> <Gold.PLP.part.metal>
0.0000

> <Gold.PLP.part.buried>
-2.1997

> <Gold.PLP.part.nonpolar>
-30.4120

> <Gold.PLP.part.repulsive>
0.1848

> <Gold.PLP.ligand.clash>
0.0000

> <Gold.PLP.ligand.torsion>
0.5531

> <Gold.PLP.Chemscore.Hbond>
3.0000

> <Gold.PLP.Chemscore.CHOScore>
0.5370

> <Gold.PLP.Chemscore.Metal>
0.0000

> <Gold.Chemscore.Hbonds>
donor molecule, donor type, donor heavy atom, donor atom, acceptor molecule, acceptor atom, score
      L1  H    10    34       P1  7948  0.61
      P1  H  7989  7998       L1    17  0.99

> <Gold.PLP.Chemscore.Internal.Correction>
0.1016

> <Gold.Rescore>
     Score         DG    S(hbond)    S(metal)    S(lipo)     H(rot)  DE(clash)    DE(int)     intcor
     16.74     -17.26       1.61        0.00      92.78       1.74       0.17       0.35       ----

> <Gold.Chemscore.Fitness>
16.7417

> <Gold.Chemscore.DG>
-17.2648

> <Gold.Chemscore.ZeroCoef>
-5.4800

> <Gold.Chemscore.Hbond>
1.6085

> <Gold.Chemscore.Metal>
0.0000

> <Gold.Chemscore.Lipo>
92.7777

> <Gold.Chemscore.Internal_Hbond>
0.0000

> <Gold.Chemscore.DEClash>
0.1743

> <Gold.Chemscore.DEInternal>
0.3488

> <Gold.Chemscore.Rot>
1.7354

> <Gold.Chemscore.Internal.Correction>
   9.000000E+99

> <Gold.Chemscore.Hbonds>
donor molecule, donor type, donor heavy atom, donor atom, acceptor molecule, acceptor atom, score
      L1  H    10    34       P1  7948  0.29
      P1  H  7989  7998       L1    17  0.32

> <Gold.Chemscore.Hbond.Weighted>
-5.3724

> <Gold.Chemscore.Metal.Weighted>
-0.0000

> <Gold.Chemscore.Lipo.Weighted>
-10.8550

> <Gold.Chemscore.Internal_Hbond.Weighted>
0.0000

> <Gold.Chemscore.DEClash.Weighted>
0.1743

> <Gold.Chemscore.DEInternal.Weighted>
0.3488

> <Gold.Chemscore.Rot.Weighted>
4.4426

> <Gold.Chemscore.Internal.Correction.Weighted>
   9.000000E+99

> <Gold.Protein.RotatedTorsions>
[ 6907 6896 6895 6894 ] final -110.31 input  -60.11 | X-H torsion
[ 7974 7965 7964 7962 ] final   25.36 input  175.53 | X-H torsion
[ 8008 7997 7996 7995 ] final  -41.37 input   59.86 | X-H torsion
[ 10167 10162 10161 10158 ] final -135.17 input  -65.29 | X-H torsion
[ 10718 10713 10712 10709 ] final  162.18 input   66.30 | X-H torsion
[ 10763 10752 10751 10750 ] final -132.93 input  -60.55 | X-H torsion
[ 11005 11000 10999 10996 ] final  -77.16 input  -57.11 | X-H torsion

> <Gold.Protein.ActiveResidues>
 VAL166  LYS551  ARG553  GLY616  TRP617  ASP618  TYR619  PRO620  LYS621  CYS622 
 ASP623  PHE694  ASN695  SER759  ASP760  ASP761  ALA762  ILE779  LEU786  VAL792 
 PHE793  MET794  SER795  GLU796  ALA797  LYS798  CYS799  TRP800  GLU811  SER814 

> <Gold.Protein.RotatedAtoms>
  150.7616  133.9401  159.3453 H   0  0  0  0  0  0  0  0  0  0  0  0  # atno 6907 bound_to 6896
  151.7308  135.0873  160.0309 H   0  0  0  0  0  0  0  0  0  0  0  0  # atno 6908 bound_to 6896
  152.3590  133.6236  159.6037 H   0  0  0  0  0  0  0  0  0  0  0  0  # atno 6909 bound_to 6896
  146.1892  139.7476  142.8844 H   0  0  0  0  0  0  0  0  0  0  0  0  # atno 7974 bound_to 7965
  154.4004  140.1501  156.3180 H   0  0  0  0  0  0  0  0  0  0  0  0  # atno 8008 bound_to 7997
  155.8555  140.3456  155.5700 H   0  0  0  0  0  0  0  0  0  0  0  0  # atno 8009 bound_to 7997
  155.7937  140.0860  157.1985 H   0  0  0  0  0  0  0  0  0  0  0  0  # atno 8010 bound_to 7997
  139.8806  143.6844  152.2627 H   0  0  0  0  0  0  0  0  0  0  0  0  # atno 10167 bound_to 10162
  157.1261  131.0505  151.2393 H   0  0  0  0  0  0  0  0  0  0  0  0  # atno 10718 bound_to 10713
  154.8738  135.3782  154.4490 H   0  0  0  0  0  0  0  0  0  0  0  0  # atno 10763 bound_to 10752
  153.5168  135.7029  153.5757 H   0  0  0  0  0  0  0  0  0  0  0  0  # atno 10764 bound_to 10752
  153.4022  135.3945  155.1961 H   0  0  0  0  0  0  0  0  0  0  0  0  # atno 10765 bound_to 10752
  141.1658  133.7011  156.7778 H   0  0  0  0  0  0  0  0  0  0  0  0  # atno 11005 bound_to 11000
  145.3845  141.0363  143.3159 LP  0  0  0  0  0  0  0  0  0  0  0  0  # atno 17320 bound_to 7965
  144.8454  139.5405  143.6881 LP  0  0  0  0  0  0  0  0  0  0  0  0  # atno 17321 bound_to 7965
  139.7200  144.7604  151.0971 LP  0  0  0  0  0  0  0  0  0  0  0  0  # atno 17342 bound_to 10162
  140.7745  143.5220  150.9525 LP  0  0  0  0  0  0  0  0  0  0  0  0  # atno 17343 bound_to 10162
  157.4434  130.7557  149.7088 LP  0  0  0  0  0  0  0  0  0  0  0  0  # atno 17370 bound_to 10713
  155.9818  130.4016  150.3453 LP  0  0  0  0  0  0  0  0  0  0  0  0  # atno 17371 bound_to 10713
  140.2416  134.8609  157.3579 LP  0  0  0  0  0  0  0  0  0  0  0  0  # atno 17394 bound_to 11000
  140.1790  134.4513  155.7784 LP  0  0  0  0  0  0  0  0  0  0  0  0  # atno 17395 bound_to 11000

$$$$
