AV-unprocessed.smi:3149|AV-procd|sdf|12002|dock8
  -GOLD-   2272017403D 1   1.00000     0.00000
 Structure written by MMmdl.
 38 39  0  0  0  0  0  0  0  0  2 V2000
  149.8945  144.1433  158.7227 C   0  0  0  0  0  0  0  0  0  0  0  0
  150.6180  142.8549  158.2854 C   0  0  1  0  0  0  0  0  0  0  0  0
  150.3752  142.6026  156.8454 N   0  3  0  0  0  0  0  0  0  0  0  0
  149.7803  141.2895  156.5204 C   0  0  0  0  0  0  0  0  0  0  0  0
  149.3523  141.2205  155.0516 C   0  0  0  0  0  0  0  0  0  0  0  0
  149.7759  140.3276  154.3168 O   0  0  0  0  0  0  0  0  0  0  0  0
  148.4003  142.1442  154.6157 N   0  0  0  0  0  0  0  0  0  0  0  0
  147.3101  142.5770  155.4772 C   0  0  0  0  0  0  0  0  0  0  0  0
  146.5049  142.7554  154.1860 C   0  0  0  0  0  0  0  0  0  0  0  0
  147.5261  141.8491  153.4903 C   0  0  0  0  0  0  0  0  0  0  0  0
  152.1462  142.9100  158.5609 C   0  0  1  0  0  0  0  0  0  0  0  0
  152.8124  144.1960  158.0373 C   0  0  0  0  0  0  0  0  0  0  0  0
  152.4490  142.7523  159.9799 N   0  0  0  0  0  0  0  0  0  0  0  0
  153.1280  141.7210  160.5960 C   0  0  0  0  0  0  0  0  0  0  0  0
  153.1871  142.0090  161.9293 C   0  0  0  0  0  0  0  0  0  0  0  0
  152.5198  143.2606  162.0354 C   0  0  0  0  0  0  0  0  0  0  0  0
  152.0842  143.7051  160.8680 N   0  0  0  0  0  0  0  0  0  0  0  0
  149.9892  144.3145  159.7944 H   0  0  0  0  0  0  0  0  0  0  0  0
  148.8263  144.0975  158.5121 H   0  0  0  0  0  0  0  0  0  0  0  0
  150.2956  145.0176  158.2087 H   0  0  0  0  0  0  0  0  0  0  0  0
  150.2012  142.0198  158.8508 H   0  0  0  0  0  0  0  0  0  0  0  0
  149.7963  143.3386  156.4677 H   0  0  0  0  0  0  0  0  0  0  0  0
  150.5085  140.4994  156.7072 H   0  0  0  0  0  0  0  0  0  0  0  0
  148.9197  141.1076  157.1640 H   0  0  0  0  0  0  0  0  0  0  0  0
  146.9188  141.7856  156.1200 H   0  0  0  0  0  0  0  0  0  0  0  0
  147.5094  143.5024  156.0187 H   0  0  0  0  0  0  0  0  0  0  0  0
  145.4957  142.3441  154.2273 H   0  0  0  0  0  0  0  0  0  0  0  0
  146.5098  143.7806  153.8108 H   0  0  0  0  0  0  0  0  0  0  0  0
  147.8921  142.2251  152.5342 H   0  0  0  0  0  0  0  0  0  0  0  0
  147.2100  140.8049  153.4407 H   0  0  0  0  0  0  0  0  0  0  0  0
  152.6114  142.0673  158.0468 H   0  0  0  0  0  0  0  0  0  0  0  0
  152.7629  144.2657  156.9512 H   0  0  0  0  0  0  0  0  0  0  0  0
  153.8686  144.2260  158.3077 H   0  0  0  0  0  0  0  0  0  0  0  0
  152.3402  145.0869  158.4528 H   0  0  0  0  0  0  0  0  0  0  0  0
  153.5082  140.8756  160.0415 H   0  0  0  0  0  0  0  0  0  0  0  0
  153.6437  141.4181  162.7097 H   0  0  0  0  0  0  0  0  0  0  0  0
  152.3430  143.8561  162.9189 H   0  0  0  0  0  0  0  0  0  0  0  0
  151.2719  142.6339  156.3803 H   0  0  0  0  0  0  0  0  0  0  0  0
  1  2  1  0  0  0  0
  1 18  1  0  0  0  0
  1 19  1  0  0  0  0
  1 20  1  0  0  0  0
  2  3  1  0  0  0  0
  2 11  1  0  0  0  0
  2 21  1  0  0  0  0
  3  4  1  0  0  0  0
  3 22  1  0  0  0  0
  3 38  1  0  0  0  0
  4  5  1  0  0  0  0
  4 23  1  0  0  0  0
  4 24  1  0  0  0  0
  5  6  2  0  0  0  0
  5  7  1  0  0  0  0
  7 10  1  0  0  0  0
  7  8  1  0  0  0  0
  8  9  1  0  0  0  0
  8 25  1  0  0  0  0
  8 26  1  0  0  0  0
  9 10  1  0  0  0  0
  9 27  1  0  0  0  0
  9 28  1  0  0  0  0
 10 29  1  0  0  0  0
 10 30  1  0  0  0  0
 11 12  1  0  0  0  0
 11 13  1  0  0  0  0
 11 31  1  0  0  0  0
 12 32  1  0  0  0  0
 12 33  1  0  0  0  0
 12 34  1  0  0  0  0
 13 17  1  0  0  0  0
 13 14  1  0  0  0  0
 14 15  2  0  0  0  0
 14 35  1  0  0  0  0
 15 16  1  0  0  0  0
 15 36  1  0  0  0  0
 16 17  2  0  0  0  0
 16 37  1  0  0  0  0
M  CHG  1   3   1
M  END
> <s_m_source_file>
AV-unprocessed.smi

> <i_m_source_file_index>
3149

> <i_lp_mmshare_version>
43012

> <i_f3d_flags>
0

> <s_epik_input>
bjFbY0hdW2NIXVtjSF1uMVtDQEBIXShbQ0gzXSlbQ0BIXShbQ0gzXSlbTkhdW0NIMl1DKD1PKU4yW0NIMl1bQ0gyXVtDSDJdMg==

> <s_epik_cmdline>
J2VwaWtfcHl0aG9uJywgJy1waCcsICc3LjAnLCAnLXRuJywgJzgnLCAnLW1hJywgJzIwMCcsICctbWV0YWxfYmluZGluZycsICctaW1hZScsICc8aW5maWxlLm1hZT4nLCAnLW9tYWUnLCAnPG91dGZpbGUubWFlPic=

> <r_lp_tautomer_probability>
1

> <r_epik_Ionization_Penalty>
0.141739

> <r_epik_Ionization_Penalty_Charging>
0.141731

> <r_epik_Ionization_Penalty_Neutral>
8.82171e-06

> <r_epik_State_Penalty>
0.131043

> <r_epik_Charging_Adjusted_Penalty>
0.272773

> <i_epik_Tot_Q>
1

> <i_epik_Tot_abs_Q>
1

> <r_epik_Metal_State_Penalty>
0.131384

> <b_epik_Metal_Only>
0

> <s_lp_Force_Field>
OPLS_2005

> <r_lp_Energy>
20.424

> <b_lp_Chiralities_Consistent>
1

> <s_lp_Variant>
AV-unprocessed.smi:3149-4

> <Gold.Version>
5.8.1

> <Gold.Id.Protein>
6NUR|6NUR_protein|mol2

> <Gold.PLP.Fitness>
52.2668

> <Gold.PLP.PLP>
-45.1456

> <Gold.PLP.part.hbond>
-2.0000

> <Gold.PLP.part.metal>
0.0000

> <Gold.PLP.part.buried>
-3.9021

> <Gold.PLP.part.nonpolar>
-39.7531

> <Gold.PLP.part.repulsive>
0.2723

> <Gold.PLP.ligand.clash>
0.0000

> <Gold.PLP.ligand.torsion>
1.4051

> <Gold.PLP.Chemscore.Hbond>
3.0000

> <Gold.PLP.Chemscore.CHOScore>
0.0000

> <Gold.PLP.Chemscore.Metal>
0.0000

> <Gold.Chemscore.Hbonds>
donor molecule, donor type, donor heavy atom, donor atom, acceptor molecule, acceptor atom, score
      L1  H     3    22       P1  8028  2.00
      P1  H  7989  7998       L1     6  0.72

> <Gold.PLP.Chemscore.Internal.Correction>
0.9313

> <Gold.Rescore>
     Score         DG    S(hbond)    S(metal)    S(lipo)     H(rot)  DE(clash)    DE(int)     intcor
     15.83     -17.70       1.77        0.00      94.50       1.85       0.24       1.63       ----

> <Gold.Chemscore.Fitness>
15.8326

> <Gold.Chemscore.DG>
-17.7021

> <Gold.Chemscore.ZeroCoef>
-5.4800

> <Gold.Chemscore.Hbond>
1.7703

> <Gold.Chemscore.Metal>
0.0000

> <Gold.Chemscore.Lipo>
94.4988

> <Gold.Chemscore.Internal_Hbond>
0.0000

> <Gold.Chemscore.DEClash>
0.2443

> <Gold.Chemscore.DEInternal>
1.6253

> <Gold.Chemscore.Rot>
1.8544

> <Gold.Chemscore.Internal.Correction>
   9.000000E+99

> <Gold.Chemscore.Hbonds>
donor molecule, donor type, donor heavy atom, donor atom, acceptor molecule, acceptor atom, score
      L1  H     3    22       P1  8028  1.00
      P1  H  7989  7998       L1     6  0.52

> <Gold.Chemscore.Hbond.Weighted>
-5.9129

> <Gold.Chemscore.Metal.Weighted>
-0.0000

> <Gold.Chemscore.Lipo.Weighted>
-11.0564

> <Gold.Chemscore.Internal_Hbond.Weighted>
0.0000

> <Gold.Chemscore.DEClash.Weighted>
0.2443

> <Gold.Chemscore.DEInternal.Weighted>
1.6253

> <Gold.Chemscore.Rot.Weighted>
4.7472

> <Gold.Chemscore.Internal.Correction.Weighted>
   9.000000E+99

> <Gold.Protein.RotatedTorsions>
[ 6907 6896 6895 6894 ] final -128.11 input  -60.11 | X-H torsion
[ 7974 7965 7964 7962 ] final -137.45 input  175.53 | X-H torsion
[ 8008 7997 7996 7995 ] final -120.65 input   59.86 | X-H torsion
[ 10167 10162 10161 10158 ] final   -9.21 input  -65.29 | X-H torsion
[ 10718 10713 10712 10709 ] final   36.73 input   66.30 | X-H torsion
[ 10763 10752 10751 10750 ] final -126.88 input  -60.55 | X-H torsion
[ 11005 11000 10999 10996 ] final  176.86 input  -57.11 | X-H torsion

> <Gold.Protein.ActiveResidues>
 VAL166  LYS551  ARG553  GLY616  TRP617  ASP618  TYR619  PRO620  LYS621  CYS622 
 ASP623  PHE694  ASN695  SER759  ASP760  ASP761  ALA762  ILE779  LEU786  VAL792 
 PHE793  MET794  SER795  GLU796  ALA797  LYS798  CYS799  TRP800  GLU811  SER814 

> <Gold.Protein.RotatedAtoms>
  150.9144  133.6957  159.2846 H   0  0  0  0  0  0  0  0  0  0  0  0  # atno 6907 bound_to 6896
  151.4433  135.1021  159.9686 H   0  0  0  0  0  0  0  0  0  0  0  0  # atno 6908 bound_to 6896
  152.4947  133.8547  159.7275 H   0  0  0  0  0  0  0  0  0  0  0  0  # atno 6909 bound_to 6896
  144.8841  140.6549  143.5187 H   0  0  0  0  0  0  0  0  0  0  0  0  # atno 7974 bound_to 7965
  155.1352  140.0401  157.2785 H   0  0  0  0  0  0  0  0  0  0  0  0  # atno 8008 bound_to 7997
  154.6513  140.2570  155.7184 H   0  0  0  0  0  0  0  0  0  0  0  0  # atno 8009 bound_to 7997
  156.2578  140.2835  156.0948 H   0  0  0  0  0  0  0  0  0  0  0  0  # atno 8010 bound_to 7997
  140.7081  143.5883  150.8920 H   0  0  0  0  0  0  0  0  0  0  0  0  # atno 10167 bound_to 10162
  157.3384  130.7534  149.6895 H   0  0  0  0  0  0  0  0  0  0  0  0  # atno 10718 bound_to 10713
  154.8749  135.3980  154.3503 H   0  0  0  0  0  0  0  0  0  0  0  0  # atno 10763 bound_to 10752
  153.4289  135.7024  153.6249 H   0  0  0  0  0  0  0  0  0  0  0  0  # atno 10764 bound_to 10752
  153.4879  135.3755  155.2446 H   0  0  0  0  0  0  0  0  0  0  0  0  # atno 10765 bound_to 10752
  140.3778  134.6973  157.4432 H   0  0  0  0  0  0  0  0  0  0  0  0  # atno 11005 bound_to 11000
  145.3901  139.1618  143.4234 LP  0  0  0  0  0  0  0  0  0  0  0  0  # atno 17320 bound_to 7965
  146.3013  140.3989  142.8703 LP  0  0  0  0  0  0  0  0  0  0  0  0  # atno 17321 bound_to 7965
  139.9609  143.6165  152.3002 LP  0  0  0  0  0  0  0  0  0  0  0  0  # atno 17342 bound_to 10162
  139.6717  144.7660  151.1770 LP  0  0  0  0  0  0  0  0  0  0  0  0  # atno 17343 bound_to 10162
  155.9704  130.4175  150.4281 LP  0  0  0  0  0  0  0  0  0  0  0  0  # atno 17370 bound_to 10713
  157.2325  131.0507  151.2484 LP  0  0  0  0  0  0  0  0  0  0  0  0  # atno 17371 bound_to 10713
  140.0502  134.6142  155.8871 LP  0  0  0  0  0  0  0  0  0  0  0  0  # atno 17394 bound_to 11000
  141.1933  133.6578  156.5544 LP  0  0  0  0  0  0  0  0  0  0  0  0  # atno 17395 bound_to 11000

$$$$
