AV-unprocessed.smi:2148|AV-procd|sdf|8748|dock4
  -GOLD-   2272011523D 1   1.00000     0.00000
 Structure written by MMmdl.
 44 45  0  0  0  0  0  0  0  0  1 V2000
  154.5218  134.6675  164.5009 C   0  0  0  0  0  0  0  0  0  0  0  0
  156.0280  135.5023  163.9313 S   0  0  0  0  0  0  0  0  0  0  0  0
  156.0157  135.0753  162.1639 C   0  0  2  0  0  0  0  0  0  0  0  0
  157.4374  135.1655  161.5867 C   0  0  0  0  0  0  0  0  0  0  0  0
  155.0328  135.9469  161.3710 C   0  0  0  0  0  0  0  0  0  0  0  0
  154.1646  135.4158  160.6784 O   0  0  0  0  0  0  0  0  0  0  0  0
  155.2173  137.2765  161.4735 N   0  0  0  0  0  0  0  0  0  0  0  0
  154.4954  138.3201  160.8358 C   0  0  0  0  0  0  0  0  0  0  0  0
  154.8197  139.6495  161.1684 C   0  0  0  0  0  0  0  0  0  0  0  0
  154.1165  140.7033  160.5555 C   0  0  0  0  0  0  0  0  0  0  0  0
  153.0941  140.4009  159.6264 C   0  0  0  0  0  0  0  0  0  0  0  0
  152.3906  141.4442  158.9881 N   0  0  0  0  0  0  0  0  0  0  0  0
  150.9523  141.2304  158.8544 C   0  0  0  0  0  0  0  0  0  0  0  0
  150.3274  142.2533  157.8854 C   0  0  2  0  0  0  0  0  0  0  0  0
  150.6255  141.9543  156.4052 C   0  0  0  0  0  0  0  0  0  0  0  0
  150.7047  143.5809  158.2564 O   0  0  0  0  0  0  0  0  0  0  0  0
  152.1122  143.8024  158.3340 C   0  0  1  0  0  0  0  0  0  0  0  0
  152.3393  145.2607  158.7444 C   0  0  0  0  0  0  0  0  0  0  0  0
  152.7348  142.8187  159.3409 C   0  0  0  0  0  0  0  0  0  0  0  0
  152.7623  139.1208  159.3280 N   0  0  0  0  0  0  0  0  0  0  0  0
  153.4411  138.1127  159.9154 C   0  0  0  0  0  0  0  0  0  0  0  0
  154.4172  134.7830  165.5796 H   0  0  0  0  0  0  0  0  0  0  0  0
  154.5648  133.6030  164.2704 H   0  0  0  0  0  0  0  0  0  0  0  0
  153.6386  135.0935  164.0251 H   0  0  0  0  0  0  0  0  0  0  0  0
  155.6991  134.0340  162.0861 H   0  0  0  0  0  0  0  0  0  0  0  0
  157.4499  134.9330  160.5213 H   0  0  0  0  0  0  0  0  0  0  0  0
  158.1016  134.4576  162.0831 H   0  0  0  0  0  0  0  0  0  0  0  0
  157.8628  136.1614  161.7172 H   0  0  0  0  0  0  0  0  0  0  0  0
  156.0207  137.5697  162.0100 H   0  0  0  0  0  0  0  0  0  0  0  0
  155.6028  139.8640  161.8811 H   0  0  0  0  0  0  0  0  0  0  0  0
  154.3592  141.7247  160.8091 H   0  0  0  0  0  0  0  0  0  0  0  0
  150.7190  140.2215  158.5163 H   0  0  0  0  0  0  0  0  0  0  0  0
  150.5005  141.3405  159.8412 H   0  0  0  0  0  0  0  0  0  0  0  0
  149.2446  142.2024  158.0040 H   0  0  0  0  0  0  0  0  0  0  0  0
  150.2062  140.9906  156.1160 H   0  0  0  0  0  0  0  0  0  0  0  0
  151.6944  141.9158  156.1974 H   0  0  0  0  0  0  0  0  0  0  0  0
  150.1850  142.7132  155.7582 H   0  0  0  0  0  0  0  0  0  0  0  0
  152.5622  143.6545  157.3522 H   0  0  0  0  0  0  0  0  0  0  0  0
  153.4033  145.4896  158.8089 H   0  0  0  0  0  0  0  0  0  0  0  0
  151.8910  145.4718  159.7157 H   0  0  0  0  0  0  0  0  0  0  0  0
  151.8958  145.9423  158.0181 H   0  0  0  0  0  0  0  0  0  0  0  0
  152.3744  143.0312  160.3486 H   0  0  0  0  0  0  0  0  0  0  0  0
  153.8184  142.9453  159.3478 H   0  0  0  0  0  0  0  0  0  0  0  0
  153.1064  137.1237  159.6433 H   0  0  0  0  0  0  0  0  0  0  0  0
  1  2  1  0  0  0  0
  1 22  1  0  0  0  0
  1 23  1  0  0  0  0
  1 24  1  0  0  0  0
  2  3  1  0  0  0  0
  3  4  1  0  0  0  0
  3  5  1  0  0  0  0
  3 25  1  0  0  0  0
  4 26  1  0  0  0  0
  4 27  1  0  0  0  0
  4 28  1  0  0  0  0
  5  6  2  0  0  0  0
  5  7  1  0  0  0  0
  7  8  1  0  0  0  0
  7 29  1  0  0  0  0
  8 21  1  0  0  0  0
  8  9  2  0  0  0  0
  9 10  1  0  0  0  0
  9 30  1  0  0  0  0
 10 11  2  0  0  0  0
 10 31  1  0  0  0  0
 11 12  1  0  0  0  0
 11 20  1  0  0  0  0
 12 19  1  0  0  0  0
 12 13  1  0  0  0  0
 13 14  1  0  0  0  0
 13 32  1  0  0  0  0
 13 33  1  0  0  0  0
 14 15  1  0  0  0  0
 14 16  1  0  0  0  0
 14 34  1  0  0  0  0
 15 35  1  0  0  0  0
 15 36  1  0  0  0  0
 15 37  1  0  0  0  0
 16 17  1  0  0  0  0
 17 18  1  0  0  0  0
 17 19  1  0  0  0  0
 17 38  1  0  0  0  0
 18 39  1  0  0  0  0
 18 40  1  0  0  0  0
 18 41  1  0  0  0  0
 19 42  1  0  0  0  0
 19 43  1  0  0  0  0
 20 21  2  0  0  0  0
 21 44  1  0  0  0  0
M  END
> <s_m_source_file>
AV-unprocessed.smi

> <i_m_source_file_index>
2148

> <i_lp_mmshare_version>
43012

> <i_f3d_flags>
0

> <s_epik_input>
W0NIM11TW0NASF0oW0NIM10pQyg9TylbTkhdYzFbY0hdW2NIXWMobltjSF0xKU4yW0NIMl1bQ0BASF0oW0NIM10pT1tDQEBIXShbQ0gzXSlbQ0gyXTI=

> <s_epik_cmdline>
J2VwaWtfcHl0aG9uJywgJy1waCcsICc3LjAnLCAnLXRuJywgJzgnLCAnLW1hJywgJzIwMCcsICctbWV0YWxfYmluZGluZycsICctaW1hZScsICc8aW5maWxlLm1hZT4nLCAnLW9tYWUnLCAnPG91dGZpbGUubWFlPic=

> <r_lp_tautomer_probability>
1

> <r_epik_Ionization_Penalty>
0.000646494

> <r_epik_Ionization_Penalty_Charging>
0

> <r_epik_Ionization_Penalty_Neutral>
0.000646494

> <r_epik_State_Penalty>
0.000408447

> <r_epik_Charging_Adjusted_Penalty>
0.000408447

> <i_epik_Tot_Q>
0

> <i_epik_Tot_abs_Q>
0

> <r_epik_Metal_State_Penalty>
-0

> <b_epik_Metal_Only>
0

> <s_lp_Force_Field>
OPLS_2005

> <r_lp_Energy>
25.6211

> <b_lp_Chiralities_Consistent>
1

> <s_lp_Variant>
AV-unprocessed.smi:2148-3

> <Gold.Version>
5.8.1

> <Gold.Id.Protein>
6NUR|6NUR_protein|mol2

> <Gold.PLP.Fitness>
38.3643

> <Gold.PLP.PLP>
-36.1570

> <Gold.PLP.part.hbond>
-1.0000

> <Gold.PLP.part.metal>
0.0000

> <Gold.PLP.part.buried>
-5.6087

> <Gold.PLP.part.nonpolar>
-29.1753

> <Gold.PLP.part.repulsive>
0.1548

> <Gold.PLP.ligand.clash>
0.0000

> <Gold.PLP.ligand.torsion>
0.5673

> <Gold.PLP.Chemscore.Hbond>
1.0000

> <Gold.PLP.Chemscore.CHOScore>
0.0000

> <Gold.PLP.Chemscore.Metal>
0.0000

> <Gold.Chemscore.Hbonds>
donor molecule, donor type, donor heavy atom, donor atom, acceptor molecule, acceptor atom, score
      P1  H  6896  6907       L1     6  1.00

> <Gold.PLP.Chemscore.Internal.Correction>
0.3420

> <Gold.Rescore>
     Score         DG    S(hbond)    S(metal)    S(lipo)     H(rot)  DE(clash)    DE(int)     intcor
     15.63     -17.35       1.00        0.00     100.70       1.27       0.01       1.71       ----

> <Gold.Chemscore.Fitness>
15.6324

> <Gold.Chemscore.DG>
-17.3536

> <Gold.Chemscore.ZeroCoef>
-5.4800

> <Gold.Chemscore.Hbond>
0.9977

> <Gold.Chemscore.Metal>
0.0000

> <Gold.Chemscore.Lipo>
100.7004

> <Gold.Chemscore.Internal_Hbond>
0.0000

> <Gold.Chemscore.DEClash>
0.0106

> <Gold.Chemscore.DEInternal>
1.7106

> <Gold.Chemscore.Rot>
1.2659

> <Gold.Chemscore.Internal.Correction>
   9.000000E+99

> <Gold.Chemscore.Hbonds>
donor molecule, donor type, donor heavy atom, donor atom, acceptor molecule, acceptor atom, score
      P1  H  6896  6907       L1     6  0.98

> <Gold.Chemscore.Hbond.Weighted>
-3.3323

> <Gold.Chemscore.Metal.Weighted>
-0.0000

> <Gold.Chemscore.Lipo.Weighted>
-11.7819

> <Gold.Chemscore.Internal_Hbond.Weighted>
0.0000

> <Gold.Chemscore.DEClash.Weighted>
0.0106

> <Gold.Chemscore.DEInternal.Weighted>
1.7106

> <Gold.Chemscore.Rot.Weighted>
3.2406

> <Gold.Chemscore.Internal.Correction.Weighted>
   9.000000E+99

> <Gold.Protein.RotatedTorsions>
[ 6907 6896 6895 6894 ] final   59.37 input  -60.11 | X-H torsion
[ 7974 7965 7964 7962 ] final   -9.97 input  175.53 | X-H torsion
[ 8008 7997 7996 7995 ] final    0.92 input   59.86 | X-H torsion
[ 10167 10162 10161 10158 ] final    4.98 input  -65.29 | X-H torsion
[ 10718 10713 10712 10709 ] final -120.12 input   66.30 | X-H torsion
[ 10763 10752 10751 10750 ] final  127.73 input  -60.55 | X-H torsion
[ 11005 11000 10999 10996 ] final  -64.25 input  -57.11 | X-H torsion

> <Gold.Protein.ActiveResidues>
 VAL166  LYS551  ARG553  GLY616  TRP617  ASP618  TYR619  PRO620  LYS621  CYS622 
 ASP623  PHE694  ASN695  SER759  ASP760  ASP761  ALA762  ILE779  LEU786  VAL792 
 PHE793  MET794  SER795  GLU796  ALA797  LYS798  CYS799  TRP800  GLU811  SER814 

> <Gold.Protein.RotatedAtoms>
  152.3908  134.6444  160.0107 H   0  0  0  0  0  0  0  0  0  0  0  0  # atno 6907 bound_to 6896
  151.6679  133.3309  159.3197 H   0  0  0  0  0  0  0  0  0  0  0  0  # atno 6908 bound_to 6896
  150.7825  134.6825  159.6496 H   0  0  0  0  0  0  0  0  0  0  0  0  # atno 6909 bound_to 6896
  146.2235  140.2694  142.8356 H   0  0  0  0  0  0  0  0  0  0  0  0  # atno 7974 bound_to 7965
  154.6737  140.2617  155.6980 H   0  0  0  0  0  0  0  0  0  0  0  0  # atno 8008 bound_to 7997
  156.2669  140.2824  156.1178 H   0  0  0  0  0  0  0  0  0  0  0  0  # atno 8009 bound_to 7997
  155.1131  140.0376  157.2719 H   0  0  0  0  0  0  0  0  0  0  0  0  # atno 8010 bound_to 7997
  140.6506  143.7554  150.7569 H   0  0  0  0  0  0  0  0  0  0  0  0  # atno 10167 bound_to 10162
  156.1234  130.6340  150.9501 H   0  0  0  0  0  0  0  0  0  0  0  0  # atno 10718 bound_to 10713
  153.7141  135.3263  155.3252 H   0  0  0  0  0  0  0  0  0  0  0  0  # atno 10763 bound_to 10752
  154.8376  135.4484  154.1284 H   0  0  0  0  0  0  0  0  0  0  0  0  # atno 10764 bound_to 10752
  153.2386  135.6968  153.7888 H   0  0  0  0  0  0  0  0  0  0  0  0  # atno 10765 bound_to 10752
  141.1419  133.6663  156.5805 H   0  0  0  0  0  0  0  0  0  0  0  0  # atno 11005 bound_to 11000
  144.9279  140.7942  143.5707 LP  0  0  0  0  0  0  0  0  0  0  0  0  # atno 17320 bound_to 7965
  145.2636  139.1982  143.4879 LP  0  0  0  0  0  0  0  0  0  0  0  0  # atno 17321 bound_to 7965
  140.1203  143.4618  152.2317 LP  0  0  0  0  0  0  0  0  0  0  0  0  # atno 17342 bound_to 10162
  139.5721  144.7468  151.3863 LP  0  0  0  0  0  0  0  0  0  0  0  0  # atno 17343 bound_to 10162
  157.6416  131.0909  150.8239 LP  0  0  0  0  0  0  0  0  0  0  0  0  # atno 17370 bound_to 10713
  156.8332  130.5023  149.5329 LP  0  0  0  0  0  0  0  0  0  0  0  0  # atno 17371 bound_to 10713
  140.3842  134.7497  157.4680 LP  0  0  0  0  0  0  0  0  0  0  0  0  # atno 17394 bound_to 11000
  140.0615  134.5989  155.8744 LP  0  0  0  0  0  0  0  0  0  0  0  0  # atno 17395 bound_to 11000

$$$$
