AV-unprocessed.smi:110|AV-procd|sdf|1078|dock2
  -GOLD-   2262018163D 1   1.00000     0.00000
 Structure written by MMmdl.
 46 50  0  0  0  0  0  0  0  0  1 V2000
  145.2980  137.1310  156.4846 O   0  0  0  0  0  0  0  0  0  0  0  0
  146.7069  137.1415  156.4004 C   0  0  0  0  0  0  0  0  0  0  0  0
  147.1478  137.4338  154.9578 C   0  0  2  0  0  0  0  0  0  0  0  0
  148.5694  137.5672  154.8897 O   0  0  0  0  0  0  0  0  0  0  0  0
  148.9568  138.6837  154.1409 C   0  0  2  0  0  0  0  0  0  0  0  0
  149.4814  139.7447  155.0746 N   0  0  0  0  0  0  0  0  0  0  0  0
  149.0274  141.0398  155.2091 C   0  0  0  0  0  0  0  0  0  0  0  0
  149.6725  141.7786  156.0681 N   0  0  0  0  0  0  0  0  0  0  0  0
  150.6843  140.9532  156.5410 C   0  0  0  0  0  0  0  0  0  0  0  0
  151.7526  141.1220  157.4720 C   0  0  0  0  0  0  0  0  0  0  0  0
  151.9654  142.2628  158.1812 N   0  0  0  0  0  0  0  0  0  0  0  0
  151.5120  143.5519  157.6355 C   0  0  0  0  0  0  0  0  0  0  0  0
  151.4082  144.5524  158.7991 C   0  0  0  0  0  0  0  0  0  0  0  0
  151.9603  143.7376  159.9208 C   0  0  0  0  0  0  0  0  0  0  0  0
  152.1851  144.1617  161.2420 C   0  0  0  0  0  0  0  0  0  0  0  0
  152.7304  143.2349  162.1546 C   0  0  0  0  0  0  0  0  0  0  0  0
  153.0440  141.9221  161.7350 C   0  0  0  0  0  0  0  0  0  0  0  0
  152.8116  141.5189  160.4013 C   0  0  0  0  0  0  0  0  0  0  0  0
  152.2503  142.4440  159.4937 C   0  0  0  0  0  0  0  0  0  0  0  0
  152.5783  140.0615  157.6636 N   0  0  0  0  0  0  0  0  0  0  0  0
  152.3908  138.9254  156.9896 C   0  0  0  0  0  0  0  0  0  0  0  0
  151.4439  138.6343  156.0985 N   0  0  0  0  0  0  0  0  0  0  0  0
  150.5903  139.6811  155.9030 C   0  0  0  0  0  0  0  0  0  0  0  0
  147.6900  139.1767  153.4283 C   0  0  1  0  0  0  0  0  0  0  0  0
  147.5565  138.5689  152.1569 O   0  0  0  0  0  0  0  0  0  0  0  0
  146.6138  138.7616  154.4184 C   0  0  1  0  0  0  0  0  0  0  0  0
  145.3345  138.6518  153.8241 O   0  0  0  0  0  0  0  0  0  0  0  0
  146.8484  136.6264  154.2868 H   0  0  0  0  0  0  0  0  0  0  0  0
  149.7996  138.4733  153.4814 H   0  0  0  0  0  0  0  0  0  0  0  0
  147.6984  140.2544  153.2724 H   0  0  0  0  0  0  0  0  0  0  0  0
  146.5699  139.4968  155.2238 H   0  0  0  0  0  0  0  0  0  0  0  0
  145.0455  136.6095  157.2310 H   0  0  0  0  0  0  0  0  0  0  0  0
  147.0665  137.9270  157.0663 H   0  0  0  0  0  0  0  0  0  0  0  0
  147.1191  136.1999  156.7625 H   0  0  0  0  0  0  0  0  0  0  0  0
  148.1930  141.4324  154.6467 H   0  0  0  0  0  0  0  0  0  0  0  0
  152.2438  143.9067  156.9090 H   0  0  0  0  0  0  0  0  0  0  0  0
  150.5538  143.4491  157.1242 H   0  0  0  0  0  0  0  0  0  0  0  0
  152.0020  145.4509  158.6287 H   0  0  0  0  0  0  0  0  0  0  0  0
  150.3750  144.8323  159.0062 H   0  0  0  0  0  0  0  0  0  0  0  0
  151.9501  145.1701  161.5492 H   0  0  0  0  0  0  0  0  0  0  0  0
  152.9147  143.5324  163.1765 H   0  0  0  0  0  0  0  0  0  0  0  0
  153.4695  141.2221  162.4388 H   0  0  0  0  0  0  0  0  0  0  0  0
  153.0744  140.5177  160.0951 H   0  0  0  0  0  0  0  0  0  0  0  0
  153.0989  138.1363  157.1949 H   0  0  0  0  0  0  0  0  0  0  0  0
  148.2048  137.8847  152.0845 H   0  0  0  0  0  0  0  0  0  0  0  0
  145.1188  139.4792  153.4215 H   0  0  0  0  0  0  0  0  0  0  0  0
  1  2  1  0  0  0  0
  1 32  1  0  0  0  0
  2  3  1  0  0  0  0
  2 33  1  0  0  0  0
  2 34  1  0  0  0  0
  3 28  1  0  0  0  0
  3 26  1  0  0  0  0
  3  4  1  0  0  0  0
  4  5  1  0  0  0  0
  5 29  1  0  0  0  0
  5  6  1  0  0  0  0
  5 24  1  0  0  0  0
  6 23  1  0  0  0  0
  6  7  1  0  0  0  0
  7  8  2  0  0  0  0
  7 35  1  0  0  0  0
  8  9  1  0  0  0  0
  9 23  2  0  0  0  0
  9 10  1  0  0  0  0
 10 11  1  0  0  0  0
 10 20  2  0  0  0  0
 11 19  1  0  0  0  0
 11 12  1  0  0  0  0
 12 13  1  0  0  0  0
 12 36  1  0  0  0  0
 12 37  1  0  0  0  0
 13 14  1  0  0  0  0
 13 38  1  0  0  0  0
 13 39  1  0  0  0  0
 14 19  2  0  0  0  0
 14 15  1  0  0  0  0
 15 16  2  0  0  0  0
 15 40  1  0  0  0  0
 16 17  1  0  0  0  0
 16 41  1  0  0  0  0
 17 18  2  0  0  0  0
 17 42  1  0  0  0  0
 18 19  1  0  0  0  0
 18 43  1  0  0  0  0
 20 21  1  0  0  0  0
 21 22  2  0  0  0  0
 21 44  1  0  0  0  0
 22 23  1  0  0  0  0
 24 30  1  0  0  0  0
 24 25  1  0  0  0  0
 24 26  1  0  0  0  0
 25 45  1  0  0  0  0
 26 31  1  0  0  0  0
 26 27  1  0  0  0  0
 27 46  1  0  0  0  0
M  END
> <s_m_source_file>
AV-unprocessed.smi

> <i_m_source_file_index>
110

> <i_lp_mmshare_version>
43012

> <i_f3d_flags>
0

> <s_epik_input>
W09IXVtDSDJdW0NASF0xT1tDQEhdKFtDQEhdKFtPSF0pW0NAQEhdMVtPSF0pbihbY0hdbjIpYyhjMjMpbltjSF1uYzNOKFtDSDJdW0NIMl00KWMoYzQ1KVtjSF1bY0hdW2NIXVtjSF01

> <s_epik_cmdline>
J2VwaWtfcHl0aG9uJywgJy1waCcsICc3LjAnLCAnLXRuJywgJzgnLCAnLW1hJywgJzIwMCcsICctbWV0YWxfYmluZGluZycsICctaW1hZScsICc8aW5maWxlLm1hZT4nLCAnLW9tYWUnLCAnPG91dGZpbGUubWFlPic=

> <r_lp_tautomer_probability>
1

> <r_epik_Ionization_Penalty>
0.00068475

> <r_epik_Ionization_Penalty_Charging>
0

> <r_epik_Ionization_Penalty_Neutral>
0.00068475

> <r_epik_State_Penalty>
0.000417442

> <r_epik_Charging_Adjusted_Penalty>
0.000417442

> <i_epik_Tot_Q>
0

> <i_epik_Tot_abs_Q>
0

> <r_epik_Metal_State_Penalty>
-0

> <b_epik_Metal_Only>
0

> <s_epik_Chemistry_Notes>
This compound contains an acetal/aminal-like group ( X-CH(R)-Y where X, Y are N, S, or O) that may be acid/base labile, releasing an aldehyde.

> <s_lp_Force_Field>
OPLS_2005

> <r_lp_Energy>
62.7544

> <b_lp_Chiralities_Consistent>
1

> <s_lp_Variant>
AV-unprocessed.smi:110-16

> <Gold.Version>
5.8.1

> <Gold.Id.Protein>
6NUR|6NUR_protein|mol2

> <Gold.PLP.Fitness>
54.9414

> <Gold.PLP.PLP>
-48.9685

> <Gold.PLP.part.hbond>
-4.0000

> <Gold.PLP.part.metal>
0.0000

> <Gold.PLP.part.buried>
-6.6537

> <Gold.PLP.part.nonpolar>
-40.0588

> <Gold.PLP.part.repulsive>
0.7653

> <Gold.PLP.ligand.clash>
0.0000

> <Gold.PLP.ligand.torsion>
0.5610

> <Gold.PLP.Chemscore.Hbond>
2.3184

> <Gold.PLP.Chemscore.CHOScore>
0.0000

> <Gold.PLP.Chemscore.Metal>
0.0000

> <Gold.Chemscore.Hbonds>
donor molecule, donor type, donor heavy atom, donor atom, acceptor molecule, acceptor atom, score
      L1  H    25    45       P1  7948  1.00
      L1  H    27    46       P1 10175  0.86
      P1  H  7997  8010       L1    20  0.32

> <Gold.PLP.Chemscore.Internal.Correction>
0.1398

> <Gold.Rescore>
     Score         DG    S(hbond)    S(metal)    S(lipo)     H(rot)  DE(clash)    DE(int)     intcor
     13.93     -15.63       1.94        0.00     105.37       3.38       0.12       1.59       ----

> <Gold.Chemscore.Fitness>
13.9252

> <Gold.Chemscore.DG>
-15.6328

> <Gold.Chemscore.ZeroCoef>
-5.4800

> <Gold.Chemscore.Hbond>
1.9422

> <Gold.Chemscore.Metal>
0.0000

> <Gold.Chemscore.Lipo>
105.3686

> <Gold.Chemscore.Internal_Hbond>
0.0000

> <Gold.Chemscore.DEClash>
0.1155

> <Gold.Chemscore.DEInternal>
1.5920

> <Gold.Chemscore.Rot>
3.3837

> <Gold.Chemscore.Internal.Correction>
   9.000000E+99

> <Gold.Chemscore.Hbonds>
donor molecule, donor type, donor heavy atom, donor atom, acceptor molecule, acceptor atom, score
      L1  H    25    45       P1  7948  1.00
      L1  H    27    46       P1 10175  0.83
      P1  H  7997  8010       L1    20  0.01

> <Gold.Chemscore.Hbond.Weighted>
-6.4868

> <Gold.Chemscore.Metal.Weighted>
-0.0000

> <Gold.Chemscore.Lipo.Weighted>
-12.3281

> <Gold.Chemscore.Internal_Hbond.Weighted>
0.0000

> <Gold.Chemscore.DEClash.Weighted>
0.1155

> <Gold.Chemscore.DEInternal.Weighted>
1.5920

> <Gold.Chemscore.Rot.Weighted>
8.6622

> <Gold.Chemscore.Internal.Correction.Weighted>
   9.000000E+99

> <Gold.Protein.RotatedTorsions>
[ 6907 6896 6895 6894 ] final  103.57 input  -60.11 | X-H torsion
[ 7974 7965 7964 7962 ] final  -28.02 input  175.53 | X-H torsion
[ 8008 7997 7996 7995 ] final   40.81 input   59.86 | X-H torsion
[ 10167 10162 10161 10158 ] final  155.84 input  -65.29 | X-H torsion
[ 10718 10713 10712 10709 ] final  -56.77 input   66.30 | X-H torsion
[ 10763 10752 10751 10750 ] final  -87.63 input  -60.55 | X-H torsion
[ 11005 11000 10999 10996 ] final   34.36 input  -57.11 | X-H torsion

> <Gold.Protein.ActiveResidues>
 VAL166  LYS551  ARG553  GLY616  TRP617  ASP618  TYR619  PRO620  LYS621  CYS622 
 ASP623  PHE694  ASN695  SER759  ASP760  ASP761  ALA762  ILE779  LEU786  VAL792 
 PHE793  MET794  SER795  GLU796  ALA797  LYS798  CYS799  TRP800  GLU811  SER814 

> <Gold.Protein.RotatedAtoms>
  152.5291  133.9806  159.7804 H   0  0  0  0  0  0  0  0  0  0  0  0  # atno 6907 bound_to 6896
  151.0061  133.6002  159.2696 H   0  0  0  0  0  0  0  0  0  0  0  0  # atno 6908 bound_to 6896
  151.3093  135.0796  159.9320 H   0  0  0  0  0  0  0  0  0  0  0  0  # atno 6909 bound_to 6896
  146.1317  140.5228  142.8690 H   0  0  0  0  0  0  0  0  0  0  0  0  # atno 7974 bound_to 7965
  155.2592  140.3358  155.4275 H   0  0  0  0  0  0  0  0  0  0  0  0  # atno 8008 bound_to 7997
  156.2182  140.1798  156.7582 H   0  0  0  0  0  0  0  0  0  0  0  0  # atno 8009 bound_to 7997
  154.5785  140.0657  156.9054 H   0  0  0  0  0  0  0  0  0  0  0  0  # atno 8010 bound_to 7997
  139.4821  144.5062  151.8094 H   0  0  0  0  0  0  0  0  0  0  0  0  # atno 10167 bound_to 10162
  156.1262  130.4162  150.0350 H   0  0  0  0  0  0  0  0  0  0  0  0  # atno 10718 bound_to 10713
  154.6357  135.5406  153.7731 H   0  0  0  0  0  0  0  0  0  0  0  0  # atno 10763 bound_to 10752
  153.0307  135.6447  154.1235 H   0  0  0  0  0  0  0  0  0  0  0  0  # atno 10764 bound_to 10752
  154.1162  135.2923  155.3199 H   0  0  0  0  0  0  0  0  0  0  0  0  # atno 10765 bound_to 10752
  140.2537  134.3273  155.7881 H   0  0  0  0  0  0  0  0  0  0  0  0  # atno 11005 bound_to 11000
  144.7697  140.5611  143.6678 LP  0  0  0  0  0  0  0  0  0  0  0  0  # atno 17320 bound_to 7965
  145.5245  139.1476  143.3533 LP  0  0  0  0  0  0  0  0  0  0  0  0  # atno 17321 bound_to 7965
  140.4560  144.1788  150.5901 LP  0  0  0  0  0  0  0  0  0  0  0  0  # atno 17342 bound_to 10162
  140.4534  143.2477  151.9317 LP  0  0  0  0  0  0  0  0  0  0  0  0  # atno 17343 bound_to 10162
  156.8275  130.9380  151.3638 LP  0  0  0  0  0  0  0  0  0  0  0  0  # atno 17370 bound_to 10713
  157.6444  130.8832  149.9509 LP  0  0  0  0  0  0  0  0  0  0  0  0  # atno 17371 bound_to 10713
  141.2198  133.7368  156.9077 LP  0  0  0  0  0  0  0  0  0  0  0  0  # atno 17394 bound_to 11000
  140.1533  134.9215  157.2620 LP  0  0  0  0  0  0  0  0  0  0  0  0  # atno 17395 bound_to 11000

$$$$
