AV-unprocessed.smi:1271|AV-procd|sdf|5333|dock2
  -GOLD-   22720 4463D 1   1.00000     0.00000
 Structure written by MMmdl.
 35 36  0  0  0  0  0  0  0  0  1 V2000
  147.6162  141.9888  155.8816 C   0  0  0  0  0  0  0  0  0  0  0  0
  148.9519  141.2393  156.0061 C   0  0  1  0  0  0  0  0  0  0  0  0
  149.4302  140.7061  154.6417 C   0  0  0  0  0  0  0  0  0  0  0  0
  150.3834  139.6183  154.7791 N   0  0  0  0  0  0  0  0  0  0  0  0
  150.3541  138.3750  154.1835 C   0  0  0  0  0  0  0  0  0  0  0  0
  151.4480  137.6875  154.6247 C   0  0  0  0  0  0  0  0  0  0  0  0
  152.0950  138.6057  155.4983 C   0  0  0  0  0  0  0  0  0  0  0  0
  151.4569  139.7614  155.5872 N   0  0  0  0  0  0  0  0  0  0  0  0
  149.9687  142.1184  156.5775 N   0  0  0  0  0  0  0  0  0  0  0  0
  150.6255  141.9225  157.7329 C   0  0  0  0  0  0  0  0  0  0  0  0
  150.3798  140.9693  158.4735 O   0  0  0  0  0  0  0  0  0  0  0  0
  151.5750  142.8529  158.0067 N   0  0  0  0  0  0  0  0  0  0  0  0
  151.6704  144.1950  157.4086 C   0  0  0  0  0  0  0  0  0  0  0  0
  151.0435  145.2174  158.3705 C   0  0  0  0  0  0  0  0  0  0  0  0
  151.9580  145.2746  159.9436 S   0  0  0  0  0  0  0  0  0  0  0  0
  152.0264  143.4956  160.3261 C   0  0  0  0  0  0  0  0  0  0  0  0
  152.5224  142.6867  159.1152 C   0  0  0  0  0  0  0  0  0  0  0  0
  146.8441  141.3448  155.4599 H   0  0  0  0  0  0  0  0  0  0  0  0
  147.7095  142.8627  155.2363 H   0  0  0  0  0  0  0  0  0  0  0  0
  147.2614  142.3294  156.8548 H   0  0  0  0  0  0  0  0  0  0  0  0
  148.8041  140.3850  156.6697 H   0  0  0  0  0  0  0  0  0  0  0  0
  148.5813  140.3362  154.0655 H   0  0  0  0  0  0  0  0  0  0  0  0
  149.8819  141.5053  154.0510 H   0  0  0  0  0  0  0  0  0  0  0  0
  149.5639  138.0855  153.5065 H   0  0  0  0  0  0  0  0  0  0  0  0
  151.7407  136.6808  154.3649 H   0  0  0  0  0  0  0  0  0  0  0  0
  153.0026  138.4674  156.0672 H   0  0  0  0  0  0  0  0  0  0  0  0
  150.2299  142.9218  156.0244 H   0  0  0  0  0  0  0  0  0  0  0  0
  152.7163  144.4474  157.2286 H   0  0  0  0  0  0  0  0  0  0  0  0
  151.1969  144.2631  156.4289 H   0  0  0  0  0  0  0  0  0  0  0  0
  151.0501  146.2127  157.9261 H   0  0  0  0  0  0  0  0  0  0  0  0
  150.0020  144.9629  158.5710 H   0  0  0  0  0  0  0  0  0  0  0  0
  152.6873  143.3466  161.1801 H   0  0  0  0  0  0  0  0  0  0  0  0
  151.0341  143.1582  160.6278 H   0  0  0  0  0  0  0  0  0  0  0  0
  152.6467  141.6393  159.3941 H   0  0  0  0  0  0  0  0  0  0  0  0
  153.5155  143.0250  158.8163 H   0  0  0  0  0  0  0  0  0  0  0  0
  1  2  1  0  0  0  0
  1 18  1  0  0  0  0
  1 19  1  0  0  0  0
  1 20  1  0  0  0  0
  2  3  1  0  0  0  0
  2  9  1  0  0  0  0
  2 21  1  0  0  0  0
  3  4  1  0  0  0  0
  3 22  1  0  0  0  0
  3 23  1  0  0  0  0
  4  8  1  0  0  0  0
  4  5  1  0  0  0  0
  5  6  2  0  0  0  0
  5 24  1  0  0  0  0
  6  7  1  0  0  0  0
  6 25  1  0  0  0  0
  7  8  2  0  0  0  0
  7 26  1  0  0  0  0
  9 10  1  0  0  0  0
  9 27  1  0  0  0  0
 10 11  2  0  0  0  0
 10 12  1  0  0  0  0
 12 17  1  0  0  0  0
 12 13  1  0  0  0  0
 13 14  1  0  0  0  0
 13 28  1  0  0  0  0
 13 29  1  0  0  0  0
 14 15  1  0  0  0  0
 14 30  1  0  0  0  0
 14 31  1  0  0  0  0
 15 16  1  0  0  0  0
 16 17  1  0  0  0  0
 16 32  1  0  0  0  0
 16 33  1  0  0  0  0
 17 34  1  0  0  0  0
 17 35  1  0  0  0  0
M  END
> <s_m_source_file>
AV-unprocessed.smi

> <i_m_source_file_index>
1271

> <i_lp_mmshare_version>
43012

> <i_f3d_flags>
0

> <s_epik_input>
bjFbY0hdW2NIXVtjSF1uMVtDSDJdW0NAQEhdKFtDSDNdKVtOSF1DKD1PKU4yW0NIMl1bQ0gyXVNbQ0gyXVtDSDJdMg==

> <s_epik_cmdline>
J2VwaWtfcHl0aG9uJywgJy1waCcsICc3LjAnLCAnLXRuJywgJzgnLCAnLW1hJywgJzIwMCcsICctbWV0YWxfYmluZGluZycsICctaW1hZScsICc8aW5maWxlLm1hZT4nLCAnLW9tYWUnLCAnPG91dGZpbGUubWFlPic=

> <r_lp_tautomer_probability>
1

> <r_epik_Ionization_Penalty>
5.86346e-05

> <r_epik_Ionization_Penalty_Charging>
0

> <r_epik_Ionization_Penalty_Neutral>
5.86346e-05

> <r_epik_State_Penalty>
-0

> <r_epik_Charging_Adjusted_Penalty>
0

> <i_epik_Tot_Q>
0

> <i_epik_Tot_abs_Q>
0

> <r_epik_Metal_State_Penalty>
-0

> <b_epik_Metal_Only>
0

> <s_lp_Force_Field>
OPLS_2005

> <r_lp_Energy>
23.1202

> <b_lp_Chiralities_Consistent>
1

> <s_lp_Variant>
AV-unprocessed.smi:1271-2

> <Gold.Version>
5.8.1

> <Gold.Id.Protein>
6NUR|6NUR_protein|mol2

> <Gold.PLP.Fitness>
45.2600

> <Gold.PLP.PLP>
-40.4852

> <Gold.PLP.part.hbond>
-2.0000

> <Gold.PLP.part.metal>
0.0000

> <Gold.PLP.part.buried>
-0.8147

> <Gold.PLP.part.nonpolar>
-36.5533

> <Gold.PLP.part.repulsive>
0.0711

> <Gold.PLP.ligand.clash>
0.0000

> <Gold.PLP.ligand.torsion>
0.3591

> <Gold.PLP.Chemscore.Hbond>
0.4805

> <Gold.PLP.Chemscore.CHOScore>
1.3377

> <Gold.PLP.Chemscore.Metal>
0.0000

> <Gold.Chemscore.Hbonds>
donor molecule, donor type, donor heavy atom, donor atom, acceptor molecule, acceptor atom, score
      L1  H     9    27       P1  8028  0.19
      L1  C     5    24       P1  7948  1.00

> <Gold.PLP.Chemscore.Internal.Correction>
0.0385

> <Gold.Rescore>
     Score         DG    S(hbond)    S(metal)    S(lipo)     H(rot)  DE(clash)    DE(int)     intcor
     16.24     -16.69       0.92        0.00     100.41       1.41       0.13       0.32       ----

> <Gold.Chemscore.Fitness>
16.2428

> <Gold.Chemscore.DG>
-16.6903

> <Gold.Chemscore.ZeroCoef>
-5.4800

> <Gold.Chemscore.Hbond>
0.9172

> <Gold.Chemscore.Metal>
0.0000

> <Gold.Chemscore.Lipo>
100.4147

> <Gold.Chemscore.Internal_Hbond>
0.0000

> <Gold.Chemscore.DEClash>
0.1302

> <Gold.Chemscore.DEInternal>
0.3173

> <Gold.Chemscore.Rot>
1.4069

> <Gold.Chemscore.Internal.Correction>
   9.000000E+99

> <Gold.Chemscore.Hbonds>
donor molecule, donor type, donor heavy atom, donor atom, acceptor molecule, acceptor atom, score
      L1  H     9    27       P1  8028  0.20

> <Gold.Chemscore.Hbond.Weighted>
-3.0634

> <Gold.Chemscore.Metal.Weighted>
-0.0000

> <Gold.Chemscore.Lipo.Weighted>
-11.7485

> <Gold.Chemscore.Internal_Hbond.Weighted>
0.0000

> <Gold.Chemscore.DEClash.Weighted>
0.1302

> <Gold.Chemscore.DEInternal.Weighted>
0.3173

> <Gold.Chemscore.Rot.Weighted>
3.6017

> <Gold.Chemscore.Internal.Correction.Weighted>
   9.000000E+99

> <Gold.Protein.RotatedTorsions>
[ 6907 6896 6895 6894 ] final   78.99 input  -60.11 | X-H torsion
[ 7974 7965 7964 7962 ] final  158.72 input  175.53 | X-H torsion
[ 8008 7997 7996 7995 ] final   54.25 input   59.86 | X-H torsion
[ 10167 10162 10161 10158 ] final -159.86 input  -65.29 | X-H torsion
[ 10718 10713 10712 10709 ] final  176.98 input   66.30 | X-H torsion
[ 10763 10752 10751 10750 ] final   36.71 input  -60.55 | X-H torsion
[ 11005 11000 10999 10996 ] final  -51.34 input  -57.11 | X-H torsion

> <Gold.Protein.ActiveResidues>
 VAL166  LYS551  ARG553  GLY616  TRP617  ASP618  TYR619  PRO620  LYS621  CYS622 
 ASP623  PHE694  ASN695  SER759  ASP760  ASP761  ALA762  ILE779  LEU786  VAL792 
 PHE793  MET794  SER795  GLU796  ALA797  LYS798  CYS799  TRP800  GLU811  SER814 

> <Gold.Protein.RotatedAtoms>
  152.5181  134.3580  159.9274 H   0  0  0  0  0  0  0  0  0  0  0  0  # atno 6907 bound_to 6896
  151.3531  133.3911  159.2690 H   0  0  0  0  0  0  0  0  0  0  0  0  # atno 6908 bound_to 6896
  150.9711  134.9102  159.7846 H   0  0  0  0  0  0  0  0  0  0  0  0  # atno 6909 bound_to 6896
  144.7830  139.7518  143.6252 H   0  0  0  0  0  0  0  0  0  0  0  0  # atno 7974 bound_to 7965
  155.4817  140.3468  155.4341 H   0  0  0  0  0  0  0  0  0  0  0  0  # atno 8008 bound_to 7997
  156.1035  140.1441  156.9464 H   0  0  0  0  0  0  0  0  0  0  0  0  # atno 8009 bound_to 7997
  154.4709  140.0901  156.7119 H   0  0  0  0  0  0  0  0  0  0  0  0  # atno 8010 bound_to 7997
  139.6583  143.9958  152.2209 H   0  0  0  0  0  0  0  0  0  0  0  0  # atno 10167 bound_to 10162
  156.9121  130.9913  151.3019 H   0  0  0  0  0  0  0  0  0  0  0  0  # atno 10718 bound_to 10713
  153.0066  135.6298  154.2029 H   0  0  0  0  0  0  0  0  0  0  0  0  # atno 10763 bound_to 10752
  154.1773  135.2815  155.3064 H   0  0  0  0  0  0  0  0  0  0  0  0  # atno 10764 bound_to 10752
  154.5862  135.5632  153.7293 H   0  0  0  0  0  0  0  0  0  0  0  0  # atno 10765 bound_to 10752
  141.0866  133.6641  156.3863 H   0  0  0  0  0  0  0  0  0  0  0  0  # atno 11005 bound_to 11000
  146.2048  139.5365  142.9720 LP  0  0  0  0  0  0  0  0  0  0  0  0  # atno 17320 bound_to 7965
  145.5999  141.0357  143.2024 LP  0  0  0  0  0  0  0  0  0  0  0  0  # atno 17321 bound_to 7965
  139.9691  144.6506  150.8006 LP  0  0  0  0  0  0  0  0  0  0  0  0  # atno 17342 bound_to 10162
  140.7569  143.3075  151.2926 LP  0  0  0  0  0  0  0  0  0  0  0  0  # atno 17343 bound_to 10162
  157.5961  130.8478  149.8731 LP  0  0  0  0  0  0  0  0  0  0  0  0  # atno 17370 bound_to 10713
  156.0531  130.3714  150.1155 LP  0  0  0  0  0  0  0  0  0  0  0  0  # atno 17371 bound_to 10713
  140.5349  134.6176  157.5362 LP  0  0  0  0  0  0  0  0  0  0  0  0  # atno 17394 bound_to 11000
  139.9685  134.7333  156.0089 LP  0  0  0  0  0  0  0  0  0  0  0  0  # atno 17395 bound_to 11000

$$$$
