AV-unprocessed.smi:1589|AV-procd|sdf|6393|dock3
  -GOLD-   22720 7 23D 1   1.00000     0.00000
 Structure written by MMmdl.
 44 45  0  0  0  0  0  0  0  0  2 V2000
  152.7366  143.0149  158.9265 C   0  0  0  0  0  0  0  0  0  0  0  0
  151.8693  143.9587  158.0667 C   0  0  0  0  0  0  0  0  0  0  0  0
  151.4006  145.1351  158.9482 C   0  0  0  0  0  0  0  0  0  0  0  0
  150.7226  143.2522  157.4084 N   0  3  0  0  0  0  0  0  0  0  0  0
  149.8118  142.5649  158.3751 C   0  0  0  0  0  0  0  0  0  0  0  0
  148.6778  141.7952  157.6739 C   0  0  0  0  0  0  0  0  0  0  0  0
  149.2665  140.8560  156.7137 N   0  0  0  0  0  0  0  0  0  0  0  0
  149.4097  139.5166  156.8805 C   0  0  0  0  0  0  0  0  0  0  0  0
  149.9406  138.7975  156.0339 O   0  0  0  0  0  0  0  0  0  0  0  0
  148.8772  139.0418  158.0225 N   0  0  0  0  0  0  0  0  0  0  0  0
  148.9060  137.7082  158.5016 C   0  0  0  0  0  0  0  0  0  0  0  0
  149.7953  136.6470  158.1704 C   0  0  0  0  0  0  0  0  0  0  0  0
  149.4907  135.5456  158.8398 N   0  0  0  0  0  0  0  0  0  0  0  0
  148.4199  135.8790  159.6031 N   0  0  0  0  0  0  0  0  0  0  0  0
  147.8231  134.8850  160.4806 C   0  0  0  0  0  0  0  0  0  0  0  0
  147.6076  135.4166  161.9027 C   0  0  0  0  0  0  0  0  0  0  0  0
  147.0086  134.5936  162.7670 N   0  0  0  0  0  0  0  0  0  0  0  0
  147.9750  136.5452  162.2256 O   0  0  0  0  0  0  0  0  0  0  0  0
  148.0356  137.1925  159.4140 C   0  0  0  0  0  0  0  0  0  0  0  0
  149.9713  141.5906  155.6641 C   0  0  0  0  0  0  0  0  0  0  0  0
  151.1512  142.3530  156.2932 C   0  0  0  0  0  0  0  0  0  0  0  0
  153.4958  143.5719  159.4764 H   0  0  0  0  0  0  0  0  0  0  0  0
  153.2778  142.2866  158.3227 H   0  0  0  0  0  0  0  0  0  0  0  0
  152.1340  142.4744  159.6573 H   0  0  0  0  0  0  0  0  0  0  0  0
  152.5075  144.3648  157.2802 H   0  0  0  0  0  0  0  0  0  0  0  0
  152.2347  145.5679  159.5014 H   0  0  0  0  0  0  0  0  0  0  0  0
  150.6562  144.8134  159.6774 H   0  0  0  0  0  0  0  0  0  0  0  0
  150.9747  145.9489  158.3620 H   0  0  0  0  0  0  0  0  0  0  0  0
  150.3930  141.8796  158.9944 H   0  0  0  0  0  0  0  0  0  0  0  0
  149.3493  143.2894  159.0438 H   0  0  0  0  0  0  0  0  0  0  0  0
  148.0377  141.3228  158.4192 H   0  0  0  0  0  0  0  0  0  0  0  0
  148.0294  142.4922  157.1408 H   0  0  0  0  0  0  0  0  0  0  0  0
  148.4330  139.7159  158.6284 H   0  0  0  0  0  0  0  0  0  0  0  0
  150.6313  136.6274  157.4874 H   0  0  0  0  0  0  0  0  0  0  0  0
  146.8712  134.5740  160.0477 H   0  0  0  0  0  0  0  0  0  0  0  0
  148.4632  134.0023  160.5203 H   0  0  0  0  0  0  0  0  0  0  0  0
  146.8382  134.8924  163.7162 H   0  0  0  0  0  0  0  0  0  0  0  0
  146.7244  133.6728  162.4647 H   0  0  0  0  0  0  0  0  0  0  0  0
  147.2003  137.6332  159.9381 H   0  0  0  0  0  0  0  0  0  0  0  0
  150.3288  140.9404  154.8642 H   0  0  0  0  0  0  0  0  0  0  0  0
  149.2841  142.2898  155.1851 H   0  0  0  0  0  0  0  0  0  0  0  0
  151.6315  142.9266  155.5020 H   0  0  0  0  0  0  0  0  0  0  0  0
  151.8895  141.6413  156.6666 H   0  0  0  0  0  0  0  0  0  0  0  0
  150.1611  143.9717  156.9761 H   0  0  0  0  0  0  0  0  0  0  0  0
  1  2  1  0  0  0  0
  1 22  1  0  0  0  0
  1 23  1  0  0  0  0
  1 24  1  0  0  0  0
  2  3  1  0  0  0  0
  2  4  1  0  0  0  0
  2 25  1  0  0  0  0
  3 26  1  0  0  0  0
  3 27  1  0  0  0  0
  3 28  1  0  0  0  0
  4 21  1  0  0  0  0
  4  5  1  0  0  0  0
  4 44  1  0  0  0  0
  5  6  1  0  0  0  0
  5 29  1  0  0  0  0
  5 30  1  0  0  0  0
  6  7  1  0  0  0  0
  6 31  1  0  0  0  0
  6 32  1  0  0  0  0
  7  8  1  0  0  0  0
  7 20  1  0  0  0  0
  8  9  2  0  0  0  0
  8 10  1  0  0  0  0
 10 11  1  0  0  0  0
 10 33  1  0  0  0  0
 11 19  2  0  0  0  0
 11 12  1  0  0  0  0
 12 13  2  0  0  0  0
 12 34  1  0  0  0  0
 13 14  1  0  0  0  0
 14 15  1  0  0  0  0
 14 19  1  0  0  0  0
 15 16  1  0  0  0  0
 15 35  1  0  0  0  0
 15 36  1  0  0  0  0
 16 17  1  0  0  0  0
 16 18  2  0  0  0  0
 17 37  1  0  0  0  0
 17 38  1  0  0  0  0
 19 39  1  0  0  0  0
 20 21  1  0  0  0  0
 20 40  1  0  0  0  0
 20 41  1  0  0  0  0
 21 42  1  0  0  0  0
 21 43  1  0  0  0  0
M  CHG  1   4   1
M  END
> <s_m_source_file>
AV-unprocessed.smi

> <i_m_source_file_index>
1589

> <i_lp_mmshare_version>
43012

> <i_f3d_flags>
0

> <s_epik_input>
W0NIM11bQ0hdKFtDSDNdKU4xW0NIMl1bQ0gyXU4oW0NIMl1bQ0gyXTEpQyg9TylbTkhdYzJbY0hdbm4oW2NIXTIpW0NIMl1DKD1PKVtOSDJd

> <s_epik_cmdline>
J2VwaWtfcHl0aG9uJywgJy1waCcsICc3LjAnLCAnLXRuJywgJzgnLCAnLW1hJywgJzIwMCcsICctbWV0YWxfYmluZGluZycsICctaW1hZScsICc8aW5maWxlLm1hZT4nLCAnLW9tYWUnLCAnPG91dGZpbGUubWFlPic=

> <r_lp_tautomer_probability>
1

> <r_epik_Ionization_Penalty>
0.241469

> <r_epik_Ionization_Penalty_Charging>
0.241445

> <r_epik_Ionization_Penalty_Neutral>
2.46507e-05

> <r_epik_State_Penalty>
0.232445

> <r_epik_Charging_Adjusted_Penalty>
0.47389

> <i_epik_Tot_Q>
1

> <i_epik_Tot_abs_Q>
1

> <r_epik_Metal_State_Penalty>
0.232446

> <b_epik_Metal_Only>
0

> <s_lp_Force_Field>
OPLS_2005

> <r_lp_Energy>
56.898

> <b_lp_Chiralities_Consistent>
1

> <s_lp_Variant>
AV-unprocessed.smi:1589-1

> <Gold.Version>
5.8.1

> <Gold.Id.Protein>
6NUR|6NUR_protein|mol2

> <Gold.PLP.Fitness>
46.2428

> <Gold.PLP.PLP>
-34.8254

> <Gold.PLP.part.hbond>
-3.0000

> <Gold.PLP.part.metal>
0.0000

> <Gold.PLP.part.buried>
-7.2465

> <Gold.PLP.part.nonpolar>
-24.8097

> <Gold.PLP.part.repulsive>
0.3221

> <Gold.PLP.ligand.clash>
0.0000

> <Gold.PLP.ligand.torsion>
0.3529

> <Gold.PLP.Chemscore.Hbond>
4.0000

> <Gold.PLP.Chemscore.CHOScore>
0.0000

> <Gold.PLP.Chemscore.Metal>
0.0000

> <Gold.Chemscore.Hbonds>
donor molecule, donor type, donor heavy atom, donor atom, acceptor molecule, acceptor atom, score
      L1  H     4    44       P1  8028  2.00
      P1  H  6896  6908       L1    13  1.00
      P1  H  6931  6943       L1    18  1.00

> <Gold.PLP.Chemscore.Internal.Correction>
0.1231

> <Gold.Rescore>
     Score         DG    S(hbond)    S(metal)    S(lipo)     H(rot)  DE(clash)    DE(int)     intcor
     19.15     -19.80       2.93        0.00      78.99       1.84       0.19       0.47       ----

> <Gold.Chemscore.Fitness>
19.1473

> <Gold.Chemscore.DG>
-19.8048

> <Gold.Chemscore.ZeroCoef>
-5.4800

> <Gold.Chemscore.Hbond>
2.9315

> <Gold.Chemscore.Metal>
0.0000

> <Gold.Chemscore.Lipo>
78.9907

> <Gold.Chemscore.Internal_Hbond>
0.0000

> <Gold.Chemscore.DEClash>
0.1920

> <Gold.Chemscore.DEInternal>
0.4656

> <Gold.Chemscore.Rot>
1.8392

> <Gold.Chemscore.Internal.Correction>
   9.000000E+99

> <Gold.Chemscore.Hbonds>
donor molecule, donor type, donor heavy atom, donor atom, acceptor molecule, acceptor atom, score
      L1  H     4    44       P1  8028  0.94
      P1  H  6896  6908       L1    13  0.95
      P1  H  6931  6943       L1    18  0.93

> <Gold.Chemscore.Hbond.Weighted>
-9.7912

> <Gold.Chemscore.Metal.Weighted>
-0.0000

> <Gold.Chemscore.Lipo.Weighted>
-9.2419

> <Gold.Chemscore.Internal_Hbond.Weighted>
0.0000

> <Gold.Chemscore.DEClash.Weighted>
0.1920

> <Gold.Chemscore.DEInternal.Weighted>
0.4656

> <Gold.Chemscore.Rot.Weighted>
4.7083

> <Gold.Chemscore.Internal.Correction.Weighted>
   9.000000E+99

> <Gold.Protein.RotatedTorsions>
[ 6907 6896 6895 6894 ] final  160.21 input  -60.11 | X-H torsion
[ 7974 7965 7964 7962 ] final  125.36 input  175.53 | X-H torsion
[ 8008 7997 7996 7995 ] final   71.42 input   59.86 | X-H torsion
[ 10167 10162 10161 10158 ] final  -81.01 input  -65.29 | X-H torsion
[ 10718 10713 10712 10709 ] final  143.04 input   66.30 | X-H torsion
[ 10763 10752 10751 10750 ] final  -73.23 input  -60.55 | X-H torsion
[ 11005 11000 10999 10996 ] final   90.12 input  -57.11 | X-H torsion

> <Gold.Protein.ActiveResidues>
 VAL166  LYS551  ARG553  GLY616  TRP617  ASP618  TYR619  PRO620  LYS621  CYS622 
 ASP623  PHE694  ASN695  SER759  ASP760  ASP761  ALA762  ILE779  LEU786  VAL792 
 PHE793  MET794  SER795  GLU796  ALA797  LYS798  CYS799  TRP800  GLU811  SER814 

> <Gold.Protein.RotatedAtoms>
  151.9741  133.3735  159.4082 H   0  0  0  0  0  0  0  0  0  0  0  0  # atno 6907 bound_to 6896
  150.6944  134.4108  159.5170 H   0  0  0  0  0  0  0  0  0  0  0  0  # atno 6908 bound_to 6896
  152.1817  134.8748  160.0576 H   0  0  0  0  0  0  0  0  0  0  0  0  # atno 6909 bound_to 6896
  145.0739  139.3708  143.4943 H   0  0  0  0  0  0  0  0  0  0  0  0  # atno 7974 bound_to 7965
  155.7536  140.3488  155.5162 H   0  0  0  0  0  0  0  0  0  0  0  0  # atno 8008 bound_to 7997
  155.8981  140.1029  157.1391 H   0  0  0  0  0  0  0  0  0  0  0  0  # atno 8009 bound_to 7997
  154.4041  140.1291  156.4388 H   0  0  0  0  0  0  0  0  0  0  0  0  # atno 8010 bound_to 7997
  140.4451  143.2501  151.8569 H   0  0  0  0  0  0  0  0  0  0  0  0  # atno 10167 bound_to 10162
  157.3735  131.0982  151.0806 H   0  0  0  0  0  0  0  0  0  0  0  0  # atno 10718 bound_to 10713
  154.4566  135.5904  153.6227 H   0  0  0  0  0  0  0  0  0  0  0  0  # atno 10763 bound_to 10752
  152.9819  135.6034  154.3539 H   0  0  0  0  0  0  0  0  0  0  0  0  # atno 10764 bound_to 10752
  154.3406  135.2841  155.2403 H   0  0  0  0  0  0  0  0  0  0  0  0  # atno 10765 bound_to 10752
  139.8862  134.8594  156.3239 H   0  0  0  0  0  0  0  0  0  0  0  0  # atno 11005 bound_to 11000
  146.3529  140.0497  142.8637 LP  0  0  0  0  0  0  0  0  0  0  0  0  # atno 17320 bound_to 7965
  145.1259  140.9489  143.4573 LP  0  0  0  0  0  0  0  0  0  0  0  0  # atno 17321 bound_to 7965
  139.4792  144.5184  151.8835 LP  0  0  0  0  0  0  0  0  0  0  0  0  # atno 17342 bound_to 10162
  140.4273  144.2163  150.5887 LP  0  0  0  0  0  0  0  0  0  0  0  0  # atno 17343 bound_to 10162
  157.1901  130.6348  149.5701 LP  0  0  0  0  0  0  0  0  0  0  0  0  # atno 17370 bound_to 10713
  155.9760  130.4725  150.6501 LP  0  0  0  0  0  0  0  0  0  0  0  0  # atno 17371 bound_to 10713
  140.9768  133.7292  156.0614 LP  0  0  0  0  0  0  0  0  0  0  0  0  # atno 17394 bound_to 11000
  140.7800  134.3736  157.5489 LP  0  0  0  0  0  0  0  0  0  0  0  0  # atno 17395 bound_to 11000

$$$$
