#       Name:                AV-unprocessed.smi:2037
#       Creating user name   scv26
#       Creation time:       Fri Mar 27 10:54:47 2020


#       File generated by GOLD software.
#

@<TRIPOS>MOLECULE
AV-unprocessed.smi:2037
    42    43     1
SMALL
NO_CHARGES


@<TRIPOS>ATOM
      1 ****        -3.5204   0.7589   3.5505 C.3            1 S1                 0.0000
      2 ****        -2.6287   1.8486   2.9302 C.3            1 S1                 0.0000
      3 ****        -2.7935   1.9564   1.4037 C.3            1 S1                 0.0000
      4 ****        -2.1185   0.7897   0.6604 C.3            1 S1                 0.0000
      5 ****        -0.6818   0.6765   1.0221 N.4            1 S1                 1.0000
      6 ****         0.0158  -0.3569   0.2164 C.3            1 S1                 0.0000
      7 ****         1.5408  -0.1447   0.1806 C.3            1 S1                 0.0000
      8 ****         2.1941  -1.1355  -0.6661 N.am           1 S1                 0.0000
      9 ****         2.2720  -1.0915  -2.0036 C.2            1 S1                 0.0000
     10 ****         1.7571  -0.1543  -2.6183 O.2            1 S1                 0.0000
     11 ****         2.9386  -2.1362  -2.5433 N.pl3          1 S1                -1.0000
     12 ****         3.1141  -2.2070  -3.8729 C.2            1 S1                 0.0000
     13 ****         4.2485  -1.8376  -4.4785 N.2            1 S1                 0.0000
     14 ****         4.2166  -2.0000  -5.8645 C.2            1 S1                 0.0000
     15 ****         3.0331  -2.5138  -6.3243 C.2            1 S1                 0.0000
     16 ****         1.9169  -2.8107  -5.0222 S.3            1 S1                 0.0000
     17 ****        -0.4990   0.5036   2.4880 C.3            1 S1                 0.0000
     18 ****        -1.1390   1.6643   3.2712 C.3            1 S1                 0.0000
     19 ****        -3.2709  -0.2366   3.1841 H              1 S1                 0.0000
     20 ****        -4.5716   0.9389   3.3237 H              1 S1                 0.0000
     21 ****        -3.4200   0.7450   4.6360 H              1 S1                 0.0000
     22 ****        -2.9524   2.7954   3.3646 H              1 S1                 0.0000
     23 ****        -3.8504   2.0073   1.1397 H              1 S1                 0.0000
     24 ****        -2.3526   2.8941   1.0625 H              1 S1                 0.0000
     25 ****        -2.6269  -0.1504   0.8785 H              1 S1                 0.0000
     26 ****        -2.2141   0.9549  -0.4135 H              1 S1                 0.0000
     27 ****        -0.2293  -1.3507   0.5942 H              1 S1                 0.0000
     28 ****        -0.3594  -0.3170  -0.8073 H              1 S1                 0.0000
     29 ****         1.7813   0.8616  -0.1664 H              1 S1                 0.0000
     30 ****         1.9723  -0.2416   1.1758 H              1 S1                 0.0000
     31 ****         2.6329  -1.9182  -0.2031 H              1 S1                 0.0000
     32 ****         5.0835  -1.7247  -6.4465 H              1 S1                 0.0000
     33 ****         2.7513  -2.7358  -7.3425 H              1 S1                 0.0000
     34 ****        -0.9259  -0.4500   2.8013 H              1 S1                 0.0000
     35 ****         0.5607   0.4647   2.7356 H              1 S1                 0.0000
     36 ****        -0.6024   2.5848   3.0369 H              1 S1                 0.0000
     37 ****        -1.0134   1.5072   4.3431 H              1 S1                 0.0000
     38 ****        -0.2599   1.5599   0.7737 H              1 S1                 0.0000
     39 ****         1.2828   0.5707  -2.1189 LP             1 S1                 0.0000
     40 ****         1.8140  -0.1194  -3.6161 LP             1 S1                 0.0000
     41 ****         3.3013  -2.8567  -1.9523 LP             1 S1                 0.0000
     42 ****         5.0420  -1.4799  -3.9861 LP             1 S1                 0.0000
@<TRIPOS>BOND
    1    1    2 1     
    2    1   19 1     
    3    1   20 1     
    4    1   21 1     
    5    2   18 1     
    6    2    3 1     
    7    2   22 1     
    8    3    4 1     
    9    3   23 1     
   10    3   24 1     
   11    4    5 1     
   12    4   25 1     
   13    4   26 1     
   14    5    6 1     
   15    5   17 1     
   16    5   38 1     
   17    6    7 1     
   18    6   27 1     
   19    6   28 1     
   20    7    8 1     
   21    7   29 1     
   22    7   30 1     
   23    8    9 am    
   24    8   31 1     
   25    9   10 2     
   26    9   11 1     
   27   11   12 1     
   28   12   16 1     
   29   12   13 2     
   30   13   14 1     
   31   14   15 2     
   32   14   32 1     
   33   15   16 1     
   34   15   33 1     
   35   17   18 1     
   36   17   34 1     
   37   17   35 1     
   38   18   36 1     
   39   18   37 1     
   40   10   39 1     
   41   10   40 1     
   42   11   41 1     
   43   13   42 1     
@<TRIPOS>SUBSTRUCTURE
      1 S1             1
@<TRIPOS>SET
LONE_PAIRS      STATIC     ATOMS    <user>   **** ""
4 39 40 41 42
DONOR_HYDROGENS      STATIC     ATOMS    <user>   **** ""
2 38 31
ATOM$BLUE        STATIC     ATOMS    COLORGROUP SYSTEM
4 39 40 41 42
ATOM$RED        STATIC     ATOMS    COLORGROUP SYSTEM
2 38 31
