AV-unprocessed.smi:36|AV-procd|sdf|287|dock10
  -GOLD-   2262016 73D 1   1.00000     0.00000
 Structure written by MMmdl.
 64 67  0  0  0  0  0  0  0  0  1 V2000
  149.0130  130.2313  154.0920 C   0  0  0  0  0  0  0  0  0  0  0  0
  149.8658  129.3455  155.0152 C   0  0  0  0  0  0  0  0  0  0  0  0
  149.8502  127.8959  154.5001 C   0  0  0  0  0  0  0  0  0  0  0  0
  151.3100  129.8713  155.0586 C   0  0  0  0  0  0  0  0  0  0  0  0
  149.1230  129.3810  156.7743 Si  0  0  0  0  0  0  0  0  0  0  0  0
  147.3233  128.7645  156.7620 C   0  0  0  0  0  0  0  0  0  0  0  0
  150.1465  128.3255  157.9764 C   0  0  0  0  0  0  0  0  0  0  0  0
  149.1761  130.9854  157.3148 O   0  0  0  0  0  0  0  0  0  0  0  0
  150.3525  131.7613  157.4178 C   0  0  0  0  0  0  0  0  0  0  0  0
  150.0284  133.2143  157.0467 C   0  0  2  0  0  0  0  0  0  0  0  0
  149.1908  133.7900  158.0426 O   0  0  0  0  0  0  0  0  0  0  0  0
  148.4558  134.8422  157.4920 C   0  0  1  0  0  0  0  0  0  0  0  0
  149.0133  136.1340  158.0016 N   0  0  0  0  0  0  0  0  0  0  0  0
  148.3613  137.1257  158.6408 C   0  0  0  0  0  0  0  0  0  0  0  0
  149.1110  138.1683  158.9897 N   0  0  0  0  0  0  0  0  0  0  0  0
  150.3713  137.8051  158.5266 C   0  0  0  0  0  0  0  0  0  0  0  0
  151.6604  138.5273  158.5921 C   0  0  0  0  0  0  0  0  0  0  0  0
  151.6720  139.6897  159.1712 N   0  0  0  0  0  0  0  0  0  0  0  0
  152.8505  140.4216  159.2446 C   0  0  0  0  0  0  0  0  0  0  0  0
  153.9814  140.1036  158.8657 O   0  0  0  0  0  0  0  0  0  0  0  0
  152.6916  141.7304  159.9497 C   0  0  0  0  0  0  0  0  0  0  0  0
  152.1940  142.8555  159.2576 C   0  0  0  0  0  0  0  0  0  0  0  0
  152.0417  144.0860  159.9260 C   0  0  0  0  0  0  0  0  0  0  0  0
  152.3864  144.1967  161.2868 C   0  0  0  0  0  0  0  0  0  0  0  0
  152.8830  143.0763  161.9804 C   0  0  0  0  0  0  0  0  0  0  0  0
  153.0347  141.8448  161.3139 C   0  0  0  0  0  0  0  0  0  0  0  0
  152.6644  137.7640  157.9817 N   0  0  0  0  0  0  0  0  0  0  0  0
  152.4962  136.4992  157.3967 C   0  0  0  0  0  0  0  0  0  0  0  0
  151.3649  135.8489  157.3349 N   0  0  0  0  0  0  0  0  0  0  0  0
  150.3327  136.5674  157.9216 C   0  0  0  0  0  0  0  0  0  0  0  0
  148.6164  134.7642  155.9686 C   0  0  0  0  0  0  0  0  0  0  0  0
  149.1883  133.3716  155.7808 C   0  0  1  0  0  0  0  0  0  0  0  0
  149.9686  133.2998  154.6053 O   0  0  0  0  0  0  0  0  0  0  0  0
  149.3940  130.2219  153.0703 H   0  0  0  0  0  0  0  0  0  0  0  0
  149.0058  131.2679  154.4295 H   0  0  0  0  0  0  0  0  0  0  0  0
  147.9783  129.8886  154.0604 H   0  0  0  0  0  0  0  0  0  0  0  0
  148.8376  127.4912  154.4875 H   0  0  0  0  0  0  0  0  0  0  0  0
  150.4557  127.2423  155.1283 H   0  0  0  0  0  0  0  0  0  0  0  0
  150.2439  127.8309  153.4854 H   0  0  0  0  0  0  0  0  0  0  0  0
  151.7655  129.8590  154.0680 H   0  0  0  0  0  0  0  0  0  0  0  0
  151.9348  129.2641  155.7142 H   0  0  0  0  0  0  0  0  0  0  0  0
  151.3478  130.8975  155.4247 H   0  0  0  0  0  0  0  0  0  0  0  0
  147.2639  127.7176  156.4659 H   0  0  0  0  0  0  0  0  0  0  0  0
  146.7059  129.3302  156.0650 H   0  0  0  0  0  0  0  0  0  0  0  0
  146.8629  128.8475  157.7460 H   0  0  0  0  0  0  0  0  0  0  0  0
  150.1810  127.2822  157.6639 H   0  0  0  0  0  0  0  0  0  0  0  0
  149.7285  128.3494  158.9826 H   0  0  0  0  0  0  0  0  0  0  0  0
  151.1748  128.6795  158.0446 H   0  0  0  0  0  0  0  0  0  0  0  0
  150.7381  131.7021  158.4359 H   0  0  0  0  0  0  0  0  0  0  0  0
  151.1187  131.3522  156.7589 H   0  0  0  0  0  0  0  0  0  0  0  0
  150.9377  133.8092  156.9607 H   0  0  0  0  0  0  0  0  0  0  0  0
  147.4223  134.8112  157.8384 H   0  0  0  0  0  0  0  0  0  0  0  0
  147.3042  137.0885  158.8577 H   0  0  0  0  0  0  0  0  0  0  0  0
  151.9251  142.7788  158.2139 H   0  0  0  0  0  0  0  0  0  0  0  0
  151.6595  144.9451  159.3946 H   0  0  0  0  0  0  0  0  0  0  0  0
  152.2694  145.1403  161.7988 H   0  0  0  0  0  0  0  0  0  0  0  0
  153.1476  143.1614  163.0240 H   0  0  0  0  0  0  0  0  0  0  0  0
  153.4155  140.9898  161.8538 H   0  0  0  0  0  0  0  0  0  0  0  0
  153.4123  136.0782  156.9799 H   0  0  0  0  0  0  0  0  0  0  0  0
  147.6620  134.9154  155.4636 H   0  0  0  0  0  0  0  0  0  0  0  0
  149.3207  135.5268  155.6294 H   0  0  0  0  0  0  0  0  0  0  0  0
  148.3864  132.6325  155.7528 H   0  0  0  0  0  0  0  0  0  0  0  0
  150.8360  133.6206  154.7997 H   0  0  0  0  0  0  0  0  0  0  0  0
  153.5933  138.1595  157.9650 H   0  0  0  0  0  0  0  0  0  0  0  0
  1  2  1  0  0  0  0
  1 34  1  0  0  0  0
  1 35  1  0  0  0  0
  1 36  1  0  0  0  0
  2  3  1  0  0  0  0
  2  4  1  0  0  0  0
  2  5  1  0  0  0  0
  3 37  1  0  0  0  0
  3 38  1  0  0  0  0
  3 39  1  0  0  0  0
  4 40  1  0  0  0  0
  4 41  1  0  0  0  0
  4 42  1  0  0  0  0
  5  6  1  0  0  0  0
  5  7  1  0  0  0  0
  5  8  1  0  0  0  0
  6 43  1  0  0  0  0
  6 44  1  0  0  0  0
  6 45  1  0  0  0  0
  7 46  1  0  0  0  0
  7 47  1  0  0  0  0
  7 48  1  0  0  0  0
  8  9  1  0  0  0  0
  9 10  1  0  0  0  0
  9 49  1  0  0  0  0
  9 50  1  0  0  0  0
 10 32  1  0  0  0  0
 10 11  1  0  0  0  0
 10 51  1  0  0  0  0
 11 12  1  0  0  0  0
 12 13  1  0  0  0  0
 12 31  1  0  0  0  0
 12 52  1  0  0  0  0
 13 30  1  0  0  0  0
 13 14  1  0  0  0  0
 14 15  2  0  0  0  0
 14 53  1  0  0  0  0
 15 16  1  0  0  0  0
 16 30  2  0  0  0  0
 16 17  1  0  0  0  0
 17 18  2  0  0  0  0
 17 27  1  0  0  0  0
 18 19  1  0  0  0  0
 19 20  2  0  0  0  0
 19 21  1  0  0  0  0
 21 26  1  0  0  0  0
 21 22  2  0  0  0  0
 22 23  1  0  0  0  0
 22 54  1  0  0  0  0
 23 24  2  0  0  0  0
 23 55  1  0  0  0  0
 24 25  1  0  0  0  0
 24 56  1  0  0  0  0
 25 26  2  0  0  0  0
 25 57  1  0  0  0  0
 26 58  1  0  0  0  0
 27 28  1  0  0  0  0
 27 64  1  0  0  0  0
 28 29  2  0  0  0  0
 28 59  1  0  0  0  0
 29 30  1  0  0  0  0
 31 32  1  0  0  0  0
 31 60  1  0  0  0  0
 31 61  1  0  0  0  0
 32 33  1  0  0  0  0
 32 62  1  0  0  0  0
 33 63  1  0  0  0  0
M  END
> <s_m_source_file>
AV-unprocessed.smi

> <i_m_source_file_index>
36

> <i_lp_mmshare_version>
43012

> <i_f3d_flags>
0

> <s_epik_input>
W0NIM11DKFtDSDNdKShbQ0gzXSlbU2ldKFtDSDNdKShbQ0gzXSlPW0NIMl1bQ0BASF0xT1tDQEhdKFtDSDJdW0NASF0xW09IXSluKFtjSF1uMiljKGMyMyluW2NIXW5jM1tOSF1DKD1PKWM0W2NIXVtjSF1bY0hdW2NIXVtjSF00

> <s_epik_cmdline>
J2VwaWtfcHl0aG9uJywgJy1waCcsICc3LjAnLCAnLXRuJywgJzgnLCAnLW1hJywgJzIwMCcsICctbWV0YWxfYmluZGluZycsICctaW1hZScsICc8aW5maWxlLm1hZT4nLCAnLW9tYWUnLCAnPG91dGZpbGUubWFlPic=

> <r_epik_Ionization_Penalty>
0.0850405

> <r_epik_Ionization_Penalty_Charging>
0.0850403

> <r_epik_Ionization_Penalty_Neutral>
1.47497e-07

> <r_epik_State_Penalty>
2.6133

> <r_epik_Charging_Adjusted_Penalty>
2.69834

> <i_epik_Tot_Q>
0

> <i_epik_Tot_abs_Q>
0

> <r_epik_Metal_State_Penalty>
2.92945

> <b_epik_Metal_Only>
0

> <s_epik_Chemistry_Notes>
This compound contains an acetal/aminal-like group ( X-CH(R)-Y where X, Y are N, S, or O) that may be acid/base labile, releasing an aldehyde.

> <s_lp_Force_Field>
OPLS_2005

> <r_lp_Energy>
46.6166

> <b_lp_Chiralities_Consistent>
1

> <s_lp_Variant>
AV-unprocessed.smi:36-9

> <Gold.Version>
5.8.1

> <Gold.Id.Protein>
6NUR|6NUR_protein|mol2

> <Gold.PLP.Fitness>
47.3610

> <Gold.PLP.PLP>
-44.9450

> <Gold.PLP.part.hbond>
-4.3242

> <Gold.PLP.part.metal>
0.0000

> <Gold.PLP.part.buried>
-5.5868

> <Gold.PLP.part.nonpolar>
-34.5962

> <Gold.PLP.part.repulsive>
0.1050

> <Gold.PLP.ligand.clash>
0.0000

> <Gold.PLP.ligand.torsion>
1.8101

> <Gold.PLP.Chemscore.Hbond>
1.9920

> <Gold.PLP.Chemscore.CHOScore>
0.0000

> <Gold.PLP.Chemscore.Metal>
0.0000

> <Gold.Chemscore.Hbonds>
donor molecule, donor type, donor heavy atom, donor atom, acceptor molecule, acceptor atom, score
      P1  H  6896  6908       L1    11  0.75
      P1  H  7997  8009       L1    20  0.98

> <Gold.PLP.Chemscore.Internal.Correction>
0.0601

> <Gold.Rescore>
     Score         DG    S(hbond)    S(metal)    S(lipo)     H(rot)  DE(clash)    DE(int)     intcor
     11.17     -14.24       1.10        0.00     102.50       2.70       0.09       2.98       ----

> <Gold.Chemscore.Fitness>
11.1735

> <Gold.Chemscore.DG>
-14.2365

> <Gold.Chemscore.ZeroCoef>
-5.4800

> <Gold.Chemscore.Hbond>
1.1036

> <Gold.Chemscore.Metal>
0.0000

> <Gold.Chemscore.Lipo>
102.5045

> <Gold.Chemscore.Internal_Hbond>
0.0000

> <Gold.Chemscore.DEClash>
0.0871

> <Gold.Chemscore.DEInternal>
2.9759

> <Gold.Chemscore.Rot>
2.7041

> <Gold.Chemscore.Internal.Correction>
   9.000000E+99

> <Gold.Chemscore.Hbonds>
donor molecule, donor type, donor heavy atom, donor atom, acceptor molecule, acceptor atom, score
      P1  H  6896  6908       L1    11  0.09
      P1  H  7997  8009       L1    20  0.93

> <Gold.Chemscore.Hbond.Weighted>
-3.6859

> <Gold.Chemscore.Metal.Weighted>
-0.0000

> <Gold.Chemscore.Lipo.Weighted>
-11.9930

> <Gold.Chemscore.Internal_Hbond.Weighted>
0.0000

> <Gold.Chemscore.DEClash.Weighted>
0.0871

> <Gold.Chemscore.DEInternal.Weighted>
2.9759

> <Gold.Chemscore.Rot.Weighted>
6.9225

> <Gold.Chemscore.Internal.Correction.Weighted>
   9.000000E+99

> <Gold.Protein.RotatedTorsions>
[ 6907 6896 6895 6894 ] final  139.01 input  -60.11 | X-H torsion
[ 7974 7965 7964 7962 ] final  130.18 input  175.53 | X-H torsion
[ 8008 7997 7996 7995 ] final  138.54 input   59.86 | X-H torsion
[ 10167 10162 10161 10158 ] final  -97.18 input  -65.29 | X-H torsion
[ 10718 10713 10712 10709 ] final  107.60 input   66.30 | X-H torsion
[ 10763 10752 10751 10750 ] final  -68.37 input  -60.55 | X-H torsion
[ 11005 11000 10999 10996 ] final  156.56 input  -57.11 | X-H torsion

> <Gold.Protein.ActiveResidues>
 VAL166  LYS551  ARG553  GLY616  TRP617  ASP618  TYR619  PRO620  LYS621  CYS622 
 ASP623  PHE694  ASN695  SER759  ASP760  ASP761  ALA762  ILE779  LEU786  VAL792 
 PHE793  MET794  SER795  GLU796  ALA797  LYS798  CYS799  TRP800  GLU811  SER814 

> <Gold.Protein.RotatedAtoms>
  152.2600  133.5288  159.5375 H   0  0  0  0  0  0  0  0  0  0  0  0  # atno 6907 bound_to 6896
  150.7122  134.0843  159.3918 H   0  0  0  0  0  0  0  0  0  0  0  0  # atno 6908 bound_to 6896
  151.8761  135.0471  160.0535 H   0  0  0  0  0  0  0  0  0  0  0  0  # atno 6909 bound_to 6896
  145.0207  139.4134  143.5199 H   0  0  0  0  0  0  0  0  0  0  0  0  # atno 7974 bound_to 7965
  156.2996  140.2391  156.4090 H   0  0  0  0  0  0  0  0  0  0  0  0  # atno 8008 bound_to 7997
  154.8458  140.0426  157.1592 H   0  0  0  0  0  0  0  0  0  0  0  0  # atno 8009 bound_to 7997
  154.9052  140.2982  155.5299 H   0  0  0  0  0  0  0  0  0  0  0  0  # atno 8010 bound_to 7997
  140.2861  143.3251  152.0392 H   0  0  0  0  0  0  0  0  0  0  0  0  # atno 10167 bound_to 10162
  157.6621  131.0876  150.6181 H   0  0  0  0  0  0  0  0  0  0  0  0  # atno 10718 bound_to 10713
  154.3881  135.6059  153.5828 H   0  0  0  0  0  0  0  0  0  0  0  0  # atno 10763 bound_to 10752
  152.9787  135.5877  154.4330 H   0  0  0  0  0  0  0  0  0  0  0  0  # atno 10764 bound_to 10752
  154.4110  135.2844  155.2014 H   0  0  0  0  0  0  0  0  0  0  0  0  # atno 10765 bound_to 10752
  140.1687  134.8559  157.2663 H   0  0  0  0  0  0  0  0  0  0  0  0  # atno 11005 bound_to 11000
  146.3485  139.9703  142.8707 LP  0  0  0  0  0  0  0  0  0  0  0  0  # atno 17320 bound_to 7965
  145.1899  140.9807  143.4217 LP  0  0  0  0  0  0  0  0  0  0  0  0  # atno 17321 bound_to 7965
  139.4950  144.6557  151.6577 LP  0  0  0  0  0  0  0  0  0  0  0  0  # atno 17342 bound_to 10162
  140.5771  144.0010  150.6247 LP  0  0  0  0  0  0  0  0  0  0  0  0  # atno 17343 bound_to 10162
  156.6483  130.4478  149.5728 LP  0  0  0  0  0  0  0  0  0  0  0  0  # atno 17370 bound_to 10713
  156.2157  130.6706  151.1316 LP  0  0  0  0  0  0  0  0  0  0  0  0  # atno 17371 bound_to 10713
  140.2403  134.3803  155.7483 LP  0  0  0  0  0  0  0  0  0  0  0  0  # atno 17394 bound_to 11000
  141.2215  133.7262  156.8779 LP  0  0  0  0  0  0  0  0  0  0  0  0  # atno 17395 bound_to 11000

$$$$
