AV-unprocessed.smi:601|AV-procd|sdf|3032|dock1
  -GOLD-   2262023543D 1   1.00000     0.00000
 Structure written by MMmdl.
 50 51  0  0  0  0  0  0  0  0  1 V2000
  146.8360  133.1604  152.4482 C   0  0  0  0  0  0  0  0  0  0  0  0
  148.2575  133.3727  152.9805 C   0  0  0  0  0  0  0  0  0  0  0  0
  148.2784  133.7428  154.4700 C   0  0  0  0  0  0  0  0  0  0  0  0
  149.6479  134.2789  154.9241 C   0  0  0  0  0  0  0  0  0  0  0  0
  149.5225  135.2639  156.0090 N   0  0  0  0  0  0  0  0  0  0  0  0
  148.9252  134.9362  157.1851 C   0  0  0  0  0  0  0  0  0  0  0  0
  148.5610  133.7838  157.4276 O   0  0  0  0  0  0  0  0  0  0  0  0
  148.6504  136.0463  158.2329 C   0  0  1  0  0  0  0  0  0  0  0  0
  147.1735  136.2243  158.6089 C   0  0  0  0  0  0  0  0  0  0  0  0
  146.9394  135.2151  159.7263 C   0  0  0  0  0  0  0  0  0  0  0  0
  148.3474  134.8096  160.1718 C   0  0  0  0  0  0  0  0  0  0  0  0
  149.2245  135.6977  159.4875 O   0  0  0  0  0  0  0  0  0  0  0  0
  150.0074  136.5581  155.7489 C   0  0  0  0  0  0  0  0  0  0  0  0
  149.2345  137.5019  155.1334 C   0  0  0  0  0  0  0  0  0  0  0  0
  147.9286  137.2069  154.7694 N   0  0  0  0  0  0  0  0  0  0  0  0
  149.7244  138.7803  154.8497 N   0  0  0  0  0  0  0  0  0  0  0  0
  148.9410  139.8170  154.2070 C   0  0  0  0  0  0  0  0  0  0  0  0
  148.9281  141.1313  155.0056 C   0  0  0  0  0  0  0  0  0  0  0  0
  147.7831  142.0571  154.5840 C   0  0  0  0  0  0  0  0  0  0  0  0
  151.0681  139.1087  155.1523 C   0  0  0  0  0  0  0  0  0  0  0  0
  151.5759  140.2008  154.8956 O   0  0  0  0  0  0  0  0  0  0  0  0
  151.8382  138.1271  155.7659 N   0  0  0  0  0  0  0  0  0  0  0  0
  151.4049  136.8459  156.0973 C   0  0  0  0  0  0  0  0  0  0  0  0
  152.1883  136.0621  156.6321 O   0  0  0  0  0  0  0  0  0  0  0  0
  152.7957  138.3612  155.9846 H   0  0  0  0  0  0  0  0  0  0  0  0
  146.8519  132.8959  151.3907 H   0  0  0  0  0  0  0  0  0  0  0  0
  146.2362  134.0647  152.5555 H   0  0  0  0  0  0  0  0  0  0  0  0
  146.3311  132.3567  152.9849 H   0  0  0  0  0  0  0  0  0  0  0  0
  148.8409  132.4652  152.8201 H   0  0  0  0  0  0  0  0  0  0  0  0
  148.7434  134.1586  152.4012 H   0  0  0  0  0  0  0  0  0  0  0  0
  147.5048  134.4861  154.6653 H   0  0  0  0  0  0  0  0  0  0  0  0
  148.0168  132.8649  155.0614 H   0  0  0  0  0  0  0  0  0  0  0  0
  150.2661  133.4429  155.2553 H   0  0  0  0  0  0  0  0  0  0  0  0
  150.1813  134.7170  154.0787 H   0  0  0  0  0  0  0  0  0  0  0  0
  149.0588  136.9926  157.8775 H   0  0  0  0  0  0  0  0  0  0  0  0
  147.0197  137.2341  158.9911 H   0  0  0  0  0  0  0  0  0  0  0  0
  146.4877  136.0916  157.7712 H   0  0  0  0  0  0  0  0  0  0  0  0
  146.3689  135.6607  160.5417 H   0  0  0  0  0  0  0  0  0  0  0  0
  146.3875  134.3458  159.3668 H   0  0  0  0  0  0  0  0  0  0  0  0
  148.4815  134.8867  161.2508 H   0  0  0  0  0  0  0  0  0  0  0  0
  148.5659  133.7821  159.8770 H   0  0  0  0  0  0  0  0  0  0  0  0
  147.5184  136.3010  154.9460 H   0  0  0  0  0  0  0  0  0  0  0  0
  147.3547  137.8675  154.2651 H   0  0  0  0  0  0  0  0  0  0  0  0
  149.3568  139.9595  153.2100 H   0  0  0  0  0  0  0  0  0  0  0  0
  147.9350  139.4283  154.0388 H   0  0  0  0  0  0  0  0  0  0  0  0
  148.8405  140.9178  156.0713 H   0  0  0  0  0  0  0  0  0  0  0  0
  149.8773  141.6516  154.8729 H   0  0  0  0  0  0  0  0  0  0  0  0
  147.7973  142.9809  155.1627 H   0  0  0  0  0  0  0  0  0  0  0  0
  146.8149  141.5806  154.7408 H   0  0  0  0  0  0  0  0  0  0  0  0
  147.8602  142.3233  153.5294 H   0  0  0  0  0  0  0  0  0  0  0  0
  1  2  1  0  0  0  0
  1 26  1  0  0  0  0
  1 27  1  0  0  0  0
  1 28  1  0  0  0  0
  2  3  1  0  0  0  0
  2 29  1  0  0  0  0
  2 30  1  0  0  0  0
  3  4  1  0  0  0  0
  3 31  1  0  0  0  0
  3 32  1  0  0  0  0
  4  5  1  0  0  0  0
  4 33  1  0  0  0  0
  4 34  1  0  0  0  0
  5  6  1  0  0  0  0
  5 13  1  0  0  0  0
  6  7  2  0  0  0  0
  6  8  1  0  0  0  0
  8 12  1  0  0  0  0
  8  9  1  0  0  0  0
  8 35  1  0  0  0  0
  9 10  1  0  0  0  0
  9 36  1  0  0  0  0
  9 37  1  0  0  0  0
 10 11  1  0  0  0  0
 10 38  1  0  0  0  0
 10 39  1  0  0  0  0
 11 12  1  0  0  0  0
 11 40  1  0  0  0  0
 11 41  1  0  0  0  0
 13 23  1  0  0  0  0
 13 14  2  0  0  0  0
 14 15  1  0  0  0  0
 14 16  1  0  0  0  0
 15 42  1  0  0  0  0
 15 43  1  0  0  0  0
 16 17  1  0  0  0  0
 16 20  1  0  0  0  0
 17 18  1  0  0  0  0
 17 44  1  0  0  0  0
 17 45  1  0  0  0  0
 18 19  1  0  0  0  0
 18 46  1  0  0  0  0
 18 47  1  0  0  0  0
 19 48  1  0  0  0  0
 19 49  1  0  0  0  0
 19 50  1  0  0  0  0
 20 21  2  0  0  0  0
 20 22  1  0  0  0  0
 22 25  1  0  0  0  0
 22 23  1  0  0  0  0
 23 24  2  0  0  0  0
M  END
> <s_m_source_file>
AV-unprocessed.smi

> <i_m_source_file_index>
601

> <i_lp_mmshare_version>
43012

> <i_f3d_flags>
0

> <s_epik_input>
TzFbQ0gyXVtDSDJdW0NIMl1bQ0BIXTFDKD1PKU4oW0NIMl1bQ0gyXVtDSDJdW0NIM10pYzJjKFtOSDJdKW4oW0NIMl1bQ0gyXVtDSDNdKWMoPU8pW25IXWMyPU8=

> <s_epik_cmdline>
J2VwaWtfcHl0aG9uJywgJy1waCcsICc3LjAnLCAnLXRuJywgJzgnLCAnLW1hJywgJzIwMCcsICctbWV0YWxfYmluZGluZycsICctaW1hZScsICc8aW5maWxlLm1hZT4nLCAnLW9tYWUnLCAnPG91dGZpbGUubWFlPic=

> <r_lp_tautomer_probability>
1

> <r_epik_Ionization_Penalty>
6.19718e-05

> <r_epik_Ionization_Penalty_Charging>
2.78773e-05

> <r_epik_Ionization_Penalty_Neutral>
3.40944e-05

> <r_epik_State_Penalty>
-0

> <r_epik_Charging_Adjusted_Penalty>
2.78773e-05

> <i_epik_Tot_Q>
0

> <i_epik_Tot_abs_Q>
0

> <r_epik_Metal_State_Penalty>
0.0271358

> <b_epik_Metal_Only>
0

> <s_lp_Force_Field>
OPLS_2005

> <r_lp_Energy>
41.2463

> <b_lp_Chiralities_Consistent>
1

> <s_lp_Variant>
AV-unprocessed.smi:601-2

> <Gold.Version>
5.8.1

> <Gold.Id.Protein>
6NUR|6NUR_protein|mol2

> <Gold.PLP.Fitness>
41.5823

> <Gold.PLP.PLP>
-33.6146

> <Gold.PLP.part.hbond>
-3.8240

> <Gold.PLP.part.metal>
0.0000

> <Gold.PLP.part.buried>
-2.4307

> <Gold.PLP.part.nonpolar>
-28.4649

> <Gold.PLP.part.repulsive>
0.1985

> <Gold.PLP.ligand.clash>
0.0000

> <Gold.PLP.ligand.torsion>
1.8921

> <Gold.PLP.Chemscore.Hbond>
2.9920

> <Gold.PLP.Chemscore.CHOScore>
0.0000

> <Gold.PLP.Chemscore.Metal>
0.0000

> <Gold.Chemscore.Hbonds>
donor molecule, donor type, donor heavy atom, donor atom, acceptor molecule, acceptor atom, score
      P1  H  6896  6908       L1    12  0.90
      P1  H  7989  7998       L1    21  1.00
      P1  H 10752 10763       L1    24  1.00

> <Gold.PLP.Chemscore.Internal.Correction>
2.7758

> <Gold.Rescore>
     Score         DG    S(hbond)    S(metal)    S(lipo)     H(rot)  DE(clash)    DE(int)     intcor
      9.52     -15.37       2.67        0.00      51.20       1.96       0.02       5.83       ----

> <Gold.Chemscore.Fitness>
9.5248

> <Gold.Chemscore.DG>
-15.3701

> <Gold.Chemscore.ZeroCoef>
-5.4800

> <Gold.Chemscore.Hbond>
2.6700

> <Gold.Chemscore.Metal>
0.0000

> <Gold.Chemscore.Lipo>
51.2026

> <Gold.Chemscore.Internal_Hbond>
0.0000

> <Gold.Chemscore.DEClash>
0.0202

> <Gold.Chemscore.DEInternal>
5.8250

> <Gold.Chemscore.Rot>
1.9603

> <Gold.Chemscore.Internal.Correction>
   9.000000E+99

> <Gold.Chemscore.Hbonds>
donor molecule, donor type, donor heavy atom, donor atom, acceptor molecule, acceptor atom, score
      P1  H  6896  6908       L1    12  0.18
      P1  H  7989  7998       L1    21  0.90
      P1  H 10752 10763       L1    24  0.75

> <Gold.Chemscore.Hbond.Weighted>
-8.9179

> <Gold.Chemscore.Metal.Weighted>
-0.0000

> <Gold.Chemscore.Lipo.Weighted>
-5.9907

> <Gold.Chemscore.Internal_Hbond.Weighted>
0.0000

> <Gold.Chemscore.DEClash.Weighted>
0.0202

> <Gold.Chemscore.DEInternal.Weighted>
5.8250

> <Gold.Chemscore.Rot.Weighted>
5.0185

> <Gold.Chemscore.Internal.Correction.Weighted>
   9.000000E+99

> <Gold.Protein.RotatedTorsions>
[ 6907 6896 6895 6894 ] final  179.03 input  -60.11 | X-H torsion
[ 7974 7965 7964 7962 ] final  -60.24 input  175.53 | X-H torsion
[ 8008 7997 7996 7995 ] final   75.39 input   59.86 | X-H torsion
[ 10167 10162 10161 10158 ] final  -31.75 input  -65.29 | X-H torsion
[ 10718 10713 10712 10709 ] final  159.03 input   66.30 | X-H torsion
[ 10763 10752 10751 10750 ] final  117.02 input  -60.55 | X-H torsion
[ 11005 11000 10999 10996 ] final -114.22 input  -57.11 | X-H torsion

> <Gold.Protein.ActiveResidues>
 VAL166  LYS551  ARG553  GLY616  TRP617  ASP618  TYR619  PRO620  LYS621  CYS622 
 ASP623  PHE694  ASN695  SER759  ASP760  ASP761  ALA762  ILE779  LEU786  VAL792 
 PHE793  MET794  SER795  GLU796  ALA797  LYS798  CYS799  TRP800  GLU811  SER814 

> <Gold.Protein.RotatedAtoms>
  151.6783  133.3312  159.3212 H   0  0  0  0  0  0  0  0  0  0  0  0  # atno 6907 bound_to 6896
  150.7835  134.6803  159.6450 H   0  0  0  0  0  0  0  0  0  0  0  0  # atno 6908 bound_to 6896
  152.3899  134.6462  160.0163 H   0  0  0  0  0  0  0  0  0  0  0  0  # atno 6909 bound_to 6896
  145.8178  140.8559  143.0148 H   0  0  0  0  0  0  0  0  0  0  0  0  # atno 7974 bound_to 7965
  155.8123  140.3473  155.5465 H   0  0  0  0  0  0  0  0  0  0  0  0  # atno 8008 bound_to 7997
  155.8428  140.0944  157.1744 H   0  0  0  0  0  0  0  0  0  0  0  0  # atno 8009 bound_to 7997
  154.4005  140.1391  156.3737 H   0  0  0  0  0  0  0  0  0  0  0  0  # atno 8010 bound_to 7997
  140.7232  143.3747  151.1712 H   0  0  0  0  0  0  0  0  0  0  0  0  # atno 10167 bound_to 10162
  157.1697  131.0607  151.2189 H   0  0  0  0  0  0  0  0  0  0  0  0  # atno 10718 bound_to 10713
  153.5460  135.3549  155.2739 H   0  0  0  0  0  0  0  0  0  0  0  0  # atno 10763 bound_to 10752
  154.8712  135.4102  154.2990 H   0  0  0  0  0  0  0  0  0  0  0  0  # atno 10764 bound_to 10752
  153.3707  135.7064  153.6708 H   0  0  0  0  0  0  0  0  0  0  0  0  # atno 10765 bound_to 10752
  141.0566  133.9603  157.2743 H   0  0  0  0  0  0  0  0  0  0  0  0  # atno 11005 bound_to 11000
  144.6750  140.0489  143.7479 LP  0  0  0  0  0  0  0  0  0  0  0  0  # atno 17320 bound_to 7965
  145.9708  139.2868  143.1100 LP  0  0  0  0  0  0  0  0  0  0  0  0  # atno 17321 bound_to 7965
  139.7325  143.9050  152.3024 LP  0  0  0  0  0  0  0  0  0  0  0  0  # atno 17342 bound_to 10162
  139.8844  144.7000  150.8841 LP  0  0  0  0  0  0  0  0  0  0  0  0  # atno 17343 bound_to 10162
  157.4054  130.7356  149.6799 LP  0  0  0  0  0  0  0  0  0  0  0  0  # atno 17370 bound_to 10713
  155.9740  130.4109  150.3956 LP  0  0  0  0  0  0  0  0  0  0  0  0  # atno 17371 bound_to 10713
  139.9395  135.0193  156.8663 LP  0  0  0  0  0  0  0  0  0  0  0  0  # atno 17394 bound_to 11000
  140.5952  134.0224  155.7515 LP  0  0  0  0  0  0  0  0  0  0  0  0  # atno 17395 bound_to 11000

$$$$
