AV-unprocessed.smi:2250|AV-procd|sdf|9100|dock10
  -GOLD-   2272012303D 1   1.00000     0.00000
 Structure written by MMmdl.
 43 44  0  0  0  0  0  0  0  0  1 V2000
  151.0473  145.3592  159.9951 C   0  0  0  0  0  0  0  0  0  0  0  0
  151.7795  144.0548  160.2300 C   0  0  0  0  0  0  0  0  0  0  0  0
  152.2749  143.7158  161.5033 C   0  0  0  0  0  0  0  0  0  0  0  0
  152.9467  142.4890  161.6654 C   0  0  0  0  0  0  0  0  0  0  0  0
  153.1088  141.6320  160.5536 C   0  0  0  0  0  0  0  0  0  0  0  0
  153.7991  140.4210  160.8250 N   0  0  0  0  0  0  0  0  0  0  0  0
  154.1426  139.4472  159.9639 C   0  0  0  0  0  0  0  0  0  0  0  0
  153.9260  139.4586  158.7517 O   0  0  0  0  0  0  0  0  0  0  0  0
  154.7662  138.4438  160.5965 N   0  0  0  0  0  0  0  0  0  0  0  0
  155.2687  137.2315  159.9614 C   0  0  0  0  0  0  0  0  0  0  0  0
  154.9322  136.0021  160.8248 C   0  0  0  0  0  0  0  0  0  0  0  0
  155.0849  136.2392  162.3377 C   0  0  0  0  0  0  0  0  0  0  0  0
  154.5276  137.2123  162.8484 O   0  0  0  0  0  0  0  0  0  0  0  0
  155.8338  135.3738  163.0645 N   0  0  0  0  0  0  0  0  0  0  0  0
  156.0404  135.4351  164.5182 C   0  0  0  0  0  0  0  0  0  0  0  0
  155.2553  134.2860  165.1762 C   0  0  0  0  0  0  0  0  0  0  0  0
  155.6814  132.9260  164.5901 C   0  0  0  0  0  0  0  0  0  0  0  0
  155.6562  132.9345  163.0494 C   0  0  0  0  0  0  0  0  0  0  0  0
  156.4145  134.1529  162.4903 C   0  0  0  0  0  0  0  0  0  0  0  0
  152.6262  141.9665  159.3309 N   0  0  0  0  0  0  0  0  0  0  0  0
  151.9818  143.1421  159.1766 C   0  0  0  0  0  0  0  0  0  0  0  0
  151.1608  146.0342  160.8439 H   0  0  0  0  0  0  0  0  0  0  0  0
  149.9838  145.1721  159.8454 H   0  0  0  0  0  0  0  0  0  0  0  0
  151.4367  145.8602  159.1085 H   0  0  0  0  0  0  0  0  0  0  0  0
  152.1449  144.3814  162.3441 H   0  0  0  0  0  0  0  0  0  0  0  0
  153.3333  142.2136  162.6358 H   0  0  0  0  0  0  0  0  0  0  0  0
  154.0598  140.2782  161.7895 H   0  0  0  0  0  0  0  0  0  0  0  0
  154.9054  138.5244  161.5930 H   0  0  0  0  0  0  0  0  0  0  0  0
  154.8382  137.1121  158.9652 H   0  0  0  0  0  0  0  0  0  0  0  0
  156.3478  137.3326  159.8369 H   0  0  0  0  0  0  0  0  0  0  0  0
  153.9065  135.6885  160.6261 H   0  0  0  0  0  0  0  0  0  0  0  0
  155.5875  135.1814  160.5294 H   0  0  0  0  0  0  0  0  0  0  0  0
  157.1048  135.3274  164.7322 H   0  0  0  0  0  0  0  0  0  0  0  0
  155.7551  136.3868  164.9634 H   0  0  0  0  0  0  0  0  0  0  0  0
  155.4112  134.2926  166.2554 H   0  0  0  0  0  0  0  0  0  0  0  0
  154.1867  134.4360  165.0160 H   0  0  0  0  0  0  0  0  0  0  0  0
  156.6928  132.6955  164.9271 H   0  0  0  0  0  0  0  0  0  0  0  0
  155.0408  132.1319  164.9746 H   0  0  0  0  0  0  0  0  0  0  0  0
  156.0903  132.0118  162.6635 H   0  0  0  0  0  0  0  0  0  0  0  0
  154.6226  132.9595  162.7010 H   0  0  0  0  0  0  0  0  0  0  0  0
  156.3846  134.1402  161.4000 H   0  0  0  0  0  0  0  0  0  0  0  0
  157.4706  134.0938  162.7572 H   0  0  0  0  0  0  0  0  0  0  0  0
  151.6172  143.3592  158.1832 H   0  0  0  0  0  0  0  0  0  0  0  0
  1  2  1  0  0  0  0
  1 22  1  0  0  0  0
  1 23  1  0  0  0  0
  1 24  1  0  0  0  0
  2 21  1  0  0  0  0
  2  3  2  0  0  0  0
  3  4  1  0  0  0  0
  3 25  1  0  0  0  0
  4  5  2  0  0  0  0
  4 26  1  0  0  0  0
  5  6  1  0  0  0  0
  5 20  1  0  0  0  0
  6  7  1  0  0  0  0
  6 27  1  0  0  0  0
  7  8  2  0  0  0  0
  7  9  1  0  0  0  0
  9 10  1  0  0  0  0
  9 28  1  0  0  0  0
 10 11  1  0  0  0  0
 10 29  1  0  0  0  0
 10 30  1  0  0  0  0
 11 12  1  0  0  0  0
 11 31  1  0  0  0  0
 11 32  1  0  0  0  0
 12 13  2  0  0  0  0
 12 14  1  0  0  0  0
 14 19  1  0  0  0  0
 14 15  1  0  0  0  0
 15 16  1  0  0  0  0
 15 33  1  0  0  0  0
 15 34  1  0  0  0  0
 16 17  1  0  0  0  0
 16 35  1  0  0  0  0
 16 36  1  0  0  0  0
 17 18  1  0  0  0  0
 17 37  1  0  0  0  0
 17 38  1  0  0  0  0
 18 19  1  0  0  0  0
 18 39  1  0  0  0  0
 18 40  1  0  0  0  0
 19 41  1  0  0  0  0
 19 42  1  0  0  0  0
 20 21  2  0  0  0  0
 21 43  1  0  0  0  0
M  END
> <s_m_source_file>
AV-unprocessed.smi

> <i_m_source_file_index>
2250

> <i_lp_mmshare_version>
43012

> <i_f3d_flags>
0

> <s_epik_input>
W0NIM11jMVtjSF1bY0hdYyhuW2NIXTEpW05IXUMoPU8pW05IXVtDSDJdW0NIMl1DKD1PKU4yW0NIMl1bQ0gyXVtDSDJdW0NIMl1bQ0gyXTI=

> <s_epik_cmdline>
J2VwaWtfcHl0aG9uJywgJy1waCcsICc3LjAnLCAnLXRuJywgJzgnLCAnLW1hJywgJzIwMCcsICctbWV0YWxfYmluZGluZycsICctaW1hZScsICc8aW5maWxlLm1hZT4nLCAnLW9tYWUnLCAnPG91dGZpbGUubWFlPic=

> <r_lp_tautomer_probability>
1

> <r_epik_Ionization_Penalty>
5.00358e-05

> <r_epik_Ionization_Penalty_Charging>
0

> <r_epik_Ionization_Penalty_Neutral>
5.00358e-05

> <r_epik_State_Penalty>
-0

> <r_epik_Charging_Adjusted_Penalty>
0

> <i_epik_Tot_Q>
0

> <i_epik_Tot_abs_Q>
0

> <r_epik_Metal_State_Penalty>
-0

> <b_epik_Metal_Only>
0

> <s_lp_Force_Field>
OPLS_2005

> <r_lp_Energy>
26.56

> <b_lp_Chiralities_Consistent>
1

> <s_lp_Variant>
AV-unprocessed.smi:2250-1

> <Gold.Version>
5.8.1

> <Gold.Id.Protein>
6NUR|6NUR_protein|mol2

> <Gold.PLP.Fitness>
46.0051

> <Gold.PLP.PLP>
-43.5631

> <Gold.PLP.part.hbond>
-1.0000

> <Gold.PLP.part.metal>
0.0000

> <Gold.PLP.part.buried>
-5.9127

> <Gold.PLP.part.nonpolar>
-36.6727

> <Gold.PLP.part.repulsive>
0.0522

> <Gold.PLP.ligand.clash>
0.0000

> <Gold.PLP.ligand.torsion>
0.2876

> <Gold.PLP.Chemscore.Hbond>
1.0000

> <Gold.PLP.Chemscore.CHOScore>
0.0000

> <Gold.PLP.Chemscore.Metal>
0.0000

> <Gold.Chemscore.Hbonds>
donor molecule, donor type, donor heavy atom, donor atom, acceptor molecule, acceptor atom, score
      P1  H  7997  8009       L1     8  1.00

> <Gold.PLP.Chemscore.Internal.Correction>
0.0172

> <Gold.Rescore>
     Score         DG    S(hbond)    S(metal)    S(lipo)     H(rot)  DE(clash)    DE(int)     intcor
     13.32     -16.73       1.00        0.00     100.70       1.51       0.04       3.37       ----

> <Gold.Chemscore.Fitness>
13.3239

> <Gold.Chemscore.DG>
-16.7281

> <Gold.Chemscore.ZeroCoef>
-5.4800

> <Gold.Chemscore.Hbond>
1.0000

> <Gold.Chemscore.Metal>
0.0000

> <Gold.Chemscore.Lipo>
100.6974

> <Gold.Chemscore.Internal_Hbond>
0.0000

> <Gold.Chemscore.DEClash>
0.0376

> <Gold.Chemscore.DEInternal>
3.3666

> <Gold.Chemscore.Rot>
1.5131

> <Gold.Chemscore.Internal.Correction>
   9.000000E+99

> <Gold.Chemscore.Hbonds>
donor molecule, donor type, donor heavy atom, donor atom, acceptor molecule, acceptor atom, score
      P1  H  7997  8009       L1     8  1.00

> <Gold.Chemscore.Hbond.Weighted>
-3.3400

> <Gold.Chemscore.Metal.Weighted>
-0.0000

> <Gold.Chemscore.Lipo.Weighted>
-11.7816

> <Gold.Chemscore.Internal_Hbond.Weighted>
0.0000

> <Gold.Chemscore.DEClash.Weighted>
0.0376

> <Gold.Chemscore.DEInternal.Weighted>
3.3666

> <Gold.Chemscore.Rot.Weighted>
3.8735

> <Gold.Chemscore.Internal.Correction.Weighted>
   9.000000E+99

> <Gold.Protein.RotatedTorsions>
[ 6907 6896 6895 6894 ] final   65.84 input  -60.11 | X-H torsion
[ 7974 7965 7964 7962 ] final -122.18 input  175.53 | X-H torsion
[ 8008 7997 7996 7995 ] final  133.84 input   59.86 | X-H torsion
[ 10167 10162 10161 10158 ] final  -92.01 input  -65.29 | X-H torsion
[ 10718 10713 10712 10709 ] final  -44.70 input   66.30 | X-H torsion
[ 10763 10752 10751 10750 ] final   69.16 input  -60.55 | X-H torsion
[ 11005 11000 10999 10996 ] final  162.55 input  -57.11 | X-H torsion

> <Gold.Protein.ActiveResidues>
 VAL166  LYS551  ARG553  GLY616  TRP617  ASP618  TYR619  PRO620  LYS621  CYS622 
 ASP623  PHE694  ASN695  SER759  ASP760  ASP761  ALA762  ILE779  LEU786  VAL792 
 PHE793  MET794  SER795  GLU796  ALA797  LYS798  CYS799  TRP800  GLU811  SER814 

> <Gold.Protein.RotatedAtoms>
  152.4437  134.5538  159.9874 H   0  0  0  0  0  0  0  0  0  0  0  0  # atno 6907 bound_to 6896
  151.5629  133.3395  159.2982 H   0  0  0  0  0  0  0  0  0  0  0  0  # atno 6908 bound_to 6896
  150.8349  134.7650  159.6948 H   0  0  0  0  0  0  0  0  0  0  0  0  # atno 6909 bound_to 6896
  145.0322  140.8077  143.4317 H   0  0  0  0  0  0  0  0  0  0  0  0  # atno 7974 bound_to 7965
  156.2995  140.2511  156.3320 H   0  0  0  0  0  0  0  0  0  0  0  0  # atno 8008 bound_to 7997
  154.9136  140.0402  157.1979 H   0  0  0  0  0  0  0  0  0  0  0  0  # atno 8009 bound_to 7997
  154.8380  140.2886  155.5682 H   0  0  0  0  0  0  0  0  0  0  0  0  # atno 8010 bound_to 7997
  140.3391  143.2952  151.9856 H   0  0  0  0  0  0  0  0  0  0  0  0  # atno 10167 bound_to 10162
  156.2359  130.4176  149.8818 H   0  0  0  0  0  0  0  0  0  0  0  0  # atno 10718 bound_to 10713
  153.0273  135.5221  154.7246 H   0  0  0  0  0  0  0  0  0  0  0  0  # atno 10763 bound_to 10752
  154.6291  135.2898  155.0239 H   0  0  0  0  0  0  0  0  0  0  0  0  # atno 10764 bound_to 10752
  154.1198  135.6609  153.4953 H   0  0  0  0  0  0  0  0  0  0  0  0  # atno 10765 bound_to 10752
  140.2269  134.8154  157.3277 H   0  0  0  0  0  0  0  0  0  0  0  0  # atno 11005 bound_to 11000
  145.1756  139.2380  143.5319 LP  0  0  0  0  0  0  0  0  0  0  0  0  # atno 17320 bound_to 7965
  146.3500  140.1517  142.8592 LP  0  0  0  0  0  0  0  0  0  0  0  0  # atno 17321 bound_to 7965
  139.4843  144.6172  151.7324 LP  0  0  0  0  0  0  0  0  0  0  0  0  # atno 17342 bound_to 10162
  140.5326  144.0706  150.6059 LP  0  0  0  0  0  0  0  0  0  0  0  0  # atno 17343 bound_to 10162
  156.6416  130.8707  151.3515 LP  0  0  0  0  0  0  0  0  0  0  0  0  # atno 17370 bound_to 10713
  157.7154  130.9491  150.1237 LP  0  0  0  0  0  0  0  0  0  0  0  0  # atno 17371 bound_to 10713
  140.1791  134.4512  155.7783 LP  0  0  0  0  0  0  0  0  0  0  0  0  # atno 17394 bound_to 11000
  141.2220  133.6976  156.7838 LP  0  0  0  0  0  0  0  0  0  0  0  0  # atno 17395 bound_to 11000

$$$$
