AV-unprocessed.smi:2496|AV-procd|sdf|9828|dock5
  -GOLD-   2272013453D 1   1.00000     0.00000
 Structure written by MMmdl.
 40 40  0  0  0  0  0  0  0  0  1 V2000
  147.3313  141.9746  156.6588 C   0  0  0  0  0  0  0  0  0  0  0  0
  148.4007  141.2860  155.8573 C   0  0  0  0  0  0  0  0  0  0  0  0
  148.2759  141.2497  154.5389 N   0  0  0  0  0  0  0  0  0  0  0  0
  149.3631  140.5782  154.1263 N   0  0  0  0  0  0  0  0  0  0  0  0
  150.1796  140.1884  155.1606 C   0  0  0  0  0  0  0  0  0  0  0  0
  151.4407  139.4252  154.9298 C   0  0  0  0  0  0  0  0  0  0  0  0
  149.5905  140.6311  156.3148 C   0  0  0  0  0  0  0  0  0  0  0  0
  150.0985  140.4443  157.7301 C   0  0  1  0  0  0  0  0  0  0  0  0
  150.0820  138.9669  158.1653 C   0  0  0  0  0  0  0  0  0  0  0  0
  151.4798  141.1023  157.8719 C   0  0  0  0  0  0  0  0  0  0  0  0
  152.4687  140.6206  157.3180 O   0  0  0  0  0  0  0  0  0  0  0  0
  151.5249  142.2097  158.6311 N   0  0  0  0  0  0  0  0  0  0  0  0
  152.7047  143.0329  158.8947 C   0  0  1  0  0  0  0  0  0  0  0  0
  152.3772  144.4729  158.4632 C   0  0  0  0  0  0  0  0  0  0  0  0
  153.1313  142.9177  160.3831 C   0  0  0  0  0  0  0  0  0  0  0  0
  153.4885  141.4731  160.7770 C   0  0  0  0  0  0  0  0  0  0  0  0
  152.0571  143.4589  161.3468 C   0  0  0  0  0  0  0  0  0  0  0  0
  149.5328  140.3948  153.1476 H   0  0  0  0  0  0  0  0  0  0  0  0
  147.0933  141.4188  157.5649 H   0  0  0  0  0  0  0  0  0  0  0  0
  146.4064  142.0776  156.0904 H   0  0  0  0  0  0  0  0  0  0  0  0
  147.6486  142.9745  156.9544 H   0  0  0  0  0  0  0  0  0  0  0  0
  151.3973  138.4534  155.4217 H   0  0  0  0  0  0  0  0  0  0  0  0
  152.2980  139.9679  155.3282 H   0  0  0  0  0  0  0  0  0  0  0  0
  151.6141  139.2563  153.8665 H   0  0  0  0  0  0  0  0  0  0  0  0
  149.4455  140.9727  158.4261 H   0  0  0  0  0  0  0  0  0  0  0  0
  150.7302  138.3472  157.5462 H   0  0  0  0  0  0  0  0  0  0  0  0
  149.0737  138.5567  158.1018 H   0  0  0  0  0  0  0  0  0  0  0  0
  150.4123  138.8579  159.1990 H   0  0  0  0  0  0  0  0  0  0  0  0
  150.6588  142.5231  159.0443 H   0  0  0  0  0  0  0  0  0  0  0  0
  153.5377  142.6907  158.2781 H   0  0  0  0  0  0  0  0  0  0  0  0
  153.2505  145.1217  158.5174 H   0  0  0  0  0  0  0  0  0  0  0  0
  151.5958  144.9074  159.0879 H   0  0  0  0  0  0  0  0  0  0  0  0
  152.0271  144.5001  157.4304 H   0  0  0  0  0  0  0  0  0  0  0  0
  154.0264  143.5249  160.5266 H   0  0  0  0  0  0  0  0  0  0  0  0
  152.6540  140.7954  160.5947 H   0  0  0  0  0  0  0  0  0  0  0  0
  153.7424  141.4061  161.8353 H   0  0  0  0  0  0  0  0  0  0  0  0
  154.3499  141.1016  160.2234 H   0  0  0  0  0  0  0  0  0  0  0  0
  151.1095  142.9357  161.2149 H   0  0  0  0  0  0  0  0  0  0  0  0
  151.8741  144.5229  161.1961 H   0  0  0  0  0  0  0  0  0  0  0  0
  152.3623  143.3352  162.3861 H   0  0  0  0  0  0  0  0  0  0  0  0
  1  2  1  0  0  0  0
  1 19  1  0  0  0  0
  1 20  1  0  0  0  0
  1 21  1  0  0  0  0
  2  7  1  0  0  0  0
  2  3  2  0  0  0  0
  3  4  1  0  0  0  0
  4 18  1  0  0  0  0
  4  5  1  0  0  0  0
  5  6  1  0  0  0  0
  5  7  2  0  0  0  0
  6 22  1  0  0  0  0
  6 23  1  0  0  0  0
  6 24  1  0  0  0  0
  7  8  1  0  0  0  0
  8  9  1  0  0  0  0
  8 10  1  0  0  0  0
  8 25  1  0  0  0  0
  9 26  1  0  0  0  0
  9 27  1  0  0  0  0
  9 28  1  0  0  0  0
 10 11  2  0  0  0  0
 10 12  1  0  0  0  0
 12 13  1  0  0  0  0
 12 29  1  0  0  0  0
 13 14  1  0  0  0  0
 13 15  1  0  0  0  0
 13 30  1  0  0  0  0
 14 31  1  0  0  0  0
 14 32  1  0  0  0  0
 14 33  1  0  0  0  0
 15 16  1  0  0  0  0
 15 17  1  0  0  0  0
 15 34  1  0  0  0  0
 16 35  1  0  0  0  0
 16 36  1  0  0  0  0
 16 37  1  0  0  0  0
 17 38  1  0  0  0  0
 17 39  1  0  0  0  0
 17 40  1  0  0  0  0
M  END
> <s_m_source_file>
AV-unprocessed.smi

> <i_m_source_file_index>
2496

> <i_lp_mmshare_version>
43012

> <i_f3d_flags>
0

> <s_epik_input>
W0NIM11jMW5bbkhdYyhbQ0gzXSljMVtDQEhdKFtDSDNdKUMoPU8pW05IXVtDQEhdKFtDSDNdKVtDSF0oW0NIM10pW0NIM10=

> <s_epik_cmdline>
J2VwaWtfcHl0aG9uJywgJy1waCcsICc3LjAnLCAnLXRuJywgJzgnLCAnLW1hJywgJzIwMCcsICctbWV0YWxfYmluZGluZycsICctaW1hZScsICc8aW5maWxlLm1hZT4nLCAnLW9tYWUnLCAnPG91dGZpbGUubWFlPic=

> <r_lp_tautomer_probability>
1

> <r_epik_Ionization_Penalty>
0.000456212

> <r_epik_Ionization_Penalty_Charging>
0

> <r_epik_Ionization_Penalty_Neutral>
0.000456212

> <r_epik_State_Penalty>
-0

> <r_epik_Charging_Adjusted_Penalty>
0

> <i_epik_Tot_Q>
0

> <i_epik_Tot_abs_Q>
0

> <r_epik_Metal_State_Penalty>
-0

> <b_epik_Metal_Only>
0

> <s_lp_Force_Field>
OPLS_2005

> <r_lp_Energy>
2.25398

> <b_lp_Chiralities_Consistent>
1

> <s_lp_Variant>
AV-unprocessed.smi:2496-4

> <Gold.Version>
5.8.1

> <Gold.Id.Protein>
6NUR|6NUR_protein|mol2

> <Gold.PLP.Fitness>
40.5623

> <Gold.PLP.PLP>
-35.2254

> <Gold.PLP.part.hbond>
-2.0000

> <Gold.PLP.part.metal>
0.0000

> <Gold.PLP.part.buried>
-1.8951

> <Gold.PLP.part.nonpolar>
-30.3351

> <Gold.PLP.part.repulsive>
0.8827

> <Gold.PLP.ligand.clash>
0.0000

> <Gold.PLP.ligand.torsion>
0.1953

> <Gold.PLP.Chemscore.Hbond>
1.8723

> <Gold.PLP.Chemscore.CHOScore>
0.0000

> <Gold.PLP.Chemscore.Metal>
0.0000

> <Gold.Chemscore.Hbonds>
donor molecule, donor type, donor heavy atom, donor atom, acceptor molecule, acceptor atom, score
      L1  H     4    18       P1  7957  1.00
      P1  H  7997  8009       L1    11  0.72

> <Gold.PLP.Chemscore.Internal.Correction>
0.1107

> <Gold.Rescore>
     Score         DG    S(hbond)    S(metal)    S(lipo)     H(rot)  DE(clash)    DE(int)     intcor
     18.21     -18.63       1.83        0.00      92.18       1.47       0.05       0.36       ----

> <Gold.Chemscore.Fitness>
18.2143

> <Gold.Chemscore.DG>
-18.6268

> <Gold.Chemscore.ZeroCoef>
-5.4800

> <Gold.Chemscore.Hbond>
1.8308

> <Gold.Chemscore.Metal>
0.0000

> <Gold.Chemscore.Lipo>
92.1828

> <Gold.Chemscore.Internal_Hbond>
0.0000

> <Gold.Chemscore.DEClash>
0.0492

> <Gold.Chemscore.DEInternal>
0.3633

> <Gold.Chemscore.Rot>
1.4662

> <Gold.Chemscore.Internal.Correction>
   9.000000E+99

> <Gold.Chemscore.Hbonds>
donor molecule, donor type, donor heavy atom, donor atom, acceptor molecule, acceptor atom, score
      L1  H     4    18       P1  7957  0.94
      P1  H  7997  8009       L1    11  0.70

> <Gold.Chemscore.Hbond.Weighted>
-6.1149

> <Gold.Chemscore.Metal.Weighted>
-0.0000

> <Gold.Chemscore.Lipo.Weighted>
-10.7854

> <Gold.Chemscore.Internal_Hbond.Weighted>
0.0000

> <Gold.Chemscore.DEClash.Weighted>
0.0492

> <Gold.Chemscore.DEInternal.Weighted>
0.3633

> <Gold.Chemscore.Rot.Weighted>
3.7534

> <Gold.Chemscore.Internal.Correction.Weighted>
   9.000000E+99

> <Gold.Protein.RotatedTorsions>
[ 6907 6896 6895 6894 ] final   57.44 input  -60.11 | X-H torsion
[ 7974 7965 7964 7962 ] final  -12.17 input  175.53 | X-H torsion
[ 8008 7997 7996 7995 ] final  177.93 input   59.86 | X-H torsion
[ 10167 10162 10161 10158 ] final   22.47 input  -65.29 | X-H torsion
[ 10718 10713 10712 10709 ] final  136.51 input   66.30 | X-H torsion
[ 10763 10752 10751 10750 ] final  162.40 input  -60.55 | X-H torsion
[ 11005 11000 10999 10996 ] final -160.05 input  -57.11 | X-H torsion

> <Gold.Protein.ActiveResidues>
 VAL166  LYS551  ARG553  GLY616  TRP617  ASP618  TYR619  PRO620  LYS621  CYS622 
 ASP623  PHE694  ASN695  SER759  ASP760  ASP761  ALA762  ILE779  LEU786  VAL792 
 PHE793  MET794  SER795  GLU796  ALA797  LYS798  CYS799  TRP800  GLU811  SER814 

> <Gold.Protein.RotatedAtoms>
  152.3731  134.6704  160.0168 H   0  0  0  0  0  0  0  0  0  0  0  0  # atno 6907 bound_to 6896
  151.6990  133.3305  159.3270 H   0  0  0  0  0  0  0  0  0  0  0  0  # atno 6908 bound_to 6896
  150.7689  134.6567  159.6362 H   0  0  0  0  0  0  0  0  0  0  0  0  # atno 6909 bound_to 6896
  146.2162  140.3018  142.8376 H   0  0  0  0  0  0  0  0  0  0  0  0  # atno 7974 bound_to 7965
  156.0603  140.1346  156.9949 H   0  0  0  0  0  0  0  0  0  0  0  0  # atno 8008 bound_to 7997
  154.4478  140.0993  156.6578 H   0  0  0  0  0  0  0  0  0  0  0  0  # atno 8009 bound_to 7997
  155.5388  140.3460  155.4444 H   0  0  0  0  0  0  0  0  0  0  0  0  # atno 8010 bound_to 7997
  140.5346  143.9783  150.6484 H   0  0  0  0  0  0  0  0  0  0  0  0  # atno 10167 bound_to 10162
  157.4459  131.1062  151.0090 H   0  0  0  0  0  0  0  0  0  0  0  0  # atno 10718 bound_to 10713
  154.2777  135.2764  155.2710 H   0  0  0  0  0  0  0  0  0  0  0  0  # atno 10763 bound_to 10752
  154.5245  135.5747  153.6712 H   0  0  0  0  0  0  0  0  0  0  0  0  # atno 10764 bound_to 10752
  152.9934  135.6212  154.2935 H   0  0  0  0  0  0  0  0  0  0  0  0  # atno 10765 bound_to 10752
  140.6358  134.4603  157.5231 H   0  0  0  0  0  0  0  0  0  0  0  0  # atno 11005 bound_to 11000
  144.9052  140.7691  143.5842 LP  0  0  0  0  0  0  0  0  0  0  0  0  # atno 17320 bound_to 7965
  145.2946  139.1872  143.4722 LP  0  0  0  0  0  0  0  0  0  0  0  0  # atno 17321 bound_to 7965
  140.3167  143.3163  152.0825 LP  0  0  0  0  0  0  0  0  0  0  0  0  # atno 17342 bound_to 10162
  139.4966  144.6601  151.6485 LP  0  0  0  0  0  0  0  0  0  0  0  0  # atno 17343 bound_to 10162
  157.0937  130.5953  149.5445 LP  0  0  0  0  0  0  0  0  0  0  0  0  # atno 17370 bound_to 10713
  155.9967  130.5037  150.7506 LP  0  0  0  0  0  0  0  0  0  0  0  0  # atno 17371 bound_to 10713
  139.9099  134.8368  156.1568 LP  0  0  0  0  0  0  0  0  0  0  0  0  # atno 17394 bound_to 11000
  141.0642  133.6827  156.2013 LP  0  0  0  0  0  0  0  0  0  0  0  0  # atno 17395 bound_to 11000

$$$$
