AV-unprocessed.smi:2061|AV-procd|sdf|8373|dock3
  -GOLD-   2272011 43D 1   1.00000     0.00000
 Structure written by MMmdl.
 46 47  0  0  0  0  0  0  0  0  2 V2000
  143.9063  132.3251  149.3247 C   0  0  0  0  0  0  0  0  0  0  0  0
  144.6803  132.7708  150.5179 C   0  0  0  0  0  0  0  0  0  0  0  0
  145.5381  133.8124  150.7339 C   0  0  0  0  0  0  0  0  0  0  0  0
  145.9129  133.6411  152.0930 C   0  0  0  0  0  0  0  0  0  0  0  0
  146.8173  134.5380  152.7163 N   0  0  0  0  0  0  0  0  0  0  0  0
  146.9407  134.7948  154.0293 C   0  0  0  0  0  0  0  0  0  0  0  0
  146.2557  134.2912  154.9204 O   0  0  0  0  0  0  0  0  0  0  0  0
  147.9237  135.6759  154.2650 N   0  0  0  0  0  0  0  0  0  0  0  0
  148.3235  136.1421  155.5898 C   0  0  0  0  0  0  0  0  0  0  0  0
  149.7827  136.6730  155.6366 C   0  0  1  0  0  0  0  0  0  0  0  0
  150.7624  135.4989  155.8788 C   0  0  0  0  0  0  0  0  0  0  0  0
  150.0996  137.4575  154.3951 N   0  3  1  0  0  0  0  0  0  0  0  0
  149.3781  138.7558  154.2839 C   0  0  0  0  0  0  0  0  0  0  0  0
  150.0078  139.8398  155.1884 C   0  0  2  0  0  0  0  0  0  0  0  0
  149.3433  141.2070  154.9919 C   0  0  0  0  0  0  0  0  0  0  0  0
  151.3901  139.9741  154.8732 O   0  0  0  0  0  0  0  0  0  0  0  0
  152.1237  138.7668  155.0505 C   0  0  2  0  0  0  0  0  0  0  0  0
  153.5979  139.0582  154.7508 C   0  0  0  0  0  0  0  0  0  0  0  0
  151.5394  137.6974  154.1052 C   0  0  0  0  0  0  0  0  0  0  0  0
  145.3367  132.5902  152.6561 N   0  0  0  0  0  0  0  0  0  0  0  0
  144.5426  132.0276  151.6497 O   0  0  0  0  0  0  0  0  0  0  0  0
  144.2421  132.8436  148.4266 H   0  0  0  0  0  0  0  0  0  0  0  0
  142.8436  132.5297  149.4557 H   0  0  0  0  0  0  0  0  0  0  0  0
  144.0278  131.2542  149.1611 H   0  0  0  0  0  0  0  0  0  0  0  0
  145.8461  134.5718  150.0305 H   0  0  0  0  0  0  0  0  0  0  0  0
  147.4446  135.0274  152.0955 H   0  0  0  0  0  0  0  0  0  0  0  0
  148.4344  136.0454  153.4762 H   0  0  0  0  0  0  0  0  0  0  0  0
  147.6353  136.9336  155.8884 H   0  0  0  0  0  0  0  0  0  0  0  0
  148.1590  135.3217  156.2863 H   0  0  0  0  0  0  0  0  0  0  0  0
  149.8821  137.3389  156.4928 H   0  0  0  0  0  0  0  0  0  0  0  0
  150.4814  134.9075  156.7500 H   0  0  0  0  0  0  0  0  0  0  0  0
  151.7752  135.8462  156.0809 H   0  0  0  0  0  0  0  0  0  0  0  0
  150.7946  134.8235  155.0232 H   0  0  0  0  0  0  0  0  0  0  0  0
  149.4368  139.0813  153.2441 H   0  0  0  0  0  0  0  0  0  0  0  0
  148.3159  138.6571  154.4949 H   0  0  0  0  0  0  0  0  0  0  0  0
  149.9069  139.5652  156.2388 H   0  0  0  0  0  0  0  0  0  0  0  0
  148.2808  141.1652  155.2324 H   0  0  0  0  0  0  0  0  0  0  0  0
  149.4399  141.5500  153.9615 H   0  0  0  0  0  0  0  0  0  0  0  0
  149.7996  141.9588  155.6364 H   0  0  0  0  0  0  0  0  0  0  0  0
  152.0414  138.4419  156.0887 H   0  0  0  0  0  0  0  0  0  0  0  0
  154.2084  138.1643  154.8802 H   0  0  0  0  0  0  0  0  0  0  0  0
  153.9872  139.8253  155.4209 H   0  0  0  0  0  0  0  0  0  0  0  0
  153.7318  139.4105  153.7276 H   0  0  0  0  0  0  0  0  0  0  0  0
  152.1251  136.7799  154.1211 H   0  0  0  0  0  0  0  0  0  0  0  0
  151.6185  138.0547  153.0772 H   0  0  0  0  0  0  0  0  0  0  0  0
  149.7668  136.8805  153.6358 H   0  0  0  0  0  0  0  0  0  0  0  0
  1  2  1  0  0  0  0
  1 22  1  0  0  0  0
  1 23  1  0  0  0  0
  1 24  1  0  0  0  0
  2 21  1  0  0  0  0
  2  3  2  0  0  0  0
  3  4  1  0  0  0  0
  3 25  1  0  0  0  0
  4  5  1  0  0  0  0
  4 20  2  0  0  0  0
  5  6  1  0  0  0  0
  5 26  1  0  0  0  0
  6  7  2  0  0  0  0
  6  8  1  0  0  0  0
  8  9  1  0  0  0  0
  8 27  1  0  0  0  0
  9 10  1  0  0  0  0
  9 28  1  0  0  0  0
  9 29  1  0  0  0  0
 10 11  1  0  0  0  0
 10 12  1  0  0  0  0
 10 30  1  0  0  0  0
 11 31  1  0  0  0  0
 11 32  1  0  0  0  0
 11 33  1  0  0  0  0
 12 19  1  0  0  0  0
 12 13  1  0  0  0  0
 12 46  1  0  0  0  0
 13 14  1  0  0  0  0
 13 34  1  0  0  0  0
 13 35  1  0  0  0  0
 14 15  1  0  0  0  0
 14 16  1  0  0  0  0
 14 36  1  0  0  0  0
 15 37  1  0  0  0  0
 15 38  1  0  0  0  0
 15 39  1  0  0  0  0
 16 17  1  0  0  0  0
 17 18  1  0  0  0  0
 17 19  1  0  0  0  0
 17 40  1  0  0  0  0
 18 41  1  0  0  0  0
 18 42  1  0  0  0  0
 18 43  1  0  0  0  0
 19 44  1  0  0  0  0
 19 45  1  0  0  0  0
 20 21  1  0  0  0  0
M  CHG  1  12   1
M  END
> <s_m_source_file>
AV-unprocessed.smi

> <i_m_source_file_index>
2061

> <i_lp_mmshare_version>
43012

> <i_f3d_flags>
0

> <s_epik_input>
W0NIM11jMVtjSF1jKG5vMSlbTkhdQyg9TylbTkhdW0NIMl1bQ0BIXShbQ0gzXSlOMltDSDJdW0NAQEhdKFtDSDNdKU9bQ0BASF0oW0NIM10pW0NIMl0y

> <s_epik_cmdline>
J2VwaWtfcHl0aG9uJywgJy1waCcsICc3LjAnLCAnLXRuJywgJzgnLCAnLW1hJywgJzIwMCcsICctbWV0YWxfYmluZGluZycsICctaW1hZScsICc8aW5maWxlLm1hZT4nLCAnLW9tYWUnLCAnPG91dGZpbGUubWFlPic=

> <r_epik_Ionization_Penalty>
0.707076

> <r_epik_Ionization_Penalty_Charging>
0.707039

> <r_epik_Ionization_Penalty_Neutral>
3.6548e-05

> <r_epik_State_Penalty>
0.730276

> <r_epik_Charging_Adjusted_Penalty>
1.43732

> <i_epik_Tot_Q>
1

> <i_epik_Tot_abs_Q>
1

> <r_epik_Metal_State_Penalty>
0.743132

> <b_epik_Metal_Only>
0

> <s_lp_Force_Field>
OPLS_2005

> <r_lp_Energy>
17.8186

> <b_lp_Chiralities_Consistent>
1

> <s_lp_Variant>
AV-unprocessed.smi:2061-14

> <Gold.Version>
5.8.1

> <Gold.Id.Protein>
6NUR|6NUR_protein|mol2

> <Gold.PLP.Fitness>
46.4318

> <Gold.PLP.PLP>
-32.8859

> <Gold.PLP.part.hbond>
-4.0000

> <Gold.PLP.part.metal>
0.0000

> <Gold.PLP.part.buried>
-2.7657

> <Gold.PLP.part.nonpolar>
-28.4663

> <Gold.PLP.part.repulsive>
0.4439

> <Gold.PLP.ligand.clash>
0.0000

> <Gold.PLP.ligand.torsion>
0.7562

> <Gold.PLP.Chemscore.Hbond>
5.0000

> <Gold.PLP.Chemscore.CHOScore>
0.0000

> <Gold.PLP.Chemscore.Metal>
0.0000

> <Gold.Chemscore.Hbonds>
donor molecule, donor type, donor heavy atom, donor atom, acceptor molecule, acceptor atom, score
      L1  H     5    26       P1  7948  1.00
      L1  H     8    27       P1  7948  1.00
      L1  H    12    46       P1  7948  2.00
      P1  H  7989  7998       L1    16  1.00

> <Gold.PLP.Chemscore.Internal.Correction>
0.0582

> <Gold.Rescore>
     Score         DG    S(hbond)    S(metal)    S(lipo)     H(rot)  DE(clash)    DE(int)     intcor
     19.35     -22.49       3.43        0.00      82.16       1.58       1.31       1.84       ----

> <Gold.Chemscore.Fitness>
19.3460

> <Gold.Chemscore.DG>
-22.4927

> <Gold.Chemscore.ZeroCoef>
-5.4800

> <Gold.Chemscore.Hbond>
3.4291

> <Gold.Chemscore.Metal>
0.0000

> <Gold.Chemscore.Lipo>
82.1612

> <Gold.Chemscore.Internal_Hbond>
0.0000

> <Gold.Chemscore.DEClash>
1.3094

> <Gold.Chemscore.DEInternal>
1.8373

> <Gold.Chemscore.Rot>
1.5834

> <Gold.Chemscore.Internal.Correction>
   9.000000E+99

> <Gold.Chemscore.Hbonds>
donor molecule, donor type, donor heavy atom, donor atom, acceptor molecule, acceptor atom, score
      L1  H     5    26       P1  7948  0.90
      L1  H     8    27       P1  7948  0.99
      L1  H    12    46       P1  7948  0.52
      P1  H  7989  7998       L1    16  0.82

> <Gold.Chemscore.Hbond.Weighted>
-11.4533

> <Gold.Chemscore.Metal.Weighted>
-0.0000

> <Gold.Chemscore.Lipo.Weighted>
-9.6129

> <Gold.Chemscore.Internal_Hbond.Weighted>
0.0000

> <Gold.Chemscore.DEClash.Weighted>
1.3094

> <Gold.Chemscore.DEInternal.Weighted>
1.8373

> <Gold.Chemscore.Rot.Weighted>
4.0535

> <Gold.Chemscore.Internal.Correction.Weighted>
   9.000000E+99

> <Gold.Protein.RotatedTorsions>
[ 6907 6896 6895 6894 ] final -152.43 input  -60.11 | X-H torsion
[ 7974 7965 7964 7962 ] final  173.02 input  175.53 | X-H torsion
[ 8008 7997 7996 7995 ] final   84.02 input   59.86 | X-H torsion
[ 10167 10162 10161 10158 ] final  -94.33 input  -65.29 | X-H torsion
[ 10718 10713 10712 10709 ] final  100.44 input   66.30 | X-H torsion
[ 10763 10752 10751 10750 ] final  -99.41 input  -60.55 | X-H torsion
[ 11005 11000 10999 10996 ] final  151.65 input  -57.11 | X-H torsion

> <Gold.Protein.ActiveResidues>
 VAL166  LYS551  ARG553  GLY616  TRP617  ASP618  TYR619  PRO620  LYS621  CYS622 
 ASP623  PHE694  ASN695  SER759  ASP760  ASP761  ALA762  ILE779  LEU786  VAL792 
 PHE793  MET794  SER795  GLU796  ALA797  LYS798  CYS799  TRP800  GLU811  SER814 

> <Gold.Protein.RotatedAtoms>
  151.2276  133.4468  159.2602 H   0  0  0  0  0  0  0  0  0  0  0  0  # atno 6907 bound_to 6896
  151.0825  134.9867  159.8373 H   0  0  0  0  0  0  0  0  0  0  0  0  # atno 6908 bound_to 6896
  152.5426  134.2215  159.8842 H   0  0  0  0  0  0  0  0  0  0  0  0  # atno 6909 bound_to 6896
  144.7254  139.9585  143.6434 H   0  0  0  0  0  0  0  0  0  0  0  0  # atno 7974 bound_to 7965
  155.9316  140.3414  155.6253 H   0  0  0  0  0  0  0  0  0  0  0  0  # atno 8008 bound_to 7997
  155.7150  140.0776  157.2373 H   0  0  0  0  0  0  0  0  0  0  0  0  # atno 8009 bound_to 7997
  154.4086  140.1616  156.2326 H   0  0  0  0  0  0  0  0  0  0  0  0  # atno 8010 bound_to 7997
  140.3155  143.3079  152.0103 H   0  0  0  0  0  0  0  0  0  0  0  0  # atno 10167 bound_to 10162
  157.6854  131.0698  150.5100 H   0  0  0  0  0  0  0  0  0  0  0  0  # atno 10718 bound_to 10713
  154.7496  135.4973  153.9265 H   0  0  0  0  0  0  0  0  0  0  0  0  # atno 10763 bound_to 10752
  153.1129  135.6713  153.9477 H   0  0  0  0  0  0  0  0  0  0  0  0  # atno 10764 bound_to 10752
  153.9231  135.3086  155.3426 H   0  0  0  0  0  0  0  0  0  0  0  0  # atno 10765 bound_to 10752
  140.1237  134.8847  157.2108 H   0  0  0  0  0  0  0  0  0  0  0  0  # atno 11005 bound_to 11000
  146.0656  139.3647  143.0554 LP  0  0  0  0  0  0  0  0  0  0  0  0  # atno 17320 bound_to 7965
  145.8036  140.9759  143.0986 LP  0  0  0  0  0  0  0  0  0  0  0  0  # atno 17321 bound_to 7965
  139.4885  144.6351  151.6991 LP  0  0  0  0  0  0  0  0  0  0  0  0  # atno 17342 bound_to 10162
  140.5530  144.0394  150.6135 LP  0  0  0  0  0  0  0  0  0  0  0  0  # atno 17343 bound_to 10162
  156.5418  130.4210  149.6150 LP  0  0  0  0  0  0  0  0  0  0  0  0  # atno 17370 bound_to 10713
  156.2979  130.7160  151.2025 LP  0  0  0  0  0  0  0  0  0  0  0  0  # atno 17371 bound_to 10713
  140.2931  134.3217  155.7309 LP  0  0  0  0  0  0  0  0  0  0  0  0  # atno 17394 bound_to 11000
  141.2157  133.7547  156.9532 LP  0  0  0  0  0  0  0  0  0  0  0  0  # atno 17395 bound_to 11000

$$$$
