AV-unprocessed.smi:109|AV-procd|sdf|1038|dock10
  -GOLD-   2262018 63D 1   1.00000     0.00000
 Structure written by MMmdl.
 58 61  0  0  0  0  0  0  0  0  1 V2000
  150.3933  133.1255  157.4866 O   0  0  0  0  0  0  0  0  0  0  0  0
  149.1773  133.8341  157.3840 C   0  0  0  0  0  0  0  0  0  0  0  0
  149.4381  135.3441  157.5234 C   0  0  0  0  0  0  0  0  0  0  0  0
  148.3759  136.0925  158.3654 C   0  0  1  0  0  0  0  0  0  0  0  0
  147.0542  135.8916  157.7665 N   0  0  0  0  0  0  0  0  0  0  0  0
  146.7655  136.2895  156.5069 C   0  0  0  0  0  0  0  0  0  0  0  0
  146.7175  137.6049  156.1703 N   0  0  0  0  0  0  0  0  0  0  0  0
  146.4351  137.9663  154.9149 C   0  0  0  0  0  0  0  0  0  0  0  0
  146.1743  137.1895  153.8610 N   0  0  0  0  0  0  0  0  0  0  0  0
  146.2208  135.8678  154.1962 C   0  0  0  0  0  0  0  0  0  0  0  0
  146.5063  135.3400  155.4853 C   0  0  0  0  0  0  0  0  0  0  0  0
  146.4720  133.9521  155.4419 N   0  0  0  0  0  0  0  0  0  0  0  0
  146.1855  133.6813  154.1960 C   0  0  0  0  0  0  0  0  0  0  0  0
  146.0073  134.7793  153.3808 N   0  0  0  0  0  0  0  0  0  0  0  0
  145.6828  134.8396  151.9211 C   0  0  1  0  0  0  0  0  0  0  0  0
  146.5453  133.9795  151.2286 O   0  0  0  0  0  0  0  0  0  0  0  0
  145.8249  132.9723  150.5157 C   0  0  1  0  0  0  0  0  0  0  0  0
  145.8264  131.6659  151.3396 C   0  0  0  0  0  0  0  0  0  0  0  0
  147.1382  131.3753  151.7720 O   0  0  0  0  0  0  0  0  0  0  0  0
  144.4500  133.6259  150.3205 C   0  0  1  0  0  0  0  0  0  0  0  0
  143.3941  132.7396  149.9972 O   0  0  0  0  0  0  0  0  0  0  0  0
  144.2364  134.4055  151.6077 C   0  0  1  0  0  0  0  0  0  0  0  0
  143.6352  133.6211  152.6268 O   0  0  0  0  0  0  0  0  0  0  0  0
  148.3383  135.6584  159.8586 C   0  0  0  0  0  0  0  0  0  0  0  0
  147.6903  134.2583  160.0125 C   0  0  0  0  0  0  0  0  0  0  0  0
  147.6319  133.7928  161.4756 C   0  0  0  0  0  0  0  0  0  0  0  0
  146.8833  134.8055  162.3501 C   0  0  0  0  0  0  0  0  0  0  0  0
  147.5227  136.1940  162.2328 C   0  0  0  0  0  0  0  0  0  0  0  0
  147.5893  136.6630  160.7698 C   0  0  0  0  0  0  0  0  0  0  0  0
  145.8930  135.8707  151.6336 H   0  0  0  0  0  0  0  0  0  0  0  0
  146.2881  132.7934  149.5442 H   0  0  0  0  0  0  0  0  0  0  0  0
  144.5336  134.3427  149.5021 H   0  0  0  0  0  0  0  0  0  0  0  0
  143.6168  135.2882  151.4463 H   0  0  0  0  0  0  0  0  0  0  0  0
  150.3629  132.3892  156.8951 H   0  0  0  0  0  0  0  0  0  0  0  0
  148.7169  133.6109  156.4211 H   0  0  0  0  0  0  0  0  0  0  0  0
  148.5029  133.4743  158.1612 H   0  0  0  0  0  0  0  0  0  0  0  0
  150.4289  135.5096  157.9488 H   0  0  0  0  0  0  0  0  0  0  0  0
  149.4638  135.7515  156.5140 H   0  0  0  0  0  0  0  0  0  0  0  0
  148.6471  137.1476  158.3610 H   0  0  0  0  0  0  0  0  0  0  0  0
  146.4091  135.3466  158.3204 H   0  0  0  0  0  0  0  0  0  0  0  0
  146.4157  139.0299  154.7290 H   0  0  0  0  0  0  0  0  0  0  0  0
  146.1000  132.6648  153.8408 H   0  0  0  0  0  0  0  0  0  0  0  0
  145.1535  131.7140  152.1943 H   0  0  0  0  0  0  0  0  0  0  0  0
  145.5037  130.8240  150.7280 H   0  0  0  0  0  0  0  0  0  0  0  0
  147.6767  131.2163  151.0118 H   0  0  0  0  0  0  0  0  0  0  0  0
  142.6256  133.2508  149.7935 H   0  0  0  0  0  0  0  0  0  0  0  0
  142.7004  133.7570  152.5925 H   0  0  0  0  0  0  0  0  0  0  0  0
  149.3672  135.5939  160.2166 H   0  0  0  0  0  0  0  0  0  0  0  0
  146.6812  134.2755  159.5979 H   0  0  0  0  0  0  0  0  0  0  0  0
  148.2407  133.5126  159.4388 H   0  0  0  0  0  0  0  0  0  0  0  0
  147.1445  132.8193  161.5359 H   0  0  0  0  0  0  0  0  0  0  0  0
  148.6447  133.6563  161.8564 H   0  0  0  0  0  0  0  0  0  0  0  0
  145.8372  134.8542  162.0450 H   0  0  0  0  0  0  0  0  0  0  0  0
  146.8897  134.4781  163.3902 H   0  0  0  0  0  0  0  0  0  0  0  0
  146.9580  136.9131  162.8270 H   0  0  0  0  0  0  0  0  0  0  0  0
  148.5289  136.1690  162.6533 H   0  0  0  0  0  0  0  0  0  0  0  0
  148.0814  137.6342  160.7628 H   0  0  0  0  0  0  0  0  0  0  0  0
  146.5789  136.8221  160.3906 H   0  0  0  0  0  0  0  0  0  0  0  0
  1  2  1  0  0  0  0
  1 34  1  0  0  0  0
  2  3  1  0  0  0  0
  2 35  1  0  0  0  0
  2 36  1  0  0  0  0
  3  4  1  0  0  0  0
  3 37  1  0  0  0  0
  3 38  1  0  0  0  0
  4  5  1  0  0  0  0
  4 24  1  0  0  0  0
  4 39  1  0  0  0  0
  5  6  1  0  0  0  0
  5 40  1  0  0  0  0
  6 11  1  0  0  0  0
  6  7  2  0  0  0  0
  7  8  1  0  0  0  0
  8  9  2  0  0  0  0
  8 41  1  0  0  0  0
  9 10  1  0  0  0  0
 10 14  1  0  0  0  0
 10 11  2  0  0  0  0
 11 12  1  0  0  0  0
 12 13  2  0  0  0  0
 13 14  1  0  0  0  0
 13 42  1  0  0  0  0
 14 15  1  0  0  0  0
 15 30  1  0  0  0  0
 15 22  1  0  0  0  0
 15 16  1  0  0  0  0
 16 17  1  0  0  0  0
 17 31  1  0  0  0  0
 17 18  1  0  0  0  0
 17 20  1  0  0  0  0
 18 19  1  0  0  0  0
 18 43  1  0  0  0  0
 18 44  1  0  0  0  0
 19 45  1  0  0  0  0
 20 32  1  0  0  0  0
 20 21  1  0  0  0  0
 20 22  1  0  0  0  0
 21 46  1  0  0  0  0
 22 33  1  0  0  0  0
 22 23  1  0  0  0  0
 23 47  1  0  0  0  0
 24 29  1  0  0  0  0
 24 25  1  0  0  0  0
 24 48  1  0  0  0  0
 25 26  1  0  0  0  0
 25 49  1  0  0  0  0
 25 50  1  0  0  0  0
 26 27  1  0  0  0  0
 26 51  1  0  0  0  0
 26 52  1  0  0  0  0
 27 28  1  0  0  0  0
 27 53  1  0  0  0  0
 27 54  1  0  0  0  0
 28 29  1  0  0  0  0
 28 55  1  0  0  0  0
 28 56  1  0  0  0  0
 29 57  1  0  0  0  0
 29 58  1  0  0  0  0
M  END
> <s_m_source_file>
AV-unprocessed.smi

> <i_m_source_file_index>
109

> <i_lp_mmshare_version>
43012

> <i_f3d_flags>
0

> <s_epik_input>
W0NIMl0xW0NIMl1bQ0gyXVtDSDJdW0NIMl1bQ0hdMVtDQEhdKFtDSDJdW0NIMl1bT0hdKVtOSF1jKG5bY0hdbjIpYyhjMjMpbltjSF1uM1tDQEBIXTRPW0NASF0oW0NIMl1bT0hdKVtDQEBIXShbT0hdKVtDQEhdNFtPSF0=

> <s_epik_cmdline>
J2VwaWtfcHl0aG9uJywgJy1waCcsICc3LjAnLCAnLXRuJywgJzgnLCAnLW1hJywgJzIwMCcsICctbWV0YWxfYmluZGluZycsICctaW1hZScsICc8aW5maWxlLm1hZT4nLCAnLW9tYWUnLCAnPG91dGZpbGUubWFlPic=

> <r_lp_tautomer_probability>
1

> <r_epik_Ionization_Penalty>
0.000793976

> <r_epik_Ionization_Penalty_Charging>
0

> <r_epik_Ionization_Penalty_Neutral>
0.000793976

> <r_epik_State_Penalty>
-0

> <r_epik_Charging_Adjusted_Penalty>
0

> <i_epik_Tot_Q>
0

> <i_epik_Tot_abs_Q>
0

> <r_epik_Metal_State_Penalty>
-0

> <b_epik_Metal_Only>
0

> <s_epik_Chemistry_Notes>
This compound contains an acetal/aminal-like group ( X-CH(R)-Y where X, Y are N, S, or O) that may be acid/base labile, releasing an aldehyde.

> <s_lp_Force_Field>
OPLS_2005

> <r_lp_Energy>
62.3675

> <b_lp_Chiralities_Consistent>
1

> <s_lp_Variant>
AV-unprocessed.smi:109-8

> <Gold.Version>
5.8.1

> <Gold.Id.Protein>
6NUR|6NUR_protein|mol2

> <Gold.PLP.Fitness>
42.8556

> <Gold.PLP.PLP>
-36.7818

> <Gold.PLP.part.hbond>
-3.7281

> <Gold.PLP.part.metal>
0.0000

> <Gold.PLP.part.buried>
-7.5225

> <Gold.PLP.part.nonpolar>
-25.9539

> <Gold.PLP.part.repulsive>
0.3521

> <Gold.PLP.ligand.clash>
0.1649

> <Gold.PLP.ligand.torsion>
1.4409

> <Gold.PLP.Chemscore.Hbond>
3.0000

> <Gold.PLP.Chemscore.CHOScore>
0.0000

> <Gold.PLP.Chemscore.Metal>
0.0000

> <Gold.Chemscore.Hbonds>
donor molecule, donor type, donor heavy atom, donor atom, acceptor molecule, acceptor atom, score
      L1  H    19    45       P1 10747  1.00
      L1  H    21    46       P1 10186  1.00
      P1  H  6896  6909       L1     1  1.00

> <Gold.PLP.Chemscore.Internal.Correction>
0.1206

> <Gold.Rescore>
     Score         DG    S(hbond)    S(metal)    S(lipo)     H(rot)  DE(clash)    DE(int)     intcor
      8.01     -10.81       2.97        0.00      80.38       5.47       0.02       2.78       ----

> <Gold.Chemscore.Fitness>
8.0074

> <Gold.Chemscore.DG>
-10.8064

> <Gold.Chemscore.ZeroCoef>
-5.4800

> <Gold.Chemscore.Hbond>
2.9686

> <Gold.Chemscore.Metal>
0.0000

> <Gold.Chemscore.Lipo>
80.3832

> <Gold.Chemscore.Internal_Hbond>
0.0000

> <Gold.Chemscore.DEClash>
0.0158

> <Gold.Chemscore.DEInternal>
2.7832

> <Gold.Chemscore.Rot>
5.4662

> <Gold.Chemscore.Internal.Correction>
   9.000000E+99

> <Gold.Chemscore.Hbonds>
donor molecule, donor type, donor heavy atom, donor atom, acceptor molecule, acceptor atom, score
      L1  H    19    45       P1 10747  0.92
      L1  H    21    46       P1 10186  0.95
      P1  H  6896  6909       L1     1  0.54

> <Gold.Chemscore.Hbond.Weighted>
-9.9150

> <Gold.Chemscore.Metal.Weighted>
-0.0000

> <Gold.Chemscore.Lipo.Weighted>
-9.4048

> <Gold.Chemscore.Internal_Hbond.Weighted>
0.0000

> <Gold.Chemscore.DEClash.Weighted>
0.0158

> <Gold.Chemscore.DEInternal.Weighted>
2.7832

> <Gold.Chemscore.Rot.Weighted>
13.9935

> <Gold.Chemscore.Internal.Correction.Weighted>
   9.000000E+99

> <Gold.Protein.RotatedTorsions>
[ 6907 6896 6895 6894 ] final  -23.63 input  -60.11 | X-H torsion
[ 7974 7965 7964 7962 ] final -178.81 input  175.53 | X-H torsion
[ 8008 7997 7996 7995 ] final  -85.42 input   59.86 | X-H torsion
[ 10167 10162 10161 10158 ] final  -82.62 input  -65.29 | X-H torsion
[ 10718 10713 10712 10709 ] final  -65.42 input   66.30 | X-H torsion
[ 10763 10752 10751 10750 ] final  112.75 input  -60.55 | X-H torsion
[ 11005 11000 10999 10996 ] final  -15.75 input  -57.11 | X-H torsion

> <Gold.Protein.ActiveResidues>
 VAL166  LYS551  ARG553  GLY616  TRP617  ASP618  TYR619  PRO620  LYS621  CYS622 
 ASP623  PHE694  ASN695  SER759  ASP760  ASP761  ALA762  ILE779  LEU786  VAL792 
 PHE793  MET794  SER795  GLU796  ALA797  LYS798  CYS799  TRP800  GLU811  SER814 

> <Gold.Protein.RotatedAtoms>
  151.2012  135.0443  159.8872 H   0  0  0  0  0  0  0  0  0  0  0  0  # atno 6907 bound_to 6896
  152.5432  134.0848  159.8261 H   0  0  0  0  0  0  0  0  0  0  0  0  # atno 6908 bound_to 6896
  151.0989  133.5211  159.2643 H   0  0  0  0  0  0  0  0  0  0  0  0  # atno 6909 bound_to 6896
  144.7133  140.0812  143.6425 H   0  0  0  0  0  0  0  0  0  0  0  0  # atno 7974 bound_to 7965
  154.6406  140.0592  156.9841 H   0  0  0  0  0  0  0  0  0  0  0  0  # atno 8008 bound_to 7997
  155.1523  140.3275  155.4410 H   0  0  0  0  0  0  0  0  0  0  0  0  # atno 8009 bound_to 7997
  156.2529  140.1945  156.6634 H   0  0  0  0  0  0  0  0  0  0  0  0  # atno 8010 bound_to 7997
  140.4303  143.2551  151.8769 H   0  0  0  0  0  0  0  0  0  0  0  0  # atno 10167 bound_to 10162
  156.0670  130.4247  150.1562 H   0  0  0  0  0  0  0  0  0  0  0  0  # atno 10718 bound_to 10713
  153.4825  135.3676  155.2449 H   0  0  0  0  0  0  0  0  0  0  0  0  # atno 10763 bound_to 10752
  154.8755  135.3957  154.3684 H   0  0  0  0  0  0  0  0  0  0  0  0  # atno 10764 bound_to 10752
  153.4290  135.7082  153.6309 H   0  0  0  0  0  0  0  0  0  0  0  0  # atno 10765 bound_to 10752
  140.7998  133.8222  155.9459 H   0  0  0  0  0  0  0  0  0  0  0  0  # atno 11005 bound_to 11000
  145.9701  139.2863  143.1104 LP  0  0  0  0  0  0  0  0  0  0  0  0  # atno 17320 bound_to 7965
  145.9126  140.9170  143.0446 LP  0  0  0  0  0  0  0  0  0  0  0  0  # atno 17321 bound_to 7965
  139.4785  144.5342  151.8622 LP  0  0  0  0  0  0  0  0  0  0  0  0  # atno 17342 bound_to 10162
  140.4435  144.1954  150.5892 LP  0  0  0  0  0  0  0  0  0  0  0  0  # atno 17343 bound_to 10162
  156.9620  130.9808  151.3477 LP  0  0  0  0  0  0  0  0  0  0  0  0  # atno 17370 bound_to 10713
  157.5718  130.8316  149.8402 LP  0  0  0  0  0  0  0  0  0  0  0  0  # atno 17371 bound_to 10713
  140.9306  134.2027  157.4866 LP  0  0  0  0  0  0  0  0  0  0  0  0  # atno 17394 bound_to 11000
  139.8723  134.9831  156.5183 LP  0  0  0  0  0  0  0  0  0  0  0  0  # atno 17395 bound_to 11000

$$$$
