AV-unprocessed.smi:514|AV-procd|sdf|2779|dock4
  -GOLD-   2262023253D 1   1.00000     0.00000
 Structure written by MMmdl.
 44 46  0  0  0  0  0  0  0  0  2 V2000
  147.6425  141.1660  153.4851 C   0  0  0  0  0  0  0  0  0  0  0  0
  148.0873  141.7580  154.8298 C   0  0  0  0  0  0  0  0  0  0  0  0
  149.3929  141.3275  155.1880 O   0  0  0  0  0  0  0  0  0  0  0  0
  149.7221  141.5421  156.5522 C   0  0  0  0  0  0  0  0  0  0  0  0
  151.2062  141.9325  156.6423 C   0  0  0  0  0  0  0  0  0  0  0  0
  151.8671  141.3280  157.7957 N   0  0  0  0  0  0  0  0  0  0  0  0
  152.3320  141.9276  158.9302 C   0  0  0  0  0  0  0  0  0  0  0  0
  152.2576  143.3070  159.1656 N   0  0  0  0  0  0  0  0  0  0  0  0
  152.4948  143.9234  160.4704 C   0  0  0  0  0  0  0  0  0  0  0  0
  151.3608  144.9013  160.8371 C   0  0  0  0  0  0  0  0  0  0  0  0
  151.2960  145.9736  159.8508 N   0  0  0  0  0  0  0  0  0  0  0  0
  151.0444  145.3808  158.5424 C   0  0  0  0  0  0  0  0  0  0  0  0
  152.1818  144.4002  158.1952 C   0  0  0  0  0  0  0  0  0  0  0  0
  152.8376  141.0788  159.8287 N   0  0  0  0  0  0  0  0  0  0  0  0
  152.7059  139.8448  159.2145 C   0  0  0  0  0  0  0  0  0  0  0  0
  152.1147  139.9646  157.9969 C   0  0  0  0  0  0  0  0  0  0  0  0
  151.8066  138.8131  157.1181 C   0  0  0  0  0  0  0  0  0  0  0  0
  151.2547  138.9718  156.0313 O   0  0  0  0  0  0  0  0  0  0  0  0
  152.2001  137.6212  157.6689 N   0  5  0  0  0  0  0  0  0  0  0  0
  152.8059  137.4565  158.8959 C   0  0  0  0  0  0  0  0  0  0  0  0
  153.1213  136.3443  159.3211 O   0  0  0  0  0  0  0  0  0  0  0  0
  153.0692  138.5508  159.6770 N   0  0  0  0  0  0  0  0  0  0  0  0
  153.7140  138.4078  160.9855 C   0  0  0  0  0  0  0  0  0  0  0  0
  146.6814  141.5812  153.1817 H   0  0  0  0  0  0  0  0  0  0  0  0
  147.5279  140.0837  153.5341 H   0  0  0  0  0  0  0  0  0  0  0  0
  148.3652  141.3926  152.7010 H   0  0  0  0  0  0  0  0  0  0  0  0
  148.1141  142.8442  154.7427 H   0  0  0  0  0  0  0  0  0  0  0  0
  147.3688  141.5291  155.6181 H   0  0  0  0  0  0  0  0  0  0  0  0
  149.0927  142.3297  156.9661 H   0  0  0  0  0  0  0  0  0  0  0  0
  149.5283  140.6461  157.1396 H   0  0  0  0  0  0  0  0  0  0  0  0
  151.7340  141.6535  155.7332 H   0  0  0  0  0  0  0  0  0  0  0  0
  151.3107  143.0154  156.7001 H   0  0  0  0  0  0  0  0  0  0  0  0
  152.5569  143.1507  161.2370 H   0  0  0  0  0  0  0  0  0  0  0  0
  153.4587  144.4341  160.4666 H   0  0  0  0  0  0  0  0  0  0  0  0
  150.4030  144.3814  160.8875 H   0  0  0  0  0  0  0  0  0  0  0  0
  151.5431  145.3363  161.8198 H   0  0  0  0  0  0  0  0  0  0  0  0
  150.5462  146.6075  160.0870 H   0  0  0  0  0  0  0  0  0  0  0  0
  150.0767  144.8775  158.5396 H   0  0  0  0  0  0  0  0  0  0  0  0
  150.9947  146.1764  157.7990 H   0  0  0  0  0  0  0  0  0  0  0  0
  153.1363  144.9284  158.1813 H   0  0  0  0  0  0  0  0  0  0  0  0
  152.0491  144.0198  157.1875 H   0  0  0  0  0  0  0  0  0  0  0  0
  153.0608  137.8687  161.6726 H   0  0  0  0  0  0  0  0  0  0  0  0
  153.9529  139.3676  161.4427 H   0  0  0  0  0  0  0  0  0  0  0  0
  154.6493  137.8536  160.8970 H   0  0  0  0  0  0  0  0  0  0  0  0
  1  2  1  0  0  0  0
  1 24  1  0  0  0  0
  1 25  1  0  0  0  0
  1 26  1  0  0  0  0
  2  3  1  0  0  0  0
  2 27  1  0  0  0  0
  2 28  1  0  0  0  0
  3  4  1  0  0  0  0
  4  5  1  0  0  0  0
  4 29  1  0  0  0  0
  4 30  1  0  0  0  0
  5  6  1  0  0  0  0
  5 31  1  0  0  0  0
  5 32  1  0  0  0  0
  6 16  1  0  0  0  0
  6  7  1  0  0  0  0
  7  8  1  0  0  0  0
  7 14  2  0  0  0  0
  8 13  1  0  0  0  0
  8  9  1  0  0  0  0
  9 10  1  0  0  0  0
  9 33  1  0  0  0  0
  9 34  1  0  0  0  0
 10 11  1  0  0  0  0
 10 35  1  0  0  0  0
 10 36  1  0  0  0  0
 11 12  1  0  0  0  0
 11 37  1  0  0  0  0
 12 13  1  0  0  0  0
 12 38  1  0  0  0  0
 12 39  1  0  0  0  0
 13 40  1  0  0  0  0
 13 41  1  0  0  0  0
 14 15  1  0  0  0  0
 15 22  1  0  0  0  0
 15 16  2  0  0  0  0
 16 17  1  0  0  0  0
 17 18  2  0  0  0  0
 17 19  1  0  0  0  0
 19 20  1  0  0  0  0
 20 21  2  0  0  0  0
 20 22  1  0  0  0  0
 22 23  1  0  0  0  0
 23 42  1  0  0  0  0
 23 43  1  0  0  0  0
 23 44  1  0  0  0  0
M  CHG  1  19  -1
M  END
> <s_m_source_file>
AV-unprocessed.smi

> <i_m_source_file_index>
514

> <i_lp_mmshare_version>
43012

> <i_f3d_flags>
0

> <s_epik_input>
W0NIM11uMWMoPU8pW25IXWMoPU8pYyhjMTIpbihbQ0gyXVtDSDJdT1tDSDJdW0NIM10pYyhuMilOM1tDSDJdW0NIMl1bTkhdW0NIMl1bQ0gyXTM=

> <s_epik_cmdline>
J2VwaWtfcHl0aG9uJywgJy1waCcsICc3LjAnLCAnLXRuJywgJzgnLCAnLW1hJywgJzIwMCcsICctbWV0YWxfYmluZGluZycsICctaW1hZScsICc8aW5maWxlLm1hZT4nLCAnLW9tYWUnLCAnPG91dGZpbGUubWFlPic=

> <r_epik_Ionization_Penalty>
8.82895

> <r_epik_Ionization_Penalty_Charging>
0.0771612

> <r_epik_Ionization_Penalty_Neutral>
8.75178

> <r_epik_State_Penalty>
8.91747

> <r_epik_Charging_Adjusted_Penalty>
8.99464

> <i_epik_Tot_Q>
-1

> <i_epik_Tot_abs_Q>
1

> <r_epik_Metal_State_Penalty>
4.86816

> <b_epik_Metal_Only>
1

> <s_lp_Force_Field>
OPLS_2005

> <r_lp_Energy>
52.9187

> <b_lp_Chiralities_Consistent>
1

> <s_lp_Variant>
AV-unprocessed.smi:514-4

> <Gold.Version>
5.8.1

> <Gold.Id.Protein>
6NUR|6NUR_protein|mol2

> <Gold.PLP.Fitness>
44.6005

> <Gold.PLP.PLP>
-43.1466

> <Gold.PLP.part.hbond>
-2.8734

> <Gold.PLP.part.metal>
0.0000

> <Gold.PLP.part.buried>
-4.2538

> <Gold.PLP.part.nonpolar>
-34.3381

> <Gold.PLP.part.repulsive>
0.1174

> <Gold.PLP.ligand.clash>
0.0000

> <Gold.PLP.ligand.torsion>
0.8114

> <Gold.PLP.Chemscore.Hbond>
1.0000

> <Gold.PLP.Chemscore.CHOScore>
0.0000

> <Gold.PLP.Chemscore.Metal>
0.0000

> <Gold.Chemscore.Hbonds>
donor molecule, donor type, donor heavy atom, donor atom, acceptor molecule, acceptor atom, score
      P1  H  6896  6907       L1    21  1.00

> <Gold.PLP.Chemscore.Internal.Correction>
0.0767

> <Gold.Rescore>
     Score         DG    S(hbond)    S(metal)    S(lipo)     H(rot)  DE(clash)    DE(int)     intcor
     13.73     -14.60       0.95        0.00      87.82       1.70       0.04       0.83       ----

> <Gold.Chemscore.Fitness>
13.7318

> <Gold.Chemscore.DG>
-14.5955

> <Gold.Chemscore.ZeroCoef>
-5.4800

> <Gold.Chemscore.Hbond>
0.9522

> <Gold.Chemscore.Metal>
0.0000

> <Gold.Chemscore.Lipo>
87.8199

> <Gold.Chemscore.Internal_Hbond>
0.0000

> <Gold.Chemscore.DEClash>
0.0357

> <Gold.Chemscore.DEInternal>
0.8281

> <Gold.Chemscore.Rot>
1.6953

> <Gold.Chemscore.Internal.Correction>
   9.000000E+99

> <Gold.Chemscore.Hbonds>
donor molecule, donor type, donor heavy atom, donor atom, acceptor molecule, acceptor atom, score
      P1  H  6896  6907       L1    21  0.95

> <Gold.Chemscore.Hbond.Weighted>
-3.1805

> <Gold.Chemscore.Metal.Weighted>
-0.0000

> <Gold.Chemscore.Lipo.Weighted>
-10.2749

> <Gold.Chemscore.Internal_Hbond.Weighted>
0.0000

> <Gold.Chemscore.DEClash.Weighted>
0.0357

> <Gold.Chemscore.DEInternal.Weighted>
0.8281

> <Gold.Chemscore.Rot.Weighted>
4.3399

> <Gold.Chemscore.Internal.Correction.Weighted>
   9.000000E+99

> <Gold.Protein.RotatedTorsions>
[ 6907 6896 6895 6894 ] final   42.50 input  -60.11 | X-H torsion
[ 7974 7965 7964 7962 ] final   71.08 input  175.53 | X-H torsion
[ 8008 7997 7996 7995 ] final  -35.92 input   59.86 | X-H torsion
[ 10167 10162 10161 10158 ] final  101.76 input  -65.29 | X-H torsion
[ 10718 10713 10712 10709 ] final  -12.70 input   66.30 | X-H torsion
[ 10763 10752 10751 10750 ] final -126.19 input  -60.55 | X-H torsion
[ 11005 11000 10999 10996 ] final  -81.91 input  -57.11 | X-H torsion

> <Gold.Protein.ActiveResidues>
 VAL166  LYS551  ARG553  GLY616  TRP617  ASP618  TYR619  PRO620  LYS621  CYS622 
 ASP623  PHE694  ASN695  SER759  ASP760  ASP761  ALA762  ILE779  LEU786  VAL792 
 PHE793  MET794  SER795  GLU796  ALA797  LYS798  CYS799  TRP800  GLU811  SER814 

> <Gold.Protein.RotatedAtoms>
  152.2086  134.8522  160.0499 H   0  0  0  0  0  0  0  0  0  0  0  0  # atno 6907 bound_to 6896
  151.9349  133.3616  159.3952 H   0  0  0  0  0  0  0  0  0  0  0  0  # atno 6908 bound_to 6896
  150.6971  134.4424  159.5342 H   0  0  0  0  0  0  0  0  0  0  0  0  # atno 6909 bound_to 6896
  145.7702  139.2840  143.1325 H   0  0  0  0  0  0  0  0  0  0  0  0  # atno 7974 bound_to 7965
  154.4084  140.1644  156.2290 H   0  0  0  0  0  0  0  0  0  0  0  0  # atno 8008 bound_to 7997
  155.9299  140.3415  155.6218 H   0  0  0  0  0  0  0  0  0  0  0  0  # atno 8009 bound_to 7997
  155.7119  140.0757  157.2358 H   0  0  0  0  0  0  0  0  0  0  0  0  # atno 8010 bound_to 7997
  139.7409  144.7011  151.0576 H   0  0  0  0  0  0  0  0  0  0  0  0  # atno 10167 bound_to 10162
  156.6409  130.4928  149.6095 H   0  0  0  0  0  0  0  0  0  0  0  0  # atno 10718 bound_to 10713
  154.8743  135.4004  154.3390 H   0  0  0  0  0  0  0  0  0  0  0  0  # atno 10763 bound_to 10752
  153.4193  135.7022  153.6311 H   0  0  0  0  0  0  0  0  0  0  0  0  # atno 10764 bound_to 10752
  153.4980  135.3734  155.2495 H   0  0  0  0  0  0  0  0  0  0  0  0  # atno 10765 bound_to 10752
  141.1665  133.7219  156.8494 H   0  0  0  0  0  0  0  0  0  0  0  0  # atno 11005 bound_to 11000
  146.0177  140.8377  142.9939 LP  0  0  0  0  0  0  0  0  0  0  0  0  # atno 17320 bound_to 7965
  144.6814  140.2583  143.7322 LP  0  0  0  0  0  0  0  0  0  0  0  0  # atno 17321 bound_to 7965
  140.7786  143.4925  150.9875 LP  0  0  0  0  0  0  0  0  0  0  0  0  # atno 17342 bound_to 10162
  139.8613  143.7310  152.3173 LP  0  0  0  0  0  0  0  0  0  0  0  0  # atno 17343 bound_to 10162
  156.2160  130.6708  151.1319 LP  0  0  0  0  0  0  0  0  0  0  0  0  # atno 17370 bound_to 10713
  157.7171  131.0703  150.6283 LP  0  0  0  0  0  0  0  0  0  0  0  0  # atno 17371 bound_to 10713
  140.1927  134.8954  157.3078 LP  0  0  0  0  0  0  0  0  0  0  0  0  # atno 17394 bound_to 11000
  140.2273  134.3951  155.7538 LP  0  0  0  0  0  0  0  0  0  0  0  0  # atno 17395 bound_to 11000

$$$$
