AV-unprocessed.smi:1205|AV-procd|sdf|5043|dock6
  -GOLD-   22720 4 63D 1   1.00000     0.00000
 Structure written by MMmdl.
 49 50  0  0  0  0  0  0  0  0  2 V2000
  143.9053  132.4755  151.0584 C   0  0  0  0  0  0  0  0  0  0  0  0
  144.1753  133.8788  151.5149 C   0  0  0  0  0  0  0  0  0  0  0  0
  144.7212  134.9580  150.7607 C   0  0  0  0  0  0  0  0  0  0  0  0
  144.7408  135.9807  151.6693 C   0  0  0  0  0  0  0  0  0  0  0  0
  145.1565  137.2646  151.5024 N   0  0  0  0  0  0  0  0  0  0  0  0
  146.0398  137.9631  152.2365 C   0  0  0  0  0  0  0  0  0  0  0  0
  146.6409  137.5405  153.2245 O   0  0  0  0  0  0  0  0  0  0  0  0
  146.1979  139.2045  151.7536 N   0  0  0  0  0  0  0  0  0  0  0  0
  147.0658  140.2309  152.3262 C   0  0  0  0  0  0  0  0  0  0  0  0
  146.8978  140.3719  153.8575 C   0  0  2  0  0  0  0  0  0  0  0  0
  146.2216  141.6928  154.2877 C   0  0  0  0  0  0  0  0  0  0  0  0
  148.2017  140.1421  154.5468 N   0  3  1  0  0  0  0  0  0  0  0  0
  148.9624  138.9473  154.0880 C   0  0  0  0  0  0  0  0  0  0  0  0
  150.1429  138.6609  155.0283 C   0  0  0  0  0  0  0  0  0  0  0  0
  151.0613  139.8865  155.1434 C   0  0  0  0  0  0  0  0  0  0  0  0
  150.2699  141.1451  155.5474 C   0  0  2  0  0  0  0  0  0  0  0  0
  149.8565  141.1375  157.0296 C   0  0  0  0  0  0  0  0  0  0  0  0
  149.0636  141.3539  154.6076 C   0  0  0  0  0  0  0  0  0  0  0  0
  144.2377  135.5220  152.8665 N   0  0  0  0  0  0  0  0  0  0  0  0
  144.0527  136.2264  154.1202 C   0  0  0  0  0  0  0  0  0  0  0  0
  143.8886  134.2214  152.7658 N   0  0  0  0  0  0  0  0  0  0  0  0
  144.2618  132.3163  150.0405 H   0  0  0  0  0  0  0  0  0  0  0  0
  142.8373  132.2570  151.0736 H   0  0  0  0  0  0  0  0  0  0  0  0
  144.4045  131.7497  151.7012 H   0  0  0  0  0  0  0  0  0  0  0  0
  145.0359  134.9588  149.7280 H   0  0  0  0  0  0  0  0  0  0  0  0
  144.7335  137.7550  150.7281 H   0  0  0  0  0  0  0  0  0  0  0  0
  145.6647  139.4652  150.9365 H   0  0  0  0  0  0  0  0  0  0  0  0
  148.0946  139.9499  152.0986 H   0  0  0  0  0  0  0  0  0  0  0  0
  146.8991  141.1831  151.8216 H   0  0  0  0  0  0  0  0  0  0  0  0
  146.2319  139.5617  154.1583 H   0  0  0  0  0  0  0  0  0  0  0  0
  145.1982  141.7507  153.9179 H   0  0  0  0  0  0  0  0  0  0  0  0
  146.7539  142.5632  153.9036 H   0  0  0  0  0  0  0  0  0  0  0  0
  146.1668  141.7842  155.3722 H   0  0  0  0  0  0  0  0  0  0  0  0
  148.3171  138.0705  154.0530 H   0  0  0  0  0  0  0  0  0  0  0  0
  149.3349  139.1071  153.0753 H   0  0  0  0  0  0  0  0  0  0  0  0
  149.7706  138.3778  156.0132 H   0  0  0  0  0  0  0  0  0  0  0  0
  150.7116  137.8065  154.6603 H   0  0  0  0  0  0  0  0  0  0  0  0
  151.8651  139.6932  155.8544 H   0  0  0  0  0  0  0  0  0  0  0  0
  151.5427  140.0603  154.1799 H   0  0  0  0  0  0  0  0  0  0  0  0
  150.9351  142.0001  155.4197 H   0  0  0  0  0  0  0  0  0  0  0  0
  149.1597  140.3302  157.2551 H   0  0  0  0  0  0  0  0  0  0  0  0
  149.3729  142.0752  157.3048 H   0  0  0  0  0  0  0  0  0  0  0  0
  150.7249  141.0163  157.6778 H   0  0  0  0  0  0  0  0  0  0  0  0
  149.4179  141.5967  153.6050 H   0  0  0  0  0  0  0  0  0  0  0  0
  148.4846  142.2129  154.9492 H   0  0  0  0  0  0  0  0  0  0  0  0
  144.9488  136.8010  154.3568 H   0  0  0  0  0  0  0  0  0  0  0  0
  143.8643  135.5213  154.9311 H   0  0  0  0  0  0  0  0  0  0  0  0
  143.2044  136.9058  154.0353 H   0  0  0  0  0  0  0  0  0  0  0  0
  147.9546  139.9553  155.5082 H   0  0  0  0  0  0  0  0  0  0  0  0
  1  2  1  0  0  0  0
  1 22  1  0  0  0  0
  1 23  1  0  0  0  0
  1 24  1  0  0  0  0
  2 21  2  0  0  0  0
  2  3  1  0  0  0  0
  3  4  2  0  0  0  0
  3 25  1  0  0  0  0
  4  5  1  0  0  0  0
  4 19  1  0  0  0  0
  5  6  1  0  0  0  0
  5 26  1  0  0  0  0
  6  7  2  0  0  0  0
  6  8  1  0  0  0  0
  8  9  1  0  0  0  0
  8 27  1  0  0  0  0
  9 10  1  0  0  0  0
  9 28  1  0  0  0  0
  9 29  1  0  0  0  0
 10 11  1  0  0  0  0
 10 12  1  0  0  0  0
 10 30  1  0  0  0  0
 11 31  1  0  0  0  0
 11 32  1  0  0  0  0
 11 33  1  0  0  0  0
 12 18  1  0  0  0  0
 12 13  1  0  0  0  0
 12 49  1  0  0  0  0
 13 14  1  0  0  0  0
 13 34  1  0  0  0  0
 13 35  1  0  0  0  0
 14 15  1  0  0  0  0
 14 36  1  0  0  0  0
 14 37  1  0  0  0  0
 15 16  1  0  0  0  0
 15 38  1  0  0  0  0
 15 39  1  0  0  0  0
 16 17  1  0  0  0  0
 16 18  1  0  0  0  0
 16 40  1  0  0  0  0
 17 41  1  0  0  0  0
 17 42  1  0  0  0  0
 17 43  1  0  0  0  0
 18 44  1  0  0  0  0
 18 45  1  0  0  0  0
 19 20  1  0  0  0  0
 19 21  1  0  0  0  0
 20 46  1  0  0  0  0
 20 47  1  0  0  0  0
 20 48  1  0  0  0  0
M  CHG  1  12   1
M  END
> <s_m_source_file>
AV-unprocessed.smi

> <i_m_source_file_index>
1205

> <i_lp_mmshare_version>
43012

> <i_f3d_flags>
0

> <s_epik_input>
W0NIM11jMVtjSF1jKG4objEpW0NIM10pW05IXUMoPU8pW05IXVtDSDJdW0NASF0oW0NIM10pTjJbQ0gyXVtDSDJdW0NIMl1bQ0BASF0oW0NIM10pW0NIMl0y

> <s_epik_cmdline>
J2VwaWtfcHl0aG9uJywgJy1waCcsICc3LjAnLCAnLXRuJywgJzgnLCAnLW1hJywgJzIwMCcsICctbWV0YWxfYmluZGluZycsICctaW1hZScsICc8aW5maWxlLm1hZT4nLCAnLW9tYWUnLCAnPG91dGZpbGUubWFlPic=

> <r_lp_tautomer_probability>
1

> <r_epik_Ionization_Penalty>
0.0020309

> <r_epik_Ionization_Penalty_Charging>
0.00195276

> <r_epik_Ionization_Penalty_Neutral>
7.81448e-05

> <r_epik_State_Penalty>
0.00133177

> <r_epik_Charging_Adjusted_Penalty>
0.00328452

> <i_epik_Tot_Q>
1

> <i_epik_Tot_abs_Q>
1

> <r_epik_Metal_State_Penalty>
-0

> <b_epik_Metal_Only>
0

> <s_lp_Force_Field>
OPLS_2005

> <r_lp_Energy>
25.0457

> <b_lp_Chiralities_Consistent>
1

> <s_lp_Variant>
AV-unprocessed.smi:1205-5

> <Gold.Version>
5.8.1

> <Gold.Id.Protein>
6NUR|6NUR_protein|mol2

> <Gold.PLP.Fitness>
37.5323

> <Gold.PLP.PLP>
-36.5533

> <Gold.PLP.part.hbond>
-2.7717

> <Gold.PLP.part.metal>
0.0000

> <Gold.PLP.part.buried>
-2.9106

> <Gold.PLP.part.nonpolar>
-33.1712

> <Gold.PLP.part.repulsive>
1.1926

> <Gold.PLP.ligand.clash>
0.0000

> <Gold.PLP.ligand.torsion>
1.5182

> <Gold.PLP.Chemscore.Hbond>
1.2903

> <Gold.PLP.Chemscore.CHOScore>
0.0000

> <Gold.PLP.Chemscore.Metal>
0.0000

> <Gold.Chemscore.Hbonds>
donor molecule, donor type, donor heavy atom, donor atom, acceptor molecule, acceptor atom, score
      L1  H     5    26       P1 10171  0.94
      L1  H     8    27       P1 10171  0.31

> <Gold.PLP.Chemscore.Internal.Correction>
0.1446

> <Gold.Rescore>
     Score         DG    S(hbond)    S(metal)    S(lipo)     H(rot)  DE(clash)    DE(int)     intcor
     10.37     -16.43       1.73        0.00      76.16       1.47       1.25       4.81       ----

> <Gold.Chemscore.Fitness>
10.3700

> <Gold.Chemscore.DG>
-16.4299

> <Gold.Chemscore.ZeroCoef>
-5.4800

> <Gold.Chemscore.Hbond>
1.7339

> <Gold.Chemscore.Metal>
0.0000

> <Gold.Chemscore.Lipo>
76.1648

> <Gold.Chemscore.Internal_Hbond>
0.0000

> <Gold.Chemscore.DEClash>
1.2490

> <Gold.Chemscore.DEInternal>
4.8109

> <Gold.Chemscore.Rot>
1.4658

> <Gold.Chemscore.Internal.Correction>
   9.000000E+99

> <Gold.Chemscore.Hbonds>
donor molecule, donor type, donor heavy atom, donor atom, acceptor molecule, acceptor atom, score
      L1  H     5    26       P1 10171  0.90
      L1  H     8    27       P1 10171  0.32

> <Gold.Chemscore.Hbond.Weighted>
-5.7912

> <Gold.Chemscore.Metal.Weighted>
-0.0000

> <Gold.Chemscore.Lipo.Weighted>
-8.9113

> <Gold.Chemscore.Internal_Hbond.Weighted>
0.0000

> <Gold.Chemscore.DEClash.Weighted>
1.2490

> <Gold.Chemscore.DEInternal.Weighted>
4.8109

> <Gold.Chemscore.Rot.Weighted>
3.7526

> <Gold.Chemscore.Internal.Correction.Weighted>
   9.000000E+99

> <Gold.Protein.RotatedTorsions>
[ 6907 6896 6895 6894 ] final -160.14 input  -60.11 | X-H torsion
[ 7974 7965 7964 7962 ] final   18.45 input  175.53 | X-H torsion
[ 8008 7997 7996 7995 ] final   91.91 input   59.86 | X-H torsion
[ 10167 10162 10161 10158 ] final -158.20 input  -65.29 | X-H torsion
[ 10718 10713 10712 10709 ] final  -54.42 input   66.30 | X-H torsion
[ 10763 10752 10751 10750 ] final   48.31 input  -60.55 | X-H torsion
[ 11005 11000 10999 10996 ] final  109.65 input  -57.11 | X-H torsion

> <Gold.Protein.ActiveResidues>
 VAL166  LYS551  ARG553  GLY616  TRP617  ASP618  TYR619  PRO620  LYS621  CYS622 
 ASP623  PHE694  ASN695  SER759  ASP760  ASP761  ALA762  ILE779  LEU786  VAL792 
 PHE793  MET794  SER795  GLU796  ALA797  LYS798  CYS799  TRP800  GLU811  SER814 

> <Gold.Protein.RotatedAtoms>
  151.3445  133.3949  159.2674 H   0  0  0  0  0  0  0  0  0  0  0  0  # atno 6907 bound_to 6896
  150.9851  134.9199  159.7877 H   0  0  0  0  0  0  0  0  0  0  0  0  # atno 6908 bound_to 6896
  152.5229  134.3409  159.9269 H   0  0  0  0  0  0  0  0  0  0  0  0  # atno 6909 bound_to 6896
  146.2184  139.8456  142.8632 H   0  0  0  0  0  0  0  0  0  0  0  0  # atno 7974 bound_to 7965
  156.0293  140.3332  155.7122 H   0  0  0  0  0  0  0  0  0  0  0  0  # atno 8008 bound_to 7997
  155.5909  140.0646  157.2776 H   0  0  0  0  0  0  0  0  0  0  0  0  # atno 8009 bound_to 7997
  154.4346  140.1827  156.1061 H   0  0  0  0  0  0  0  0  0  0  0  0  # atno 8010 bound_to 7997
  139.6710  143.9744  152.2284 H   0  0  0  0  0  0  0  0  0  0  0  0  # atno 10167 bound_to 10162
  156.1452  130.4153  150.0035 H   0  0  0  0  0  0  0  0  0  0  0  0  # atno 10718 bound_to 10713
  152.9793  135.5948  154.3905 H   0  0  0  0  0  0  0  0  0  0  0  0  # atno 10763 bound_to 10752
  154.3561  135.2767  155.2347 H   0  0  0  0  0  0  0  0  0  0  0  0  # atno 10764 bound_to 10752
  154.4365  135.6023  153.6157 H   0  0  0  0  0  0  0  0  0  0  0  0  # atno 10765 bound_to 10752
  139.8866  134.9464  156.6159 H   0  0  0  0  0  0  0  0  0  0  0  0  # atno 11005 bound_to 11000
  145.2854  141.0151  143.3693 LP  0  0  0  0  0  0  0  0  0  0  0  0  # atno 17320 bound_to 7965
  144.9118  139.4520  143.6583 LP  0  0  0  0  0  0  0  0  0  0  0  0  # atno 17321 bound_to 7965
  139.9509  144.6621  150.8173 LP  0  0  0  0  0  0  0  0  0  0  0  0  # atno 17342 bound_to 10162
  140.7618  143.3183  151.2681 LP  0  0  0  0  0  0  0  0  0  0  0  0  # atno 17343 bound_to 10162
  156.7909  130.9256  151.3646 LP  0  0  0  0  0  0  0  0  0  0  0  0  # atno 17370 bound_to 10713
  157.6611  130.8966  149.9831 LP  0  0  0  0  0  0  0  0  0  0  0  0  # atno 17371 bound_to 10713
  140.7776  133.8686  155.8542 LP  0  0  0  0  0  0  0  0  0  0  0  0  # atno 17394 bound_to 11000
  140.9788  134.1433  157.4513 LP  0  0  0  0  0  0  0  0  0  0  0  0  # atno 17395 bound_to 11000

$$$$
