AV-unprocessed.smi:2670|AV-procd|sdf|10345|dock3
  -GOLD-   2272014373D 1   1.00000     0.00000
 Structure written by MMmdl.
 40 41  0  0  0  0  0  0  0  0  2 V2000
  151.0556  145.2304  159.1823 C   0  0  0  0  0  0  0  0  0  0  0  0
  151.8243  144.1186  159.8330 C   0  0  0  0  0  0  0  0  0  0  0  0
  152.2130  143.9957  161.1960 C   0  0  0  0  0  0  0  0  0  0  0  0
  152.8863  142.8079  161.2501 C   0  0  0  0  0  0  0  0  0  0  0  0
  153.5361  142.1283  162.4118 C   0  0  0  0  0  0  0  0  0  0  0  0
  152.8730  142.2800  159.9691 N   0  0  0  0  0  0  0  0  0  0  0  0
  153.4562  141.0413  159.4735 C   0  0  0  0  0  0  0  0  0  0  0  0
  152.3872  140.0977  158.9180 C   0  0  0  0  0  0  0  0  0  0  0  0
  151.5944  139.5623  159.6906 O   0  0  0  0  0  0  0  0  0  0  0  0
  152.4237  139.9096  157.5858 N   0  0  0  0  0  0  0  0  0  0  0  0
  151.6058  139.0960  156.6702 C   0  0  0  0  0  0  0  0  0  0  0  0
  152.5822  138.0370  156.0993 C   0  0  0  0  0  0  0  0  0  0  0  0
  152.2506  136.8322  156.1678 O   0  0  0  0  0  0  0  0  0  0  0  0
  153.6769  138.4386  155.6433 O   0  5  0  0  0  0  0  0  0  0  0  0
  150.3576  138.3892  157.2953 C   0  0  0  0  0  0  0  0  0  0  0  0
  149.1990  139.3448  157.6457 C   0  0  0  0  0  0  0  0  0  0  0  0
  148.7930  140.2027  156.4431 C   0  0  0  0  0  0  0  0  0  0  0  0
  150.0017  140.9737  155.9026 C   0  0  0  0  0  0  0  0  0  0  0  0
  151.1377  140.0163  155.5053 C   0  0  0  0  0  0  0  0  0  0  0  0
  152.2266  143.0916  159.1034 N   0  0  0  0  0  0  0  0  0  0  0  0
  150.7154  145.9582  159.9191 H   0  0  0  0  0  0  0  0  0  0  0  0
  150.1761  144.8493  158.6627 H   0  0  0  0  0  0  0  0  0  0  0  0
  151.6717  145.7589  158.4546 H   0  0  0  0  0  0  0  0  0  0  0  0
  152.0259  144.6777  162.0122 H   0  0  0  0  0  0  0  0  0  0  0  0
  153.6744  142.8225  163.2409 H   0  0  0  0  0  0  0  0  0  0  0  0
  154.5150  141.7316  162.1425 H   0  0  0  0  0  0  0  0  0  0  0  0
  152.9210  141.3020  162.7684 H   0  0  0  0  0  0  0  0  0  0  0  0
  154.1774  141.2645  158.6856 H   0  0  0  0  0  0  0  0  0  0  0  0
  154.0121  140.5690  160.2847 H   0  0  0  0  0  0  0  0  0  0  0  0
  153.1618  140.4103  157.1131 H   0  0  0  0  0  0  0  0  0  0  0  0
  149.9688  137.6668  156.5755 H   0  0  0  0  0  0  0  0  0  0  0  0
  150.6269  137.7937  158.1677 H   0  0  0  0  0  0  0  0  0  0  0  0
  148.3416  138.7682  157.9932 H   0  0  0  0  0  0  0  0  0  0  0  0
  149.4769  139.9983  158.4712 H   0  0  0  0  0  0  0  0  0  0  0  0
  148.3789  139.5676  155.6590 H   0  0  0  0  0  0  0  0  0  0  0  0
  148.0039  140.8980  156.7307 H   0  0  0  0  0  0  0  0  0  0  0  0
  149.7033  141.5697  155.0397 H   0  0  0  0  0  0  0  0  0  0  0  0
  150.3568  141.6781  156.6558 H   0  0  0  0  0  0  0  0  0  0  0  0
  151.9716  140.6050  155.1187 H   0  0  0  0  0  0  0  0  0  0  0  0
  150.7914  139.4049  154.6697 H   0  0  0  0  0  0  0  0  0  0  0  0
  1  2  1  0  0  0  0
  1 21  1  0  0  0  0
  1 22  1  0  0  0  0
  1 23  1  0  0  0  0
  2 20  2  0  0  0  0
  2  3  1  0  0  0  0
  3  4  2  0  0  0  0
  3 24  1  0  0  0  0
  4  5  1  0  0  0  0
  4  6  1  0  0  0  0
  5 25  1  0  0  0  0
  5 26  1  0  0  0  0
  5 27  1  0  0  0  0
  6  7  1  0  0  0  0
  6 20  1  0  0  0  0
  7  8  1  0  0  0  0
  7 28  1  0  0  0  0
  7 29  1  0  0  0  0
  8  9  2  0  0  0  0
  8 10  1  0  0  0  0
 10 11  1  0  0  0  0
 10 30  1  0  0  0  0
 11 19  1  0  0  0  0
 11 12  1  0  0  0  0
 11 15  1  0  0  0  0
 12 13  2  0  0  0  0
 12 14  1  0  0  0  0
 15 16  1  0  0  0  0
 15 31  1  0  0  0  0
 15 32  1  0  0  0  0
 16 17  1  0  0  0  0
 16 33  1  0  0  0  0
 16 34  1  0  0  0  0
 17 18  1  0  0  0  0
 17 35  1  0  0  0  0
 17 36  1  0  0  0  0
 18 19  1  0  0  0  0
 18 37  1  0  0  0  0
 18 38  1  0  0  0  0
 19 39  1  0  0  0  0
 19 40  1  0  0  0  0
M  CHG  1  14  -1
M  END
> <s_m_source_file>
AV-unprocessed.smi

> <i_m_source_file_index>
2670

> <i_lp_mmshare_version>
43012

> <i_f3d_flags>
0

> <s_epik_input>
W0NIM11jMVtjSF1jKFtDSDNdKW4objEpW0NIMl1DKD1PKVtOSF1DMihDKD1PKVtPSF0pW0NIMl1bQ0gyXVtDSDJdW0NIMl1bQ0gyXTI=

> <s_epik_cmdline>
J2VwaWtfcHl0aG9uJywgJy1waCcsICc3LjAnLCAnLXRuJywgJzgnLCAnLW1hJywgJzIwMCcsICctbWV0YWxfYmluZGluZycsICctaW1hZScsICc8aW5maWxlLm1hZT4nLCAnLW9tYWUnLCAnPG91dGZpbGUubWFlPic=

> <r_lp_tautomer_probability>
1

> <r_epik_Ionization_Penalty>
0.000789686

> <r_epik_Ionization_Penalty_Charging>
0.000323848

> <r_epik_Ionization_Penalty_Neutral>
0.000465838

> <r_epik_State_Penalty>
-0

> <r_epik_Charging_Adjusted_Penalty>
0.000323848

> <i_epik_Tot_Q>
-1

> <i_epik_Tot_abs_Q>
1

> <r_epik_Metal_State_Penalty>
-0

> <b_epik_Metal_Only>
0

> <s_lp_Force_Field>
OPLS_2005

> <r_lp_Energy>
8.13654

> <b_lp_Chiralities_Consistent>
1

> <s_lp_Variant>
AV-unprocessed.smi:2670-1

> <Gold.Version>
5.8.1

> <Gold.Id.Protein>
6NUR|6NUR_protein|mol2

> <Gold.PLP.Fitness>
47.9276

> <Gold.PLP.PLP>
-39.4169

> <Gold.PLP.part.hbond>
-2.4878

> <Gold.PLP.part.metal>
0.0000

> <Gold.PLP.part.buried>
-3.2203

> <Gold.PLP.part.nonpolar>
-33.8271

> <Gold.PLP.part.repulsive>
0.7265

> <Gold.PLP.ligand.clash>
0.0000

> <Gold.PLP.ligand.torsion>
0.2651

> <Gold.PLP.Chemscore.Hbond>
2.9920

> <Gold.PLP.Chemscore.CHOScore>
0.0000

> <Gold.PLP.Chemscore.Metal>
0.0000

> <Gold.Chemscore.Hbonds>
donor molecule, donor type, donor heavy atom, donor atom, acceptor molecule, acceptor atom, score
      P1  H  7997  8008       L1    14  1.12
      P1  H 10752 10765       L1    13  2.00

> <Gold.PLP.Chemscore.Internal.Correction>
0.0649

> <Gold.Rescore>
     Score         DG    S(hbond)    S(metal)    S(lipo)     H(rot)  DE(clash)    DE(int)     intcor
     14.24     -16.61       1.49        0.00      94.43       1.91       0.53       1.84       ----

> <Gold.Chemscore.Fitness>
14.2406

> <Gold.Chemscore.DG>
-16.6091

> <Gold.Chemscore.ZeroCoef>
-5.4800

> <Gold.Chemscore.Hbond>
1.4918

> <Gold.Chemscore.Metal>
0.0000

> <Gold.Chemscore.Lipo>
94.4339

> <Gold.Chemscore.Internal_Hbond>
0.0000

> <Gold.Chemscore.DEClash>
0.5263

> <Gold.Chemscore.DEInternal>
1.8422

> <Gold.Chemscore.Rot>
1.9149

> <Gold.Chemscore.Internal.Correction>
   9.000000E+99

> <Gold.Chemscore.Hbonds>
donor molecule, donor type, donor heavy atom, donor atom, acceptor molecule, acceptor atom, score
      P1  H  7997  8008       L1    14  0.50
      P1  H 10752 10765       L1    13  0.93

> <Gold.Chemscore.Hbond.Weighted>
-4.9826

> <Gold.Chemscore.Metal.Weighted>
-0.0000

> <Gold.Chemscore.Lipo.Weighted>
-11.0488

> <Gold.Chemscore.Internal_Hbond.Weighted>
0.0000

> <Gold.Chemscore.DEClash.Weighted>
0.5263

> <Gold.Chemscore.DEInternal.Weighted>
1.8422

> <Gold.Chemscore.Rot.Weighted>
4.9023

> <Gold.Chemscore.Internal.Correction.Weighted>
   9.000000E+99

> <Gold.Protein.RotatedTorsions>
[ 6907 6896 6895 6894 ] final  -39.82 input  -60.11 | X-H torsion
[ 7974 7965 7964 7962 ] final  -88.67 input  175.53 | X-H torsion
[ 8008 7997 7996 7995 ] final  -54.54 input   59.86 | X-H torsion
[ 10167 10162 10161 10158 ] final   76.24 input  -65.29 | X-H torsion
[ 10718 10713 10712 10709 ] final -130.04 input   66.30 | X-H torsion
[ 10763 10752 10751 10750 ] final -155.08 input  -60.55 | X-H torsion
[ 11005 11000 10999 10996 ] final  -73.30 input  -57.11 | X-H torsion

> <Gold.Protein.ActiveResidues>
 VAL166  LYS551  ARG553  GLY616  TRP617  ASP618  TYR619  PRO620  LYS621  CYS622 
 ASP623  PHE694  ASN695  SER759  ASP760  ASP761  ALA762  ILE779  LEU786  VAL792 
 PHE793  MET794  SER795  GLU796  ALA797  LYS798  CYS799  TRP800  GLU811  SER814 

> <Gold.Protein.RotatedAtoms>
  150.9857  134.9203  159.7870 H   0  0  0  0  0  0  0  0  0  0  0  0  # atno 6907 bound_to 6896
  152.5236  134.3349  159.9206 H   0  0  0  0  0  0  0  0  0  0  0  0  # atno 6908 bound_to 6896
  151.3356  133.3942  159.2701 H   0  0  0  0  0  0  0  0  0  0  0  0  # atno 6909 bound_to 6896
  145.4500  140.9560  143.2027 H   0  0  0  0  0  0  0  0  0  0  0  0  # atno 7974 bound_to 7965
  154.4166  140.1174  156.5332 H   0  0  0  0  0  0  0  0  0  0  0  0  # atno 8008 bound_to 7997
  155.6584  140.3496  155.4754 H   0  0  0  0  0  0  0  0  0  0  0  0  # atno 8009 bound_to 7997
  155.9734  140.1146  157.0782 H   0  0  0  0  0  0  0  0  0  0  0  0  # atno 8010 bound_to 7997
  139.9944  144.5733  150.7791 H   0  0  0  0  0  0  0  0  0  0  0  0  # atno 10167 bound_to 10162
  156.2105  130.6915  151.0644 H   0  0  0  0  0  0  0  0  0  0  0  0  # atno 10718 bound_to 10713
  154.7813  135.3176  154.7983 H   0  0  0  0  0  0  0  0  0  0  0  0  # atno 10763 bound_to 10752
  153.8694  135.6846  153.4780 H   0  0  0  0  0  0  0  0  0  0  0  0  # atno 10764 bound_to 10752
  153.1450  135.4723  154.9491 H   0  0  0  0  0  0  0  0  0  0  0  0  # atno 10765 bound_to 10752
  141.1621  133.6874  156.7191 H   0  0  0  0  0  0  0  0  0  0  0  0  # atno 11005 bound_to 11000
  144.8067  139.6037  143.7047 LP  0  0  0  0  0  0  0  0  0  0  0  0  # atno 17320 bound_to 7965
  146.2509  139.6198  142.9427 LP  0  0  0  0  0  0  0  0  0  0  0  0  # atno 17321 bound_to 7965
  140.7443  143.2858  151.3467 LP  0  0  0  0  0  0  0  0  0  0  0  0  # atno 17342 bound_to 10162
  139.6317  144.0708  152.2482 LP  0  0  0  0  0  0  0  0  0  0  0  0  # atno 17343 bound_to 10162
  157.7036  131.0766  150.6741 LP  0  0  0  0  0  0  0  0  0  0  0  0  # atno 17370 bound_to 10713
  156.6801  130.4564  149.5630 LP  0  0  0  0  0  0  0  0  0  0  0  0  # atno 17371 bound_to 10713
  140.2830  134.8302  157.3950 LP  0  0  0  0  0  0  0  0  0  0  0  0  # atno 17394 bound_to 11000
  140.1416  134.4964  155.8027 LP  0  0  0  0  0  0  0  0  0  0  0  0  # atno 17395 bound_to 11000

$$$$
