AV-unprocessed.smi:743|AV-procd|sdf|3563|dock2
  -GOLD-   22720 0563D 1   1.00000     0.00000
 Structure written by MMmdl.
 29 30  0  0  0  0  0  0  0  0  2 V2000
  145.9463  137.7826  151.6941 C   0  0  0  0  0  0  0  0  0  0  0  0
  145.0810  136.6380  151.8830 N   0  0  0  0  0  0  0  0  0  0  0  0
  145.0883  135.4338  151.2138 C   0  0  0  0  0  0  0  0  0  0  0  0
  144.0912  134.6587  151.7424 C   0  0  0  0  0  0  0  0  0  0  0  0
  143.6702  133.2473  151.3847 C   0  0  1  0  0  0  0  0  0  0  0  0
  143.3357  133.1488  149.9613 N   0  0  0  0  0  0  0  0  0  0  0  0
  144.1381  132.7004  148.9775 C   0  0  0  0  0  0  0  0  0  0  0  0
  143.8027  132.7689  147.7980 O   0  0  0  0  0  0  0  0  0  0  0  0
  145.4796  132.0421  149.3421 C   0  0  0  0  0  0  0  0  0  0  0  0
  145.9281  132.2736  150.7966 C   0  0  0  0  0  0  0  0  0  0  0  0
  144.7384  132.1923  151.7626 C   0  0  1  0  0  0  0  0  0  0  0  0
  145.1674  132.2984  153.1697 N   0  3  0  0  0  0  0  0  0  0  0  0
  143.5175  135.5063  152.7346 C   0  0  0  0  0  0  0  0  0  0  0  0
  144.1146  136.6825  152.8214 N   0  0  0  0  0  0  0  0  0  0  0  0
  144.2921  131.2022  151.6568 H   0  0  0  0  0  0  0  0  0  0  0  0
  146.6823  137.5714  150.9180 H   0  0  0  0  0  0  0  0  0  0  0  0
  146.4681  138.0093  152.6244 H   0  0  0  0  0  0  0  0  0  0  0  0
  145.3540  138.6478  151.3945 H   0  0  0  0  0  0  0  0  0  0  0  0
  145.8002  135.2267  150.4279 H   0  0  0  0  0  0  0  0  0  0  0  0
  142.7557  133.0010  151.9256 H   0  0  0  0  0  0  0  0  0  0  0  0
  142.4425  133.5314  149.6852 H   0  0  0  0  0  0  0  0  0  0  0  0
  145.3660  130.9714  149.1698 H   0  0  0  0  0  0  0  0  0  0  0  0
  146.2531  132.3840  148.6538 H   0  0  0  0  0  0  0  0  0  0  0  0
  146.6790  131.5294  151.0639 H   0  0  0  0  0  0  0  0  0  0  0  0
  146.4196  133.2439  150.8806 H   0  0  0  0  0  0  0  0  0  0  0  0
  145.7406  131.5009  153.4061 H   0  0  0  0  0  0  0  0  0  0  0  0
  144.3551  132.3185  153.7699 H   0  0  0  0  0  0  0  0  0  0  0  0
  142.6905  135.2975  153.3972 H   0  0  0  0  0  0  0  0  0  0  0  0
  145.7013  133.1461  153.2979 H   0  0  0  0  0  0  0  0  0  0  0  0
  1  2  1  0  0  0  0
  1 16  1  0  0  0  0
  1 17  1  0  0  0  0
  1 18  1  0  0  0  0
  2 14  1  0  0  0  0
  2  3  1  0  0  0  0
  3  4  2  0  0  0  0
  3 19  1  0  0  0  0
  4  5  1  0  0  0  0
  4 13  1  0  0  0  0
  5 11  1  0  0  0  0
  5  6  1  0  0  0  0
  5 20  1  0  0  0  0
  6  7  1  0  0  0  0
  6 21  1  0  0  0  0
  7  8  2  0  0  0  0
  7  9  1  0  0  0  0
  9 10  1  0  0  0  0
  9 22  1  0  0  0  0
  9 23  1  0  0  0  0
 10 11  1  0  0  0  0
 10 24  1  0  0  0  0
 10 25  1  0  0  0  0
 11 15  1  0  0  0  0
 11 12  1  0  0  0  0
 12 26  1  0  0  0  0
 12 27  1  0  0  0  0
 12 29  1  0  0  0  0
 13 14  2  0  0  0  0
 13 28  1  0  0  0  0
M  CHG  1  12   1
M  END
> <s_m_source_file>
AV-unprocessed.smi

> <i_m_source_file_index>
743

> <i_lp_mmshare_version>
43012

> <i_f3d_flags>
0

> <s_epik_input>
W0NIM11uMVtjSF1jKFtjSF1uMSlbQ0BASF0yW05IXUMoPU8pW0NIMl1bQ0gyXVtDQEBIXTJbTkgyXQ==

> <s_epik_cmdline>
J2VwaWtfcHl0aG9uJywgJy1waCcsICc3LjAnLCAnLXRuJywgJzgnLCAnLW1hJywgJzIwMCcsICctbWV0YWxfYmluZGluZycsICctaW1hZScsICc8aW5maWxlLm1hZT4nLCAnLW9tYWUnLCAnPG91dGZpbGUubWFlPic=

> <r_lp_tautomer_probability>
1

> <r_epik_Ionization_Penalty>
0.00878543

> <r_epik_Ionization_Penalty_Charging>
0.00874185

> <r_epik_Ionization_Penalty_Neutral>
4.35793e-05

> <r_epik_State_Penalty>
0.00660351

> <r_epik_Charging_Adjusted_Penalty>
0.0153454

> <i_epik_Tot_Q>
1

> <i_epik_Tot_abs_Q>
1

> <r_epik_Metal_State_Penalty>
0.00660727

> <b_epik_Metal_Only>
0

> <s_lp_Force_Field>
OPLS_2005

> <r_lp_Energy>
11.1602

> <b_lp_Chiralities_Consistent>
1

> <s_lp_Variant>
AV-unprocessed.smi:743-4

> <Gold.Version>
5.8.1

> <Gold.Id.Protein>
6NUR|6NUR_protein|mol2

> <Gold.PLP.Fitness>
37.7056

> <Gold.PLP.PLP>
-27.3934

> <Gold.PLP.part.hbond>
-3.0000

> <Gold.PLP.part.metal>
0.0000

> <Gold.PLP.part.buried>
-1.4413

> <Gold.PLP.part.nonpolar>
-24.4123

> <Gold.PLP.part.repulsive>
1.3530

> <Gold.PLP.ligand.clash>
0.0000

> <Gold.PLP.ligand.torsion>
0.0705

> <Gold.PLP.Chemscore.Hbond>
3.2082

> <Gold.PLP.Chemscore.CHOScore>
0.2700

> <Gold.PLP.Chemscore.Metal>
0.0000

> <Gold.Chemscore.Hbonds>
donor molecule, donor type, donor heavy atom, donor atom, acceptor molecule, acceptor atom, score
      L1  H     6    21       P1 10186  1.00
      L1  H    12    27       P1 10957  1.90
      P1  H  7918  7932       L1     8  0.23
      L1  C     3    19       P1  7921  0.24

> <Gold.PLP.Chemscore.Internal.Correction>
0.0187

> <Gold.Rescore>
     Score         DG    S(hbond)    S(metal)    S(lipo)     H(rot)  DE(clash)    DE(int)     intcor
     14.70     -14.80       1.72        0.00      52.32       1.00       0.08       0.01       ----

> <Gold.Chemscore.Fitness>
14.7035

> <Gold.Chemscore.DG>
-14.7956

> <Gold.Chemscore.ZeroCoef>
-5.4800

> <Gold.Chemscore.Hbond>
1.7227

> <Gold.Chemscore.Metal>
0.0000

> <Gold.Chemscore.Lipo>
52.3245

> <Gold.Chemscore.Internal_Hbond>
0.0000

> <Gold.Chemscore.DEClash>
0.0825

> <Gold.Chemscore.DEInternal>
0.0097

> <Gold.Chemscore.Rot>
1.0000

> <Gold.Chemscore.Internal.Correction>
   9.000000E+99

> <Gold.Chemscore.Hbonds>
donor molecule, donor type, donor heavy atom, donor atom, acceptor molecule, acceptor atom, score
      L1  H     6    21       P1 10186  1.00
      L1  H    12    27       P1 10957  0.20
      P1  H  7918  7932       L1     8  0.22

> <Gold.Chemscore.Hbond.Weighted>
-5.7537

> <Gold.Chemscore.Metal.Weighted>
-0.0000

> <Gold.Chemscore.Lipo.Weighted>
-6.1220

> <Gold.Chemscore.Internal_Hbond.Weighted>
0.0000

> <Gold.Chemscore.DEClash.Weighted>
0.0825

> <Gold.Chemscore.DEInternal.Weighted>
0.0097

> <Gold.Chemscore.Rot.Weighted>
2.5600

> <Gold.Chemscore.Internal.Correction.Weighted>
   9.000000E+99

> <Gold.Protein.RotatedTorsions>
[ 6907 6896 6895 6894 ] final  -49.42 input  -60.11 | X-H torsion
[ 7974 7965 7964 7962 ] final    4.81 input  175.53 | X-H torsion
[ 8008 7997 7996 7995 ] final  169.99 input   59.86 | X-H torsion
[ 10167 10162 10161 10158 ] final  101.98 input  -65.29 | X-H torsion
[ 10718 10713 10712 10709 ] final   60.12 input   66.30 | X-H torsion
[ 10763 10752 10751 10750 ] final  -71.98 input  -60.55 | X-H torsion
[ 11005 11000 10999 10996 ] final  176.57 input  -57.11 | X-H torsion

> <Gold.Protein.ActiveResidues>
 VAL166  LYS551  ARG553  GLY616  TRP617  ASP618  TYR619  PRO620  LYS621  CYS622 
 ASP623  PHE694  ASN695  SER759  ASP760  ASP761  ALA762  ILE779  LEU786  VAL792 
 PHE793  MET794  SER795  GLU796  ALA797  LYS798  CYS799  TRP800  GLU811  SER814 

> <Gold.Protein.RotatedAtoms>
  150.8807  134.8197  159.7222 H   0  0  0  0  0  0  0  0  0  0  0  0  # atno 6907 bound_to 6896
  152.4776  134.4801  159.9673 H   0  0  0  0  0  0  0  0  0  0  0  0  # atno 6908 bound_to 6896
  151.4876  133.3493  159.2883 H   0  0  0  0  0  0  0  0  0  0  0  0  # atno 6909 bound_to 6896
  146.2443  140.0479  142.8377 H   0  0  0  0  0  0  0  0  0  0  0  0  # atno 7974 bound_to 7965
  156.1407  140.1550  156.8925 H   0  0  0  0  0  0  0  0  0  0  0  0  # atno 8008 bound_to 7997
  154.4985  140.0831  156.7786 H   0  0  0  0  0  0  0  0  0  0  0  0  # atno 8009 bound_to 7997
  155.4084  140.3417  155.4264 H   0  0  0  0  0  0  0  0  0  0  0  0  # atno 8010 bound_to 7997
  139.7390  144.7016  151.0604 H   0  0  0  0  0  0  0  0  0  0  0  0  # atno 10167 bound_to 10162
  157.5728  130.8921  149.9296 H   0  0  0  0  0  0  0  0  0  0  0  0  # atno 10718 bound_to 10713
  154.4394  135.5944  153.6119 H   0  0  0  0  0  0  0  0  0  0  0  0  # atno 10763 bound_to 10752
  152.9804  135.5994  154.3741 H   0  0  0  0  0  0  0  0  0  0  0  0  # atno 10764 bound_to 10752
  154.3589  135.2841  155.2309 H   0  0  0  0  0  0  0  0  0  0  0  0  # atno 10765 bound_to 10752
  140.3746  134.7000  157.4413 H   0  0  0  0  0  0  0  0  0  0  0  0  # atno 11005 bound_to 11000
  145.1010  140.9346  143.4712 LP  0  0  0  0  0  0  0  0  0  0  0  0  # atno 17320 bound_to 7965
  145.0672  139.3059  143.5850 LP  0  0  0  0  0  0  0  0  0  0  0  0  # atno 17321 bound_to 7965
  140.7783  143.4948  150.9847 LP  0  0  0  0  0  0  0  0  0  0  0  0  # atno 17342 bound_to 10162
  139.8636  143.7283  152.3171 LP  0  0  0  0  0  0  0  0  0  0  0  0  # atno 17343 bound_to 10162
  156.0773  130.3677  150.0651 LP  0  0  0  0  0  0  0  0  0  0  0  0  # atno 17370 bound_to 10713
  156.8801  130.9553  151.3600 LP  0  0  0  0  0  0  0  0  0  0  0  0  # atno 17371 bound_to 10713
  140.0525  134.6110  155.8844 LP  0  0  0  0  0  0  0  0  0  0  0  0  # atno 17394 bound_to 11000
  141.1943  133.6582  156.5590 LP  0  0  0  0  0  0  0  0  0  0  0  0  # atno 17395 bound_to 11000

$$$$
