#       Name:                AV-unprocessed.smi:804
#       Creating user name   scv26
#       Creation time:       Fri Mar 27 01:23:10 2020


#       File generated by GOLD software.
#

@<TRIPOS>MOLECULE
AV-unprocessed.smi:804
    45    46     1
SMALL
NO_CHARGES


@<TRIPOS>ATOM
      1 ****        -3.9497  -1.9869  -2.1147 C.3            1 S1                 0.0000
      2 ****        -3.4919  -0.5681  -1.7331 C.3            1 S1                 0.0000
      3 ****        -3.8071   0.3909  -2.9004 C.3            1 S1                 0.0000
      4 ****        -4.2317  -0.1284  -0.4525 C.3            1 S1                 0.0000
      5 ****        -2.0457  -0.6369  -1.4974 N.am           1 S1                 0.0000
      6 ****        -1.2029   0.3554  -1.1568 C.2            1 S1                 0.0000
      7 ****        -1.5491   1.5175  -0.9435 O.2            1 S1                 0.0000
      8 ****         0.2271  -0.0597  -0.9672 C.ar           1 S1                 0.0000
      9 ****         0.8233   0.3449   0.1776 N.ar           1 S1                 0.0000
     10 ****         2.0986  -0.0001   0.3943 C.ar           1 S1                 0.0000
     11 ****         2.6895   0.4208   1.5931 N.pl3          1 S1                 0.0000
     12 ****         1.8902   0.9741   2.6898 C.3            1 S1                 0.0000
     13 ****         2.7163   1.9606   3.5327 C.3            1 S1                 0.0000
     14 ****         3.9060   1.3294   3.9880 O.3            1 S1                 0.0000
     15 ****         4.7292   0.9272   2.9009 C.3            1 S1                 0.0000
     16 ****         3.9836  -0.1038   2.0374 C.3            1 S1                 0.0000
     17 ****         2.8477  -0.7202  -0.4498 N.ar           1 S1                 0.0000
     18 ****         2.2810  -1.1240  -1.6055 C.ar           1 S1                 0.0000
     19 ****         0.9459  -0.8155  -1.9298 C.ar           1 S1                 0.0000
     20 ****         0.2881  -1.3277  -3.4469 Cl             1 S1                 0.0000
     21 ****        -5.0226  -2.0199  -2.3078 H              1 S1                 0.0000
     22 ****        -3.7388  -2.7016  -1.3180 H              1 S1                 0.0000
     23 ****        -3.4444  -2.3401  -3.0146 H              1 S1                 0.0000
     24 ****        -3.2615   0.1111  -3.8024 H              1 S1                 0.0000
     25 ****        -3.5479   1.4232  -2.6654 H              1 S1                 0.0000
     26 ****        -4.8702   0.3769  -3.1427 H              1 S1                 0.0000
     27 ****        -5.3125  -0.1657  -0.5920 H              1 S1                 0.0000
     28 ****        -3.9832   0.8930  -0.1643 H              1 S1                 0.0000
     29 ****        -3.9879  -0.7772   0.3897 H              1 S1                 0.0000
     30 ****        -1.6306  -1.5493  -1.6184 H              1 S1                 0.0000
     31 ****         1.0064   1.4985   2.3270 H              1 S1                 0.0000
     32 ****         1.5372   0.1520   3.3131 H              1 S1                 0.0000
     33 ****         2.9614   2.8543   2.9566 H              1 S1                 0.0000
     34 ****         2.1378   2.2889   4.3962 H              1 S1                 0.0000
     35 ****         5.0190   1.7954   2.3066 H              1 S1                 0.0000
     36 ****         5.6474   0.4913   3.2948 H              1 S1                 0.0000
     37 ****         3.8132  -1.0171   2.6085 H              1 S1                 0.0000
     38 ****         4.6259  -0.3694   1.1983 H              1 S1                 0.0000
     39 ****         2.9027  -1.6928  -2.2809 H              1 S1                 0.0000
     40 ****        -2.5126   1.7742  -1.0199 LP             1 S1                 0.0000
     41 ****        -0.8668   2.2046  -0.6939 LP             1 S1                 0.0000
     42 ****         0.3215   0.8907   0.8486 LP             1 S1                 0.0000
     43 ****         3.6609   0.5229   4.5261 LP             1 S1                 0.0000
     44 ****         4.4154   1.9707   4.5618 LP             1 S1                 0.0000
     45 ****         3.7957  -0.9511  -0.2309 LP             1 S1                 0.0000
@<TRIPOS>BOND
    1    1    2 1     
    2    1   21 1     
    3    1   22 1     
    4    1   23 1     
    5    2    3 1     
    6    2    4 1     
    7    2    5 1     
    8    3   24 1     
    9    3   25 1     
   10    3   26 1     
   11    4   27 1     
   12    4   28 1     
   13    4   29 1     
   14    5    6 am    
   15    5   30 1     
   16    6    7 2     
   17    6    8 1     
   18    8   19 ar    
   19    8    9 ar    
   20    9   10 ar    
   21   10   11 1     
   22   10   17 ar    
   23   11   16 1     
   24   11   12 1     
   25   12   13 1     
   26   12   31 1     
   27   12   32 1     
   28   13   14 1     
   29   13   33 1     
   30   13   34 1     
   31   14   15 1     
   32   15   16 1     
   33   15   35 1     
   34   15   36 1     
   35   16   37 1     
   36   16   38 1     
   37   17   18 ar    
   38   18   19 ar    
   39   18   39 1     
   40   19   20 1     
   41    7   40 1     
   42    7   41 1     
   43    9   42 1     
   44   14   43 1     
   45   14   44 1     
   46   17   45 1     
@<TRIPOS>SUBSTRUCTURE
      1 S1             1
@<TRIPOS>SET
LONE_PAIRS      STATIC     ATOMS    <user>   **** ""
6 40 41 42 43 44 45
DONOR_HYDROGENS      STATIC     ATOMS    <user>   **** ""
1 30
ATOM$BLUE        STATIC     ATOMS    COLORGROUP SYSTEM
6 40 41 42 43 44 45
ATOM$RED        STATIC     ATOMS    COLORGROUP SYSTEM
1 30
