AV-unprocessed.smi:3306|AV-procd|sdf|12701|dock7
  -GOLD-   2272019 33D 1   1.00000     0.00000
 Structure written by MMmdl.
 45 46  0  0  0  0  0  0  0  0  3 V2000
  147.5095  132.5440  152.7470 C   0  0  0  0  0  0  0  0  0  0  0  0
  146.3981  133.2503  151.9531 C   0  0  0  0  0  0  0  0  0  0  0  0
  146.4610  132.9025  150.4531 C   0  0  0  0  0  0  0  0  0  0  0  0
  146.3882  134.7179  152.2257 N   0  3  2  0  0  0  0  0  0  0  0  0
  146.2542  135.0499  153.6687 C   0  0  0  0  0  0  0  0  0  0  0  0
  146.4942  136.5501  153.9119 C   0  0  0  0  0  0  0  0  0  0  0  0
  145.5339  137.4132  153.0767 C   0  0  1  0  0  0  0  0  0  0  0  0
  145.8127  138.8500  153.3035 N   0  3  0  0  0  0  0  0  0  0  0  0
  147.1813  139.2880  152.9586 C   0  0  0  0  0  0  0  0  0  0  0  0
  147.4904  140.6611  153.5708 C   0  0  0  0  0  0  0  0  0  0  0  0
  148.7609  140.6456  154.3994 C   0  0  0  0  0  0  0  0  0  0  0  0
  149.6006  139.5117  154.4132 C   0  0  0  0  0  0  0  0  0  0  0  0
  150.7684  139.5521  155.2000 C   0  0  0  0  0  0  0  0  0  0  0  0
  151.0507  140.7195  155.9355 C   0  0  0  0  0  0  0  0  0  0  0  0
  150.1493  141.7993  155.8516 C   0  0  0  0  0  0  0  0  0  0  0  0
  149.0263  141.7703  155.1011 N   0  0  0  0  0  0  0  0  0  0  0  0
  145.6720  137.0234  151.5916 C   0  0  0  0  0  0  0  0  0  0  0  0
  145.4476  135.5141  151.3902 C   0  0  0  0  0  0  0  0  0  0  0  0
  147.4219  131.4608  152.6555 H   0  0  0  0  0  0  0  0  0  0  0  0
  147.4517  132.7867  153.8086 H   0  0  0  0  0  0  0  0  0  0  0  0
  148.5037  132.8172  152.3939 H   0  0  0  0  0  0  0  0  0  0  0  0
  145.4593  132.8498  152.3386 H   0  0  0  0  0  0  0  0  0  0  0  0
  146.3531  131.8276  150.3041 H   0  0  0  0  0  0  0  0  0  0  0  0
  147.4124  133.1927  150.0069 H   0  0  0  0  0  0  0  0  0  0  0  0
  145.6631  133.3860  149.8900 H   0  0  0  0  0  0  0  0  0  0  0  0
  145.2622  134.7695  154.0251 H   0  0  0  0  0  0  0  0  0  0  0  0
  146.9747  134.4755  154.2521 H   0  0  0  0  0  0  0  0  0  0  0  0
  146.3704  136.7728  154.9725 H   0  0  0  0  0  0  0  0  0  0  0  0
  147.5281  136.7959  153.6635 H   0  0  0  0  0  0  0  0  0  0  0  0
  144.5152  137.2064  153.4098 H   0  0  0  0  0  0  0  0  0  0  0  0
  145.1779  139.3792  152.7224 H   0  0  0  0  0  0  0  0  0  0  0  0
  147.9056  138.5563  153.3167 H   0  0  0  0  0  0  0  0  0  0  0  0
  147.2793  139.3371  151.8733 H   0  0  0  0  0  0  0  0  0  0  0  0
  147.5945  141.4088  152.7831 H   0  0  0  0  0  0  0  0  0  0  0  0
  146.6580  140.9873  154.1961 H   0  0  0  0  0  0  0  0  0  0  0  0
  149.3589  138.6298  153.8383 H   0  0  0  0  0  0  0  0  0  0  0  0
  151.4350  138.7033  155.2391 H   0  0  0  0  0  0  0  0  0  0  0  0
  151.9367  140.7855  156.5496 H   0  0  0  0  0  0  0  0  0  0  0  0
  150.3355  142.7105  156.4006 H   0  0  0  0  0  0  0  0  0  0  0  0
  144.9541  137.5717  150.9815 H   0  0  0  0  0  0  0  0  0  0  0  0
  146.6623  137.2972  151.2245 H   0  0  0  0  0  0  0  0  0  0  0  0
  145.5797  135.2738  150.3358 H   0  0  0  0  0  0  0  0  0  0  0  0
  144.4171  135.2646  151.6464 H   0  0  0  0  0  0  0  0  0  0  0  0
  147.3145  135.0297  151.9704 H   0  0  0  0  0  0  0  0  0  0  0  0
  145.6239  139.0776  154.2694 H   0  0  0  0  0  0  0  0  0  0  0  0
  1  2  1  0  0  0  0
  1 19  1  0  0  0  0
  1 20  1  0  0  0  0
  1 21  1  0  0  0  0
  2  3  1  0  0  0  0
  2  4  1  0  0  0  0
  2 22  1  0  0  0  0
  3 23  1  0  0  0  0
  3 24  1  0  0  0  0
  3 25  1  0  0  0  0
  4 18  1  0  0  0  0
  4  5  1  0  0  0  0
  4 44  1  0  0  0  0
  5  6  1  0  0  0  0
  5 26  1  0  0  0  0
  5 27  1  0  0  0  0
  6  7  1  0  0  0  0
  6 28  1  0  0  0  0
  6 29  1  0  0  0  0
  7  8  1  0  0  0  0
  7 17  1  0  0  0  0
  7 30  1  0  0  0  0
  8  9  1  0  0  0  0
  8 31  1  0  0  0  0
  8 45  1  0  0  0  0
  9 10  1  0  0  0  0
  9 32  1  0  0  0  0
  9 33  1  0  0  0  0
 10 11  1  0  0  0  0
 10 34  1  0  0  0  0
 10 35  1  0  0  0  0
 11 16  1  0  0  0  0
 11 12  2  0  0  0  0
 12 13  1  0  0  0  0
 12 36  1  0  0  0  0
 13 14  2  0  0  0  0
 13 37  1  0  0  0  0
 14 15  1  0  0  0  0
 14 38  1  0  0  0  0
 15 16  2  0  0  0  0
 15 39  1  0  0  0  0
 17 18  1  0  0  0  0
 17 40  1  0  0  0  0
 17 41  1  0  0  0  0
 18 42  1  0  0  0  0
 18 43  1  0  0  0  0
M  CHG  1   4   1
M  CHG  1   8   1
M  END
> <s_m_source_file>
AV-unprocessed.smi

> <i_m_source_file_index>
3306

> <i_lp_mmshare_version>
43012

> <i_f3d_flags>
0

> <s_epik_input>
W0NIM11bQ0hdKFtDSDNdKU4xW0NIMl1bQ0gyXVtDSF0oW0NIMl1bQ0gyXTEpW05IXVtDSDJdW0NIMl1jMltjSF1bY0hdW2NIXVtjSF1uMg==

> <s_epik_cmdline>
J2VwaWtfcHl0aG9uJywgJy1waCcsICc3LjAnLCAnLXRuJywgJzgnLCAnLW1hJywgJzIwMCcsICctbWV0YWxfYmluZGluZycsICctaW1hZScsICc8aW5maWxlLm1hZT4nLCAnLW9tYWUnLCAnPG91dGZpbGUubWFlPic=

> <r_epik_Ionization_Penalty>
0.0800465

> <r_epik_Ionization_Penalty_Charging>
0.0790817

> <r_epik_Ionization_Penalty_Neutral>
0.000964829

> <r_epik_State_Penalty>
0.0665964

> <r_epik_Charging_Adjusted_Penalty>
0.145678

> <i_epik_Tot_Q>
2

> <i_epik_Tot_abs_Q>
2

> <r_epik_Metal_State_Penalty>
0.0683331

> <b_epik_Metal_Only>
0

> <s_lp_Force_Field>
OPLS_2005

> <r_lp_Energy>
27.4923

> <b_lp_Chiralities_Consistent>
1

> <s_lp_Variant>
AV-unprocessed.smi:3306-1

> <Gold.Version>
5.8.1

> <Gold.Id.Protein>
6NUR|6NUR_protein|mol2

> <Gold.PLP.Fitness>
45.5911

> <Gold.PLP.PLP>
-32.4051

> <Gold.PLP.part.hbond>
-2.0000

> <Gold.PLP.part.metal>
0.0000

> <Gold.PLP.part.buried>
0.9341

> <Gold.PLP.part.nonpolar>
-33.0163

> <Gold.PLP.part.repulsive>
1.0976

> <Gold.PLP.ligand.clash>
0.0000

> <Gold.PLP.ligand.torsion>
0.5416

> <Gold.PLP.Chemscore.Hbond>
4.0000

> <Gold.PLP.Chemscore.CHOScore>
0.7042

> <Gold.PLP.Chemscore.Metal>
0.0000

> <Gold.Chemscore.Hbonds>
donor molecule, donor type, donor heavy atom, donor atom, acceptor molecule, acceptor atom, score
      L1  H     4    44       P1  7948  2.00
      L1  H     8    31       P1 10175  2.00
      L1  C    15    39       P1  8028  0.60

> <Gold.PLP.Chemscore.Internal.Correction>
0.1566

> <Gold.Rescore>
     Score         DG    S(hbond)    S(metal)    S(lipo)     H(rot)  DE(clash)    DE(int)     intcor
     18.17     -18.85       1.95        0.00      90.88       1.47       0.15       0.54       ----

> <Gold.Chemscore.Fitness>
18.1677

> <Gold.Chemscore.DG>
-18.8547

> <Gold.Chemscore.ZeroCoef>
-5.4800

> <Gold.Chemscore.Hbond>
1.9462

> <Gold.Chemscore.Metal>
0.0000

> <Gold.Chemscore.Lipo>
90.8750

> <Gold.Chemscore.Internal_Hbond>
0.0000

> <Gold.Chemscore.DEClash>
0.1458

> <Gold.Chemscore.DEInternal>
0.5411

> <Gold.Chemscore.Rot>
1.4679

> <Gold.Chemscore.Internal.Correction>
   9.000000E+99

> <Gold.Chemscore.Hbonds>
donor molecule, donor type, donor heavy atom, donor atom, acceptor molecule, acceptor atom, score
      L1  H     4    44       P1  7948  0.91
      L1  H     8    31       P1 10175  0.97

> <Gold.Chemscore.Hbond.Weighted>
-6.5002

> <Gold.Chemscore.Metal.Weighted>
-0.0000

> <Gold.Chemscore.Lipo.Weighted>
-10.6324

> <Gold.Chemscore.Internal_Hbond.Weighted>
0.0000

> <Gold.Chemscore.DEClash.Weighted>
0.1458

> <Gold.Chemscore.DEInternal.Weighted>
0.5411

> <Gold.Chemscore.Rot.Weighted>
3.7579

> <Gold.Chemscore.Internal.Correction.Weighted>
   9.000000E+99

> <Gold.Protein.RotatedTorsions>
[ 6907 6896 6895 6894 ] final  163.90 input  -60.11 | X-H torsion
[ 7974 7965 7964 7962 ] final  -37.47 input  175.53 | X-H torsion
[ 8008 7997 7996 7995 ] final   -7.03 input   59.86 | X-H torsion
[ 10167 10162 10161 10158 ] final  106.81 input  -65.29 | X-H torsion
[ 10718 10713 10712 10709 ] final  127.81 input   66.30 | X-H torsion
[ 10763 10752 10751 10750 ] final  -97.94 input  -60.55 | X-H torsion
[ 11005 11000 10999 10996 ] final  -41.19 input  -57.11 | X-H torsion

> <Gold.Protein.ActiveResidues>
 VAL166  LYS551  ARG553  GLY616  TRP617  ASP618  TYR619  PRO620  LYS621  CYS622 
 ASP623  PHE694  ASN695  SER759  ASP760  ASP761  ALA762  ILE779  LEU786  VAL792 
 PHE793  MET794  SER795  GLU796  ALA797  LYS798  CYS799  TRP800  GLU811  SER814 

> <Gold.Protein.RotatedAtoms>
  151.9182  133.3578  159.3887 H   0  0  0  0  0  0  0  0  0  0  0  0  # atno 6907 bound_to 6896
  150.7043  134.4663  159.5413 H   0  0  0  0  0  0  0  0  0  0  0  0  # atno 6908 bound_to 6896
  152.2281  134.8348  160.0528 H   0  0  0  0  0  0  0  0  0  0  0  0  # atno 6909 bound_to 6896
  146.0572  140.6399  142.9014 H   0  0  0  0  0  0  0  0  0  0  0  0  # atno 7974 bound_to 7965
  154.5878  140.2417  155.7963 H   0  0  0  0  0  0  0  0  0  0  0  0  # atno 8008 bound_to 7997
  156.2226  140.2993  155.9943 H   0  0  0  0  0  0  0  0  0  0  0  0  # atno 8009 bound_to 7997
  155.2427  140.0407  157.2967 H   0  0  0  0  0  0  0  0  0  0  0  0  # atno 8010 bound_to 7997
  139.6978  144.7099  151.1237 H   0  0  0  0  0  0  0  0  0  0  0  0  # atno 10167 bound_to 10162
  157.5300  131.1098  150.9023 H   0  0  0  0  0  0  0  0  0  0  0  0  # atno 10718 bound_to 10713
  154.7372  135.5028  153.9061 H   0  0  0  0  0  0  0  0  0  0  0  0  # atno 10763 bound_to 10752
  153.1006  135.6684  153.9687 H   0  0  0  0  0  0  0  0  0  0  0  0  # atno 10764 bound_to 10752
  153.9474  135.3061  155.3419 H   0  0  0  0  0  0  0  0  0  0  0  0  # atno 10765 bound_to 10752
  141.0229  133.6855  156.2424 H   0  0  0  0  0  0  0  0  0  0  0  0  # atno 11005 bound_to 11000
  144.7155  140.4192  143.7048 LP  0  0  0  0  0  0  0  0  0  0  0  0  # atno 17320 bound_to 7965
  145.6622  139.1583  143.2801 LP  0  0  0  0  0  0  0  0  0  0  0  0  # atno 17321 bound_to 7965
  140.7701  143.5466  150.9251 LP  0  0  0  0  0  0  0  0  0  0  0  0  # atno 17342 bound_to 10162
  139.9147  143.6678  152.3108 LP  0  0  0  0  0  0  0  0  0  0  0  0  # atno 17343 bound_to 10162
  156.9607  130.5454  149.5286 LP  0  0  0  0  0  0  0  0  0  0  0  0  # atno 17370 bound_to 10713
  156.0415  130.5497  150.8783 LP  0  0  0  0  0  0  0  0  0  0  0  0  # atno 17371 bound_to 10713
  140.6542  134.5035  157.5579 LP  0  0  0  0  0  0  0  0  0  0  0  0  # atno 17394 bound_to 11000
  139.9157  134.8251  156.1375 LP  0  0  0  0  0  0  0  0  0  0  0  0  # atno 17395 bound_to 11000

$$$$
