AV-unprocessed.smi:3113|AV-procd|sdf|11854|dock5
  -GOLD-   2272017233D 1   1.00000     0.00000
 Structure written by MMmdl.
 34 35  0  0  0  0  0  0  0  0  1 V2000
  151.4058  137.3451  155.1837 C   0  0  0  0  0  0  0  0  0  0  0  0
  150.9322  138.1514  154.1111 C   0  0  0  0  0  0  0  0  0  0  0  0
  150.9643  139.4441  154.3918 N   0  0  0  0  0  0  0  0  0  0  0  0
  151.4562  139.5055  155.6483 N   0  0  0  0  0  0  0  0  0  0  0  0
  151.6264  140.7930  156.2931 C   0  0  0  0  0  0  0  0  0  0  0  0
  150.3566  141.6486  156.1852 C   0  0  0  0  0  0  0  0  0  0  0  0
  150.5232  142.9244  156.8722 N   0  0  0  0  0  0  0  0  0  0  0  0
  150.2332  142.8509  158.3003 C   0  0  0  0  0  0  0  0  0  0  0  0
  151.4975  143.0966  159.1362 C   0  0  2  0  0  0  0  0  0  0  0  0
  152.3757  141.8332  159.2210 C   0  0  0  0  0  0  0  0  0  0  0  0
  153.5834  142.0756  160.1336 C   0  0  0  0  0  0  0  0  0  0  0  0
  153.1069  142.5978  161.4930 C   0  0  0  0  0  0  0  0  0  0  0  0
  152.1826  143.8112  161.3049 C   0  0  0  0  0  0  0  0  0  0  0  0
  151.0938  143.4642  160.4544 O   0  0  0  0  0  0  0  0  0  0  0  0
  151.7333  138.2518  156.1510 C   0  0  0  0  0  0  0  0  0  0  0  0
  151.4912  136.2697  155.2342 H   0  0  0  0  0  0  0  0  0  0  0  0
  150.5684  137.8377  153.1438 H   0  0  0  0  0  0  0  0  0  0  0  0
  151.8841  140.6247  157.3396 H   0  0  0  0  0  0  0  0  0  0  0  0
  152.4752  141.3032  155.8349 H   0  0  0  0  0  0  0  0  0  0  0  0
  150.1223  141.8213  155.1339 H   0  0  0  0  0  0  0  0  0  0  0  0
  149.5116  141.1053  156.6099 H   0  0  0  0  0  0  0  0  0  0  0  0
  149.9275  143.6251  156.4423 H   0  0  0  0  0  0  0  0  0  0  0  0
  149.4627  143.5729  158.5740 H   0  0  0  0  0  0  0  0  0  0  0  0
  149.8320  141.8638  158.5330 H   0  0  0  0  0  0  0  0  0  0  0  0
  152.0765  143.9066  158.6879 H   0  0  0  0  0  0  0  0  0  0  0  0
  151.7869  141.0004  159.6082 H   0  0  0  0  0  0  0  0  0  0  0  0
  152.7152  141.5405  158.2268 H   0  0  0  0  0  0  0  0  0  0  0  0
  154.1581  141.1575  160.2573 H   0  0  0  0  0  0  0  0  0  0  0  0
  154.2509  142.8048  159.6728 H   0  0  0  0  0  0  0  0  0  0  0  0
  152.5687  141.8092  162.0203 H   0  0  0  0  0  0  0  0  0  0  0  0
  153.9612  142.8651  162.1154 H   0  0  0  0  0  0  0  0  0  0  0  0
  151.7876  144.1340  162.2681 H   0  0  0  0  0  0  0  0  0  0  0  0
  152.7298  144.6569  160.8858 H   0  0  0  0  0  0  0  0  0  0  0  0
  152.1343  138.1108  157.1440 H   0  0  0  0  0  0  0  0  0  0  0  0
  1 15  2  0  0  0  0
  1  2  1  0  0  0  0
  1 16  1  0  0  0  0
  2  3  2  0  0  0  0
  2 17  1  0  0  0  0
  3  4  1  0  0  0  0
  4  5  1  0  0  0  0
  4 15  1  0  0  0  0
  5  6  1  0  0  0  0
  5 18  1  0  0  0  0
  5 19  1  0  0  0  0
  6  7  1  0  0  0  0
  6 20  1  0  0  0  0
  6 21  1  0  0  0  0
  7  8  1  0  0  0  0
  7 22  1  0  0  0  0
  8  9  1  0  0  0  0
  8 23  1  0  0  0  0
  8 24  1  0  0  0  0
  9 14  1  0  0  0  0
  9 10  1  0  0  0  0
  9 25  1  0  0  0  0
 10 11  1  0  0  0  0
 10 26  1  0  0  0  0
 10 27  1  0  0  0  0
 11 12  1  0  0  0  0
 11 28  1  0  0  0  0
 11 29  1  0  0  0  0
 12 13  1  0  0  0  0
 12 30  1  0  0  0  0
 12 31  1  0  0  0  0
 13 14  1  0  0  0  0
 13 32  1  0  0  0  0
 13 33  1  0  0  0  0
 15 34  1  0  0  0  0
M  END
> <s_m_source_file>
AV-unprocessed.smi

> <i_m_source_file_index>
3113

> <i_lp_mmshare_version>
43012

> <i_f3d_flags>
0

> <s_epik_input>
W2NIXTFbY0hdW2NIXW5uMVtDSDJdW0NIMl1bTkhdW0NIMl1bQ0BASF0yW0NIMl1bQ0gyXVtDSDJdW0NIMl1PMg==

> <s_epik_cmdline>
J2VwaWtfcHl0aG9uJywgJy1waCcsICc3LjAnLCAnLXRuJywgJzgnLCAnLW1hJywgJzIwMCcsICctbWV0YWxfYmluZGluZycsICctaW1hZScsICc8aW5maWxlLm1hZT4nLCAnLW9tYWUnLCAnPG91dGZpbGUubWFlPic=

> <r_lp_tautomer_probability>
1

> <r_epik_Ionization_Penalty>
2.521

> <r_epik_Ionization_Penalty_Charging>
0

> <r_epik_Ionization_Penalty_Neutral>
2.521

> <r_epik_State_Penalty>
2.68614

> <r_epik_Charging_Adjusted_Penalty>
2.68614

> <i_epik_Tot_Q>
0

> <i_epik_Tot_abs_Q>
0

> <r_epik_Metal_State_Penalty>
2.68493

> <b_epik_Metal_Only>
0

> <s_lp_Force_Field>
OPLS_2005

> <r_lp_Energy>
11.6104

> <b_lp_Chiralities_Consistent>
1

> <s_lp_Variant>
AV-unprocessed.smi:3113-3

> <Gold.Version>
5.8.1

> <Gold.Id.Protein>
6NUR|6NUR_protein|mol2

> <Gold.PLP.Fitness>
43.7336

> <Gold.PLP.PLP>
-35.9281

> <Gold.PLP.part.hbond>
-3.0000

> <Gold.PLP.part.metal>
0.0000

> <Gold.PLP.part.buried>
-5.4218

> <Gold.PLP.part.nonpolar>
-27.8684

> <Gold.PLP.part.repulsive>
0.2258

> <Gold.PLP.ligand.clash>
0.0000

> <Gold.PLP.ligand.torsion>
0.7893

> <Gold.PLP.Chemscore.Hbond>
2.0000

> <Gold.PLP.Chemscore.CHOScore>
1.1198

> <Gold.PLP.Chemscore.Metal>
0.0000

> <Gold.Chemscore.Hbonds>
donor molecule, donor type, donor heavy atom, donor atom, acceptor molecule, acceptor atom, score
      L1  H     7    22       P1  8028  1.00
      P1  H  7989  7998       L1     3  1.00
      L1  C     2    17       P1  7948  0.54
      L1  C     2    17       P1  7949  0.57

> <Gold.PLP.Chemscore.Internal.Correction>
0.0246

> <Gold.Rescore>
     Score         DG    S(hbond)    S(metal)    S(lipo)     H(rot)  DE(clash)    DE(int)     intcor
     18.33     -19.11       1.96        0.00      96.10       1.62       0.07       0.71       ----

> <Gold.Chemscore.Fitness>
18.3281

> <Gold.Chemscore.DG>
-19.1092

> <Gold.Chemscore.ZeroCoef>
-5.4800

> <Gold.Chemscore.Hbond>
1.9568

> <Gold.Chemscore.Metal>
0.0000

> <Gold.Chemscore.Lipo>
96.1025

> <Gold.Chemscore.Internal_Hbond>
0.0000

> <Gold.Chemscore.DEClash>
0.0728

> <Gold.Chemscore.DEInternal>
0.7082

> <Gold.Chemscore.Rot>
1.6213

> <Gold.Chemscore.Internal.Correction>
   9.000000E+99

> <Gold.Chemscore.Hbonds>
donor molecule, donor type, donor heavy atom, donor atom, acceptor molecule, acceptor atom, score
      L1  H     7    22       P1  8028  1.00
      P1  H  7989  7998       L1     3  0.60

> <Gold.Chemscore.Hbond.Weighted>
-6.5357

> <Gold.Chemscore.Metal.Weighted>
-0.0000

> <Gold.Chemscore.Lipo.Weighted>
-11.2440

> <Gold.Chemscore.Internal_Hbond.Weighted>
0.0000

> <Gold.Chemscore.DEClash.Weighted>
0.0728

> <Gold.Chemscore.DEInternal.Weighted>
0.7082

> <Gold.Chemscore.Rot.Weighted>
4.1505

> <Gold.Chemscore.Internal.Correction.Weighted>
   9.000000E+99

> <Gold.Protein.RotatedTorsions>
[ 6907 6896 6895 6894 ] final   38.98 input  -60.11 | X-H torsion
[ 7974 7965 7964 7962 ] final   -9.00 input  175.53 | X-H torsion
[ 8008 7997 7996 7995 ] final  -33.32 input   59.86 | X-H torsion
[ 10167 10162 10161 10158 ] final  -90.68 input  -65.29 | X-H torsion
[ 10718 10713 10712 10709 ] final -174.67 input   66.30 | X-H torsion
[ 10763 10752 10751 10750 ] final  -32.39 input  -60.55 | X-H torsion
[ 11005 11000 10999 10996 ] final -120.19 input  -57.11 | X-H torsion

> <Gold.Protein.ActiveResidues>
 VAL166  LYS551  ARG553  GLY616  TRP617  ASP618  TYR619  PRO620  LYS621  CYS622 
 ASP623  PHE694  ASN695  SER759  ASP760  ASP761  ALA762  ILE779  LEU786  VAL792 
 PHE793  MET794  SER795  GLU796  ALA797  LYS798  CYS799  TRP800  GLU811  SER814 

> <Gold.Protein.RotatedAtoms>
  152.1636  134.8892  160.0539 H   0  0  0  0  0  0  0  0  0  0  0  0  # atno 6907 bound_to 6896
  151.9879  133.3775  159.4141 H   0  0  0  0  0  0  0  0  0  0  0  0  # atno 6908 bound_to 6896
  150.6891  134.3891  159.5112 H   0  0  0  0  0  0  0  0  0  0  0  0  # atno 6909 bound_to 6896
  146.2264  140.2551  142.8349 H   0  0  0  0  0  0  0  0  0  0  0  0  # atno 7974 bound_to 7965
  154.4152  140.1713  156.1870 H   0  0  0  0  0  0  0  0  0  0  0  0  # atno 8008 bound_to 7997
  155.9635  140.3391  155.6488 H   0  0  0  0  0  0  0  0  0  0  0  0  # atno 8009 bound_to 7997
  155.6718  140.0712  157.2508 H   0  0  0  0  0  0  0  0  0  0  0  0  # atno 8010 bound_to 7997
  140.3525  143.2884  151.9710 H   0  0  0  0  0  0  0  0  0  0  0  0  # atno 10167 bound_to 10162
  156.7886  130.9509  151.3120 H   0  0  0  0  0  0  0  0  0  0  0  0  # atno 10718 bound_to 10713
  153.8130  135.6881  153.4838 H   0  0  0  0  0  0  0  0  0  0  0  0  # atno 10763 bound_to 10752
  153.1616  135.4577  154.9779 H   0  0  0  0  0  0  0  0  0  0  0  0  # atno 10764 bound_to 10752
  154.7959  135.3319  154.7609 H   0  0  0  0  0  0  0  0  0  0  0  0  # atno 10765 bound_to 10752
  141.0162  134.0192  157.3347 H   0  0  0  0  0  0  0  0  0  0  0  0  # atno 11005 bound_to 11000
  144.9382  140.8049  143.5647 LP  0  0  0  0  0  0  0  0  0  0  0  0  # atno 17320 bound_to 7965
  145.2500  139.2035  143.4947 LP  0  0  0  0  0  0  0  0  0  0  0  0  # atno 17321 bound_to 7965
  139.4824  144.6064  151.7514 LP  0  0  0  0  0  0  0  0  0  0  0  0  # atno 17342 bound_to 10162
  140.5205  144.0886  150.6021 LP  0  0  0  0  0  0  0  0  0  0  0  0  # atno 17343 bound_to 10162
  157.6612  130.8967  149.9833 LP  0  0  0  0  0  0  0  0  0  0  0  0  # atno 17370 bound_to 10713
  156.1173  130.3647  149.9946 LP  0  0  0  0  0  0  0  0  0  0  0  0  # atno 17371 bound_to 10713
  139.9118  135.0191  156.7723 LP  0  0  0  0  0  0  0  0  0  0  0  0  # atno 17394 bound_to 11000
  140.6651  133.9610  155.7826 LP  0  0  0  0  0  0  0  0  0  0  0  0  # atno 17395 bound_to 11000

$$$$
