#       Name:                AV-unprocessed.smi:61
#       Creating user name   scv26
#       Creation time:       Thu Mar 26 16:49:14 2020


#       File generated by GOLD software.
#

@<TRIPOS>MOLECULE
AV-unprocessed.smi:61
    33    34     1
SMALL
NO_CHARGES


@<TRIPOS>ATOM
      1 ****        -3.6892   1.3045  -0.6078 N.pl3          1 S1                 0.0000
      2 ****        -2.9218   0.4207   0.1103 C.ar           1 S1                 0.0000
      3 ****        -3.5627  -0.3460   0.9929 N.ar           1 S1                 0.0000
      4 ****        -2.8067  -1.2149   1.6968 C.ar           1 S1                 0.0000
      5 ****        -1.4126  -1.3085   1.5106 C.ar           1 S1                 0.0000
      6 ****        -0.8357  -0.4461   0.5480 C.ar           1 S1                 0.0000
      7 ****         0.5536  -0.4701   0.3021 N.3            1 S1                 0.0000
      8 ****         1.4282  -0.5910   1.4643 C.3            1 S1                 0.0000
      9 ****         2.6578   0.2717   1.1679 C.3            1 S1                 0.0000
     10 ****         2.6594   0.3859  -0.3524 C.3            1 S1                 0.0000
     11 ****         1.1659   0.4063  -0.6956 C.3            1 S1                 0.0000
     12 ****         0.8727  -0.0301  -2.1456 C.3            1 S1                 0.0000
     13 ****         1.4136   0.9072  -3.0521 O.3            1 S1                 0.0000
     14 ****        -1.6131   0.4190  -0.1487 N.ar           1 S1                 0.0000
     15 ****        -3.2625   1.9124  -1.2919 H              1 S1                 0.0000
     16 ****        -4.6808   1.3781  -0.4340 H              1 S1                 0.0000
     17 ****        -3.3170  -1.8414   2.4130 H              1 S1                 0.0000
     18 ****        -0.8241  -2.0139   2.0782 H              1 S1                 0.0000
     19 ****         0.9448  -0.2717   2.3888 H              1 S1                 0.0000
     20 ****         1.7133  -1.6376   1.5759 H              1 S1                 0.0000
     21 ****         2.5265   1.2612   1.6079 H              1 S1                 0.0000
     22 ****         3.5797  -0.1535   1.5651 H              1 S1                 0.0000
     23 ****         3.1886   1.2693  -0.7108 H              1 S1                 0.0000
     24 ****         3.1394  -0.4935  -0.7844 H              1 S1                 0.0000
     25 ****         0.7868   1.4169  -0.5348 H              1 S1                 0.0000
     26 ****         1.2956  -1.0146  -2.3490 H              1 S1                 0.0000
     27 ****        -0.1980  -0.0992  -2.3347 H              1 S1                 0.0000
     28 ****         1.2089   0.6267  -3.9309 H              1 S1                 0.0000
     29 ****        -4.5516  -0.2807   1.1264 LP             1 S1                 0.0000
     30 ****         0.4986  -1.3485  -0.1726 LP             1 S1                 0.0000
     31 ****         2.4057   0.9553  -2.9358 LP             1 S1                 0.0000
     32 ****         1.0142   1.8084  -2.8840 LP             1 S1                 0.0000
     33 ****        -1.2196   1.0338  -0.8323 LP             1 S1                 0.0000
@<TRIPOS>BOND
    1    1    2 1     
    2    1   15 1     
    3    1   16 1     
    4    2   14 ar    
    5    2    3 ar    
    6    3    4 ar    
    7    4    5 ar    
    8    4   17 1     
    9    5    6 ar    
   10    5   18 1     
   11    6    7 1     
   12    6   14 ar    
   13    7   11 1     
   14    7    8 1     
   15    8    9 1     
   16    8   19 1     
   17    8   20 1     
   18    9   10 1     
   19    9   21 1     
   20    9   22 1     
   21   10   11 1     
   22   10   23 1     
   23   10   24 1     
   24   11   12 1     
   25   11   25 1     
   26   12   13 1     
   27   12   26 1     
   28   12   27 1     
   29   13   28 1     
   30    3   29 1     
   31    7   30 1     
   32   13   31 1     
   33   13   32 1     
   34   14   33 1     
@<TRIPOS>SUBSTRUCTURE
      1 S1             1
@<TRIPOS>SET
LONE_PAIRS      STATIC     ATOMS    <user>   **** ""
5 29 30 31 32 33
DONOR_HYDROGENS      STATIC     ATOMS    <user>   **** ""
3 15 16 28
ATOM$BLUE        STATIC     ATOMS    COLORGROUP SYSTEM
5 29 30 31 32 33
ATOM$RED        STATIC     ATOMS    COLORGROUP SYSTEM
3 15 16 28
