AV-unprocessed.smi:62|AV-procd|sdf|603|dock8
  -GOLD-   2262016493D 1   1.00000     0.00000
 Structure written by MMmdl.
 31 32  0  0  0  0  0  0  0  0  3 V2000
  151.8865  142.6033  159.1952 C   0  0  0  0  0  0  0  0  0  0  0  0
  151.5006  141.9634  157.9561 N   0  0  0  0  0  0  0  0  0  0  0  0
  150.4694  142.2864  157.1043 C   0  0  0  0  0  0  0  0  0  0  0  0
  150.4922  141.4032  156.0602 C   0  0  0  0  0  0  0  0  0  0  0  0
  149.5392  141.3851  154.8882 C   0  0  0  0  0  0  0  0  0  0  0  0
  148.2350  141.9948  155.2391 N   0  3  1  0  0  0  0  0  0  0  0  0
  147.3133  142.2168  154.1030 C   0  0  0  0  0  0  0  0  0  0  0  0
  145.9159  142.1948  154.7142 C   0  0  0  0  0  0  0  0  0  0  0  0
  146.0489  141.1199  155.7882 C   0  0  2  0  0  0  0  0  0  0  0  0
  145.0918  141.2747  156.8147 O   0  0  0  0  0  0  0  0  0  0  0  0
  147.4870  141.2807  156.3004 C   0  0  0  0  0  0  0  0  0  0  0  0
  151.6063  140.5538  156.3779 C   0  0  0  0  0  0  0  0  0  0  0  0
  152.0162  139.3988  155.5028 C   0  0  0  0  0  0  0  0  0  0  0  0
  151.3773  139.1495  154.4565 O   0  0  0  0  0  0  0  0  0  0  0  0
  152.9936  138.7087  155.8651 O   0  5  0  0  0  0  0  0  0  0  0  0
  152.1987  140.9020  157.5121 N   0  0  0  0  0  0  0  0  0  0  0  0
  151.2097  143.4289  159.4171 H   0  0  0  0  0  0  0  0  0  0  0  0
  152.9024  142.9907  159.1096 H   0  0  0  0  0  0  0  0  0  0  0  0
  151.8457  141.8818  160.0119 H   0  0  0  0  0  0  0  0  0  0  0  0
  149.8066  143.1145  157.3079 H   0  0  0  0  0  0  0  0  0  0  0  0
  149.9582  141.9209  154.0351 H   0  0  0  0  0  0  0  0  0  0  0  0
  149.3731  140.3646  154.5413 H   0  0  0  0  0  0  0  0  0  0  0  0
  147.5295  143.1529  153.5869 H   0  0  0  0  0  0  0  0  0  0  0  0
  147.4098  141.4030  153.3823 H   0  0  0  0  0  0  0  0  0  0  0  0
  145.6991  143.1639  155.1669 H   0  0  0  0  0  0  0  0  0  0  0  0
  145.1342  141.9772  153.9858 H   0  0  0  0  0  0  0  0  0  0  0  0
  145.9329  140.1361  155.3313 H   0  0  0  0  0  0  0  0  0  0  0  0
  144.4456  141.9049  156.5341 H   0  0  0  0  0  0  0  0  0  0  0  0
  147.9256  140.3124  156.5467 H   0  0  0  0  0  0  0  0  0  0  0  0
  147.5233  141.8960  157.2005 H   0  0  0  0  0  0  0  0  0  0  0  0
  148.4423  142.9075  155.6221 H   0  0  0  0  0  0  0  0  0  0  0  0
  1  2  1  0  0  0  0
  1 17  1  0  0  0  0
  1 18  1  0  0  0  0
  1 19  1  0  0  0  0
  2 16  1  0  0  0  0
  2  3  1  0  0  0  0
  3  4  2  0  0  0  0
  3 20  1  0  0  0  0
  4  5  1  0  0  0  0
  4 12  1  0  0  0  0
  5  6  1  0  0  0  0
  5 21  1  0  0  0  0
  5 22  1  0  0  0  0
  6 11  1  0  0  0  0
  6  7  1  0  0  0  0
  6 31  1  0  0  0  0
  7  8  1  0  0  0  0
  7 23  1  0  0  0  0
  7 24  1  0  0  0  0
  8  9  1  0  0  0  0
  8 25  1  0  0  0  0
  8 26  1  0  0  0  0
  9 10  1  0  0  0  0
  9 11  1  0  0  0  0
  9 27  1  0  0  0  0
 10 28  1  0  0  0  0
 11 29  1  0  0  0  0
 11 30  1  0  0  0  0
 12 13  1  0  0  0  0
 12 16  2  0  0  0  0
 13 14  2  0  0  0  0
 13 15  1  0  0  0  0
M  CHG  1   6   1
M  CHG  1  15  -1
M  END
> <s_m_source_file>
AV-unprocessed.smi

> <i_m_source_file_index>
62

> <i_lp_mmshare_version>
43012

> <i_f3d_flags>
0

> <s_epik_input>
W0NIM11uMVtjSF1jKGMobjEpQyg9TylbT0hdKVtDSDJdTjJbQ0gyXVtDSDJdW0NAQEhdKFtPSF0pW0NIMl0y

> <s_epik_cmdline>
J2VwaWtfcHl0aG9uJywgJy1waCcsICc3LjAnLCAnLXRuJywgJzgnLCAnLW1hJywgJzIwMCcsICctbWV0YWxfYmluZGluZycsICctaW1hZScsICc8aW5maWxlLm1hZT4nLCAnLW9tYWUnLCAnPG91dGZpbGUubWFlPic=

> <r_epik_Ionization_Penalty>
0.0522993

> <r_epik_Ionization_Penalty_Charging>
0.0522915

> <r_epik_Ionization_Penalty_Neutral>
7.84975e-06

> <r_epik_State_Penalty>
0.0448084

> <r_epik_Charging_Adjusted_Penalty>
0.0970998

> <i_epik_Tot_Q>
0

> <i_epik_Tot_abs_Q>
2

> <r_epik_Metal_State_Penalty>
0.0448097

> <b_epik_Metal_Only>
0

> <s_lp_Force_Field>
OPLS_2005

> <r_lp_Energy>
17.4079

> <b_lp_Chiralities_Consistent>
1

> <s_lp_Variant>
AV-unprocessed.smi:62-3

> <Gold.Version>
5.8.1

> <Gold.Id.Protein>
6NUR|6NUR_protein|mol2

> <Gold.PLP.Fitness>
45.8943

> <Gold.PLP.PLP>
-28.8280

> <Gold.PLP.part.hbond>
-3.1743

> <Gold.PLP.part.metal>
0.0000

> <Gold.PLP.part.buried>
-2.2640

> <Gold.PLP.part.nonpolar>
-23.2708

> <Gold.PLP.part.repulsive>
0.2532

> <Gold.PLP.ligand.clash>
0.0000

> <Gold.PLP.ligand.torsion>
0.3811

> <Gold.PLP.Chemscore.Hbond>
5.0000

> <Gold.PLP.Chemscore.CHOScore>
0.9394

> <Gold.PLP.Chemscore.Metal>
0.0000

> <Gold.Chemscore.Hbonds>
donor molecule, donor type, donor heavy atom, donor atom, acceptor molecule, acceptor atom, score
      L1  H     6    31       P1  8028  2.00
      P1  H  7989  7998       L1    14  1.00
      P1  H  7997  8008       L1    15  2.00
      L1  C     3    20       P1  8028  0.95

> <Gold.PLP.Chemscore.Internal.Correction>
0.0103

> <Gold.Rescore>
     Score         DG    S(hbond)    S(metal)    S(lipo)     H(rot)  DE(clash)    DE(int)     intcor
     14.68     -16.33       2.75        0.00      53.96       1.81       0.09       1.56       ----

> <Gold.Chemscore.Fitness>
14.6761

> <Gold.Chemscore.DG>
-16.3312

> <Gold.Chemscore.ZeroCoef>
-5.4800

> <Gold.Chemscore.Hbond>
2.7451

> <Gold.Chemscore.Metal>
0.0000

> <Gold.Chemscore.Lipo>
53.9641

> <Gold.Chemscore.Internal_Hbond>
0.0000

> <Gold.Chemscore.DEClash>
0.0949

> <Gold.Chemscore.DEInternal>
1.5602

> <Gold.Chemscore.Rot>
1.8091

> <Gold.Chemscore.Internal.Correction>
   9.000000E+99

> <Gold.Chemscore.Hbonds>
donor molecule, donor type, donor heavy atom, donor atom, acceptor molecule, acceptor atom, score
      L1  H     6    31       P1  8028  0.98
      P1  H  7989  7998       L1    14  0.25
      P1  H  7997  8008       L1    15  0.33

> <Gold.Chemscore.Hbond.Weighted>
-9.1688

> <Gold.Chemscore.Metal.Weighted>
-0.0000

> <Gold.Chemscore.Lipo.Weighted>
-6.3138

> <Gold.Chemscore.Internal_Hbond.Weighted>
0.0000

> <Gold.Chemscore.DEClash.Weighted>
0.0949

> <Gold.Chemscore.DEInternal.Weighted>
1.5602

> <Gold.Chemscore.Rot.Weighted>
4.6314

> <Gold.Chemscore.Internal.Correction.Weighted>
   9.000000E+99

> <Gold.Protein.RotatedTorsions>
[ 6907 6896 6895 6894 ] final   97.92 input  -60.11 | X-H torsion
[ 7974 7965 7964 7962 ] final  153.83 input  175.53 | X-H torsion
[ 8008 7997 7996 7995 ] final  -40.98 input   59.86 | X-H torsion
[ 10167 10162 10161 10158 ] final   99.86 input  -65.29 | X-H torsion
[ 10718 10713 10712 10709 ] final   96.21 input   66.30 | X-H torsion
[ 10763 10752 10751 10750 ] final   47.80 input  -60.55 | X-H torsion
[ 11005 11000 10999 10996 ] final -168.63 input  -57.11 | X-H torsion

> <Gold.Protein.ActiveResidues>
 VAL166  LYS551  ARG553  GLY616  TRP617  ASP618  TYR619  PRO620  LYS621  CYS622 
 ASP623  PHE694  ASN695  SER759  ASP760  ASP761  ALA762  ILE779  LEU786  VAL792 
 PHE793  MET794  SER795  GLU796  ALA797  LYS798  CYS799  TRP800  GLU811  SER814 

> <Gold.Protein.RotatedAtoms>
  152.5417  134.0660  159.8172 H   0  0  0  0  0  0  0  0  0  0  0  0  # atno 6907 bound_to 6896
  151.0781  133.5404  159.2630 H   0  0  0  0  0  0  0  0  0  0  0  0  # atno 6908 bound_to 6896
  151.2242  135.0538  159.9016 H   0  0  0  0  0  0  0  0  0  0  0  0  # atno 6909 bound_to 6896
  144.8128  139.6853  143.6134 H   0  0  0  0  0  0  0  0  0  0  0  0  # atno 7974 bound_to 7965
  154.4007  140.1511  156.3116 H   0  0  0  0  0  0  0  0  0  0  0  0  # atno 8008 bound_to 7997
  155.8610  140.3453  155.5735 H   0  0  0  0  0  0  0  0  0  0  0  0  # atno 8009 bound_to 7997
  155.7880  140.0852  157.2014 H   0  0  0  0  0  0  0  0  0  0  0  0  # atno 8010 bound_to 7997
  139.7579  144.6964  151.0336 H   0  0  0  0  0  0  0  0  0  0  0  0  # atno 10167 bound_to 10162
  157.6930  131.0570  150.4456 H   0  0  0  0  0  0  0  0  0  0  0  0  # atno 10718 bound_to 10713
  152.9797  135.5964  154.3822 H   0  0  0  0  0  0  0  0  0  0  0  0  # atno 10763 bound_to 10752
  154.3485  135.2767  155.2386 H   0  0  0  0  0  0  0  0  0  0  0  0  # atno 10764 bound_to 10752
  154.4436  135.6007  153.6200 H   0  0  0  0  0  0  0  0  0  0  0  0  # atno 10765 bound_to 10752
  140.5399  134.5533  157.5097 H   0  0  0  0  0  0  0  0  0  0  0  0  # atno 11005 bound_to 11000
  146.2429  139.6038  142.9479 LP  0  0  0  0  0  0  0  0  0  0  0  0  # atno 17320 bound_to 7965
  145.5283  141.0428  143.2397 LP  0  0  0  0  0  0  0  0  0  0  0  0  # atno 17321 bound_to 7965
  140.7804  143.4731  151.0118 LP  0  0  0  0  0  0  0  0  0  0  0  0  # atno 17342 bound_to 10162
  139.8418  143.7553  152.3180 LP  0  0  0  0  0  0  0  0  0  0  0  0  # atno 17343 bound_to 10162
  156.4811  130.4074  149.6461 LP  0  0  0  0  0  0  0  0  0  0  0  0  # atno 17370 bound_to 10713
  156.3506  130.7430  151.2388 LP  0  0  0  0  0  0  0  0  0  0  0  0  # atno 17371 bound_to 10713
  139.9510  134.7618  156.0450 LP  0  0  0  0  0  0  0  0  0  0  0  0  # atno 17394 bound_to 11000
  141.1233  133.6606  156.3272 LP  0  0  0  0  0  0  0  0  0  0  0  0  # atno 17395 bound_to 11000

$$$$
