AV-unprocessed.smi:1313|AV-procd|sdf|5451|dock3
  -GOLD-   22720 5 23D 1   1.00000     0.00000
 Structure written by MMmdl.
 37 38  0  0  0  0  0  0  0  0  1 V2000
  146.1927  138.0444  152.6777 C   0  0  0  0  0  0  0  0  0  0  0  0
  147.1154  139.0945  153.2571 C   0  0  0  0  0  0  0  0  0  0  0  0
  146.5165  140.3329  153.4171 N   0  0  0  0  0  0  0  0  0  0  0  0
  147.2832  141.3607  153.9374 C   0  0  0  0  0  0  0  0  0  0  0  0
  146.5506  142.6841  154.0765 C   0  0  0  0  0  0  0  0  0  0  0  0
  148.5806  141.1629  154.2849 C   0  0  0  0  0  0  0  0  0  0  0  0
  149.4592  142.2707  154.8627 C   0  0  0  0  0  0  0  0  0  0  0  0
  149.9926  142.0088  156.2723 C   0  0  0  0  0  0  0  0  0  0  0  0
  149.9786  140.8677  156.7331 O   0  0  0  0  0  0  0  0  0  0  0  0
  150.4503  143.0735  156.9485 N   0  0  0  0  0  0  0  0  0  0  0  0
  150.9673  143.0445  158.3140 C   0  0  0  0  0  0  0  0  0  0  0  0
  150.1292  143.9523  159.2349 C   0  0  0  0  0  0  0  0  0  0  0  0
  151.1301  144.8139  160.0069 C   0  0  0  0  0  0  0  0  0  0  0  0
  152.3217  144.9451  159.0639 C   0  0  0  0  0  0  0  0  0  0  0  0
  152.4119  143.5787  158.3845 C   0  0  0  0  0  0  0  0  0  0  0  0
  149.1635  139.8129  154.0982 C   0  0  0  0  0  0  0  0  0  0  0  0
  150.3283  139.5652  154.4069 O   0  0  0  0  0  0  0  0  0  0  0  0
  148.3448  138.8071  153.5591 N   0  0  0  0  0  0  0  0  0  0  0  0
  145.5552  140.5226  153.1734 H   0  0  0  0  0  0  0  0  0  0  0  0
  146.7118  137.0928  152.5567 H   0  0  0  0  0  0  0  0  0  0  0  0
  145.8249  138.3583  151.7004 H   0  0  0  0  0  0  0  0  0  0  0  0
  145.3381  137.8850  153.3358 H   0  0  0  0  0  0  0  0  0  0  0  0
  147.0417  143.4570  153.4854 H   0  0  0  0  0  0  0  0  0  0  0  0
  146.5335  143.0033  155.1186 H   0  0  0  0  0  0  0  0  0  0  0  0
  145.5176  142.6089  153.7349 H   0  0  0  0  0  0  0  0  0  0  0  0
  148.8880  143.1998  154.8609 H   0  0  0  0  0  0  0  0  0  0  0  0
  150.3085  142.4718  154.2092 H   0  0  0  0  0  0  0  0  0  0  0  0
  150.4260  143.9726  156.4897 H   0  0  0  0  0  0  0  0  0  0  0  0
  150.9394  142.0210  158.6928 H   0  0  0  0  0  0  0  0  0  0  0  0
  149.4800  144.6039  158.6478 H   0  0  0  0  0  0  0  0  0  0  0  0
  149.4868  143.3785  159.9036 H   0  0  0  0  0  0  0  0  0  0  0  0
  150.7160  145.7795  160.2988 H   0  0  0  0  0  0  0  0  0  0  0  0
  151.4379  144.2953  160.9157 H   0  0  0  0  0  0  0  0  0  0  0  0
  152.1168  145.7142  158.3181 H   0  0  0  0  0  0  0  0  0  0  0  0
  153.2414  145.2183  159.5820 H   0  0  0  0  0  0  0  0  0  0  0  0
  153.0104  142.9092  159.0037 H   0  0  0  0  0  0  0  0  0  0  0  0
  152.9038  143.6377  157.4127 H   0  0  0  0  0  0  0  0  0  0  0  0
  1 20  1  0  0  0  0
  1 21  1  0  0  0  0
  1 22  1  0  0  0  0
  1  2  1  0  0  0  0
  2  3  1  0  0  0  0
  2 18  2  0  0  0  0
  3  4  1  0  0  0  0
  3 19  1  0  0  0  0
  4  6  2  0  0  0  0
  4  5  1  0  0  0  0
  5 23  1  0  0  0  0
  5 24  1  0  0  0  0
  5 25  1  0  0  0  0
  6 16  1  0  0  0  0
  6  7  1  0  0  0  0
  7  8  1  0  0  0  0
  7 26  1  0  0  0  0
  7 27  1  0  0  0  0
  8  9  2  0  0  0  0
  8 10  1  0  0  0  0
 10 11  1  0  0  0  0
 10 28  1  0  0  0  0
 11 15  1  0  0  0  0
 11 12  1  0  0  0  0
 11 29  1  0  0  0  0
 12 13  1  0  0  0  0
 12 30  1  0  0  0  0
 12 31  1  0  0  0  0
 13 14  1  0  0  0  0
 13 32  1  0  0  0  0
 13 33  1  0  0  0  0
 14 15  1  0  0  0  0
 14 34  1  0  0  0  0
 14 35  1  0  0  0  0
 15 36  1  0  0  0  0
 15 37  1  0  0  0  0
 16 17  2  0  0  0  0
 16 18  1  0  0  0  0
M  END
> <s_m_source_file>
AV-unprocessed.smi

> <i_m_source_file_index>
1313

> <i_lp_mmshare_version>
43012

> <i_f3d_flags>
0

> <s_epik_input>
W0NIM11jMW5jKFtDSDNdKWMoYyg9TylbbkhdMSlbQ0gyXUMoPU8pW05IXVtDSF0yW0NIMl1bQ0gyXVtDSDJdW0NIMl0y

> <s_epik_cmdline>
J2VwaWtfcHl0aG9uJywgJy1waCcsICc3LjAnLCAnLXRuJywgJzgnLCAnLW1hJywgJzIwMCcsICctbWV0YWxfYmluZGluZycsICctaW1hZScsICc8aW5maWxlLm1hZT4nLCAnLW9tYWUnLCAnPG91dGZpbGUubWFlPic=

> <r_lp_tautomer_probability>
0.156392

> <r_epik_Ionization_Penalty>
0.0140409

> <r_epik_Ionization_Penalty_Charging>
0.0139177

> <r_epik_Ionization_Penalty_Neutral>
0.000123229

> <r_epik_State_Penalty>
1.53066

> <r_epik_Charging_Adjusted_Penalty>
1.54458

> <i_epik_Tot_Q>
0

> <i_epik_Tot_abs_Q>
0

> <r_epik_Metal_State_Penalty>
1.70649

> <b_epik_Metal_Only>
0

> <s_lp_Force_Field>
OPLS_2005

> <r_lp_Energy>
23.2441

> <b_lp_Chiralities_Consistent>
1

> <s_lp_Variant>
AV-unprocessed.smi:1313-2

> <Gold.Version>
5.8.1

> <Gold.Id.Protein>
6NUR|6NUR_protein|mol2

> <Gold.PLP.Fitness>
41.5699

> <Gold.PLP.PLP>
-34.3572

> <Gold.PLP.part.hbond>
-3.0000

> <Gold.PLP.part.metal>
0.0000

> <Gold.PLP.part.buried>
1.5008

> <Gold.PLP.part.nonpolar>
-34.6583

> <Gold.PLP.part.repulsive>
1.5872

> <Gold.PLP.ligand.clash>
0.0000

> <Gold.PLP.ligand.torsion>
0.2351

> <Gold.PLP.Chemscore.Hbond>
2.5600

> <Gold.PLP.Chemscore.CHOScore>
0.0000

> <Gold.PLP.Chemscore.Metal>
0.0000

> <Gold.Chemscore.Hbonds>
donor molecule, donor type, donor heavy atom, donor atom, acceptor molecule, acceptor atom, score
      L1  H     3    19       P1 10175  1.00
      L1  H    10    28       P1  8028  0.51
      P1  H  7989  7998       L1    17  0.94

> <Gold.PLP.Chemscore.Internal.Correction>
0.0028

> <Gold.Rescore>
     Score         DG    S(hbond)    S(metal)    S(lipo)     H(rot)  DE(clash)    DE(int)     intcor
     15.07     -20.17       2.50        0.00      87.29       1.51       2.41       2.69       ----

> <Gold.Chemscore.Fitness>
15.0690

> <Gold.Chemscore.DG>
-20.1737

> <Gold.Chemscore.ZeroCoef>
-5.4800

> <Gold.Chemscore.Hbond>
2.5009

> <Gold.Chemscore.Metal>
0.0000

> <Gold.Chemscore.Lipo>
87.2949

> <Gold.Chemscore.Internal_Hbond>
0.0000

> <Gold.Chemscore.DEClash>
2.4118

> <Gold.Chemscore.DEInternal>
2.6929

> <Gold.Chemscore.Rot>
1.5128

> <Gold.Chemscore.Internal.Correction>
   9.000000E+99

> <Gold.Chemscore.Hbonds>
donor molecule, donor type, donor heavy atom, donor atom, acceptor molecule, acceptor atom, score
      L1  H     3    19       P1 10175  0.88
      L1  H    10    28       P1  8028  0.52
      P1  H  7989  7998       L1    17  0.70

> <Gold.Chemscore.Hbond.Weighted>
-8.3529

> <Gold.Chemscore.Metal.Weighted>
-0.0000

> <Gold.Chemscore.Lipo.Weighted>
-10.2135

> <Gold.Chemscore.Internal_Hbond.Weighted>
0.0000

> <Gold.Chemscore.DEClash.Weighted>
2.4118

> <Gold.Chemscore.DEInternal.Weighted>
2.6929

> <Gold.Chemscore.Rot.Weighted>
3.8727

> <Gold.Chemscore.Internal.Correction.Weighted>
   9.000000E+99

> <Gold.Protein.RotatedTorsions>
[ 6907 6896 6895 6894 ] final   48.96 input  -60.11 | X-H torsion
[ 7974 7965 7964 7962 ] final  161.68 input  175.53 | X-H torsion
[ 8008 7997 7996 7995 ] final -164.10 input   59.86 | X-H torsion
[ 10167 10162 10161 10158 ] final   78.99 input  -65.29 | X-H torsion
[ 10718 10713 10712 10709 ] final   -8.56 input   66.30 | X-H torsion
[ 10763 10752 10751 10750 ] final  -25.78 input  -60.55 | X-H torsion
[ 11005 11000 10999 10996 ] final  176.87 input  -57.11 | X-H torsion

> <Gold.Protein.ActiveResidues>
 VAL166  LYS551  ARG553  GLY616  TRP617  ASP618  TYR619  PRO620  LYS621  CYS622 
 ASP623  PHE694  ASN695  SER759  ASP760  ASP761  ALA762  ILE779  LEU786  VAL792 
 PHE793  MET794  SER795  GLU796  ALA797  LYS798  CYS799  TRP800  GLU811  SER814 

> <Gold.Protein.RotatedAtoms>
  152.2854  134.7782  160.0388 H   0  0  0  0  0  0  0  0  0  0  0  0  # atno 6907 bound_to 6896
  151.8346  133.3409  159.3632 H   0  0  0  0  0  0  0  0  0  0  0  0  # atno 6908 bound_to 6896
  150.7207  134.5378  159.5776 H   0  0  0  0  0  0  0  0  0  0  0  0  # atno 6909 bound_to 6896
  144.7674  139.7932  143.6310 H   0  0  0  0  0  0  0  0  0  0  0  0  # atno 7974 bound_to 7965
  155.8308  140.0933  157.1794 H   0  0  0  0  0  0  0  0  0  0  0  0  # atno 8008 bound_to 7997
  154.3980  140.1419  156.3672 H   0  0  0  0  0  0  0  0  0  0  0  0  # atno 8009 bound_to 7997
  155.8168  140.3448  155.5493 H   0  0  0  0  0  0  0  0  0  0  0  0  # atno 8010 bound_to 7997
  139.9651  144.5934  150.8037 H   0  0  0  0  0  0  0  0  0  0  0  0  # atno 10167 bound_to 10162
  156.7008  130.5092  149.5918 H   0  0  0  0  0  0  0  0  0  0  0  0  # atno 10718 bound_to 10713
  153.7054  135.6954  153.5052 H   0  0  0  0  0  0  0  0  0  0  0  0  # atno 10763 bound_to 10752
  153.2312  135.4337  155.0596 H   0  0  0  0  0  0  0  0  0  0  0  0  # atno 10764 bound_to 10752
  154.8331  135.3484  154.6592 H   0  0  0  0  0  0  0  0  0  0  0  0  # atno 10765 bound_to 10752
  140.3778  134.6973  157.4432 H   0  0  0  0  0  0  0  0  0  0  0  0  # atno 11005 bound_to 11000
  146.1792  139.4977  142.9877 LP  0  0  0  0  0  0  0  0  0  0  0  0  # atno 17320 bound_to 7965
  145.6429  141.0280  143.1802 LP  0  0  0  0  0  0  0  0  0  0  0  0  # atno 17321 bound_to 7965
  140.7540  143.3020  151.3057 LP  0  0  0  0  0  0  0  0  0  0  0  0  # atno 17342 bound_to 10162
  139.6524  144.0338  152.2636 LP  0  0  0  0  0  0  0  0  0  0  0  0  # atno 17343 bound_to 10162
  156.1730  130.6449  151.0861 LP  0  0  0  0  0  0  0  0  0  0  0  0  # atno 17370 bound_to 10713
  157.6974  131.0789  150.6927 LP  0  0  0  0  0  0  0  0  0  0  0  0  # atno 17371 bound_to 10713
  140.0502  134.6142  155.8871 LP  0  0  0  0  0  0  0  0  0  0  0  0  # atno 17394 bound_to 11000
  141.1933  133.6578  156.5544 LP  0  0  0  0  0  0  0  0  0  0  0  0  # atno 17395 bound_to 11000

$$$$
