AV-unprocessed.smi:1670|AV-procd|sdf|6696|dock10
  -GOLD-   22720 7433D 1   1.00000     0.00000
 Structure written by MMmdl.
 41 42  0  0  0  0  0  0  0  0  1 V2000
  149.3364  128.2889  154.0073 C   0  0  0  0  0  0  0  0  0  0  0  0
  149.0309  129.7648  154.2968 C   0  0  1  0  0  0  0  0  0  0  0  0
  150.3119  130.5416  154.6681 C   0  0  0  0  0  0  0  0  0  0  0  0
  150.0546  131.9440  154.9472 N   0  0  0  0  0  0  0  0  0  0  0  0
  150.3528  132.6592  156.0878 C   0  0  0  0  0  0  0  0  0  0  0  0
  149.9058  133.9349  155.8959 C   0  0  0  0  0  0  0  0  0  0  0  0
  149.3435  133.9029  154.5892 C   0  0  0  0  0  0  0  0  0  0  0  0
  149.4377  132.7113  154.0221 N   0  0  0  0  0  0  0  0  0  0  0  0
  148.3849  130.3567  153.1258 N   0  0  0  0  0  0  0  0  0  0  0  0
  147.2248  131.0298  153.1323 C   0  0  0  0  0  0  0  0  0  0  0  0
  146.5302  131.2030  154.1341 O   0  0  0  0  0  0  0  0  0  0  0  0
  146.9208  131.5051  151.9168 N   0  0  0  0  0  0  0  0  0  0  0  0
  145.7441  132.3081  151.5988 C   0  0  2  0  0  0  0  0  0  0  0  0
  144.7374  131.4896  150.7662 C   0  0  0  0  0  0  0  0  0  0  0  0
  143.5164  132.3362  150.3660 C   0  0  0  0  0  0  0  0  0  0  0  0
  143.9162  133.6362  149.6422 C   0  0  2  0  0  0  0  0  0  0  0  0
  144.4203  133.3399  148.3547 O   0  0  0  0  0  0  0  0  0  0  0  0
  144.9594  134.4355  150.4459 C   0  0  0  0  0  0  0  0  0  0  0  0
  146.1739  133.5770  150.8409 C   0  0  0  0  0  0  0  0  0  0  0  0
  149.7936  127.8064  154.8718 H   0  0  0  0  0  0  0  0  0  0  0  0
  150.0218  128.1818  153.1658 H   0  0  0  0  0  0  0  0  0  0  0  0
  148.4257  127.7385  153.7681 H   0  0  0  0  0  0  0  0  0  0  0  0
  148.3496  129.7905  155.1494 H   0  0  0  0  0  0  0  0  0  0  0  0
  150.7676  130.1054  155.5578 H   0  0  0  0  0  0  0  0  0  0  0  0
  151.0530  130.4632  153.8705 H   0  0  0  0  0  0  0  0  0  0  0  0
  150.8462  132.2035  156.9336 H   0  0  0  0  0  0  0  0  0  0  0  0
  149.9683  134.7638  156.5850 H   0  0  0  0  0  0  0  0  0  0  0  0
  148.8732  134.7046  154.0396 H   0  0  0  0  0  0  0  0  0  0  0  0
  148.8773  130.2743  152.2487 H   0  0  0  0  0  0  0  0  0  0  0  0
  147.5574  131.3120  151.1575 H   0  0  0  0  0  0  0  0  0  0  0  0
  145.2632  132.6186  152.5286 H   0  0  0  0  0  0  0  0  0  0  0  0
  145.2252  131.1059  149.8691 H   0  0  0  0  0  0  0  0  0  0  0  0
  144.4042  130.6177  151.3303 H   0  0  0  0  0  0  0  0  0  0  0  0
  142.8405  131.7483  149.7440 H   0  0  0  0  0  0  0  0  0  0  0  0
  142.9552  132.5901  151.2662 H   0  0  0  0  0  0  0  0  0  0  0  0
  143.0282  134.2530  149.5003 H   0  0  0  0  0  0  0  0  0  0  0  0
  145.1194  133.9450  148.1590 H   0  0  0  0  0  0  0  0  0  0  0  0
  145.2857  135.3088  149.8799 H   0  0  0  0  0  0  0  0  0  0  0  0
  144.4901  134.8201  151.3523 H   0  0  0  0  0  0  0  0  0  0  0  0
  146.8527  134.1677  151.4571 H   0  0  0  0  0  0  0  0  0  0  0  0
  146.7327  133.3026  149.9447 H   0  0  0  0  0  0  0  0  0  0  0  0
  1  2  1  0  0  0  0
  1 20  1  0  0  0  0
  1 21  1  0  0  0  0
  1 22  1  0  0  0  0
  2  3  1  0  0  0  0
  2  9  1  0  0  0  0
  2 23  1  0  0  0  0
  3  4  1  0  0  0  0
  3 24  1  0  0  0  0
  3 25  1  0  0  0  0
  4  8  1  0  0  0  0
  4  5  1  0  0  0  0
  5  6  2  0  0  0  0
  5 26  1  0  0  0  0
  6  7  1  0  0  0  0
  6 27  1  0  0  0  0
  7  8  2  0  0  0  0
  7 28  1  0  0  0  0
  9 10  1  0  0  0  0
  9 29  1  0  0  0  0
 10 11  2  0  0  0  0
 10 12  1  0  0  0  0
 12 13  1  0  0  0  0
 12 30  1  0  0  0  0
 13 19  1  0  0  0  0
 13 14  1  0  0  0  0
 13 31  1  0  0  0  0
 14 15  1  0  0  0  0
 14 32  1  0  0  0  0
 14 33  1  0  0  0  0
 15 16  1  0  0  0  0
 15 34  1  0  0  0  0
 15 35  1  0  0  0  0
 16 17  1  0  0  0  0
 16 18  1  0  0  0  0
 16 36  1  0  0  0  0
 17 37  1  0  0  0  0
 18 19  1  0  0  0  0
 18 38  1  0  0  0  0
 18 39  1  0  0  0  0
 19 40  1  0  0  0  0
 19 41  1  0  0  0  0
M  END
> <s_m_source_file>
AV-unprocessed.smi

> <i_m_source_file_index>
1670

> <i_lp_mmshare_version>
43012

> <i_f3d_flags>
0

> <s_epik_input>
bjFbY0hdW2NIXVtjSF1uMVtDSDJdW0NAQEhdKFtDSDNdKVtOSF1DKD1PKVtOSF1bQ0BASF0yW0NIMl1bQ0gyXVtDQEBIXShbT0hdKVtDSDJdW0NIMl0y

> <s_epik_cmdline>
J2VwaWtfcHl0aG9uJywgJy1waCcsICc3LjAnLCAnLXRuJywgJzgnLCAnLW1hJywgJzIwMCcsICctbWV0YWxfYmluZGluZycsICctaW1hZScsICc8aW5maWxlLm1hZT4nLCAnLW9tYWUnLCAnPG91dGZpbGUubWFlPic=

> <r_lp_tautomer_probability>
1

> <r_epik_Ionization_Penalty>
7.33369e-05

> <r_epik_Ionization_Penalty_Charging>
0

> <r_epik_Ionization_Penalty_Neutral>
7.33369e-05

> <r_epik_State_Penalty>
-0

> <r_epik_Charging_Adjusted_Penalty>
0

> <i_epik_Tot_Q>
0

> <i_epik_Tot_abs_Q>
0

> <r_epik_Metal_State_Penalty>
-0

> <b_epik_Metal_Only>
0

> <s_lp_Force_Field>
OPLS_2005

> <r_lp_Energy>
7.95732

> <b_lp_Chiralities_Consistent>
1

> <s_lp_Variant>
AV-unprocessed.smi:1670-4

> <Gold.Version>
5.8.1

> <Gold.Id.Protein>
6NUR|6NUR_protein|mol2

> <Gold.PLP.Fitness>
45.8027

> <Gold.PLP.PLP>
-34.2302

> <Gold.PLP.part.hbond>
-3.8227

> <Gold.PLP.part.metal>
0.0000

> <Gold.PLP.part.buried>
-2.5443

> <Gold.PLP.part.nonpolar>
-28.1980

> <Gold.PLP.part.repulsive>
0.2934

> <Gold.PLP.ligand.clash>
0.0000

> <Gold.PLP.ligand.torsion>
0.1848

> <Gold.PLP.Chemscore.Hbond>
2.9760

> <Gold.PLP.Chemscore.CHOScore>
1.0000

> <Gold.PLP.Chemscore.Metal>
0.0000

> <Gold.Chemscore.Hbonds>
donor molecule, donor type, donor heavy atom, donor atom, acceptor molecule, acceptor atom, score
      L1  H     9    29       P1 10747  0.96
      L1  H    12    30       P1 10747  1.00
      L1  H    17    37       P1  7921  0.71
      L1  C     7    28       P1  7948  0.76

> <Gold.PLP.Chemscore.Internal.Correction>
0.0141

> <Gold.Rescore>
     Score         DG    S(hbond)    S(metal)    S(lipo)     H(rot)  DE(clash)    DE(int)     intcor
     14.17     -15.68       1.91        0.00      81.20       2.22       0.23       1.29       ----

> <Gold.Chemscore.Fitness>
14.1663

> <Gold.Chemscore.DG>
-15.6832

> <Gold.Chemscore.ZeroCoef>
-5.4800

> <Gold.Chemscore.Hbond>
1.9137

> <Gold.Chemscore.Metal>
0.0000

> <Gold.Chemscore.Lipo>
81.2017

> <Gold.Chemscore.Internal_Hbond>
0.0000

> <Gold.Chemscore.DEClash>
0.2264

> <Gold.Chemscore.DEInternal>
1.2905

> <Gold.Chemscore.Rot>
2.2224

> <Gold.Chemscore.Internal.Correction>
   9.000000E+99

> <Gold.Chemscore.Hbonds>
donor molecule, donor type, donor heavy atom, donor atom, acceptor molecule, acceptor atom, score
      L1  H     9    29       P1 10747  0.22
      L1  H    12    30       P1 10747  1.00
      L1  H    17    37       P1  7921  0.68

> <Gold.Chemscore.Hbond.Weighted>
-6.3919

> <Gold.Chemscore.Metal.Weighted>
-0.0000

> <Gold.Chemscore.Lipo.Weighted>
-9.5006

> <Gold.Chemscore.Internal_Hbond.Weighted>
0.0000

> <Gold.Chemscore.DEClash.Weighted>
0.2264

> <Gold.Chemscore.DEInternal.Weighted>
1.2905

> <Gold.Chemscore.Rot.Weighted>
5.6893

> <Gold.Chemscore.Internal.Correction.Weighted>
   9.000000E+99

> <Gold.Protein.RotatedTorsions>
[ 6907 6896 6895 6894 ] final -178.17 input  -60.11 | X-H torsion
[ 7974 7965 7964 7962 ] final  139.05 input  175.53 | X-H torsion
[ 8008 7997 7996 7995 ] final   -7.49 input   59.86 | X-H torsion
[ 10167 10162 10161 10158 ] final -167.56 input  -65.29 | X-H torsion
[ 10718 10713 10712 10709 ] final   78.87 input   66.30 | X-H torsion
[ 10763 10752 10751 10750 ] final   -2.76 input  -60.55 | X-H torsion
[ 11005 11000 10999 10996 ] final -138.31 input  -57.11 | X-H torsion

> <Gold.Protein.ActiveResidues>
 VAL166  LYS551  ARG553  GLY616  TRP617  ASP618  TYR619  PRO620  LYS621  CYS622 
 ASP623  PHE694  ASN695  SER759  ASP760  ASP761  ALA762  ILE779  LEU786  VAL792 
 PHE793  MET794  SER795  GLU796  ALA797  LYS798  CYS799  TRP800  GLU811  SER814 

> <Gold.Protein.RotatedAtoms>
  151.6328  133.3331  159.3112 H   0  0  0  0  0  0  0  0  0  0  0  0  # atno 6907 bound_to 6896
  150.8047  134.7169  159.6645 H   0  0  0  0  0  0  0  0  0  0  0  0  # atno 6908 bound_to 6896
  152.4142  134.6075  160.0068 H   0  0  0  0  0  0  0  0  0  0  0  0  # atno 6909 bound_to 6896
  144.9315  139.5041  143.5615 H   0  0  0  0  0  0  0  0  0  0  0  0  # atno 7974 bound_to 7965
  154.5833  140.2405  155.8023 H   0  0  0  0  0  0  0  0  0  0  0  0  # atno 8008 bound_to 7997
  156.2195  140.3002  155.9874 H   0  0  0  0  0  0  0  0  0  0  0  0  # atno 8009 bound_to 7997
  155.2503  140.0410  157.2976 H   0  0  0  0  0  0  0  0  0  0  0  0  # atno 8010 bound_to 7997
  139.6041  144.0949  152.1774 H   0  0  0  0  0  0  0  0  0  0  0  0  # atno 10167 bound_to 10162
  157.6759  130.9888  150.1850 H   0  0  0  0  0  0  0  0  0  0  0  0  # atno 10718 bound_to 10713
  153.3623  135.6991  153.6703 H   0  0  0  0  0  0  0  0  0  0  0  0  # atno 10763 bound_to 10752
  153.5386  135.3577  155.2709 H   0  0  0  0  0  0  0  0  0  0  0  0  # atno 10764 bound_to 10752
  154.8670  135.4198  154.2882 H   0  0  0  0  0  0  0  0  0  0  0  0  # atno 10765 bound_to 10752
  140.8628  134.2148  157.4697 H   0  0  0  0  0  0  0  0  0  0  0  0  # atno 11005 bound_to 11000
  146.3249  139.8269  142.8916 LP  0  0  0  0  0  0  0  0  0  0  0  0  # atno 17320 bound_to 7965
  145.3134  141.0226  143.3541 LP  0  0  0  0  0  0  0  0  0  0  0  0  # atno 17321 bound_to 7965
  140.0552  144.5900  150.7305 LP  0  0  0  0  0  0  0  0  0  0  0  0  # atno 17342 bound_to 10162
  140.7272  143.2649  151.4080 LP  0  0  0  0  0  0  0  0  0  0  0  0  # atno 17343 bound_to 10162
  156.2574  130.3707  149.8167 LP  0  0  0  0  0  0  0  0  0  0  0  0  # atno 17370 bound_to 10713
  156.5922  130.8511  151.3411 LP  0  0  0  0  0  0  0  0  0  0  0  0  # atno 17371 bound_to 10713
  139.8708  134.9737  156.4820 LP  0  0  0  0  0  0  0  0  0  0  0  0  # atno 17394 bound_to 11000
  140.8664  133.8021  155.9318 LP  0  0  0  0  0  0  0  0  0  0  0  0  # atno 17395 bound_to 11000

$$$$
