#       Name:                AV-unprocessed.smi:110
#       Creating user name   scv26
#       Creation time:       Thu Mar 26 18:16:19 2020


#       File generated by GOLD software.
#

@<TRIPOS>MOLECULE
AV-unprocessed.smi:110
    57    61     1
SMALL
NO_CHARGES


@<TRIPOS>ATOM
      1 ****        -5.9796  -0.5694  -2.7677 O.3            1 S1                 0.0000
      2 ****        -5.1283  -1.4600  -2.0771 C.3            1 S1                 0.0000
      3 ****        -3.6445  -1.0809  -2.2314 C.3            1 S1                 0.0000
      4 ****        -3.3342   0.0713  -1.4589 O.3            1 S1                 0.0000
      5 ****        -2.1666   0.6630  -1.9517 C.3            1 S1                 0.0000
      6 ****        -1.0765   0.4542  -0.9464 N.pl3          1 S1                 0.0000
      7 ****        -0.9722  -0.4997   0.0424 C.2            1 S1                 0.0000
      8 ****         0.1081  -0.4266   0.7719 N.2            1 S1                 0.0000
      9 ****         0.7991   0.6645   0.2565 C.ar           1 S1                 0.0000
     10 ****         2.0341   1.3048   0.5624 C.ar           1 S1                 0.0000
     11 ****         2.8725   0.9263   1.5555 N.pl3          1 S1                 0.0000
     12 ****         4.2999   0.7330   1.2632 C.3            1 S1                 0.0000
     13 ****         4.8979  -0.1095   2.4059 C.3            1 S1                 0.0000
     14 ****         3.7285  -0.2050   3.3319 C.ar           1 S1                 0.0000
     15 ****         3.6958  -0.8027   4.6038 C.ar           1 S1                 0.0000
     16 ****         2.4848  -0.7607   5.3273 C.ar           1 S1                 0.0000
     17 ****         1.3471  -0.1229   4.7801 C.ar           1 S1                 0.0000
     18 ****         1.4043   0.4733   3.5011 C.ar           1 S1                 0.0000
     19 ****         2.6111   0.4083   2.7742 C.ar           1 S1                 0.0000
     20 ****         2.4187   2.3376  -0.2306 N.ar           1 S1                 0.0000
     21 ****         1.6317   2.7493  -1.2287 C.ar           1 S1                 0.0000
     22 ****         0.4468   2.2681  -1.6097 N.ar           1 S1                 0.0000
     23 ****         0.0681   1.2111  -0.8355 C.ar           1 S1                 0.0000
     24 ****        -1.8466   0.0078  -3.3191 C.3            1 S1                 0.0000
     25 ****        -0.7393  -0.8816  -3.2793 O.3            1 S1                 0.0000
     26 ****        -3.1568  -0.7088  -3.6325 C.3            1 S1                 0.0000
     27 ****        -3.0061  -1.8264  -4.4880 O.3            1 S1                 0.0000
     28 ****        -3.0351  -1.8991  -1.8426 H              1 S1                 0.0000
     29 ****        -2.2961   1.7449  -2.0043 H              1 S1                 0.0000
     30 ****        -1.6333   0.7854  -4.0531 H              1 S1                 0.0000
     31 ****        -3.8398   0.0028  -4.0978 H              1 S1                 0.0000
     32 ****        -6.8743  -0.8402  -2.6286 H              1 S1                 0.0000
     33 ****        -5.4076  -1.4916  -1.0237 H              1 S1                 0.0000
     34 ****        -5.2952  -2.4589  -2.4807 H              1 S1                 0.0000
     35 ****        -1.7230  -1.2579   0.2093 H              1 S1                 0.0000
     36 ****         4.4371   0.2398   0.3000 H              1 S1                 0.0000
     37 ****         4.7889   1.7066   1.2126 H              1 S1                 0.0000
     38 ****         5.1958  -1.1026   2.0684 H              1 S1                 0.0000
     39 ****         5.7456   0.3819   2.8841 H              1 S1                 0.0000
     40 ****         4.5733  -1.2769   5.0181 H              1 S1                 0.0000
     41 ****         2.4291  -1.2107   6.3076 H              1 S1                 0.0000
     42 ****         0.4282  -0.0872   5.3463 H              1 S1                 0.0000
     43 ****         0.5358   0.9722   3.0972 H              1 S1                 0.0000
     44 ****         2.0053   3.5833  -1.8042 H              1 S1                 0.0000
     45 ****         0.0222  -0.3971  -2.9990 H              1 S1                 0.0000
     46 ****        -3.8567  -2.2132  -4.6282 H              1 S1                 0.0000
     47 ****        -5.7688  -0.5911  -3.7450 LP             1 S1                 0.0000
     48 ****        -5.8503   0.3590  -2.4194 LP             1 S1                 0.0000
     49 ****        -3.1960  -0.1944  -0.5048 LP             1 S1                 0.0000
     50 ****        -4.0890   0.7247  -1.5170 LP             1 S1                 0.0000
     51 ****         0.3777  -1.0208   1.5297 LP             1 S1                 0.0000
     52 ****         3.2944   2.7919  -0.0670 LP             1 S1                 0.0000
     53 ****        -0.0942   2.6355  -2.3662 LP             1 S1                 0.0000
     54 ****        -0.5802  -1.2639  -4.1895 LP             1 S1                 0.0000
     55 ****        -0.9244  -1.6228  -2.6341 LP             1 S1                 0.0000
     56 ****        -2.3966  -2.4962  -4.0639 LP             1 S1                 0.0000
     57 ****        -2.6209  -1.5322  -5.3627 LP             1 S1                 0.0000
@<TRIPOS>BOND
    1    1    2 1     
    2    1   32 1     
    3    2    3 1     
    4    2   33 1     
    5    2   34 1     
    6    3   28 1     
    7    3   26 1     
    8    3    4 1     
    9    4    5 1     
   10    5   29 1     
   11    5    6 1     
   12    5   24 1     
   13    6   23 1     
   14    6    7 1     
   15    7    8 2     
   16    7   35 1     
   17    8    9 1     
   18    9   23 ar    
   19    9   10 ar    
   20   10   11 1     
   21   10   20 ar    
   22   11   19 1     
   23   11   12 1     
   24   12   13 1     
   25   12   36 1     
   26   12   37 1     
   27   13   14 1     
   28   13   38 1     
   29   13   39 1     
   30   14   19 ar    
   31   14   15 ar    
   32   15   16 ar    
   33   15   40 1     
   34   16   17 ar    
   35   16   41 1     
   36   17   18 ar    
   37   17   42 1     
   38   18   19 ar    
   39   18   43 1     
   40   20   21 ar    
   41   21   22 ar    
   42   21   44 1     
   43   22   23 ar    
   44   24   30 1     
   45   24   25 1     
   46   24   26 1     
   47   25   45 1     
   48   26   31 1     
   49   26   27 1     
   50   27   46 1     
   51    1   47 1     
   52    1   48 1     
   53    4   49 1     
   54    4   50 1     
   55    8   51 1     
   56   20   52 1     
   57   22   53 1     
   58   25   54 1     
   59   25   55 1     
   60   27   56 1     
   61   27   57 1     
@<TRIPOS>SUBSTRUCTURE
      1 S1             1
@<TRIPOS>SET
LONE_PAIRS      STATIC     ATOMS    <user>   **** ""
11 47 48 49 50 51 52 53 54 55 56 57
DONOR_HYDROGENS      STATIC     ATOMS    <user>   **** ""
3 32 45 46
ATOM$BLUE        STATIC     ATOMS    COLORGROUP SYSTEM
11 47 48 49 50 51 52 53 54 55 56 57
ATOM$RED        STATIC     ATOMS    COLORGROUP SYSTEM
3 32 45 46
