AV-unprocessed.smi:1954|AV-procd|sdf|7896|dock3
  -GOLD-   2272010 53D 1   1.00000     0.00000
 Structure written by MMmdl.
 45 47  0  0  0  0  0  0  0  0  2 V2000
  144.8023  136.8256  152.3460 O   0  0  0  0  0  0  0  0  0  0  0  0
  146.0034  136.5776  152.2406 C   0  0  0  0  0  0  0  0  0  0  0  0
  146.9699  137.4290  152.6132 N   0  0  0  0  0  0  0  0  0  0  0  0
  146.7571  138.7628  153.1760 C   0  0  0  0  0  0  0  0  0  0  0  0
  147.8958  139.2231  154.1422 C   0  0  1  0  0  0  0  0  0  0  0  0
  148.9871  138.1785  154.1466 N   0  3  0  0  0  0  0  0  0  0  0  0
  150.3589  138.7280  154.3403 C   0  0  0  0  0  0  0  0  0  0  0  0
  151.4211  137.6375  154.1402 C   0  0  0  0  0  0  0  0  0  0  0  0
  151.1858  136.5865  155.0645 O   0  0  0  0  0  0  0  0  0  0  0  0
  149.9279  135.9688  154.8380 C   0  0  0  0  0  0  0  0  0  0  0  0
  148.7887  136.9882  155.0213 C   0  0  0  0  0  0  0  0  0  0  0  0
  148.4111  140.6195  153.7168 C   0  0  0  0  0  0  0  0  0  0  0  0
  147.3378  141.6659  154.0517 C   0  0  0  0  0  0  0  0  0  0  0  0
  146.4004  141.0714  155.4817 S   0  0  0  0  0  0  0  0  0  0  0  0
  147.2996  139.5027  155.5486 C   0  0  0  0  0  0  0  0  0  0  0  0
  146.5218  135.4447  151.7353 N   0  0  0  0  0  0  0  0  0  0  0  0
  145.8323  134.3250  151.1986 C   0  0  0  0  0  0  0  0  0  0  0  0
  144.4158  134.2573  151.2452 C   0  0  0  0  0  0  0  0  0  0  0  0
  143.7619  133.1225  150.7277 C   0  0  0  0  0  0  0  0  0  0  0  0
  144.5359  132.0796  150.1891 C   0  0  0  0  0  0  0  0  0  0  0  0
  145.9355  132.2191  150.2004 C   0  0  0  0  0  0  0  0  0  0  0  0
  146.5661  133.3047  150.6971 N   0  0  0  0  0  0  0  0  0  0  0  0
  147.9278  137.1455  152.4672 H   0  0  0  0  0  0  0  0  0  0  0  0
  146.6797  139.4483  152.3327 H   0  0  0  0  0  0  0  0  0  0  0  0
  145.7774  138.8147  153.6520 H   0  0  0  0  0  0  0  0  0  0  0  0
  150.5589  139.5383  153.6415 H   0  0  0  0  0  0  0  0  0  0  0  0
  150.4605  139.1394  155.3452 H   0  0  0  0  0  0  0  0  0  0  0  0
  151.4084  137.2585  153.1168 H   0  0  0  0  0  0  0  0  0  0  0  0
  152.4161  138.0460  154.3170 H   0  0  0  0  0  0  0  0  0  0  0  0
  149.9011  135.5346  153.8370 H   0  0  0  0  0  0  0  0  0  0  0  0
  149.8089  135.1450  155.5420 H   0  0  0  0  0  0  0  0  0  0  0  0
  148.7236  137.2962  156.0654 H   0  0  0  0  0  0  0  0  0  0  0  0
  147.8681  136.4649  154.7690 H   0  0  0  0  0  0  0  0  0  0  0  0
  149.3165  140.8644  154.2733 H   0  0  0  0  0  0  0  0  0  0  0  0
  148.6715  140.6663  152.6589 H   0  0  0  0  0  0  0  0  0  0  0  0
  147.7758  142.6436  154.2544 H   0  0  0  0  0  0  0  0  0  0  0  0
  146.6465  141.7830  153.2167 H   0  0  0  0  0  0  0  0  0  0  0  0
  146.6746  138.6973  155.9316 H   0  0  0  0  0  0  0  0  0  0  0  0
  148.0709  139.6936  156.2919 H   0  0  0  0  0  0  0  0  0  0  0  0
  147.5238  135.4278  151.6161 H   0  0  0  0  0  0  0  0  0  0  0  0
  143.8220  135.0483  151.6775 H   0  0  0  0  0  0  0  0  0  0  0  0
  142.6845  133.0521  150.7498 H   0  0  0  0  0  0  0  0  0  0  0  0
  144.0696  131.1936  149.7840 H   0  0  0  0  0  0  0  0  0  0  0  0
  146.5663  131.4378  149.8032 H   0  0  0  0  0  0  0  0  0  0  0  0
  148.9757  137.8027  153.2091 H   0  0  0  0  0  0  0  0  0  0  0  0
  1  2  2  0  0  0  0
  2  3  1  0  0  0  0
  2 16  1  0  0  0  0
  3  4  1  0  0  0  0
  3 23  1  0  0  0  0
  4  5  1  0  0  0  0
  4 24  1  0  0  0  0
  4 25  1  0  0  0  0
  5 15  1  0  0  0  0
  5  6  1  0  0  0  0
  5 12  1  0  0  0  0
  6 11  1  0  0  0  0
  6  7  1  0  0  0  0
  6 45  1  0  0  0  0
  7  8  1  0  0  0  0
  7 26  1  0  0  0  0
  7 27  1  0  0  0  0
  8  9  1  0  0  0  0
  8 28  1  0  0  0  0
  8 29  1  0  0  0  0
  9 10  1  0  0  0  0
 10 11  1  0  0  0  0
 10 30  1  0  0  0  0
 10 31  1  0  0  0  0
 11 32  1  0  0  0  0
 11 33  1  0  0  0  0
 12 13  1  0  0  0  0
 12 34  1  0  0  0  0
 12 35  1  0  0  0  0
 13 14  1  0  0  0  0
 13 36  1  0  0  0  0
 13 37  1  0  0  0  0
 14 15  1  0  0  0  0
 15 38  1  0  0  0  0
 15 39  1  0  0  0  0
 16 17  1  0  0  0  0
 16 40  1  0  0  0  0
 17 22  1  0  0  0  0
 17 18  2  0  0  0  0
 18 19  1  0  0  0  0
 18 41  1  0  0  0  0
 19 20  2  0  0  0  0
 19 42  1  0  0  0  0
 20 21  1  0  0  0  0
 20 43  1  0  0  0  0
 21 22  2  0  0  0  0
 21 44  1  0  0  0  0
M  CHG  1   6   1
M  END
> <s_m_source_file>
AV-unprocessed.smi

> <i_m_source_file_index>
1954

> <i_lp_mmshare_version>
43012

> <i_f3d_flags>
0

> <s_epik_input>
bjFbY0hdW2NIXVtjSF1bY0hdYzFbTkhdQyg9TylbTkhdW0NIMl1bQ0BdMihbQ0gyXVtDSDJdU1tDSDJdMilOM1tDSDJdW0NIMl1PW0NIMl1bQ0gyXTM=

> <s_epik_cmdline>
J2VwaWtfcHl0aG9uJywgJy1waCcsICc3LjAnLCAnLXRuJywgJzgnLCAnLW1hJywgJzIwMCcsICctbWV0YWxfYmluZGluZycsICctaW1hZScsICc8aW5maWxlLm1hZT4nLCAnLW9tYWUnLCAnPG91dGZpbGUubWFlPic=

> <r_epik_Ionization_Penalty>
2.03222

> <r_epik_Ionization_Penalty_Charging>
2.03219

> <r_epik_Ionization_Penalty_Neutral>
3.25833e-05

> <r_epik_State_Penalty>
2.16328

> <r_epik_Charging_Adjusted_Penalty>
4.19546

> <i_epik_Tot_Q>
1

> <i_epik_Tot_abs_Q>
1

> <r_epik_Metal_State_Penalty>
2.16328

> <b_epik_Metal_Only>
0

> <s_lp_Force_Field>
OPLS_2005

> <r_lp_Energy>
49.2696

> <b_lp_Chiralities_Consistent>
1

> <s_lp_Variant>
AV-unprocessed.smi:1954-3

> <Gold.Version>
5.8.1

> <Gold.Id.Protein>
6NUR|6NUR_protein|mol2

> <Gold.PLP.Fitness>
46.7773

> <Gold.PLP.PLP>
-33.5603

> <Gold.PLP.part.hbond>
-3.6886

> <Gold.PLP.part.metal>
0.0000

> <Gold.PLP.part.buried>
-0.9529

> <Gold.PLP.part.nonpolar>
-30.2972

> <Gold.PLP.part.repulsive>
0.6711

> <Gold.PLP.ligand.clash>
0.0000

> <Gold.PLP.ligand.torsion>
2.2647

> <Gold.PLP.Chemscore.Hbond>
4.8438

> <Gold.PLP.Chemscore.CHOScore>
1.0000

> <Gold.PLP.Chemscore.Metal>
0.0000

> <Gold.Chemscore.Hbonds>
donor molecule, donor type, donor heavy atom, donor atom, acceptor molecule, acceptor atom, score
      L1  H     3    23       P1  7948  0.91
      L1  H     6    45       P1  7948  1.92
      L1  H    16    40       P1  7948  0.96
      P1  H 10752 10765       L1     9  0.73
      L1  C    21    44       P1 10747  1.00

> <Gold.PLP.Chemscore.Internal.Correction>
0.2152

> <Gold.Rescore>
     Score         DG    S(hbond)    S(metal)    S(lipo)     H(rot)  DE(clash)    DE(int)     intcor
     17.91     -22.56       3.30        0.00      85.42       1.54       0.87       3.78       ----

> <Gold.Chemscore.Fitness>
17.9123

> <Gold.Chemscore.DG>
-22.5626

> <Gold.Chemscore.ZeroCoef>
-5.4800

> <Gold.Chemscore.Hbond>
3.2994

> <Gold.Chemscore.Metal>
0.0000

> <Gold.Chemscore.Lipo>
85.4158

> <Gold.Chemscore.Internal_Hbond>
0.0000

> <Gold.Chemscore.DEClash>
0.8666

> <Gold.Chemscore.DEInternal>
3.7838

> <Gold.Chemscore.Rot>
1.5355

> <Gold.Chemscore.Internal.Correction>
   9.000000E+99

> <Gold.Chemscore.Hbonds>
donor molecule, donor type, donor heavy atom, donor atom, acceptor molecule, acceptor atom, score
      L1  H     3    23       P1  7948  0.83
      L1  H     6    45       P1  7948  0.88
      L1  H    16    40       P1  7948  0.86
      P1  H 10752 10765       L1     9  0.12

> <Gold.Chemscore.Hbond.Weighted>
-11.0199

> <Gold.Chemscore.Metal.Weighted>
-0.0000

> <Gold.Chemscore.Lipo.Weighted>
-9.9936

> <Gold.Chemscore.Internal_Hbond.Weighted>
0.0000

> <Gold.Chemscore.DEClash.Weighted>
0.8666

> <Gold.Chemscore.DEInternal.Weighted>
3.7838

> <Gold.Chemscore.Rot.Weighted>
3.9309

> <Gold.Chemscore.Internal.Correction.Weighted>
   9.000000E+99

> <Gold.Protein.RotatedTorsions>
[ 6907 6896 6895 6894 ] final  -20.33 input  -60.11 | X-H torsion
[ 7974 7965 7964 7962 ] final  -24.14 input  175.53 | X-H torsion
[ 8008 7997 7996 7995 ] final  -11.25 input   59.86 | X-H torsion
[ 10167 10162 10161 10158 ] final -151.78 input  -65.29 | X-H torsion
[ 10718 10713 10712 10709 ] final  -85.99 input   66.30 | X-H torsion
[ 10763 10752 10751 10750 ] final -170.67 input  -60.55 | X-H torsion
[ 11005 11000 10999 10996 ] final -171.60 input  -57.11 | X-H torsion

> <Gold.Protein.ActiveResidues>
 VAL166  LYS551  ARG553  GLY616  TRP617  ASP618  TYR619  PRO620  LYS621  CYS622 
 ASP623  PHE694  ASN695  SER759  ASP760  ASP761  ALA762  ILE779  LEU786  VAL792 
 PHE793  MET794  SER795  GLU796  ALA797  LYS798  CYS799  TRP800  GLU811  SER814 

> <Gold.Protein.RotatedAtoms>
  151.2498  135.0618  159.9057 H   0  0  0  0  0  0  0  0  0  0  0  0  # atno 6907 bound_to 6896
  152.5381  134.0345  159.8050 H   0  0  0  0  0  0  0  0  0  0  0  0  # atno 6908 bound_to 6896
  151.0551  133.5542  159.2670 H   0  0  0  0  0  0  0  0  0  0  0  0  # atno 6909 bound_to 6896
  146.1573  140.4712  142.8586 H   0  0  0  0  0  0  0  0  0  0  0  0  # atno 7974 bound_to 7965
  154.5481  140.2307  155.8529 H   0  0  0  0  0  0  0  0  0  0  0  0  # atno 8008 bound_to 7997
  156.1922  140.3074  155.9316 H   0  0  0  0  0  0  0  0  0  0  0  0  # atno 8009 bound_to 7997
  155.3124  140.0436  157.3026 H   0  0  0  0  0  0  0  0  0  0  0  0  # atno 8010 bound_to 7997
  139.7238  143.8915  152.2512 H   0  0  0  0  0  0  0  0  0  0  0  0  # atno 10167 bound_to 10162
  155.9992  130.4750  150.4647 H   0  0  0  0  0  0  0  0  0  0  0  0  # atno 10718 bound_to 10713
  154.6390  135.2896  155.0126 H   0  0  0  0  0  0  0  0  0  0  0  0  # atno 10763 bound_to 10752
  154.1259  135.6541  153.4916 H   0  0  0  0  0  0  0  0  0  0  0  0  # atno 10764 bound_to 10752
  153.0317  135.5299  154.7249 H   0  0  0  0  0  0  0  0  0  0  0  0  # atno 10765 bound_to 10752
  140.5064  134.5844  157.5004 H   0  0  0  0  0  0  0  0  0  0  0  0  # atno 11005 bound_to 11000
  144.7980  140.6159  143.6497 LP  0  0  0  0  0  0  0  0  0  0  0  0  # atno 17320 bound_to 7965
  145.4677  139.1506  143.3831 LP  0  0  0  0  0  0  0  0  0  0  0  0  # atno 17321 bound_to 7965
  139.8819  144.7013  150.8868 LP  0  0  0  0  0  0  0  0  0  0  0  0  # atno 17342 bound_to 10162
  140.7759  143.3654  151.1748 LP  0  0  0  0  0  0  0  0  0  0  0  0  # atno 17343 bound_to 10162
  157.2668  131.0578  151.2285 LP  0  0  0  0  0  0  0  0  0  0  0  0  # atno 17370 bound_to 10713
  157.3380  130.7019  149.6364 LP  0  0  0  0  0  0  0  0  0  0  0  0  # atno 17371 bound_to 10713
  139.9684  134.7334  156.0091 LP  0  0  0  0  0  0  0  0  0  0  0  0  # atno 17394 bound_to 11000
  141.1409  133.6565  156.3726 LP  0  0  0  0  0  0  0  0  0  0  0  0  # atno 17395 bound_to 11000

$$$$
