AV-unprocessed.smi:274|AV-procd|sdf|2061|dock1
  -GOLD-   2262021303D 1   1.00000     0.00000
 Structure written by MMmdl.
 50 53  0  0  0  0  0  0  0  0  1 V2000
  146.4657  135.6691  156.9533 C   0  0  0  0  0  0  0  0  0  0  0  0
  147.5638  135.7078  155.8707 C   0  0  0  0  0  0  0  0  0  0  0  0
  147.6161  134.3372  155.1657 C   0  0  0  0  0  0  0  0  0  0  0  0
  148.9407  136.1628  156.4495 C   0  0  1  0  0  0  0  0  0  0  0  0
  149.4876  135.1938  157.5289 C   0  0  0  0  0  0  0  0  0  0  0  0
  149.0090  135.2038  158.6611 O   0  0  0  0  0  0  0  0  0  0  0  0
  150.5073  134.3728  157.2178 N   0  0  0  0  0  0  0  0  0  0  0  0
  151.2194  134.3270  155.9406 C   0  0  0  0  0  0  0  0  0  0  0  0
  150.5121  135.1110  154.8212 C   0  0  0  0  0  0  0  0  0  0  0  0
  149.9105  136.3305  155.3543 N   0  0  0  0  0  0  0  0  0  0  0  0
  150.7310  137.4122  155.3603 C   0  0  0  0  0  0  0  0  0  0  0  0
  151.9748  137.3316  154.8168 N   0  0  0  0  0  0  0  0  0  0  0  0
  152.7763  138.4007  154.8075 C   0  0  0  0  0  0  0  0  0  0  0  0
  152.5384  139.6260  155.2797 N   0  0  0  0  0  0  0  0  0  0  0  0
  151.2939  139.7110  155.8310 C   0  0  0  0  0  0  0  0  0  0  0  0
  150.3341  138.6631  155.9084 C   0  0  0  0  0  0  0  0  0  0  0  0
  149.1818  139.1198  156.5368 N   0  0  0  0  0  0  0  0  0  0  0  0
  149.4442  140.3682  156.8122 C   0  0  0  0  0  0  0  0  0  0  0  0
  150.6934  140.8043  156.4307 N   0  0  0  0  0  0  0  0  0  0  0  0
  151.2478  142.1360  156.6184 C   0  0  0  0  0  0  0  0  0  0  0  0
  151.3278  142.5664  158.1019 C   0  0  2  0  0  0  0  0  0  0  0  0
  150.0145  142.6953  158.6183 O   0  0  0  0  0  0  0  0  0  0  0  0
  152.0688  143.8808  158.3318 C   0  0  0  0  0  0  0  0  0  0  0  0
  152.7104  143.6749  159.6968 C   0  0  0  0  0  0  0  0  0  0  0  0
  153.1199  142.3194  159.6418 O   0  0  0  0  0  0  0  0  0  0  0  0
  152.1040  141.5683  158.9845 C   0  0  0  0  0  0  0  0  0  0  0  0
  146.7380  134.9961  157.7669 H   0  0  0  0  0  0  0  0  0  0  0  0
  145.5178  135.3221  156.5407 H   0  0  0  0  0  0  0  0  0  0  0  0
  146.2785  136.6534  157.3832 H   0  0  0  0  0  0  0  0  0  0  0  0
  147.2458  136.4324  155.1203 H   0  0  0  0  0  0  0  0  0  0  0  0
  148.0098  133.5664  155.8290 H   0  0  0  0  0  0  0  0  0  0  0  0
  148.2347  134.3592  154.2694 H   0  0  0  0  0  0  0  0  0  0  0  0
  146.6224  134.0214  154.8468 H   0  0  0  0  0  0  0  0  0  0  0  0
  148.7717  137.1245  156.9376 H   0  0  0  0  0  0  0  0  0  0  0  0
  150.8418  133.7540  157.9422 H   0  0  0  0  0  0  0  0  0  0  0  0
  152.2077  134.7555  156.1108 H   0  0  0  0  0  0  0  0  0  0  0  0
  151.3749  133.2903  155.6420 H   0  0  0  0  0  0  0  0  0  0  0  0
  151.2095  135.3112  154.0072 H   0  0  0  0  0  0  0  0  0  0  0  0
  149.7221  134.4982  154.3873 H   0  0  0  0  0  0  0  0  0  0  0  0
  153.7466  138.2535  154.3567 H   0  0  0  0  0  0  0  0  0  0  0  0
  148.7300  141.0075  157.3101 H   0  0  0  0  0  0  0  0  0  0  0  0
  152.2382  142.1663  156.1618 H   0  0  0  0  0  0  0  0  0  0  0  0
  150.6320  142.8402  156.0573 H   0  0  0  0  0  0  0  0  0  0  0  0
  149.7228  143.5831  158.4783 H   0  0  0  0  0  0  0  0  0  0  0  0
  152.8595  144.0032  157.5903 H   0  0  0  0  0  0  0  0  0  0  0  0
  151.4293  144.7632  158.2837 H   0  0  0  0  0  0  0  0  0  0  0  0
  153.5521  144.3443  159.8748 H   0  0  0  0  0  0  0  0  0  0  0  0
  151.9828  143.8093  160.4987 H   0  0  0  0  0  0  0  0  0  0  0  0
  151.4632  141.0924  159.7287 H   0  0  0  0  0  0  0  0  0  0  0  0
  152.5704  140.7736  158.4015 H   0  0  0  0  0  0  0  0  0  0  0  0
  1  2  1  0  0  0  0
  1 27  1  0  0  0  0
  1 28  1  0  0  0  0
  1 29  1  0  0  0  0
  2  3  1  0  0  0  0
  2  4  1  0  0  0  0
  2 30  1  0  0  0  0
  3 31  1  0  0  0  0
  3 32  1  0  0  0  0
  3 33  1  0  0  0  0
  4 10  1  0  0  0  0
  4  5  1  0  0  0  0
  4 34  1  0  0  0  0
  5  6  2  0  0  0  0
  5  7  1  0  0  0  0
  7  8  1  0  0  0  0
  7 35  1  0  0  0  0
  8  9  1  0  0  0  0
  8 36  1  0  0  0  0
  8 37  1  0  0  0  0
  9 10  1  0  0  0  0
  9 38  1  0  0  0  0
  9 39  1  0  0  0  0
 10 11  1  0  0  0  0
 11 16  1  0  0  0  0
 11 12  2  0  0  0  0
 12 13  1  0  0  0  0
 13 14  2  0  0  0  0
 13 40  1  0  0  0  0
 14 15  1  0  0  0  0
 15 19  1  0  0  0  0
 15 16  2  0  0  0  0
 16 17  1  0  0  0  0
 17 18  2  0  0  0  0
 18 19  1  0  0  0  0
 18 41  1  0  0  0  0
 19 20  1  0  0  0  0
 20 21  1  0  0  0  0
 20 42  1  0  0  0  0
 20 43  1  0  0  0  0
 21 26  1  0  0  0  0
 21 22  1  0  0  0  0
 21 23  1  0  0  0  0
 22 44  1  0  0  0  0
 23 24  1  0  0  0  0
 23 45  1  0  0  0  0
 23 46  1  0  0  0  0
 24 25  1  0  0  0  0
 24 47  1  0  0  0  0
 24 48  1  0  0  0  0
 25 26  1  0  0  0  0
 26 49  1  0  0  0  0
 26 50  1  0  0  0  0
M  END
> <s_m_source_file>
AV-unprocessed.smi

> <i_m_source_file_index>
274

> <i_lp_mmshare_version>
43012

> <i_f3d_flags>
0

> <s_epik_input>
W0NIM11bQ0hdKFtDSDNdKVtDQEBIXTFDKD1PKVtOSF1bQ0gyXVtDSDJdTjFjKG5bY0hdbjIpYyhjMjMpbltjSF1uM1tDSDJdW0NAQF00KFtPSF0pW0NIMl1bQ0gyXU9bQ0gyXTQ=

> <s_epik_cmdline>
J2VwaWtfcHl0aG9uJywgJy1waCcsICc3LjAnLCAnLXRuJywgJzgnLCAnLW1hJywgJzIwMCcsICctbWV0YWxfYmluZGluZycsICctaW1hZScsICc8aW5maWxlLm1hZT4nLCAnLW9tYWUnLCAnPG91dGZpbGUubWFlPic=

> <r_lp_tautomer_probability>
1

> <r_epik_Ionization_Penalty>
0.000690079

> <r_epik_Ionization_Penalty_Charging>
0

> <r_epik_Ionization_Penalty_Neutral>
0.000690079

> <r_epik_State_Penalty>
0.000321372

> <r_epik_Charging_Adjusted_Penalty>
0.000321372

> <i_epik_Tot_Q>
0

> <i_epik_Tot_abs_Q>
0

> <r_epik_Metal_State_Penalty>
-0

> <b_epik_Metal_Only>
0

> <s_lp_Force_Field>
OPLS_2005

> <r_lp_Energy>
41.7848

> <b_lp_Chiralities_Consistent>
1

> <s_lp_Variant>
AV-unprocessed.smi:274-4

> <Gold.Version>
5.8.1

> <Gold.Id.Protein>
6NUR|6NUR_protein|mol2

> <Gold.PLP.Fitness>
41.5316

> <Gold.PLP.PLP>
-33.7640

> <Gold.PLP.part.hbond>
-3.3185

> <Gold.PLP.part.metal>
0.0000

> <Gold.PLP.part.buried>
-6.5356

> <Gold.PLP.part.nonpolar>
-25.1762

> <Gold.PLP.part.repulsive>
0.6461

> <Gold.PLP.ligand.clash>
0.0000

> <Gold.PLP.ligand.torsion>
0.2493

> <Gold.PLP.Chemscore.Hbond>
2.6259

> <Gold.PLP.Chemscore.CHOScore>
0.0000

> <Gold.PLP.Chemscore.Metal>
0.0000

> <Gold.Chemscore.Hbonds>
donor molecule, donor type, donor heavy atom, donor atom, acceptor molecule, acceptor atom, score
      P1  H  6896  6908       L1     6  0.75
      P1  H  7989  7998       L1    14  0.06
      P1  H  7997  8009       L1    14  0.89
      P1  H 10752 10765       L1    12  0.91

> <Gold.PLP.Chemscore.Internal.Correction>
0.3884

> <Gold.Rescore>
     Score         DG    S(hbond)    S(metal)    S(lipo)     H(rot)  DE(clash)    DE(int)     intcor
      9.50     -15.17       2.04        0.00      71.58       2.14       1.70       3.97       ----

> <Gold.Chemscore.Fitness>
9.5002

> <Gold.Chemscore.DG>
-15.1686

> <Gold.Chemscore.ZeroCoef>
-5.4800

> <Gold.Chemscore.Hbond>
2.0358

> <Gold.Chemscore.Metal>
0.0000

> <Gold.Chemscore.Lipo>
71.5830

> <Gold.Chemscore.Internal_Hbond>
0.0000

> <Gold.Chemscore.DEClash>
1.6984

> <Gold.Chemscore.DEInternal>
3.9701

> <Gold.Chemscore.Rot>
2.1431

> <Gold.Chemscore.Internal.Correction>
   9.000000E+99

> <Gold.Chemscore.Hbonds>
donor molecule, donor type, donor heavy atom, donor atom, acceptor molecule, acceptor atom, score
      P1  H  6896  6908       L1     6  0.09
      P1  H  7997  8009       L1    14  0.35
      P1  H 10752 10765       L1    12  0.73

> <Gold.Chemscore.Hbond.Weighted>
-6.7997

> <Gold.Chemscore.Metal.Weighted>
-0.0000

> <Gold.Chemscore.Lipo.Weighted>
-8.3752

> <Gold.Chemscore.Internal_Hbond.Weighted>
0.0000

> <Gold.Chemscore.DEClash.Weighted>
1.6984

> <Gold.Chemscore.DEInternal.Weighted>
3.9701

> <Gold.Chemscore.Rot.Weighted>
5.4863

> <Gold.Chemscore.Internal.Correction.Weighted>
   9.000000E+99

> <Gold.Protein.RotatedTorsions>
[ 6907 6896 6895 6894 ] final  167.65 input  -60.11 | X-H torsion
[ 7974 7965 7964 7962 ] final  144.87 input  175.53 | X-H torsion
[ 8008 7997 7996 7995 ] final -147.95 input   59.86 | X-H torsion
[ 10167 10162 10161 10158 ] final   53.76 input  -65.29 | X-H torsion
[ 10718 10713 10712 10709 ] final  148.79 input   66.30 | X-H torsion
[ 10763 10752 10751 10750 ] final  171.36 input  -60.55 | X-H torsion
[ 11005 11000 10999 10996 ] final  128.02 input  -57.11 | X-H torsion

> <Gold.Protein.ActiveResidues>
 VAL166  LYS551  ARG553  GLY616  TRP617  ASP618  TYR619  PRO620  LYS621  CYS622 
 ASP623  PHE694  ASN695  SER759  ASP760  ASP761  ALA762  ILE779  LEU786  VAL792 
 PHE793  MET794  SER795  GLU796  ALA797  LYS798  CYS799  TRP800  GLU811  SER814 

> <Gold.Protein.RotatedAtoms>
  151.8600  133.3455  159.3700 H   0  0  0  0  0  0  0  0  0  0  0  0  # atno 6907 bound_to 6896
  150.7182  134.5216  159.5665 H   0  0  0  0  0  0  0  0  0  0  0  0  # atno 6908 bound_to 6896
  152.2727  134.7916  160.0462 H   0  0  0  0  0  0  0  0  0  0  0  0  # atno 6909 bound_to 6896
  144.8799  139.5715  143.5847 H   0  0  0  0  0  0  0  0  0  0  0  0  # atno 7974 bound_to 7965
  155.5838  140.0646  157.2776 H   0  0  0  0  0  0  0  0  0  0  0  0  # atno 8008 bound_to 7997
  154.4325  140.1847  156.1051 H   0  0  0  0  0  0  0  0  0  0  0  0  # atno 8009 bound_to 7997
  156.0285  140.3309  155.7117 H   0  0  0  0  0  0  0  0  0  0  0  0  # atno 8010 bound_to 7997
  140.2374  144.3621  150.6392 H   0  0  0  0  0  0  0  0  0  0  0  0  # atno 10167 bound_to 10162
  157.3042  131.0876  151.1366 H   0  0  0  0  0  0  0  0  0  0  0  0  # atno 10718 bound_to 10713
  154.4107  135.2756  155.2038 H   0  0  0  0  0  0  0  0  0  0  0  0  # atno 10763 bound_to 10752
  154.4025  135.6041  153.5909 H   0  0  0  0  0  0  0  0  0  0  0  0  # atno 10764 bound_to 10752
  152.9831  135.5930  154.4389 H   0  0  0  0  0  0  0  0  0  0  0  0  # atno 10765 bound_to 10752
  139.9538  134.9617  156.8940 H   0  0  0  0  0  0  0  0  0  0  0  0  # atno 11005 bound_to 11000
  146.2987  139.7359  142.9107 LP  0  0  0  0  0  0  0  0  0  0  0  0  # atno 17320 bound_to 7965
  145.3973  141.0380  143.3090 LP  0  0  0  0  0  0  0  0  0  0  0  0  # atno 17321 bound_to 7965
  140.6139  143.2171  151.6830 LP  0  0  0  0  0  0  0  0  0  0  0  0  # atno 17342 bound_to 10162
  139.5089  144.3595  152.0575 LP  0  0  0  0  0  0  0  0  0  0  0  0  # atno 17343 bound_to 10162
  157.2714  130.6706  149.6021 LP  0  0  0  0  0  0  0  0  0  0  0  0  # atno 17370 bound_to 10713
  155.9673  130.4478  150.5594 LP  0  0  0  0  0  0  0  0  0  0  0  0  # atno 17371 bound_to 10713
  140.5657  134.0492  155.7413 LP  0  0  0  0  0  0  0  0  0  0  0  0  # atno 17394 bound_to 11000
  141.1206  133.9468  157.2737 LP  0  0  0  0  0  0  0  0  0  0  0  0  # atno 17395 bound_to 11000

$$$$
