AV-unprocessed.smi:352|AV-procd|sdf|2401|dock9
  -GOLD-   2262022333D 1   1.00000     0.00000
 Structure written by MMmdl.
 45 46  0  0  0  0  0  0  0  0  2 V2000
  151.8792  128.9881  155.0677 C   0  0  0  0  0  0  0  0  0  0  0  0
  151.2840  130.3464  154.9211 C   0  0  0  0  0  0  0  0  0  0  0  0
  150.2341  130.8269  154.1906 C   0  0  0  0  0  0  0  0  0  0  0  0
  150.2238  132.2135  154.5210 C   0  0  0  0  0  0  0  0  0  0  0  0
  149.3167  133.1885  154.0316 N   0  0  0  0  0  0  0  0  0  0  0  0
  147.9793  133.1082  153.9307 C   0  0  0  0  0  0  0  0  0  0  0  0
  147.2992  132.1277  154.2299 O   0  0  0  0  0  0  0  0  0  0  0  0
  147.4606  134.2518  153.4603 N   0  0  0  0  0  0  0  0  0  0  0  0
  146.0395  134.5136  153.2273 C   0  0  0  0  0  0  0  0  0  0  0  0
  145.7076  134.9278  151.7551 C   0  0  0  0  0  0  0  0  0  0  0  0
  146.1514  136.3582  151.5469 N   0  3  0  0  0  0  0  0  0  0  0  0
  145.7745  137.3323  152.6044 C   0  0  0  0  0  0  0  0  0  0  0  0
  145.8619  136.9230  150.2024 C   0  0  0  0  0  0  0  0  0  0  0  0
  146.4371  133.9670  150.7678 C   0  0  0  0  0  0  0  0  0  0  0  0
  145.9278  132.5137  150.8238 C   0  0  0  0  0  0  0  0  0  0  0  0
  144.4137  132.4327  150.5906 C   0  0  0  0  0  0  0  0  0  0  0  0
  143.6514  133.3339  151.5705 C   0  0  0  0  0  0  0  0  0  0  0  0
  144.1704  134.7822  151.5015 C   0  0  0  0  0  0  0  0  0  0  0  0
  151.1780  132.5409  155.3725 N   0  0  0  0  0  0  0  0  0  0  0  0
  151.8639  131.3492  155.6340 O   0  0  0  0  0  0  0  0  0  0  0  0
  151.2145  128.2262  154.6603 H   0  0  0  0  0  0  0  0  0  0  0  0
  152.0574  128.7538  156.1174 H   0  0  0  0  0  0  0  0  0  0  0  0
  152.8306  128.9250  154.5394 H   0  0  0  0  0  0  0  0  0  0  0  0
  149.5908  130.2626  153.5324 H   0  0  0  0  0  0  0  0  0  0  0  0
  149.7396  134.0561  153.7363 H   0  0  0  0  0  0  0  0  0  0  0  0
  148.1019  134.9951  153.2244 H   0  0  0  0  0  0  0  0  0  0  0  0
  145.5076  133.5997  153.4889 H   0  0  0  0  0  0  0  0  0  0  0  0
  145.6727  135.2394  153.9514 H   0  0  0  0  0  0  0  0  0  0  0  0
  144.6978  137.3497  152.7730 H   0  0  0  0  0  0  0  0  0  0  0  0
  146.0799  138.3418  152.3263 H   0  0  0  0  0  0  0  0  0  0  0  0
  146.2779  137.1199  153.5469 H   0  0  0  0  0  0  0  0  0  0  0  0
  144.7955  137.1042  150.0662 H   0  0  0  0  0  0  0  0  0  0  0  0
  146.2090  136.2824  149.3939 H   0  0  0  0  0  0  0  0  0  0  0  0
  146.3720  137.8788  150.0782 H   0  0  0  0  0  0  0  0  0  0  0  0
  146.3212  134.3268  149.7453 H   0  0  0  0  0  0  0  0  0  0  0  0
  147.5096  133.9555  150.9620 H   0  0  0  0  0  0  0  0  0  0  0  0
  146.4442  131.9172  150.0711 H   0  0  0  0  0  0  0  0  0  0  0  0
  146.1772  132.0630  151.7845 H   0  0  0  0  0  0  0  0  0  0  0  0
  144.1875  132.7343  149.5670 H   0  0  0  0  0  0  0  0  0  0  0  0
  144.0746  131.4012  150.6906 H   0  0  0  0  0  0  0  0  0  0  0  0
  142.5890  133.3168  151.3254 H   0  0  0  0  0  0  0  0  0  0  0  0
  143.7247  132.9368  152.5818 H   0  0  0  0  0  0  0  0  0  0  0  0
  143.6019  135.4128  152.1848 H   0  0  0  0  0  0  0  0  0  0  0  0
  143.9146  135.1243  150.4995 H   0  0  0  0  0  0  0  0  0  0  0  0
  147.1592  136.3150  151.5978 H   0  0  0  0  0  0  0  0  0  0  0  0
  1  2  1  0  0  0  0
  1 21  1  0  0  0  0
  1 22  1  0  0  0  0
  1 23  1  0  0  0  0
  2 20  1  0  0  0  0
  2  3  2  0  0  0  0
  3  4  1  0  0  0  0
  3 24  1  0  0  0  0
  4  5  1  0  0  0  0
  4 19  2  0  0  0  0
  5  6  1  0  0  0  0
  5 25  1  0  0  0  0
  6  7  2  0  0  0  0
  6  8  1  0  0  0  0
  8  9  1  0  0  0  0
  8 26  1  0  0  0  0
  9 10  1  0  0  0  0
  9 27  1  0  0  0  0
  9 28  1  0  0  0  0
 10 18  1  0  0  0  0
 10 11  1  0  0  0  0
 10 14  1  0  0  0  0
 11 12  1  0  0  0  0
 11 13  1  0  0  0  0
 11 45  1  0  0  0  0
 12 29  1  0  0  0  0
 12 30  1  0  0  0  0
 12 31  1  0  0  0  0
 13 32  1  0  0  0  0
 13 33  1  0  0  0  0
 13 34  1  0  0  0  0
 14 15  1  0  0  0  0
 14 35  1  0  0  0  0
 14 36  1  0  0  0  0
 15 16  1  0  0  0  0
 15 37  1  0  0  0  0
 15 38  1  0  0  0  0
 16 17  1  0  0  0  0
 16 39  1  0  0  0  0
 16 40  1  0  0  0  0
 17 18  1  0  0  0  0
 17 41  1  0  0  0  0
 17 42  1  0  0  0  0
 18 43  1  0  0  0  0
 18 44  1  0  0  0  0
 19 20  1  0  0  0  0
M  CHG  1  11   1
M  END
> <s_m_source_file>
AV-unprocessed.smi

> <i_m_source_file_index>
352

> <i_lp_mmshare_version>
43012

> <i_f3d_flags>
0

> <s_epik_input>
W0NIM11jMVtjSF1jKG5vMSlbTkhdQyg9TylbTkhdW0NIMl1DMihOKFtDSDNdKVtDSDNdKVtDSDJdW0NIMl1bQ0gyXVtDSDJdW0NIMl0y

> <s_epik_cmdline>
J2VwaWtfcHl0aG9uJywgJy1waCcsICc3LjAnLCAnLXRuJywgJzgnLCAnLW1hJywgJzIwMCcsICctbWV0YWxfYmluZGluZycsICctaW1hZScsICc8aW5maWxlLm1hZT4nLCAnLW9tYWUnLCAnPG91dGZpbGUubWFlPic=

> <r_epik_Ionization_Penalty>
0.00254175

> <r_epik_Ionization_Penalty_Charging>
0.00251809

> <r_epik_Ionization_Penalty_Neutral>
2.36624e-05

> <r_epik_State_Penalty>
0.00174714

> <r_epik_Charging_Adjusted_Penalty>
0.00426523

> <i_epik_Tot_Q>
1

> <i_epik_Tot_abs_Q>
1

> <r_epik_Metal_State_Penalty>
-0

> <b_epik_Metal_Only>
0

> <s_lp_Force_Field>
OPLS_2005

> <r_lp_Energy>
33.762

> <b_lp_Chiralities_Consistent>
1

> <s_lp_Variant>
AV-unprocessed.smi:352-1

> <Gold.Version>
5.8.1

> <Gold.Id.Protein>
6NUR|6NUR_protein|mol2

> <Gold.PLP.Fitness>
37.7809

> <Gold.PLP.PLP>
-30.5041

> <Gold.PLP.part.hbond>
-2.0000

> <Gold.PLP.part.metal>
0.0000

> <Gold.PLP.part.buried>
-1.5101

> <Gold.PLP.part.nonpolar>
-24.4454

> <Gold.PLP.part.repulsive>
0.1284

> <Gold.PLP.ligand.clash>
0.0000

> <Gold.PLP.ligand.torsion>
0.7000

> <Gold.PLP.Chemscore.Hbond>
2.8564

> <Gold.PLP.Chemscore.CHOScore>
0.0000

> <Gold.PLP.Chemscore.Metal>
0.0000

> <Gold.Chemscore.Hbonds>
donor molecule, donor type, donor heavy atom, donor atom, acceptor molecule, acceptor atom, score
      L1  H     8    26       P1  7948  1.00
      L1  H    11    45       P1  7948  2.00

> <Gold.PLP.Chemscore.Internal.Correction>
0.1076

> <Gold.Rescore>
     Score         DG    S(hbond)    S(metal)    S(lipo)     H(rot)  DE(clash)    DE(int)     intcor
     14.51     -16.91       1.96        0.00      75.53       1.55       1.76       0.65       ----

> <Gold.Chemscore.Fitness>
14.5114

> <Gold.Chemscore.DG>
-16.9124

> <Gold.Chemscore.ZeroCoef>
-5.4800

> <Gold.Chemscore.Hbond>
1.9623

> <Gold.Chemscore.Metal>
0.0000

> <Gold.Chemscore.Lipo>
75.5304

> <Gold.Chemscore.Internal_Hbond>
0.0000

> <Gold.Chemscore.DEClash>
1.7550

> <Gold.Chemscore.DEInternal>
0.6459

> <Gold.Chemscore.Rot>
1.5464

> <Gold.Chemscore.Internal.Correction>
   9.000000E+99

> <Gold.Chemscore.Hbonds>
donor molecule, donor type, donor heavy atom, donor atom, acceptor molecule, acceptor atom, score
      L1  H     8    26       P1  7948  0.87
      L1  H    11    45       P1  7948  1.00

> <Gold.Chemscore.Hbond.Weighted>
-6.5541

> <Gold.Chemscore.Metal.Weighted>
-0.0000

> <Gold.Chemscore.Lipo.Weighted>
-8.8371

> <Gold.Chemscore.Internal_Hbond.Weighted>
0.0000

> <Gold.Chemscore.DEClash.Weighted>
1.7550

> <Gold.Chemscore.DEInternal.Weighted>
0.6459

> <Gold.Chemscore.Rot.Weighted>
3.9588

> <Gold.Chemscore.Internal.Correction.Weighted>
   9.000000E+99

> <Gold.Protein.RotatedTorsions>
[ 6907 6896 6895 6894 ] final  173.25 input  -60.11 | X-H torsion
[ 7974 7965 7964 7962 ] final  100.02 input  175.53 | X-H torsion
[ 8008 7997 7996 7995 ] final   38.75 input   59.86 | X-H torsion
[ 10167 10162 10161 10158 ] final    1.57 input  -65.29 | X-H torsion
[ 10718 10713 10712 10709 ] final -142.99 input   66.30 | X-H torsion
[ 10763 10752 10751 10750 ] final   25.65 input  -60.55 | X-H torsion
[ 11005 11000 10999 10996 ] final   12.45 input  -57.11 | X-H torsion

> <Gold.Protein.ActiveResidues>
 VAL166  LYS551  ARG553  GLY616  TRP617  ASP618  TYR619  PRO620  LYS621  CYS622 
 ASP623  PHE694  ASN695  SER759  ASP760  ASP761  ALA762  ILE779  LEU786  VAL792 
 PHE793  MET794  SER795  GLU796  ALA797  LYS798  CYS799  TRP800  GLU811  SER814 

> <Gold.Protein.RotatedAtoms>
  151.7713  133.3341  159.3445 H   0  0  0  0  0  0  0  0  0  0  0  0  # atno 6907 bound_to 6896
  150.7460  134.6016  159.6049 H   0  0  0  0  0  0  0  0  0  0  0  0  # atno 6908 bound_to 6896
  152.3339  134.7225  160.0333 H   0  0  0  0  0  0  0  0  0  0  0  0  # atno 6909 bound_to 6896
  145.3912  139.2362  143.3351 H   0  0  0  0  0  0  0  0  0  0  0  0  # atno 7974 bound_to 7965
  155.2253  140.3334  155.4310 H   0  0  0  0  0  0  0  0  0  0  0  0  # atno 8008 bound_to 7997
  156.2317  140.1853  156.7273 H   0  0  0  0  0  0  0  0  0  0  0  0  # atno 8009 bound_to 7997
  154.5989  140.0626  156.9326 H   0  0  0  0  0  0  0  0  0  0  0  0  # atno 8010 bound_to 7997
  140.6676  143.7136  150.7858 H   0  0  0  0  0  0  0  0  0  0  0  0  # atno 10167 bound_to 10162
  156.3525  130.7695  151.1850 H   0  0  0  0  0  0  0  0  0  0  0  0  # atno 10718 bound_to 10713
  153.0677  135.6578  154.0317 H   0  0  0  0  0  0  0  0  0  0  0  0  # atno 10763 bound_to 10752
  153.9970  135.2940  155.3408 H   0  0  0  0  0  0  0  0  0  0  0  0  # atno 10764 bound_to 10752
  154.7041  135.5232  153.8638 H   0  0  0  0  0  0  0  0  0  0  0  0  # atno 10765 bound_to 10752
  140.4918  134.0833  155.7773 H   0  0  0  0  0  0  0  0  0  0  0  0  # atno 11005 bound_to 11000
  146.2797  140.4595  142.8781 LP  0  0  0  0  0  0  0  0  0  0  0  0  # atno 17320 bound_to 7965
  144.8439  140.6899  143.6212 LP  0  0  0  0  0  0  0  0  0  0  0  0  # atno 17321 bound_to 7965
  140.0816  143.4963  152.2527 LP  0  0  0  0  0  0  0  0  0  0  0  0  # atno 17342 bound_to 10162
  139.5931  144.7557  151.3352 LP  0  0  0  0  0  0  0  0  0  0  0  0  # atno 17343 bound_to 10162
  157.7463  131.0423  150.4690 LP  0  0  0  0  0  0  0  0  0  0  0  0  # atno 17370 bound_to 10713
  156.4887  130.4090  149.6419 LP  0  0  0  0  0  0  0  0  0  0  0  0  # atno 17371 bound_to 10713
  141.1480  133.9020  157.2168 LP  0  0  0  0  0  0  0  0  0  0  0  0  # atno 17394 bound_to 11000
  139.9765  135.0112  156.9643 LP  0  0  0  0  0  0  0  0  0  0  0  0  # atno 17395 bound_to 11000

$$$$
