AV-unprocessed.smi:153|AV-procd|sdf|1261|dock4
  -GOLD-   2262018513D 1   1.00000     0.00000
 Structure written by MMmdl.
 59 62  0  0  0  0  0  0  0  0  1 V2000
  147.4811  132.8109  153.4004 C   0  0  0  0  0  0  0  0  0  0  0  0
  146.8269  133.5154  152.2016 C   0  0  1  0  0  0  0  0  0  0  0  0
  146.0695  132.5357  151.4947 O   0  0  0  0  0  0  0  0  0  0  0  0
  144.9394  133.1585  150.9106 C   0  0  0  0  0  0  0  0  0  0  0  0
  144.5059  134.1327  151.9949 C   0  0  0  0  0  0  0  0  0  0  0  0
  145.8334  134.6675  152.5245 C   0  0  2  0  0  0  0  0  0  0  0  0
  146.1971  135.7846  151.7299 O   0  0  0  0  0  0  0  0  0  0  0  0
  145.7754  135.1355  154.0026 C   0  0  0  0  0  0  0  0  0  0  0  0
  146.9253  135.9335  154.4019 N   0  0  0  0  0  0  0  0  0  0  0  0
  148.0183  135.5009  155.1151 C   0  0  0  0  0  0  0  0  0  0  0  0
  148.9253  136.4097  155.3425 N   0  0  0  0  0  0  0  0  0  0  0  0
  148.4238  137.5649  154.7493 C   0  0  0  0  0  0  0  0  0  0  0  0
  148.8892  138.9110  154.6133 C   0  0  0  0  0  0  0  0  0  0  0  0
  150.0845  139.3766  155.0858 N   0  0  0  0  0  0  0  0  0  0  0  0
  151.2859  138.5749  154.8854 C   0  0  0  0  0  0  0  0  0  0  0  0
  150.2685  140.8102  155.3250 C   0  0  0  0  0  0  0  0  0  0  0  0
  150.6941  141.1200  156.7782 C   0  0  2  0  0  0  0  0  0  0  0  0
  149.6263  140.7736  157.6371 O   0  0  0  0  0  0  0  0  0  0  0  0
  150.9863  142.6229  156.9761 C   0  0  0  0  0  0  0  0  0  0  0  0
  151.0620  143.0732  158.3671 N   0  0  0  0  0  0  0  0  0  0  0  0
  151.2179  144.5227  158.4346 C   0  0  0  0  0  0  0  0  0  0  0  0
  151.3110  145.0276  159.8850 C   0  0  0  0  0  0  0  0  0  0  0  0
  152.3917  144.3780  160.5457 O   0  0  0  0  0  0  0  0  0  0  0  0
  152.2591  142.9608  160.5466 C   0  0  0  0  0  0  0  0  0  0  0  0
  152.1648  142.4487  159.0987 C   0  0  0  0  0  0  0  0  0  0  0  0
  148.0638  139.7757  153.9611 N   0  0  0  0  0  0  0  0  0  0  0  0
  146.8922  139.3716  153.4658 C   0  0  0  0  0  0  0  0  0  0  0  0
  146.3466  138.1576  153.5089 N   0  0  0  0  0  0  0  0  0  0  0  0
  147.1541  137.2780  154.1657 C   0  0  0  0  0  0  0  0  0  0  0  0
  148.0879  133.5008  153.9869 H   0  0  0  0  0  0  0  0  0  0  0  0
  148.1370  132.0086  153.0619 H   0  0  0  0  0  0  0  0  0  0  0  0
  146.7352  132.3653  154.0587 H   0  0  0  0  0  0  0  0  0  0  0  0
  147.6174  133.8684  151.5365 H   0  0  0  0  0  0  0  0  0  0  0  0
  145.2344  133.6841  150.0012 H   0  0  0  0  0  0  0  0  0  0  0  0
  144.1648  132.4341  150.6589 H   0  0  0  0  0  0  0  0  0  0  0  0
  143.8273  134.9067  151.6337 H   0  0  0  0  0  0  0  0  0  0  0  0
  143.9882  133.5742  152.7753 H   0  0  0  0  0  0  0  0  0  0  0  0
  147.1212  135.9446  151.8448 H   0  0  0  0  0  0  0  0  0  0  0  0
  144.8801  135.7311  154.1816 H   0  0  0  0  0  0  0  0  0  0  0  0
  145.7124  134.2756  154.6706 H   0  0  0  0  0  0  0  0  0  0  0  0
  148.1255  134.4816  155.4579 H   0  0  0  0  0  0  0  0  0  0  0  0
  151.2985  137.7267  155.5698 H   0  0  0  0  0  0  0  0  0  0  0  0
  152.1852  139.1618  155.0742 H   0  0  0  0  0  0  0  0  0  0  0  0
  151.3434  138.2055  153.8609 H   0  0  0  0  0  0  0  0  0  0  0  0
  151.0071  141.1903  154.6182 H   0  0  0  0  0  0  0  0  0  0  0  0
  149.3510  141.3430  155.0711 H   0  0  0  0  0  0  0  0  0  0  0  0
  151.5613  140.5172  157.0435 H   0  0  0  0  0  0  0  0  0  0  0  0
  148.8442  141.2082  157.3337 H   0  0  0  0  0  0  0  0  0  0  0  0
  151.9281  142.8729  156.4851 H   0  0  0  0  0  0  0  0  0  0  0  0
  150.2231  143.1935  156.4444 H   0  0  0  0  0  0  0  0  0  0  0  0
  152.1147  144.8241  157.8908 H   0  0  0  0  0  0  0  0  0  0  0  0
  150.3758  145.0082  157.9400 H   0  0  0  0  0  0  0  0  0  0  0  0
  151.4782  146.1046  159.9022 H   0  0  0  0  0  0  0  0  0  0  0  0
  150.3801  144.8385  160.4215 H   0  0  0  0  0  0  0  0  0  0  0  0
  153.1218  142.5223  161.0482 H   0  0  0  0  0  0  0  0  0  0  0  0
  151.3752  142.6714  161.1168 H   0  0  0  0  0  0  0  0  0  0  0  0
  152.0478  141.3667  159.1247 H   0  0  0  0  0  0  0  0  0  0  0  0
  153.1078  142.6466  158.5866 H   0  0  0  0  0  0  0  0  0  0  0  0
  146.3106  140.1296  152.9619 H   0  0  0  0  0  0  0  0  0  0  0  0
  1  2  1  0  0  0  0
  1 30  1  0  0  0  0
  1 31  1  0  0  0  0
  1 32  1  0  0  0  0
  2  6  1  0  0  0  0
  2  3  1  0  0  0  0
  2 33  1  0  0  0  0
  3  4  1  0  0  0  0
  4  5  1  0  0  0  0
  4 34  1  0  0  0  0
  4 35  1  0  0  0  0
  5  6  1  0  0  0  0
  5 36  1  0  0  0  0
  5 37  1  0  0  0  0
  6  7  1  0  0  0  0
  6  8  1  0  0  0  0
  7 38  1  0  0  0  0
  8  9  1  0  0  0  0
  8 39  1  0  0  0  0
  8 40  1  0  0  0  0
  9 29  1  0  0  0  0
  9 10  1  0  0  0  0
 10 11  2  0  0  0  0
 10 41  1  0  0  0  0
 11 12  1  0  0  0  0
 12 29  2  0  0  0  0
 12 13  1  0  0  0  0
 13 14  1  0  0  0  0
 13 26  2  0  0  0  0
 14 15  1  0  0  0  0
 14 16  1  0  0  0  0
 15 42  1  0  0  0  0
 15 43  1  0  0  0  0
 15 44  1  0  0  0  0
 16 17  1  0  0  0  0
 16 45  1  0  0  0  0
 16 46  1  0  0  0  0
 17 18  1  0  0  0  0
 17 19  1  0  0  0  0
 17 47  1  0  0  0  0
 18 48  1  0  0  0  0
 19 20  1  0  0  0  0
 19 49  1  0  0  0  0
 19 50  1  0  0  0  0
 20 25  1  0  0  0  0
 20 21  1  0  0  0  0
 21 22  1  0  0  0  0
 21 51  1  0  0  0  0
 21 52  1  0  0  0  0
 22 23  1  0  0  0  0
 22 53  1  0  0  0  0
 22 54  1  0  0  0  0
 23 24  1  0  0  0  0
 24 25  1  0  0  0  0
 24 55  1  0  0  0  0
 24 56  1  0  0  0  0
 25 57  1  0  0  0  0
 25 58  1  0  0  0  0
 26 27  1  0  0  0  0
 27 28  2  0  0  0  0
 27 59  1  0  0  0  0
 28 29  1  0  0  0  0
M  END
> <s_m_source_file>
AV-unprocessed.smi

> <i_m_source_file_index>
153

> <i_lp_mmshare_version>
43012

> <i_f3d_flags>
0

> <s_epik_input>
W0NIMl0xW0NIMl1PW0NAQEhdKFtDSDNdKVtDQEBdMShbT0hdKVtDSDJdbihbY0hdbjIpYyhjMjMpbltjSF1uYzNOKFtDSDNdKVtDSDJdW0NASF0oW09IXSlbQ0gyXU40W0NIMl1bQ0gyXU9bQ0gyXVtDSDJdNA==

> <s_epik_cmdline>
J2VwaWtfcHl0aG9uJywgJy1waCcsICc3LjAnLCAnLXRuJywgJzgnLCAnLW1hJywgJzIwMCcsICctbWV0YWxfYmluZGluZycsICctaW1hZScsICc8aW5maWxlLm1hZT4nLCAnLW9tYWUnLCAnPG91dGZpbGUubWFlPic=

> <r_lp_tautomer_probability>
1

> <r_epik_Ionization_Penalty>
0.424123

> <r_epik_Ionization_Penalty_Charging>
0

> <r_epik_Ionization_Penalty_Neutral>
0.424123

> <r_epik_State_Penalty>
0.421495

> <r_epik_Charging_Adjusted_Penalty>
0.421495

> <i_epik_Tot_Q>
0

> <i_epik_Tot_abs_Q>
0

> <r_epik_Metal_State_Penalty>
0.421223

> <b_epik_Metal_Only>
0

> <s_lp_Force_Field>
OPLS_2005

> <r_lp_Energy>
56.2601

> <b_lp_Chiralities_Consistent>
1

> <s_lp_Variant>
AV-unprocessed.smi:153-12

> <Gold.Version>
5.8.1

> <Gold.Id.Protein>
6NUR|6NUR_protein|mol2

> <Gold.PLP.Fitness>
45.4136

> <Gold.PLP.PLP>
-41.1256

> <Gold.PLP.part.hbond>
-1.0000

> <Gold.PLP.part.metal>
0.0000

> <Gold.PLP.part.buried>
-2.8572

> <Gold.PLP.part.nonpolar>
-38.0716

> <Gold.PLP.part.repulsive>
0.7785

> <Gold.PLP.ligand.clash>
0.0000

> <Gold.PLP.ligand.torsion>
1.1548

> <Gold.PLP.Chemscore.Hbond>
1.0000

> <Gold.PLP.Chemscore.CHOScore>
0.9718

> <Gold.PLP.Chemscore.Metal>
0.0000

> <Gold.Chemscore.Hbonds>
donor molecule, donor type, donor heavy atom, donor atom, acceptor molecule, acceptor atom, score
      L1  H     7    38       P1  7948  1.00
      L1  C    27    59       P1 10175  0.60

> <Gold.PLP.Chemscore.Internal.Correction>
0.6823

> <Gold.Rescore>
     Score         DG    S(hbond)    S(metal)    S(lipo)     H(rot)  DE(clash)    DE(int)     intcor
     10.43     -11.73       1.00        0.00     101.80       3.52       0.08       1.21       ----

> <Gold.Chemscore.Fitness>
10.4319

> <Gold.Chemscore.DG>
-11.7255

> <Gold.Chemscore.ZeroCoef>
-5.4800

> <Gold.Chemscore.Hbond>
0.9997

> <Gold.Chemscore.Metal>
0.0000

> <Gold.Chemscore.Lipo>
101.7963

> <Gold.Chemscore.Internal_Hbond>
0.0000

> <Gold.Chemscore.DEClash>
0.0789

> <Gold.Chemscore.DEInternal>
1.2147

> <Gold.Chemscore.Rot>
3.5170

> <Gold.Chemscore.Internal.Correction>
   9.000000E+99

> <Gold.Chemscore.Hbonds>
donor molecule, donor type, donor heavy atom, donor atom, acceptor molecule, acceptor atom, score
      L1  H     7    38       P1  7948  1.00

> <Gold.Chemscore.Hbond.Weighted>
-3.3390

> <Gold.Chemscore.Metal.Weighted>
-0.0000

> <Gold.Chemscore.Lipo.Weighted>
-11.9102

> <Gold.Chemscore.Internal_Hbond.Weighted>
0.0000

> <Gold.Chemscore.DEClash.Weighted>
0.0789

> <Gold.Chemscore.DEInternal.Weighted>
1.2147

> <Gold.Chemscore.Rot.Weighted>
9.0036

> <Gold.Chemscore.Internal.Correction.Weighted>
   9.000000E+99

> <Gold.Protein.RotatedTorsions>
[ 6907 6896 6895 6894 ] final   75.16 input  -60.11 | X-H torsion
[ 7974 7965 7964 7962 ] final  -47.51 input  175.53 | X-H torsion
[ 8008 7997 7996 7995 ] final   58.21 input   59.86 | X-H torsion
[ 10167 10162 10161 10158 ] final   92.90 input  -65.29 | X-H torsion
[ 10718 10713 10712 10709 ] final   81.01 input   66.30 | X-H torsion
[ 10763 10752 10751 10750 ] final  -51.85 input  -60.55 | X-H torsion
[ 11005 11000 10999 10996 ] final   78.41 input  -57.11 | X-H torsion

> <Gold.Protein.ActiveResidues>
 VAL166  LYS551  ARG553  GLY616  TRP617  ASP618  TYR619  PRO620  LYS621  CYS622 
 ASP623  PHE694  ASN695  SER759  ASP760  ASP761  ALA762  ILE779  LEU786  VAL792 
 PHE793  MET794  SER795  GLU796  ALA797  LYS798  CYS799  TRP800  GLU811  SER814 

> <Gold.Protein.RotatedAtoms>
  152.5012  134.4162  159.9464 H   0  0  0  0  0  0  0  0  0  0  0  0  # atno 6907 bound_to 6896
  151.4132  133.3714  159.2754 H   0  0  0  0  0  0  0  0  0  0  0  0  # atno 6908 bound_to 6896
  150.9276  134.8714  159.7589 H   0  0  0  0  0  0  0  0  0  0  0  0  # atno 6909 bound_to 6896
  145.9609  140.7480  142.9458 H   0  0  0  0  0  0  0  0  0  0  0  0  # atno 7974 bound_to 7965
  155.5463  140.3485  155.4458 H   0  0  0  0  0  0  0  0  0  0  0  0  # atno 8008 bound_to 7997
  156.0615  140.1341  156.9961 H   0  0  0  0  0  0  0  0  0  0  0  0  # atno 8009 bound_to 7997
  154.4482  140.0984  156.6509 H   0  0  0  0  0  0  0  0  0  0  0  0  # atno 8010 bound_to 7997
  139.8232  144.6722  150.9493 H   0  0  0  0  0  0  0  0  0  0  0  0  # atno 10167 bound_to 10162
  157.6822  130.9985  150.2164 H   0  0  0  0  0  0  0  0  0  0  0  0  # atno 10718 bound_to 10713
  154.1332  135.6517  153.4926 H   0  0  0  0  0  0  0  0  0  0  0  0  # atno 10763 bound_to 10752
  153.0188  135.5298  154.6980 H   0  0  0  0  0  0  0  0  0  0  0  0  # atno 10764 bound_to 10752
  154.6220  135.2966  155.0285 H   0  0  0  0  0  0  0  0  0  0  0  0  # atno 10765 bound_to 10752
  139.9214  134.7761  156.1646 H   0  0  0  0  0  0  0  0  0  0  0  0  # atno 11005 bound_to 11000
  144.6815  140.2589  143.7321 LP  0  0  0  0  0  0  0  0  0  0  0  0  # atno 17320 bound_to 7965
  145.8041  139.1976  143.2031 LP  0  0  0  0  0  0  0  0  0  0  0  0  # atno 17321 bound_to 7965
  140.7812  143.4072  151.1052 LP  0  0  0  0  0  0  0  0  0  0  0  0  # atno 17342 bound_to 10162
  139.7731  143.8465  152.3124 LP  0  0  0  0  0  0  0  0  0  0  0  0  # atno 17343 bound_to 10162
  156.2824  130.3735  149.7922 LP  0  0  0  0  0  0  0  0  0  0  0  0  # atno 17370 bound_to 10713
  156.5606  130.8381  151.3327 LP  0  0  0  0  0  0  0  0  0  0  0  0  # atno 17371 bound_to 10713
  141.0737  133.6785  156.2193 LP  0  0  0  0  0  0  0  0  0  0  0  0  # atno 17394 bound_to 11000
  140.6464  134.5112  157.5574 LP  0  0  0  0  0  0  0  0  0  0  0  0  # atno 17395 bound_to 11000

$$$$
