#       Name:                AV-unprocessed.smi:3241
#       Creating user name   scv26
#       Creation time:       Fri Mar 27 18:25:51 2020


#       File generated by GOLD software.
#

@<TRIPOS>MOLECULE
AV-unprocessed.smi:3241
    47    48     1
SMALL
NO_CHARGES


@<TRIPOS>ATOM
      1 ****        -1.2503   0.9613   1.2278 C.3            1 S1                 0.0000
      2 ****        -2.0295   0.8693  -0.0953 C.3            1 S1                 0.0000
      3 ****        -3.5378   1.0827   0.1427 C.3            1 S1                 0.0000
      4 ****        -4.3383   0.9930  -1.1654 C.3            1 S1                 0.0000
      5 ****        -4.0888  -0.3458  -1.8742 C.3            1 S1                 0.0000
      6 ****        -2.5895  -0.5670  -2.1250 C.3            1 S1                 0.0000
      7 ****        -1.7756  -0.4736  -0.8172 C.3            1 S1                 0.0000
      8 ****        -0.3854  -0.5453  -1.1048 O.3            1 S1                 0.0000
      9 ****         0.1158  -1.8551  -1.3278 C.3            1 S1                 0.0000
     10 ****         1.6439  -1.7659  -1.3733 C.3            1 S1                 0.0000
     11 ****         2.1756  -1.5190  -0.0382 N.3            1 S1                 0.0000
     12 ****         3.6091  -1.2479  -0.0129 C.3            1 S1                 0.0000
     13 ****         4.0832  -0.8782   1.4021 C.3            1 S1                 0.0000
     14 ****         3.4890   0.3619   1.8719 N.pl3          1 S1                 0.0000
     15 ****         3.8512   1.6562   1.5626 C.2            1 S1                 0.0000
     16 ****         2.9967   2.4878   2.2282 C.2            1 S1                 0.0000
     17 ****         2.1362   1.5976   2.9293 C.2            1 S1                 0.0000
     18 ****         2.4332   0.3263   2.7143 N.2            1 S1                 0.0000
     19 ****        -1.5445   0.1702   1.9182 H              1 S1                 0.0000
     20 ****        -1.4262   1.9170   1.7220 H              1 S1                 0.0000
     21 ****        -0.1762   0.8743   1.0628 H              1 S1                 0.0000
     22 ****        -1.6768   1.6737  -0.7428 H              1 S1                 0.0000
     23 ****        -3.9091   0.3365   0.8466 H              1 S1                 0.0000
     24 ****        -3.7083   2.0548   0.6069 H              1 S1                 0.0000
     25 ****        -5.4023   1.1120  -0.9593 H              1 S1                 0.0000
     26 ****        -4.0563   1.8150  -1.8246 H              1 S1                 0.0000
     27 ****        -4.4827  -1.1615  -1.2665 H              1 S1                 0.0000
     28 ****        -4.6320  -0.3731  -2.8193 H              1 S1                 0.0000
     29 ****        -2.4451  -1.5387  -2.5969 H              1 S1                 0.0000
     30 ****        -2.2267   0.1780  -2.8346 H              1 S1                 0.0000
     31 ****        -2.0638  -1.2850  -0.1460 H              1 S1                 0.0000
     32 ****        -0.2008  -2.5444  -0.5430 H              1 S1                 0.0000
     33 ****        -0.2607  -2.2391  -2.2758 H              1 S1                 0.0000
     34 ****         2.0568  -2.6958  -1.7654 H              1 S1                 0.0000
     35 ****         1.9424  -0.9732  -2.0604 H              1 S1                 0.0000
     36 ****         1.6768  -0.7428   0.3864 H              1 S1                 0.0000
     37 ****         4.1568  -2.1223  -0.3656 H              1 S1                 0.0000
     38 ****         3.8493  -0.4330  -0.6968 H              1 S1                 0.0000
     39 ****         3.8550  -1.6799   2.1066 H              1 S1                 0.0000
     40 ****         5.1669  -0.7569   1.4081 H              1 S1                 0.0000
     41 ****         4.6747   1.8744   0.8988 H              1 S1                 0.0000
     42 ****         2.9867   3.5676   2.2152 H              1 S1                 0.0000
     43 ****         1.3085   1.8352   3.5812 H              1 S1                 0.0000
     44 ****         0.1117  -0.1506  -0.3322 LP             1 S1                 0.0000
     45 ****        -0.2104  -0.0024  -1.9262 LP             1 S1                 0.0000
     46 ****         2.0387  -2.3628   0.4808 LP             1 S1                 0.0000
     47 ****         1.9780  -0.4805   3.0910 LP             1 S1                 0.0000
@<TRIPOS>BOND
    1    1    2 1     
    2    1   19 1     
    3    1   20 1     
    4    1   21 1     
    5    2    7 1     
    6    2    3 1     
    7    2   22 1     
    8    3    4 1     
    9    3   23 1     
   10    3   24 1     
   11    4    5 1     
   12    4   25 1     
   13    4   26 1     
   14    5    6 1     
   15    5   27 1     
   16    5   28 1     
   17    6    7 1     
   18    6   29 1     
   19    6   30 1     
   20    7    8 1     
   21    7   31 1     
   22    8    9 1     
   23    9   10 1     
   24    9   32 1     
   25    9   33 1     
   26   10   11 1     
   27   10   34 1     
   28   10   35 1     
   29   11   12 1     
   30   11   36 1     
   31   12   13 1     
   32   12   37 1     
   33   12   38 1     
   34   13   14 1     
   35   13   39 1     
   36   13   40 1     
   37   14   18 1     
   38   14   15 1     
   39   15   16 2     
   40   15   41 1     
   41   16   17 1     
   42   16   42 1     
   43   17   18 2     
   44   17   43 1     
   45    8   44 1     
   46    8   45 1     
   47   11   46 1     
   48   18   47 1     
@<TRIPOS>SUBSTRUCTURE
      1 S1             1
@<TRIPOS>SET
LONE_PAIRS      STATIC     ATOMS    <user>   **** ""
4 44 45 46 47
DONOR_HYDROGENS      STATIC     ATOMS    <user>   **** ""
1 36
ATOM$BLUE        STATIC     ATOMS    COLORGROUP SYSTEM
4 44 45 46 47
ATOM$RED        STATIC     ATOMS    COLORGROUP SYSTEM
1 36
