#       Name:                AV-unprocessed.smi:1563
#       Creating user name   scv26
#       Creation time:       Fri Mar 27 06:49:17 2020


#       File generated by GOLD software.
#

@<TRIPOS>MOLECULE
AV-unprocessed.smi:1563
    48    49     1
SMALL
NO_CHARGES


@<TRIPOS>ATOM
      1 ****        -3.2806   3.7647   1.4146 C.3            1 S1                 0.0000
      2 ****        -2.5713   2.4488   1.1153 C.2            1 S1                 0.0000
      3 ****        -2.5533   1.5515   1.9581 O.2            1 S1                 0.0000
      4 ****        -1.9873   2.3492  -0.0887 N.am           1 S1                 0.0000
      5 ****        -1.2576   1.1815  -0.5692 C.3            1 S1                 0.0000
      6 ****        -2.2087   0.1841  -1.2709 C.3            1 S1                 0.0000
      7 ****        -1.4413  -0.9733  -1.9431 C.3            1 S1                 0.0000
      8 ****        -0.2715  -0.4463  -2.7954 C.3            1 S1                 0.0000
      9 ****         0.5820   0.3963  -1.9428 N.am           1 S1                 0.0000
     10 ****         1.7458   0.0234  -1.3549 C.2            1 S1                 0.0000
     11 ****         2.3952   0.7665  -0.6175 O.2            1 S1                 0.0000
     12 ****         2.0948  -1.2589  -1.5638 N.am           1 S1                 0.0000
     13 ****         3.1667  -1.9684  -0.8677 C.3            1 S1                 0.0000
     14 ****         2.6486  -2.7636   0.3501 C.3            1 S1                 0.0000
     15 ****         1.8221  -1.9389   1.3242 C.ar           1 S1                 0.0000
     16 ****         0.4193  -2.0728   1.4215 C.ar           1 S1                 0.0000
     17 ****        -0.2926  -1.2477   2.3169 C.ar           1 S1                 0.0000
     18 ****         0.4115  -0.3072   3.0962 C.ar           1 S1                 0.0000
     19 ****         1.8128  -0.2221   2.9668 C.ar           1 S1                 0.0000
     20 ****         2.4594  -1.0322   2.0999 N.pl3          1 S1                 1.0000
     21 ****        -0.1278   1.6106  -1.5265 C.3            1 S1                 0.0000
     22 ****        -3.8974   4.0717   0.5697 H              1 S1                 0.0000
     23 ****        -2.5513   4.5502   1.6135 H              1 S1                 0.0000
     24 ****        -3.9256   3.6667   2.2883 H              1 S1                 0.0000
     25 ****        -2.0529   3.1381  -0.7157 H              1 S1                 0.0000
     26 ****        -0.7930   0.6814   0.2818 H              1 S1                 0.0000
     27 ****        -2.9343  -0.2142  -0.5609 H              1 S1                 0.0000
     28 ****        -2.7828   0.7121  -2.0337 H              1 S1                 0.0000
     29 ****        -1.0561  -1.6469  -1.1774 H              1 S1                 0.0000
     30 ****        -2.1203  -1.5633  -2.5590 H              1 S1                 0.0000
     31 ****         0.2647  -1.2719  -3.2644 H              1 S1                 0.0000
     32 ****        -0.6565   0.1518  -3.6227 H              1 S1                 0.0000
     33 ****         1.5167  -1.8064  -2.1848 H              1 S1                 0.0000
     34 ****         3.6452  -2.6486  -1.5725 H              1 S1                 0.0000
     35 ****         3.9428  -1.2694  -0.5520 H              1 S1                 0.0000
     36 ****         2.0417  -3.5999   0.0009 H              1 S1                 0.0000
     37 ****         3.4896  -3.2056   0.8855 H              1 S1                 0.0000
     38 ****        -0.1092  -2.7887   0.8093 H              1 S1                 0.0000
     39 ****        -1.3669  -1.3266   2.3972 H              1 S1                 0.0000
     40 ****        -0.1171   0.3410   3.7799 H              1 S1                 0.0000
     41 ****         2.4306   0.4691   3.5209 H              1 S1                 0.0000
     42 ****        -0.5355   2.1212  -2.4006 H              1 S1                 0.0000
     43 ****         0.5292   2.3341  -1.0410 H              1 S1                 0.0000
     44 ****         3.4721  -0.9430   2.0140 H              1 S1                 0.0000
     45 ****        -3.0044   1.6853   2.8405 LP             1 S1                 0.0000
     46 ****        -2.0876   0.6890   1.7602 LP             1 S1                 0.0000
     47 ****         2.0692   1.6928  -0.4285 LP             1 S1                 0.0000
     48 ****         3.2484   0.4435  -0.2079 LP             1 S1                 0.0000
@<TRIPOS>BOND
    1    1    2 1     
    2    1   22 1     
    3    1   23 1     
    4    1   24 1     
    5    2    3 2     
    6    2    4 am    
    7    4    5 1     
    8    4   25 1     
    9    5   21 1     
   10    5    6 1     
   11    5   26 1     
   12    6    7 1     
   13    6   27 1     
   14    6   28 1     
   15    7    8 1     
   16    7   29 1     
   17    7   30 1     
   18    8    9 1     
   19    8   31 1     
   20    8   32 1     
   21    9   10 am    
   22    9   21 1     
   23   10   11 2     
   24   10   12 am    
   25   12   13 1     
   26   12   33 1     
   27   13   14 1     
   28   13   34 1     
   29   13   35 1     
   30   14   15 1     
   31   14   36 1     
   32   14   37 1     
   33   15   20 ar    
   34   15   16 ar    
   35   16   17 ar    
   36   16   38 1     
   37   17   18 ar    
   38   17   39 1     
   39   18   19 ar    
   40   18   40 1     
   41   19   20 ar    
   42   19   41 1     
   43   20   44 1     
   44   21   42 1     
   45   21   43 1     
   46    3   45 1     
   47    3   46 1     
   48   11   47 1     
   49   11   48 1     
@<TRIPOS>SUBSTRUCTURE
      1 S1             1
@<TRIPOS>SET
LONE_PAIRS      STATIC     ATOMS    <user>   **** ""
4 45 46 47 48
DONOR_HYDROGENS      STATIC     ATOMS    <user>   **** ""
3 25 33 44
ATOM$BLUE        STATIC     ATOMS    COLORGROUP SYSTEM
4 45 46 47 48
ATOM$RED        STATIC     ATOMS    COLORGROUP SYSTEM
3 25 33 44
