AV-unprocessed.smi:3303|AV-procd|sdf|12674|dock1
  -GOLD-   2272019 03D 1   1.00000     0.00000
 Structure written by MMmdl.
 44 45  0  0  0  0  0  0  0  0  2 V2000
  147.9262  142.0295  154.3765 C   0  0  0  0  0  0  0  0  0  0  0  0
  148.5113  140.8442  155.1622 C   0  0  1  0  0  0  0  0  0  0  0  0
  149.6668  140.1608  154.4038 C   0  0  0  0  0  0  0  0  0  0  0  0
  150.1009  138.9638  155.1248 N   0  0  0  0  0  0  0  0  0  0  0  0
  151.0381  138.1907  154.3192 C   0  0  0  0  0  0  0  0  0  0  0  0
  150.6045  139.2442  156.4783 C   0  0  1  0  0  0  0  0  0  0  0  0
  151.9707  139.9681  156.5142 C   0  0  0  0  0  0  0  0  0  0  0  0
  149.5054  139.9627  157.2968 C   0  0  0  0  0  0  0  0  0  0  0  0
  148.9249  141.2156  156.6023 C   0  0  1  0  0  0  0  0  0  0  0  0
  149.8637  142.3628  156.6179 N   0  3  0  0  0  0  0  0  0  0  0  0
  150.2035  142.8901  157.9552 C   0  0  0  0  0  0  0  0  0  0  0  0
  151.7179  143.0941  158.0941 C   0  0  0  0  0  0  0  0  0  0  0  0
  152.1731  143.0259  159.5394 C   0  0  0  0  0  0  0  0  0  0  0  0
  151.7933  144.0217  160.4644 C   0  0  0  0  0  0  0  0  0  0  0  0
  152.2365  143.9032  161.7961 C   0  0  0  0  0  0  0  0  0  0  0  0
  153.0363  142.7992  162.1490 C   0  0  0  0  0  0  0  0  0  0  0  0
  153.3594  141.8587  161.1509 C   0  0  0  0  0  0  0  0  0  0  0  0
  152.9390  141.9625  159.8715 N   0  0  0  0  0  0  0  0  0  0  0  0
  148.6751  142.7983  154.1848 H   0  0  0  0  0  0  0  0  0  0  0  0
  147.1009  142.4922  154.9184 H   0  0  0  0  0  0  0  0  0  0  0  0
  147.5408  141.7019  153.4104 H   0  0  0  0  0  0  0  0  0  0  0  0
  147.7081  140.1092  155.2436 H   0  0  0  0  0  0  0  0  0  0  0  0
  149.3175  139.8682  153.4125 H   0  0  0  0  0  0  0  0  0  0  0  0
  150.4997  140.8474  154.2509 H   0  0  0  0  0  0  0  0  0  0  0  0
  151.3570  137.2948  154.8531 H   0  0  0  0  0  0  0  0  0  0  0  0
  151.9228  138.7721  154.0579 H   0  0  0  0  0  0  0  0  0  0  0  0
  150.5636  137.8706  153.3911 H   0  0  0  0  0  0  0  0  0  0  0  0
  150.7605  138.2757  156.9554 H   0  0  0  0  0  0  0  0  0  0  0  0
  152.2450  140.2191  157.5393 H   0  0  0  0  0  0  0  0  0  0  0  0
  151.9799  140.8921  155.9387 H   0  0  0  0  0  0  0  0  0  0  0  0
  152.7679  139.3345  156.1255 H   0  0  0  0  0  0  0  0  0  0  0  0
  148.6878  139.2563  157.4480 H   0  0  0  0  0  0  0  0  0  0  0  0
  149.8659  140.1908  158.2992 H   0  0  0  0  0  0  0  0  0  0  0  0
  148.0271  141.5267  157.1387 H   0  0  0  0  0  0  0  0  0  0  0  0
  150.7125  142.0915  156.1423 H   0  0  0  0  0  0  0  0  0  0  0  0
  149.6866  143.8375  158.1134 H   0  0  0  0  0  0  0  0  0  0  0  0
  149.8568  142.1995  158.7234 H   0  0  0  0  0  0  0  0  0  0  0  0
  152.2521  142.3350  157.5204 H   0  0  0  0  0  0  0  0  0  0  0  0
  152.0063  144.0577  157.6718 H   0  0  0  0  0  0  0  0  0  0  0  0
  151.1764  144.8562  160.1647 H   0  0  0  0  0  0  0  0  0  0  0  0
  151.9669  144.6445  162.5337 H   0  0  0  0  0  0  0  0  0  0  0  0
  153.3937  142.6760  163.1608 H   0  0  0  0  0  0  0  0  0  0  0  0
  153.9701  140.9995  161.3868 H   0  0  0  0  0  0  0  0  0  0  0  0
  149.4323  143.1141  156.0986 H   0  0  0  0  0  0  0  0  0  0  0  0
  1  2  1  0  0  0  0
  1 19  1  0  0  0  0
  1 20  1  0  0  0  0
  1 21  1  0  0  0  0
  2  9  1  0  0  0  0
  2  3  1  0  0  0  0
  2 22  1  0  0  0  0
  3  4  1  0  0  0  0
  3 23  1  0  0  0  0
  3 24  1  0  0  0  0
  4  5  1  0  0  0  0
  4  6  1  0  0  0  0
  5 25  1  0  0  0  0
  5 26  1  0  0  0  0
  5 27  1  0  0  0  0
  6  7  1  0  0  0  0
  6  8  1  0  0  0  0
  6 28  1  0  0  0  0
  7 29  1  0  0  0  0
  7 30  1  0  0  0  0
  7 31  1  0  0  0  0
  8  9  1  0  0  0  0
  8 32  1  0  0  0  0
  8 33  1  0  0  0  0
  9 10  1  0  0  0  0
  9 34  1  0  0  0  0
 10 11  1  0  0  0  0
 10 35  1  0  0  0  0
 10 44  1  0  0  0  0
 11 12  1  0  0  0  0
 11 36  1  0  0  0  0
 11 37  1  0  0  0  0
 12 13  1  0  0  0  0
 12 38  1  0  0  0  0
 12 39  1  0  0  0  0
 13 18  1  0  0  0  0
 13 14  2  0  0  0  0
 14 15  1  0  0  0  0
 14 40  1  0  0  0  0
 15 16  2  0  0  0  0
 15 41  1  0  0  0  0
 16 17  1  0  0  0  0
 16 42  1  0  0  0  0
 17 18  2  0  0  0  0
 17 43  1  0  0  0  0
M  CHG  1  10   1
M  END
> <s_m_source_file>
AV-unprocessed.smi

> <i_m_source_file_index>
3303

> <i_lp_mmshare_version>
43012

> <i_f3d_flags>
0

> <s_epik_input>
W0NIM11bQ0BASF0xW0NIMl1OKFtDSDNdKVtDQEBIXShbQ0gzXSlbQ0gyXVtDQEhdMVtOSF1bQ0gyXVtDSDJdYzJbY0hdW2NIXVtjSF1bY0hdbjI=

> <s_epik_cmdline>
J2VwaWtfcHl0aG9uJywgJy1waCcsICc3LjAnLCAnLXRuJywgJzgnLCAnLW1hJywgJzIwMCcsICctbWV0YWxfYmluZGluZycsICctaW1hZScsICc8aW5maWxlLm1hZT4nLCAnLW9tYWUnLCAnPG91dGZpbGUubWFlPic=

> <r_epik_Ionization_Penalty>
1.37325

> <r_epik_Ionization_Penalty_Charging>
0.000251572

> <r_epik_Ionization_Penalty_Neutral>
1.373

> <r_epik_State_Penalty>
1.46343

> <r_epik_Charging_Adjusted_Penalty>
1.46368

> <i_epik_Tot_Q>
1

> <i_epik_Tot_abs_Q>
1

> <r_epik_Metal_State_Penalty>
1.46331

> <b_epik_Metal_Only>
0

> <s_lp_Force_Field>
OPLS_2005

> <r_lp_Energy>
24.8067

> <b_lp_Chiralities_Consistent>
1

> <s_lp_Variant>
AV-unprocessed.smi:3303-18

> <Gold.Version>
5.8.1

> <Gold.Id.Protein>
6NUR|6NUR_protein|mol2

> <Gold.PLP.Fitness>
44.3798

> <Gold.PLP.PLP>
-39.4461

> <Gold.PLP.part.hbond>
-1.0000

> <Gold.PLP.part.metal>
0.0000

> <Gold.PLP.part.buried>
-3.8154

> <Gold.PLP.part.nonpolar>
-34.4010

> <Gold.PLP.part.repulsive>
0.1328

> <Gold.PLP.ligand.clash>
0.0000

> <Gold.PLP.ligand.torsion>
0.5493

> <Gold.PLP.Chemscore.Hbond>
2.0000

> <Gold.PLP.Chemscore.CHOScore>
0.0000

> <Gold.PLP.Chemscore.Metal>
0.0000

> <Gold.Chemscore.Hbonds>
donor molecule, donor type, donor heavy atom, donor atom, acceptor molecule, acceptor atom, score
      L1  H    10    44       P1  8028  2.00

> <Gold.PLP.Chemscore.Internal.Correction>
0.0324

> <Gold.Rescore>
     Score         DG    S(hbond)    S(metal)    S(lipo)     H(rot)  DE(clash)    DE(int)     intcor
     19.16     -19.72       0.99        0.00     122.40       1.33       0.08       0.48       ----

> <Gold.Chemscore.Fitness>
19.1569

> <Gold.Chemscore.DG>
-19.7160

> <Gold.Chemscore.ZeroCoef>
-5.4800

> <Gold.Chemscore.Hbond>
0.9937

> <Gold.Chemscore.Metal>
0.0000

> <Gold.Chemscore.Lipo>
122.4042

> <Gold.Chemscore.Internal_Hbond>
0.0000

> <Gold.Chemscore.DEClash>
0.0758

> <Gold.Chemscore.DEInternal>
0.4832

> <Gold.Chemscore.Rot>
1.3298

> <Gold.Chemscore.Internal.Correction>
   9.000000E+99

> <Gold.Chemscore.Hbonds>
donor molecule, donor type, donor heavy atom, donor atom, acceptor molecule, acceptor atom, score
      L1  H    10    44       P1  8028  1.00

> <Gold.Chemscore.Hbond.Weighted>
-3.3190

> <Gold.Chemscore.Metal.Weighted>
-0.0000

> <Gold.Chemscore.Lipo.Weighted>
-14.3213

> <Gold.Chemscore.Internal_Hbond.Weighted>
0.0000

> <Gold.Chemscore.DEClash.Weighted>
0.0758

> <Gold.Chemscore.DEInternal.Weighted>
0.4832

> <Gold.Chemscore.Rot.Weighted>
3.4043

> <Gold.Chemscore.Internal.Correction.Weighted>
   9.000000E+99

> <Gold.Protein.RotatedTorsions>
[ 6907 6896 6895 6894 ] final   73.98 input  -60.11 | X-H torsion
[ 7974 7965 7964 7962 ] final  131.01 input  175.53 | X-H torsion
[ 8008 7997 7996 7995 ] final  117.06 input   59.86 | X-H torsion
[ 10167 10162 10161 10158 ] final   10.60 input  -65.29 | X-H torsion
[ 10718 10713 10712 10709 ] final  -31.43 input   66.30 | X-H torsion
[ 10763 10752 10751 10750 ] final  -55.18 input  -60.55 | X-H torsion
[ 11005 11000 10999 10996 ] final -173.22 input  -57.11 | X-H torsion

> <Gold.Protein.ActiveResidues>
 VAL166  LYS551  ARG553  GLY616  TRP617  ASP618  TYR619  PRO620  LYS621  CYS622 
 ASP623  PHE694  ASN695  SER759  ASP760  ASP761  ALA762  ILE779  LEU786  VAL792 
 PHE793  MET794  SER795  GLU796  ALA797  LYS798  CYS799  TRP800  GLU811  SER814 

> <Gold.Protein.RotatedAtoms>
  152.4952  134.4341  159.9521 H   0  0  0  0  0  0  0  0  0  0  0  0  # atno 6907 bound_to 6896
  151.4321  133.3661  159.2778 H   0  0  0  0  0  0  0  0  0  0  0  0  # atno 6908 bound_to 6896
  150.9147  134.8588  159.7509 H   0  0  0  0  0  0  0  0  0  0  0  0  # atno 6909 bound_to 6896
  145.0118  139.4213  143.5241 H   0  0  0  0  0  0  0  0  0  0  0  0  # atno 7974 bound_to 7965
  156.2473  140.2904  156.0619 H   0  0  0  0  0  0  0  0  0  0  0  0  # atno 8008 bound_to 7997
  155.1766  140.0403  157.2891 H   0  0  0  0  0  0  0  0  0  0  0  0  # atno 8009 bound_to 7997
  154.6289  140.2494  155.7465 H   0  0  0  0  0  0  0  0  0  0  0  0  # atno 8010 bound_to 7997
  140.6184  143.8257  150.7146 H   0  0  0  0  0  0  0  0  0  0  0  0  # atno 10167 bound_to 10162
  156.3874  130.4367  149.7421 H   0  0  0  0  0  0  0  0  0  0  0  0  # atno 10718 bound_to 10713
  154.1867  135.6434  153.5049 H   0  0  0  0  0  0  0  0  0  0  0  0  # atno 10763 bound_to 10752
  153.0045  135.5419  154.6458 H   0  0  0  0  0  0  0  0  0  0  0  0  # atno 10764 bound_to 10752
  154.5836  135.2927  155.0680 H   0  0  0  0  0  0  0  0  0  0  0  0  # atno 10765 bound_to 10752
  140.4882  134.6010  157.4945 H   0  0  0  0  0  0  0  0  0  0  0  0  # atno 11005 bound_to 11000
  146.3471  139.9566  142.8722 LP  0  0  0  0  0  0  0  0  0  0  0  0  # atno 17320 bound_to 7965
  145.2013  140.9855  143.4154 LP  0  0  0  0  0  0  0  0  0  0  0  0  # atno 17321 bound_to 7965
  140.1842  143.4090  152.1911 LP  0  0  0  0  0  0  0  0  0  0  0  0  # atno 17342 bound_to 10162
  139.5418  144.7263  151.4710 LP  0  0  0  0  0  0  0  0  0  0  0  0  # atno 17343 bound_to 10162
  156.4488  130.7896  151.2918 LP  0  0  0  0  0  0  0  0  0  0  0  0  # atno 17370 bound_to 10713
  157.7497  131.0102  150.3297 LP  0  0  0  0  0  0  0  0  0  0  0  0  # atno 17371 bound_to 10713
  139.9785  134.7175  155.9903 LP  0  0  0  0  0  0  0  0  0  0  0  0  # atno 17394 bound_to 11000
  141.1497  133.6550  156.3977 LP  0  0  0  0  0  0  0  0  0  0  0  0  # atno 17395 bound_to 11000

$$$$
