AV-unprocessed.smi:1123|AV-procd|sdf|4832|dock4
  -GOLD-   22720 3393D 1   1.00000     0.00000
 Structure written by MMmdl.
 38 39  0  0  0  0  0  0  0  0  2 V2000
  152.9630  137.9841  154.8652 C   0  0  0  0  0  0  0  0  0  0  0  0
  151.4788  137.6967  154.5599 C   0  0  1  0  0  0  0  0  0  0  0  0
  150.9902  136.3759  155.1761 C   0  0  0  0  0  0  0  0  0  0  0  0
  151.6326  135.8208  156.0683 O   0  0  0  0  0  0  0  0  0  0  0  0
  149.8423  135.8784  154.6879 N   0  0  0  0  0  0  0  0  0  0  0  0
  149.1990  134.6562  155.1551 C   0  0  0  0  0  0  0  0  0  0  0  0
  147.6759  134.6939  154.9253 C   0  0  0  0  0  0  0  0  0  0  0  0
  147.3187  134.5722  153.4900 N   0  3  0  0  0  0  0  0  0  0  0  0
  147.3582  133.1686  153.0146 C   0  0  0  0  0  0  0  0  0  0  0  0
  147.0279  133.0972  151.5140 C   0  0  0  0  0  0  0  0  0  0  0  0
  145.7546  133.6840  151.2776 O   0  0  0  0  0  0  0  0  0  0  0  0
  145.7259  135.0572  151.6461 C   0  0  0  0  0  0  0  0  0  0  0  0
  146.0149  135.1956  153.1506 C   0  0  0  0  0  0  0  0  0  0  0  0
  150.6115  138.7953  154.9677 N   0  0  0  0  0  0  0  0  0  0  0  0
  149.5855  138.8067  155.8215 C   0  0  0  0  0  0  0  0  0  0  0  0
  149.0416  140.0031  155.9948 N   0  0  0  0  0  0  0  0  0  0  0  0
  149.8414  140.7389  155.1674 C   0  0  0  0  0  0  0  0  0  0  0  0
  150.8040  140.0670  154.5363 N   0  0  0  0  0  0  0  0  0  0  0  0
  153.6015  137.1756  154.5075 H   0  0  0  0  0  0  0  0  0  0  0  0
  153.1474  138.1019  155.9339 H   0  0  0  0  0  0  0  0  0  0  0  0
  153.2902  138.8999  154.3725 H   0  0  0  0  0  0  0  0  0  0  0  0
  151.3868  137.6019  153.4766 H   0  0  0  0  0  0  0  0  0  0  0  0
  149.3738  136.3929  153.9561 H   0  0  0  0  0  0  0  0  0  0  0  0
  149.6581  133.8002  154.6595 H   0  0  0  0  0  0  0  0  0  0  0  0
  149.4112  134.5479  156.2192 H   0  0  0  0  0  0  0  0  0  0  0  0
  147.2309  133.8643  155.4769 H   0  0  0  0  0  0  0  0  0  0  0  0
  147.2364  135.6050  155.3344 H   0  0  0  0  0  0  0  0  0  0  0  0
  148.3475  132.7447  153.1909 H   0  0  0  0  0  0  0  0  0  0  0  0
  146.6454  132.5690  153.5833 H   0  0  0  0  0  0  0  0  0  0  0  0
  147.7914  133.6035  150.9215 H   0  0  0  0  0  0  0  0  0  0  0  0
  147.0049  132.0588  151.1832 H   0  0  0  0  0  0  0  0  0  0  0  0
  146.4505  135.6203  151.0557 H   0  0  0  0  0  0  0  0  0  0  0  0
  144.7416  135.4640  151.4138 H   0  0  0  0  0  0  0  0  0  0  0  0
  145.2201  134.7181  153.7258 H   0  0  0  0  0  0  0  0  0  0  0  0
  146.0129  136.2508  153.4206 H   0  0  0  0  0  0  0  0  0  0  0  0
  149.2312  137.9224  156.3305 H   0  0  0  0  0  0  0  0  0  0  0  0
  149.7148  141.8029  155.0314 H   0  0  0  0  0  0  0  0  0  0  0  0
  148.0297  135.0668  152.9703 H   0  0  0  0  0  0  0  0  0  0  0  0
  1  2  1  0  0  0  0
  1 19  1  0  0  0  0
  1 20  1  0  0  0  0
  1 21  1  0  0  0  0
  2  3  1  0  0  0  0
  2 14  1  0  0  0  0
  2 22  1  0  0  0  0
  3  4  2  0  0  0  0
  3  5  1  0  0  0  0
  5  6  1  0  0  0  0
  5 23  1  0  0  0  0
  6  7  1  0  0  0  0
  6 24  1  0  0  0  0
  6 25  1  0  0  0  0
  7  8  1  0  0  0  0
  7 26  1  0  0  0  0
  7 27  1  0  0  0  0
  8 13  1  0  0  0  0
  8  9  1  0  0  0  0
  8 38  1  0  0  0  0
  9 10  1  0  0  0  0
  9 28  1  0  0  0  0
  9 29  1  0  0  0  0
 10 11  1  0  0  0  0
 10 30  1  0  0  0  0
 10 31  1  0  0  0  0
 11 12  1  0  0  0  0
 12 13  1  0  0  0  0
 12 32  1  0  0  0  0
 12 33  1  0  0  0  0
 13 34  1  0  0  0  0
 13 35  1  0  0  0  0
 14 18  1  0  0  0  0
 14 15  1  0  0  0  0
 15 16  2  0  0  0  0
 15 36  1  0  0  0  0
 16 17  1  0  0  0  0
 17 18  2  0  0  0  0
 17 37  1  0  0  0  0
M  CHG  1   8   1
M  END
> <s_m_source_file>
AV-unprocessed.smi

> <i_m_source_file_index>
1123

> <i_lp_mmshare_version>
43012

> <i_f3d_flags>
0

> <s_epik_input>
bjFbY0hdbltjSF1uMVtDQEhdKFtDSDNdKUMoPU8pW05IXVtDSDJdW0NIMl1OMltDSDJdW0NIMl1PW0NIMl1bQ0gyXTI=

> <s_epik_cmdline>
J2VwaWtfcHl0aG9uJywgJy1waCcsICc3LjAnLCAnLXRuJywgJzgnLCAnLW1hJywgJzIwMCcsICctbWV0YWxfYmluZGluZycsICctaW1hZScsICc8aW5maWxlLm1hZT4nLCAnLW9tYWUnLCAnPG91dGZpbGUubWFlPic=

> <r_lp_tautomer_probability>
1

> <r_epik_Ionization_Penalty>
0.71326

> <r_epik_Ionization_Penalty_Charging>
0.713252

> <r_epik_Ionization_Penalty_Neutral>
7.98515e-06

> <r_epik_State_Penalty>
0.737017

> <r_epik_Charging_Adjusted_Penalty>
1.45027

> <i_epik_Tot_Q>
1

> <i_epik_Tot_abs_Q>
1

> <r_epik_Metal_State_Penalty>
0.73702

> <b_epik_Metal_Only>
0

> <s_lp_Force_Field>
OPLS_2005

> <r_lp_Energy>
21.0283

> <b_lp_Chiralities_Consistent>
1

> <s_lp_Variant>
AV-unprocessed.smi:1123-4

> <Gold.Version>
5.8.1

> <Gold.Id.Protein>
6NUR|6NUR_protein|mol2

> <Gold.PLP.Fitness>
43.0564

> <Gold.PLP.PLP>
-28.9716

> <Gold.PLP.part.hbond>
-3.7369

> <Gold.PLP.part.metal>
0.0000

> <Gold.PLP.part.buried>
-4.4271

> <Gold.PLP.part.nonpolar>
-21.6463

> <Gold.PLP.part.repulsive>
0.3859

> <Gold.PLP.ligand.clash>
0.0000

> <Gold.PLP.ligand.torsion>
0.8075

> <Gold.PLP.Chemscore.Hbond>
4.5200

> <Gold.PLP.Chemscore.CHOScore>
0.6717

> <Gold.PLP.Chemscore.Metal>
0.0000

> <Gold.Chemscore.Hbonds>
donor molecule, donor type, donor heavy atom, donor atom, acceptor molecule, acceptor atom, score
      L1  H     5    23       P1  7948  0.60
      L1  H     8    38       P1  7948  2.00
      P1  H  7989  7998       L1    18  1.00
      P1  H 10752 10764       L1     4  0.75

> <Gold.PLP.Chemscore.Internal.Correction>
0.1246

> <Gold.Rescore>
     Score         DG    S(hbond)    S(metal)    S(lipo)     H(rot)  DE(clash)    DE(int)     intcor
     13.51     -15.03       3.34        0.00      45.03       2.69       0.04       1.48       ----

> <Gold.Chemscore.Fitness>
13.5132

> <Gold.Chemscore.DG>
-15.0271

> <Gold.Chemscore.ZeroCoef>
-5.4800

> <Gold.Chemscore.Hbond>
3.3440

> <Gold.Chemscore.Metal>
0.0000

> <Gold.Chemscore.Lipo>
45.0317

> <Gold.Chemscore.Internal_Hbond>
0.0000

> <Gold.Chemscore.DEClash>
0.0370

> <Gold.Chemscore.DEInternal>
1.4769

> <Gold.Chemscore.Rot>
2.6916

> <Gold.Chemscore.Internal.Correction>
   9.000000E+99

> <Gold.Chemscore.Hbonds>
donor molecule, donor type, donor heavy atom, donor atom, acceptor molecule, acceptor atom, score
      L1  H     5    23       P1  7948  0.53
      L1  H     8    38       P1  7948  0.97
      P1  H  7989  7998       L1    18  0.88
      P1  H 10752 10764       L1     4  0.09

> <Gold.Chemscore.Hbond.Weighted>
-11.1690

> <Gold.Chemscore.Metal.Weighted>
-0.0000

> <Gold.Chemscore.Lipo.Weighted>
-5.2687

> <Gold.Chemscore.Internal_Hbond.Weighted>
0.0000

> <Gold.Chemscore.DEClash.Weighted>
0.0370

> <Gold.Chemscore.DEInternal.Weighted>
1.4769

> <Gold.Chemscore.Rot.Weighted>
6.8906

> <Gold.Chemscore.Internal.Correction.Weighted>
   9.000000E+99

> <Gold.Protein.RotatedTorsions>
[ 6907 6896 6895 6894 ] final  -52.20 input  -60.11 | X-H torsion
[ 7974 7965 7964 7962 ] final  156.13 input  175.53 | X-H torsion
[ 8008 7997 7996 7995 ] final  122.25 input   59.86 | X-H torsion
[ 10167 10162 10161 10158 ] final  -85.20 input  -65.29 | X-H torsion
[ 10718 10713 10712 10709 ] final  120.20 input   66.30 | X-H torsion
[ 10763 10752 10751 10750 ] final  -33.25 input  -60.55 | X-H torsion
[ 11005 11000 10999 10996 ] final  107.81 input  -57.11 | X-H torsion

> <Gold.Protein.ActiveResidues>
 VAL166  LYS551  ARG553  GLY616  TRP617  ASP618  TYR619  PRO620  LYS621  CYS622 
 ASP623  PHE694  ASN695  SER759  ASP760  ASP761  ALA762  ILE779  LEU786  VAL792 
 PHE793  MET794  SER795  GLU796  ALA797  LYS798  CYS799  TRP800  GLU811  SER814 

> <Gold.Protein.RotatedAtoms>
  150.8540  134.7874  159.7030 H   0  0  0  0  0  0  0  0  0  0  0  0  # atno 6907 bound_to 6896
  152.4597  134.5209  159.9792 H   0  0  0  0  0  0  0  0  0  0  0  0  # atno 6908 bound_to 6896
  151.5324  133.3408  159.2956 H   0  0  0  0  0  0  0  0  0  0  0  0  # atno 6909 bound_to 6896
  144.7982  139.7162  143.6193 H   0  0  0  0  0  0  0  0  0  0  0  0  # atno 7974 bound_to 7965
  156.2720  140.2790  156.1437 H   0  0  0  0  0  0  0  0  0  0  0  0  # atno 8008 bound_to 7997
  155.0926  140.0389  157.2691 H   0  0  0  0  0  0  0  0  0  0  0  0  # atno 8009 bound_to 7997
  154.6877  140.2622  155.6849 H   0  0  0  0  0  0  0  0  0  0  0  0  # atno 8010 bound_to 7997
  140.4060  143.2643  151.9081 H   0  0  0  0  0  0  0  0  0  0  0  0  # atno 10167 bound_to 10162
  157.5908  131.1064  150.8002 H   0  0  0  0  0  0  0  0  0  0  0  0  # atno 10718 bound_to 10713
  153.8272  135.6869  153.4819 H   0  0  0  0  0  0  0  0  0  0  0  0  # atno 10763 bound_to 10752
  153.1533  135.4609  154.9666 H   0  0  0  0  0  0  0  0  0  0  0  0  # atno 10764 bound_to 10752
  154.7902  135.3299  154.7738 H   0  0  0  0  0  0  0  0  0  0  0  0  # atno 10765 bound_to 10752
  139.8834  134.9412  156.5876 H   0  0  0  0  0  0  0  0  0  0  0  0  # atno 11005 bound_to 11000
  146.2256  139.5717  142.9589 LP  0  0  0  0  0  0  0  0  0  0  0  0  # atno 17320 bound_to 7965
  145.5620  141.0403  143.2221 LP  0  0  0  0  0  0  0  0  0  0  0  0  # atno 17321 bound_to 7965
  139.4783  144.5586  151.8275 LP  0  0  0  0  0  0  0  0  0  0  0  0  # atno 17342 bound_to 10162
  140.4689  144.1615  150.5915 LP  0  0  0  0  0  0  0  0  0  0  0  0  # atno 17343 bound_to 10162
  156.8424  130.5052  149.5320 LP  0  0  0  0  0  0  0  0  0  0  0  0  # atno 17370 bound_to 10713
  156.0962  130.5934  150.9818 LP  0  0  0  0  0  0  0  0  0  0  0  0  # atno 17371 bound_to 10713
  140.7980  133.8529  155.8702 LP  0  0  0  0  0  0  0  0  0  0  0  0  # atno 17394 bound_to 11000
  140.9618  134.1645  157.4647 LP  0  0  0  0  0  0  0  0  0  0  0  0  # atno 17395 bound_to 11000

$$$$
