AV-unprocessed.smi:2514|AV-procd|sdf|9894|dock1
  -GOLD-   2272013533D 1   1.00000     0.00000
 Structure written by MMmdl.
 25 26  0  0  0  0  0  0  0  0  2 V2000
  152.1447  137.9023  156.2294 C   0  0  0  0  0  0  0  0  0  0  0  0
  151.5913  137.8969  154.7989 C   0  0  1  0  0  0  0  0  0  0  0  0
  151.0184  136.6360  154.5171 O   0  0  0  0  0  0  0  0  0  0  0  0
  150.5177  138.9286  154.5897 C   0  0  0  0  0  0  0  0  0  0  0  0
  149.1930  138.7368  154.3153 C   0  0  0  0  0  0  0  0  0  0  0  0
  148.6993  140.0197  154.2064 N   0  0  0  0  0  0  0  0  0  0  0  0
  147.3399  140.4186  153.9923 C   0  0  0  0  0  0  0  0  0  0  0  0
  146.9357  141.8877  154.0957 C   0  0  0  0  0  0  0  0  0  0  0  0
  145.6480  141.4356  154.6085 N   0  3  0  0  0  0  0  0  0  0  0  0
  146.2623  140.1909  155.0532 C   0  0  0  0  0  0  0  0  0  0  0  0
  149.6575  140.9456  154.4446 N   0  0  0  0  0  0  0  0  0  0  0  0
  150.7628  140.3029  154.6523 N   0  0  0  0  0  0  0  0  0  0  0  0
  152.5903  138.8674  156.4714 H   0  0  0  0  0  0  0  0  0  0  0  0
  152.9159  137.1415  156.3535 H   0  0  0  0  0  0  0  0  0  0  0  0
  151.3611  137.7044  156.9617 H   0  0  0  0  0  0  0  0  0  0  0  0
  152.4096  138.0582  154.0962 H   0  0  0  0  0  0  0  0  0  0  0  0
  150.7077  136.6404  153.6247 H   0  0  0  0  0  0  0  0  0  0  0  0
  148.5938  137.8465  154.1939 H   0  0  0  0  0  0  0  0  0  0  0  0
  147.0385  139.9955  153.0312 H   0  0  0  0  0  0  0  0  0  0  0  0
  147.5039  142.4452  154.8431 H   0  0  0  0  0  0  0  0  0  0  0  0
  146.8759  142.4172  153.1445 H   0  0  0  0  0  0  0  0  0  0  0  0
  145.2806  142.0041  155.3585 H   0  0  0  0  0  0  0  0  0  0  0  0
  145.6417  139.3078  154.8978 H   0  0  0  0  0  0  0  0  0  0  0  0
  146.6313  140.2599  156.0784 H   0  0  0  0  0  0  0  0  0  0  0  0
  144.9873  141.2757  153.8613 H   0  0  0  0  0  0  0  0  0  0  0  0
  1  2  1  0  0  0  0
  1 13  1  0  0  0  0
  1 14  1  0  0  0  0
  1 15  1  0  0  0  0
  2  3  1  0  0  0  0
  2  4  1  0  0  0  0
  2 16  1  0  0  0  0
  3 17  1  0  0  0  0
  4 12  1  0  0  0  0
  4  5  2  0  0  0  0
  5  6  1  0  0  0  0
  5 18  1  0  0  0  0
  6  7  1  0  0  0  0
  6 11  1  0  0  0  0
  7 10  1  0  0  0  0
  7  8  1  0  0  0  0
  7 19  1  0  0  0  0
  8  9  1  0  0  0  0
  8 20  1  0  0  0  0
  8 21  1  0  0  0  0
  9 10  1  0  0  0  0
  9 22  1  0  0  0  0
  9 25  1  0  0  0  0
 10 23  1  0  0  0  0
 10 24  1  0  0  0  0
 11 12  2  0  0  0  0
M  CHG  1   9   1
M  END
> <s_m_source_file>
AV-unprocessed.smi

> <i_m_source_file_index>
2514

> <i_lp_mmshare_version>
43012

> <i_f3d_flags>
0

> <s_epik_input>
W0NIM11bQ0BIXShbT0hdKWMxW2NIXW4obm4xKVtDSF0yW0NIMl1bTkhdW0NIMl0y

> <s_epik_cmdline>
J2VwaWtfcHl0aG9uJywgJy1waCcsICc3LjAnLCAnLXRuJywgJzgnLCAnLW1hJywgJzIwMCcsICctbWV0YWxfYmluZGluZycsICctaW1hZScsICc8aW5maWxlLm1hZT4nLCAnLW9tYWUnLCAnPG91dGZpbGUubWFlPic=

> <r_lp_tautomer_probability>
1

> <r_epik_Ionization_Penalty>
0.215039

> <r_epik_Ionization_Penalty_Charging>
0.215038

> <r_epik_Ionization_Penalty_Neutral>
9.39085e-07

> <r_epik_State_Penalty>
0.20523

> <r_epik_Charging_Adjusted_Penalty>
0.420268

> <i_epik_Tot_Q>
1

> <i_epik_Tot_abs_Q>
1

> <r_epik_Metal_State_Penalty>
0.205259

> <b_epik_Metal_Only>
0

> <s_lp_Force_Field>
OPLS_2005

> <r_lp_Energy>
12.9729

> <b_lp_Chiralities_Consistent>
1

> <s_lp_Variant>
AV-unprocessed.smi:2514-2

> <Gold.Version>
5.8.1

> <Gold.Id.Protein>
6NUR|6NUR_protein|mol2

> <Gold.PLP.Fitness>
40.8063

> <Gold.PLP.PLP>
-23.1604

> <Gold.PLP.part.hbond>
-4.8824

> <Gold.PLP.part.metal>
0.0000

> <Gold.PLP.part.buried>
-2.4299

> <Gold.PLP.part.nonpolar>
-16.6042

> <Gold.PLP.part.repulsive>
0.2138

> <Gold.PLP.ligand.clash>
0.0000

> <Gold.PLP.ligand.torsion>
0.2175

> <Gold.PLP.Chemscore.Hbond>
4.9353

> <Gold.PLP.Chemscore.CHOScore>
1.0000

> <Gold.PLP.Chemscore.Metal>
0.0000

> <Gold.Chemscore.Hbonds>
donor molecule, donor type, donor heavy atom, donor atom, acceptor molecule, acceptor atom, score
      L1  H     3    17       P1  7949  0.23
      L1  H     9    25       P1 10175  1.92
      P1  H  7989  7998       L1    12  1.00
      P1  H 10752 10763       L1     3  0.48
      L1  C     5    18       P1  7948  0.16

> <Gold.PLP.Chemscore.Internal.Correction>
0.2751

> <Gold.Rescore>
     Score         DG    S(hbond)    S(metal)    S(lipo)     H(rot)  DE(clash)    DE(int)     intcor
     14.48     -15.01       2.79        0.00      41.77       1.83       0.02       0.50       ----

> <Gold.Chemscore.Fitness>
14.4849

> <Gold.Chemscore.DG>
-15.0066

> <Gold.Chemscore.ZeroCoef>
-5.4800

> <Gold.Chemscore.Hbond>
2.7926

> <Gold.Chemscore.Metal>
0.0000

> <Gold.Chemscore.Lipo>
41.7707

> <Gold.Chemscore.Internal_Hbond>
0.0000

> <Gold.Chemscore.DEClash>
0.0178

> <Gold.Chemscore.DEInternal>
0.5039

> <Gold.Chemscore.Rot>
1.8312

> <Gold.Chemscore.Internal.Correction>
   9.000000E+99

> <Gold.Chemscore.Hbonds>
donor molecule, donor type, donor heavy atom, donor atom, acceptor molecule, acceptor atom, score
      L1  H     3    17       P1  7949  0.02
      L1  H     9    25       P1 10175  0.46
      P1  H  7989  7998       L1    12  0.22
      P1  H 10752 10763       L1     3  0.02

> <Gold.Chemscore.Hbond.Weighted>
-9.3274

> <Gold.Chemscore.Metal.Weighted>
-0.0000

> <Gold.Chemscore.Lipo.Weighted>
-4.8872

> <Gold.Chemscore.Internal_Hbond.Weighted>
0.0000

> <Gold.Chemscore.DEClash.Weighted>
0.0178

> <Gold.Chemscore.DEInternal.Weighted>
0.5039

> <Gold.Chemscore.Rot.Weighted>
4.6879

> <Gold.Chemscore.Internal.Correction.Weighted>
   9.000000E+99

> <Gold.Protein.RotatedTorsions>
[ 6907 6896 6895 6894 ] final   62.03 input  -60.11 | X-H torsion
[ 7974 7965 7964 7962 ] final   90.72 input  175.53 | X-H torsion
[ 8008 7997 7996 7995 ] final  -51.49 input   59.86 | X-H torsion
[ 10167 10162 10161 10158 ] final  100.01 input  -65.29 | X-H torsion
[ 10718 10713 10712 10709 ] final -179.81 input   66.30 | X-H torsion
[ 10763 10752 10751 10750 ] final   43.41 input  -60.55 | X-H torsion
[ 11005 11000 10999 10996 ] final   10.52 input  -57.11 | X-H torsion

> <Gold.Protein.ActiveResidues>
 VAL166  LYS551  ARG553  GLY616  TRP617  ASP618  TYR619  PRO620  LYS621  CYS622 
 ASP623  PHE694  ASN695  SER759  ASP760  ASP761  ALA762  ILE779  LEU786  VAL792 
 PHE793  MET794  SER795  GLU796  ALA797  LYS798  CYS799  TRP800  GLU811  SER814 

> <Gold.Protein.RotatedAtoms>
  152.4138  134.6077  160.0016 H   0  0  0  0  0  0  0  0  0  0  0  0  # atno 6907 bound_to 6896
  151.6246  133.3331  159.3103 H   0  0  0  0  0  0  0  0  0  0  0  0  # atno 6908 bound_to 6896
  150.8028  134.7173  159.6682 H   0  0  0  0  0  0  0  0  0  0  0  0  # atno 6909 bound_to 6896
  145.5152  139.2278  143.2702 H   0  0  0  0  0  0  0  0  0  0  0  0  # atno 7974 bound_to 7965
  154.4084  140.1247  156.4837 H   0  0  0  0  0  0  0  0  0  0  0  0  # atno 8008 bound_to 7997
  155.7060  140.3494  155.4933 H   0  0  0  0  0  0  0  0  0  0  0  0  # atno 8009 bound_to 7997
  155.9343  140.1075  157.1097 H   0  0  0  0  0  0  0  0  0  0  0  0  # atno 8010 bound_to 7997
  139.7566  144.6968  151.0354 H   0  0  0  0  0  0  0  0  0  0  0  0  # atno 10167 bound_to 10162
  156.8646  130.9763  151.3080 H   0  0  0  0  0  0  0  0  0  0  0  0  # atno 10718 bound_to 10713
  152.9861  135.6102  154.3107 H   0  0  0  0  0  0  0  0  0  0  0  0  # atno 10763 bound_to 10752
  154.2822  135.2777  155.2694 H   0  0  0  0  0  0  0  0  0  0  0  0  # atno 10764 bound_to 10752
  154.5027  135.5862  153.6600 H   0  0  0  0  0  0  0  0  0  0  0  0  # atno 10765 bound_to 10752
  140.5136  134.0628  155.7825 H   0  0  0  0  0  0  0  0  0  0  0  0  # atno 11005 bound_to 11000
  146.2141  140.5961  142.9046 LP  0  0  0  0  0  0  0  0  0  0  0  0  # atno 17320 bound_to 7965
  144.7706  140.5628  143.6673 LP  0  0  0  0  0  0  0  0  0  0  0  0  # atno 17321 bound_to 7965
  140.7803  143.4746  151.0099 LP  0  0  0  0  0  0  0  0  0  0  0  0  # atno 17342 bound_to 10162
  139.8433  143.7535  152.3180 LP  0  0  0  0  0  0  0  0  0  0  0  0  # atno 17343 bound_to 10162
  157.6230  130.8670  149.9142 LP  0  0  0  0  0  0  0  0  0  0  0  0  # atno 17370 bound_to 10713
  156.0758  130.3679  150.0680 LP  0  0  0  0  0  0  0  0  0  0  0  0  # atno 17371 bound_to 10713
  141.1372  133.9200  157.2407 LP  0  0  0  0  0  0  0  0  0  0  0  0  # atno 17394 bound_to 11000
  139.9645  135.0145  156.9350 LP  0  0  0  0  0  0  0  0  0  0  0  0  # atno 17395 bound_to 11000

$$$$
