AV-unprocessed.smi:670|AV-procd|sdf|3271|dock4
  -GOLD-   22720 0223D 1   1.00000     0.00000
 Structure written by MMmdl.
 45 46  0  0  0  0  0  0  0  0  1 V2000
  153.5060  140.4386  159.8831 C   0  0  0  0  0  0  0  0  0  0  0  0
  153.3935  141.9232  160.2630 C   0  0  2  0  0  0  0  0  0  0  0  0
  153.0139  142.1120  161.7456 C   0  0  0  0  0  0  0  0  0  0  0  0
  152.9366  143.6017  162.1184 C   0  0  0  0  0  0  0  0  0  0  0  0
  151.9666  144.3614  161.1994 C   0  0  0  0  0  0  0  0  0  0  0  0
  152.3310  144.1701  159.7168 C   0  0  0  0  0  0  0  0  0  0  0  0
  152.4117  142.6780  159.3407 C   0  0  2  0  0  0  0  0  0  0  0  0
  151.1270  142.0909  159.4914 O   0  0  0  0  0  0  0  0  0  0  0  0
  150.7683  141.1623  158.4823 C   0  0  0  0  0  0  0  0  0  0  0  0
  150.4340  141.9356  157.1987 C   0  0  0  0  0  0  0  0  0  0  0  0
  149.1732  142.6603  157.3304 N   0  0  0  0  0  0  0  0  0  0  0  0
  148.0222  142.1303  157.7739 C   0  0  0  0  0  0  0  0  0  0  0  0
  147.9226  140.9648  158.1616 O   0  0  0  0  0  0  0  0  0  0  0  0
  146.8079  143.0714  157.7719 C   0  0  0  0  0  0  0  0  0  0  0  0
  146.1222  143.1555  159.0703 N   0  0  0  0  0  0  0  0  0  0  0  0
  144.7748  142.8323  159.0172 N   0  0  0  0  0  0  0  0  0  0  0  0
  144.0563  142.8836  160.0875 C   0  0  0  0  0  0  0  0  0  0  0  0
  142.7259  142.5573  159.9897 O   0  0  0  0  0  0  0  0  0  0  0  0
  144.6308  143.2721  161.3570 C   0  0  0  0  0  0  0  0  0  0  0  0
  145.9454  143.5806  161.4000 C   0  0  0  0  0  0  0  0  0  0  0  0
  146.7896  143.5313  160.2050 C   0  0  0  0  0  0  0  0  0  0  0  0
  147.9894  143.8032  160.2180 O   0  0  0  0  0  0  0  0  0  0  0  0
  142.4737  142.2668  160.8525 H   0  0  0  0  0  0  0  0  0  0  0  0
  152.5487  139.9274  159.9853 H   0  0  0  0  0  0  0  0  0  0  0  0
  154.2267  139.9230  160.5182 H   0  0  0  0  0  0  0  0  0  0  0  0
  153.8336  140.3218  158.8499 H   0  0  0  0  0  0  0  0  0  0  0  0
  154.3820  142.3622  160.1202 H   0  0  0  0  0  0  0  0  0  0  0  0
  152.0546  141.6330  161.9482 H   0  0  0  0  0  0  0  0  0  0  0  0
  153.7446  141.6142  162.3839 H   0  0  0  0  0  0  0  0  0  0  0  0
  152.6244  143.7082  163.1577 H   0  0  0  0  0  0  0  0  0  0  0  0
  153.9296  144.0472  162.0473 H   0  0  0  0  0  0  0  0  0  0  0  0
  150.9490  144.0098  161.3743 H   0  0  0  0  0  0  0  0  0  0  0  0
  151.9722  145.4226  161.4492 H   0  0  0  0  0  0  0  0  0  0  0  0
  151.6039  144.6824  159.0864 H   0  0  0  0  0  0  0  0  0  0  0  0
  153.2932  144.6439  159.5182 H   0  0  0  0  0  0  0  0  0  0  0  0
  152.7589  142.5793  158.3103 H   0  0  0  0  0  0  0  0  0  0  0  0
  151.5907  140.4706  158.2968 H   0  0  0  0  0  0  0  0  0  0  0  0
  149.9072  140.5737  158.8026 H   0  0  0  0  0  0  0  0  0  0  0  0
  151.2495  142.6130  156.9399 H   0  0  0  0  0  0  0  0  0  0  0  0
  150.3380  141.2384  156.3663 H   0  0  0  0  0  0  0  0  0  0  0  0
  149.1687  143.6256  157.0348 H   0  0  0  0  0  0  0  0  0  0  0  0
  147.1457  144.0628  157.4644 H   0  0  0  0  0  0  0  0  0  0  0  0
  146.1096  142.7477  156.9978 H   0  0  0  0  0  0  0  0  0  0  0  0
  144.0170  143.3113  162.2446 H   0  0  0  0  0  0  0  0  0  0  0  0
  146.3881  143.8724  162.3411 H   0  0  0  0  0  0  0  0  0  0  0  0
  1  2  1  0  0  0  0
  1 24  1  0  0  0  0
  1 25  1  0  0  0  0
  1 26  1  0  0  0  0
  2  7  1  0  0  0  0
  2  3  1  0  0  0  0
  2 27  1  0  0  0  0
  3  4  1  0  0  0  0
  3 28  1  0  0  0  0
  3 29  1  0  0  0  0
  4  5  1  0  0  0  0
  4 30  1  0  0  0  0
  4 31  1  0  0  0  0
  5  6  1  0  0  0  0
  5 32  1  0  0  0  0
  5 33  1  0  0  0  0
  6  7  1  0  0  0  0
  6 34  1  0  0  0  0
  6 35  1  0  0  0  0
  7  8  1  0  0  0  0
  7 36  1  0  0  0  0
  8  9  1  0  0  0  0
  9 10  1  0  0  0  0
  9 37  1  0  0  0  0
  9 38  1  0  0  0  0
 10 11  1  0  0  0  0
 10 39  1  0  0  0  0
 10 40  1  0  0  0  0
 11 12  1  0  0  0  0
 11 41  1  0  0  0  0
 12 13  2  0  0  0  0
 12 14  1  0  0  0  0
 14 42  1  0  0  0  0
 14 43  1  0  0  0  0
 14 15  1  0  0  0  0
 15 16  1  0  0  0  0
 15 21  1  0  0  0  0
 16 17  2  0  0  0  0
 17 18  1  0  0  0  0
 17 19  1  0  0  0  0
 18 23  1  0  0  0  0
 19 44  1  0  0  0  0
 19 20  2  0  0  0  0
 20 45  1  0  0  0  0
 20 21  1  0  0  0  0
 21 22  2  0  0  0  0
M  END
> <s_m_source_file>
AV-unprocessed.smi

> <i_m_source_file_index>
670

> <i_lp_mmshare_version>
43012

> <i_f3d_flags>
0

> <s_epik_input>
W0NIM11bQ0BASF0xW0NIMl1bQ0gyXVtDSDJdW0NIMl1bQ0BIXTFPW0NIMl1bQ0gyXVtOSF1DKD1PKVtDSDJdbjJbbkhdYyg9TylbY0hdW2NIXWMyPU8=

> <s_epik_cmdline>
J2VwaWtfcHl0aG9uJywgJy1waCcsICc3LjAnLCAnLXRuJywgJzgnLCAnLW1hJywgJzIwMCcsICctbWV0YWxfYmluZGluZycsICctaW1hZScsICc8aW5maWxlLm1hZT4nLCAnLW9tYWUnLCAnPG91dGZpbGUubWFlPic=

> <r_lp_tautomer_probability>
0.9996

> <r_epik_Ionization_Penalty>
2.12726

> <r_epik_Ionization_Penalty_Charging>
3.83395e-08

> <r_epik_Ionization_Penalty_Neutral>
2.12726

> <r_epik_State_Penalty>
1.70432

> <r_epik_Charging_Adjusted_Penalty>
1.70432

> <i_epik_Tot_Q>
0

> <i_epik_Tot_abs_Q>
0

> <r_epik_Metal_State_Penalty>
1.70432

> <b_epik_Metal_Only>
0

> <s_lp_Force_Field>
OPLS_2005

> <r_lp_Energy>
20.0493

> <b_lp_Chiralities_Consistent>
1

> <s_lp_Variant>
AV-unprocessed.smi:670-7

> <Gold.Version>
5.8.1

> <Gold.Id.Protein>
6NUR|6NUR_protein|mol2

> <Gold.PLP.Fitness>
48.1798

> <Gold.PLP.PLP>
-43.7318

> <Gold.PLP.part.hbond>
-4.0000

> <Gold.PLP.part.metal>
0.0000

> <Gold.PLP.part.buried>
-5.9259

> <Gold.PLP.part.nonpolar>
-33.6567

> <Gold.PLP.part.repulsive>
0.1464

> <Gold.PLP.ligand.clash>
0.0000

> <Gold.PLP.ligand.torsion>
0.7394

> <Gold.PLP.Chemscore.Hbond>
1.9500

> <Gold.PLP.Chemscore.CHOScore>
0.0000

> <Gold.PLP.Chemscore.Metal>
0.0000

> <Gold.Chemscore.Hbonds>
donor molecule, donor type, donor heavy atom, donor atom, acceptor molecule, acceptor atom, score
      L1  H    11    41       P1  8028  0.91
      P1  H  6933  6944       L1    22  0.80

> <Gold.PLP.Chemscore.Internal.Correction>
0.0769

> <Gold.Rescore>
     Score         DG    S(hbond)    S(metal)    S(lipo)     H(rot)  DE(clash)    DE(int)     intcor
     11.04     -14.58       1.80        0.00      93.99       3.09       0.02       3.51       ----

> <Gold.Chemscore.Fitness>
11.0448

> <Gold.Chemscore.DG>
-14.5771

> <Gold.Chemscore.ZeroCoef>
-5.4800

> <Gold.Chemscore.Hbond>
1.7995

> <Gold.Chemscore.Metal>
0.0000

> <Gold.Chemscore.Lipo>
93.9948

> <Gold.Chemscore.Internal_Hbond>
0.0000

> <Gold.Chemscore.DEClash>
0.0174

> <Gold.Chemscore.DEInternal>
3.5149

> <Gold.Chemscore.Rot>
3.0901

> <Gold.Chemscore.Internal.Correction>
   9.000000E+99

> <Gold.Chemscore.Hbonds>
donor molecule, donor type, donor heavy atom, donor atom, acceptor molecule, acceptor atom, score
      L1  H    11    41       P1  8028  0.58
      P1  H  6933  6944       L1    22  0.11

> <Gold.Chemscore.Hbond.Weighted>
-6.0103

> <Gold.Chemscore.Metal.Weighted>
-0.0000

> <Gold.Chemscore.Lipo.Weighted>
-10.9974

> <Gold.Chemscore.Internal_Hbond.Weighted>
0.0000

> <Gold.Chemscore.DEClash.Weighted>
0.0174

> <Gold.Chemscore.DEInternal.Weighted>
3.5149

> <Gold.Chemscore.Rot.Weighted>
7.9106

> <Gold.Chemscore.Internal.Correction.Weighted>
   9.000000E+99

> <Gold.Protein.RotatedTorsions>
[ 6907 6896 6895 6894 ] final  -46.47 input  -60.11 | X-H torsion
[ 7974 7965 7964 7962 ] final  112.01 input  175.53 | X-H torsion
[ 8008 7997 7996 7995 ] final  -80.40 input   59.86 | X-H torsion
[ 10167 10162 10161 10158 ] final   74.71 input  -65.29 | X-H torsion
[ 10718 10713 10712 10709 ] final  161.26 input   66.30 | X-H torsion
[ 10763 10752 10751 10750 ] final   97.72 input  -60.55 | X-H torsion
[ 11005 11000 10999 10996 ] final   14.01 input  -57.11 | X-H torsion

> <Gold.Protein.ActiveResidues>
 VAL166  LYS551  ARG553  GLY616  TRP617  ASP618  TYR619  PRO620  LYS621  CYS622 
 ASP623  PHE694  ASN695  SER759  ASP760  ASP761  ALA762  ILE779  LEU786  VAL792 
 PHE793  MET794  SER795  GLU796  ALA797  LYS798  CYS799  TRP800  GLU811  SER814 

> <Gold.Protein.RotatedAtoms>
  150.9109  134.8525  159.7424 H   0  0  0  0  0  0  0  0  0  0  0  0  # atno 6907 bound_to 6896
  152.4943  134.4361  159.9538 H   0  0  0  0  0  0  0  0  0  0  0  0  # atno 6908 bound_to 6896
  151.4403  133.3606  159.2816 H   0  0  0  0  0  0  0  0  0  0  0  0  # atno 6909 bound_to 6896
  145.2349  139.2803  143.4148 H   0  0  0  0  0  0  0  0  0  0  0  0  # atno 7974 bound_to 7965
  154.5879  140.0663  156.9197 H   0  0  0  0  0  0  0  0  0  0  0  0  # atno 8008 bound_to 7997
  155.2347  140.3340  155.4281 H   0  0  0  0  0  0  0  0  0  0  0  0  # atno 8009 bound_to 7997
  156.2235  140.1809  156.7403 H   0  0  0  0  0  0  0  0  0  0  0  0  # atno 8010 bound_to 7997
  140.0107  144.5616  150.7660 H   0  0  0  0  0  0  0  0  0  0  0  0  # atno 10167 bound_to 10162
  157.1390  131.0535  151.2336 H   0  0  0  0  0  0  0  0  0  0  0  0  # atno 10718 bound_to 10713
  153.2803  135.4173  155.1072 H   0  0  0  0  0  0  0  0  0  0  0  0  # atno 10763 bound_to 10752
  154.8487  135.3493  154.6121 H   0  0  0  0  0  0  0  0  0  0  0  0  # atno 10764 bound_to 10752
  153.6542  135.7051  153.5256 H   0  0  0  0  0  0  0  0  0  0  0  0  # atno 10765 bound_to 10752
  140.4743  134.0999  155.7738 H   0  0  0  0  0  0  0  0  0  0  0  0  # atno 11005 bound_to 11000
  146.3343  140.2695  142.8605 LP  0  0  0  0  0  0  0  0  0  0  0  0  # atno 17320 bound_to 7965
  144.9642  140.8305  143.5495 LP  0  0  0  0  0  0  0  0  0  0  0  0  # atno 17321 bound_to 7965
  140.7382  143.2775  151.3696 LP  0  0  0  0  0  0  0  0  0  0  0  0  # atno 17342 bound_to 10162
  139.6207  144.0913  152.2388 LP  0  0  0  0  0  0  0  0  0  0  0  0  # atno 17343 bound_to 10162
  157.4324  130.7498  149.7001 LP  0  0  0  0  0  0  0  0  0  0  0  0  # atno 17370 bound_to 10713
  155.9792  130.4042  150.3600 LP  0  0  0  0  0  0  0  0  0  0  0  0  # atno 17371 bound_to 10713
  141.1562  133.8879  157.1971 LP  0  0  0  0  0  0  0  0  0  0  0  0  # atno 17394 bound_to 11000
  139.9865  135.0080  156.9875 LP  0  0  0  0  0  0  0  0  0  0  0  0  # atno 17395 bound_to 11000

$$$$
