#       Name:                AV-unprocessed.smi:1485
#       Creating user name   scv26
#       Creation time:       Fri Mar 27 06:09:59 2020


#       File generated by GOLD software.
#

@<TRIPOS>MOLECULE
AV-unprocessed.smi:1485
    51    52     1
SMALL
NO_CHARGES


@<TRIPOS>ATOM
      1 ****        -2.4618   0.2898   2.4603 C.3            1 S1                 0.0000
      2 ****        -1.9929  -1.0461   2.4124 O.3            1 S1                 0.0000
      3 ****        -2.4287  -1.7333   1.2504 C.3            1 S1                 0.0000
      4 ****        -1.8067  -3.1446   1.2200 C.3            1 S1                 0.0000
      5 ****        -0.3324  -3.1479   1.2197 N.am           1 S1                 0.0000
      6 ****         0.2476  -2.1722   0.4247 N.2            1 S1                 0.0000
      7 ****         1.5331  -2.0434   0.3740 C.2            1 S1                 0.0000
      8 ****         2.1762  -0.9624  -0.4212 C.2            1 S1                 0.0000
      9 ****         3.3964  -0.7924  -0.4267 O.2            1 S1                 0.0000
     10 ****         1.3223  -0.1794  -1.1040 N.am           1 S1                 0.0000
     11 ****         1.6692   1.0191  -1.8625 C.3            1 S1                 0.0000
     12 ****         0.7149   1.1839  -3.0607 C.3            1 S1                 0.0000
     13 ****        -0.7145   1.5437  -2.6188 C.3            1 S1                 0.0000
     14 ****        -0.7260   2.7909  -1.7210 C.3            1 S1                 0.0000
     15 ****         0.1966   2.6186  -0.4995 C.3            1 S1                 0.0000
     16 ****         0.1807   3.8649   0.3964 C.3            1 S1                 0.0000
     17 ****         1.6299   2.2652  -0.9523 C.3            1 S1                 0.0000
     18 ****         2.3994  -2.9446   1.1123 C.2            1 S1                 0.0000
     19 ****         1.8253  -3.9146   1.8570 C.2            1 S1                 0.0000
     20 ****         0.3717  -4.0730   1.9418 C.2            1 S1                 0.0000
     21 ****        -0.1643  -4.9632   2.6011 O.2            1 S1                 0.0000
     22 ****        -2.1070   0.7705   3.3718 H              1 S1                 0.0000
     23 ****        -3.5518   0.3263   2.4621 H              1 S1                 0.0000
     24 ****        -2.0928   0.8669   1.6113 H              1 S1                 0.0000
     25 ****        -3.5165  -1.8159   1.2653 H              1 S1                 0.0000
     26 ****        -2.1707  -1.1716   0.3507 H              1 S1                 0.0000
     27 ****        -2.2084  -3.6986   2.0697 H              1 S1                 0.0000
     28 ****        -2.1474  -3.6718   0.3283 H              1 S1                 0.0000
     29 ****         0.3391  -0.4019  -1.0421 H              1 S1                 0.0000
     30 ****         2.6808   0.9043  -2.2554 H              1 S1                 0.0000
     31 ****         1.0944   1.9721  -3.7124 H              1 S1                 0.0000
     32 ****         0.7029   0.2738  -3.6618 H              1 S1                 0.0000
     33 ****        -1.3397   1.7135  -3.4958 H              1 S1                 0.0000
     34 ****        -1.1597   0.7041  -2.0835 H              1 S1                 0.0000
     35 ****        -0.4105   3.6586  -2.3018 H              1 S1                 0.0000
     36 ****        -1.7460   2.9937  -1.3932 H              1 S1                 0.0000
     37 ****        -0.1879   1.7895   0.0962 H              1 S1                 0.0000
     38 ****         0.5684   4.7376  -0.1301 H              1 S1                 0.0000
     39 ****         0.7906   3.7145   1.2875 H              1 S1                 0.0000
     40 ****        -0.8321   4.0975   0.7269 H              1 S1                 0.0000
     41 ****         2.2706   2.1115  -0.0829 H              1 S1                 0.0000
     42 ****         2.0555   3.1114  -1.4932 H              1 S1                 0.0000
     43 ****         3.4749  -2.8505   1.0682 H              1 S1                 0.0000
     44 ****         2.4568  -4.5946   2.4099 H              1 S1                 0.0000
     45 ****        -2.3295  -1.5332   3.2183 LP             1 S1                 0.0000
     46 ****        -0.9930  -1.0356   2.4228 LP             1 S1                 0.0000
     47 ****        -0.3332  -1.5624  -0.1145 LP             1 S1                 0.0000
     48 ****         3.9871  -1.3908   0.1147 LP             1 S1                 0.0000
     49 ****         3.7962  -0.0560  -0.9725 LP             1 S1                 0.0000
     50 ****        -1.1614  -5.0352   2.6265 LP             1 S1                 0.0000
     51 ****         0.3972  -5.6145   3.1115 LP             1 S1                 0.0000
@<TRIPOS>BOND
    1    1    2 1     
    2    1   22 1     
    3    1   23 1     
    4    1   24 1     
    5    2    3 1     
    6    3    4 1     
    7    3   25 1     
    8    3   26 1     
    9    4    5 1     
   10    4   27 1     
   11    4   28 1     
   12    5   20 am    
   13    5    6 1     
   14    6    7 2     
   15    7    8 1     
   16    7   18 1     
   17    8    9 2     
   18    8   10 am    
   19   10   11 1     
   20   10   29 1     
   21   11   17 1     
   22   11   12 1     
   23   11   30 1     
   24   12   13 1     
   25   12   31 1     
   26   12   32 1     
   27   13   14 1     
   28   13   33 1     
   29   13   34 1     
   30   14   15 1     
   31   14   35 1     
   32   14   36 1     
   33   15   16 1     
   34   15   17 1     
   35   15   37 1     
   36   16   38 1     
   37   16   39 1     
   38   16   40 1     
   39   17   41 1     
   40   17   42 1     
   41   18   19 2     
   42   18   43 1     
   43   19   20 1     
   44   19   44 1     
   45   20   21 2     
   46    2   45 1     
   47    2   46 1     
   48    6   47 1     
   49    9   48 1     
   50    9   49 1     
   51   21   50 1     
   52   21   51 1     
@<TRIPOS>SUBSTRUCTURE
      1 S1             1
@<TRIPOS>SET
LONE_PAIRS      STATIC     ATOMS    <user>   **** ""
7 45 46 47 48 49 50 51
DONOR_HYDROGENS      STATIC     ATOMS    <user>   **** ""
1 29
ATOM$BLUE        STATIC     ATOMS    COLORGROUP SYSTEM
7 45 46 47 48 49 50 51
ATOM$RED        STATIC     ATOMS    COLORGROUP SYSTEM
1 29
