#       Name:                AV-unprocessed.smi:100
#       Creating user name   scv26
#       Creation time:       Thu Mar 26 17:39:54 2020


#       File generated by GOLD software.
#

@<TRIPOS>MOLECULE
AV-unprocessed.smi:100
    40    42     1
SMALL
NO_CHARGES


@<TRIPOS>ATOM
      1 ****        -5.2446   0.3575  -0.2764 N.pl3          1 S1                 0.0000
      2 ****        -4.0567   0.9554  -0.1109 C.ar           1 S1                 0.0000
      3 ****        -4.0299   2.2994   0.0484 N.ar           1 S1                 0.0000
      4 ****        -2.8568   2.9195   0.2141 C.ar           1 S1                 0.0000
      5 ****        -1.6298   2.3919   0.2499 N.ar           1 S1                 0.0000
      6 ****        -1.6598   1.0359   0.0886 C.ar           1 S1                 0.0000
      7 ****        -2.8285   0.2469  -0.0958 C.ar           1 S1                 0.0000
      8 ****        -2.4798  -1.0901  -0.2246 N.2            1 S1                 0.0000
      9 ****        -1.1774  -1.0861  -0.1256 C.2            1 S1                 0.0000
     10 ****        -0.6004   0.1526   0.0690 N.pl3          1 S1                 0.0000
     11 ****         0.8472   0.5121   0.2125 C.3            1 S1                 0.0000
     12 ****         1.5356  -0.0505  -0.8675 O.3            1 S1                 0.0000
     13 ****         2.3056  -1.1666  -0.4272 C.3            1 S1                 0.0000
     14 ****         3.4761  -1.4414  -1.3844 C.3            1 S1                 0.0000
     15 ****         3.0365  -2.2281  -2.4708 O.3            1 S1                 0.0000
     16 ****         2.7250  -0.7226   0.9732 C.3            1 S1                 0.0000
     17 ****         3.6849   0.2016   0.8658 F              1 S1                 0.0000
     18 ****         1.4354  -0.1055   1.4926 C.3            1 S1                 0.0000
     19 ****         1.7035   0.8360   2.5124 O.3            1 S1                 0.0000
     20 ****        -5.2894  -0.6442  -0.3978 H              1 S1                 0.0000
     21 ****        -6.0903   0.9089  -0.2843 H              1 S1                 0.0000
     22 ****        -2.9083   3.9914   0.3359 H              1 S1                 0.0000
     23 ****        -0.6056  -1.9988  -0.1914 H              1 S1                 0.0000
     24 ****         0.9050   1.6000   0.1655 H              1 S1                 0.0000
     25 ****         1.6741  -2.0512  -0.3396 H              1 S1                 0.0000
     26 ****         3.9232  -0.5142  -1.7442 H              1 S1                 0.0000
     27 ****         4.2575  -2.0017  -0.8702 H              1 S1                 0.0000
     28 ****         3.7657  -2.3689  -3.0551 H              1 S1                 0.0000
     29 ****         3.1031  -1.5343   1.5953 H              1 S1                 0.0000
     30 ****         0.7753  -0.8873   1.8717 H              1 S1                 0.0000
     31 ****         2.3029   1.4827   2.1720 H              1 S1                 0.0000
     32 ****        -4.8809   2.8245   0.0422 LP             1 S1                 0.0000
     33 ****        -0.7930   2.9240   0.3788 LP             1 S1                 0.0000
     34 ****        -3.0850  -1.8744  -0.3614 LP             1 S1                 0.0000
     35 ****         2.1446   0.6355  -1.2656 LP             1 S1                 0.0000
     36 ****         0.8783  -0.3533  -1.5577 LP             1 S1                 0.0000
     37 ****         2.3028  -1.7526  -2.9561 LP             1 S1                 0.0000
     38 ****         2.6989  -3.1075  -2.1352 LP             1 S1                 0.0000
     39 ****         2.1153   0.3745   3.2981 LP             1 S1                 0.0000
     40 ****         0.8528   1.2795   2.7945 LP             1 S1                 0.0000
@<TRIPOS>BOND
    1    1    2 1     
    2    1   20 1     
    3    1   21 1     
    4    2    7 ar    
    5    2    3 ar    
    6    3    4 ar    
    7    4    5 ar    
    8    4   22 1     
    9    5    6 ar    
   10    6   10 1     
   11    6    7 ar    
   12    7    8 1     
   13    8    9 2     
   14    9   10 1     
   15    9   23 1     
   16   10   11 1     
   17   11   18 1     
   18   11   12 1     
   19   11   24 1     
   20   12   13 1     
   21   13   14 1     
   22   13   16 1     
   23   13   25 1     
   24   14   15 1     
   25   14   26 1     
   26   14   27 1     
   27   15   28 1     
   28   16   17 1     
   29   16   18 1     
   30   16   29 1     
   31   18   19 1     
   32   18   30 1     
   33   19   31 1     
   34    3   32 1     
   35    5   33 1     
   36    8   34 1     
   37   12   35 1     
   38   12   36 1     
   39   15   37 1     
   40   15   38 1     
   41   19   39 1     
   42   19   40 1     
@<TRIPOS>SUBSTRUCTURE
      1 S1             1
@<TRIPOS>SET
LONE_PAIRS      STATIC     ATOMS    <user>   **** ""
9 32 33 34 35 36 37 38 39 40
DONOR_HYDROGENS      STATIC     ATOMS    <user>   **** ""
4 20 21 28 31
ATOM$BLUE        STATIC     ATOMS    COLORGROUP SYSTEM
9 32 33 34 35 36 37 38 39 40
ATOM$RED        STATIC     ATOMS    COLORGROUP SYSTEM
4 20 21 28 31
