AV-unprocessed.smi:1071|AV-procd|sdf|4680|dock8
  -GOLD-   22720 3193D 1   1.00000     0.00000
 Structure written by MMmdl.
 47 48  0  0  0  0  0  0  0  0  2 V2000
  154.2934  129.6816  154.4284 C   0  0  0  0  0  0  0  0  0  0  0  0
  154.2094  129.1425  155.7359 O   0  0  0  0  0  0  0  0  0  0  0  0
  153.3927  129.9222  156.5933 C   0  0  0  0  0  0  0  0  0  0  0  0
  152.0234  130.1185  155.9365 C   0  0  0  0  0  0  0  0  0  0  0  0
  151.6260  131.4762  156.1029 O   0  0  0  0  0  0  0  0  0  0  0  0
  150.6697  131.9914  155.2519 C   0  0  0  0  0  0  0  0  0  0  0  0
  150.3304  133.3543  155.3656 C   0  0  0  0  0  0  0  0  0  0  0  0
  149.3551  133.8850  154.5006 C   0  0  0  0  0  0  0  0  0  0  0  0
  148.7569  133.0439  153.5410 C   0  0  0  0  0  0  0  0  0  0  0  0
  147.7604  133.5958  152.6924 N   0  0  0  0  0  0  0  0  0  0  0  0
  146.6848  132.9830  152.1614 C   0  0  0  0  0  0  0  0  0  0  0  0
  146.5191  131.7638  152.1739 O   0  0  0  0  0  0  0  0  0  0  0  0
  145.8907  133.8342  151.4674 N   0  0  0  0  0  0  0  0  0  0  0  0
  145.6264  135.1817  151.9934 C   0  0  0  0  0  0  0  0  0  0  0  0
  144.3509  135.1453  152.8602 C   0  0  0  0  0  0  0  0  0  0  0  0
  143.1934  134.5980  152.1049 N   0  3  2  0  0  0  0  0  0  0  0  0
  141.9642  134.5322  152.9231 C   0  0  0  0  0  0  0  0  0  0  0  0
  143.4891  133.3126  151.4189 C   0  0  0  0  0  0  0  0  0  0  0  0
  144.7835  133.4143  150.5853 C   0  0  2  0  0  0  0  0  0  0  0  0
  145.0556  132.1448  149.7508 C   0  0  0  0  0  0  0  0  0  0  0  0
  149.1573  131.6859  153.5132 C   0  0  0  0  0  0  0  0  0  0  0  0
  150.0886  131.1702  154.3428 N   0  0  0  0  0  0  0  0  0  0  0  0
  154.9377  129.0528  153.8139 H   0  0  0  0  0  0  0  0  0  0  0  0
  154.7176  130.6864  154.4421 H   0  0  0  0  0  0  0  0  0  0  0  0
  153.3114  129.7220  153.9553 H   0  0  0  0  0  0  0  0  0  0  0  0
  153.2758  129.4203  157.5550 H   0  0  0  0  0  0  0  0  0  0  0  0
  153.8593  130.8907  156.7798 H   0  0  0  0  0  0  0  0  0  0  0  0
  152.0851  129.8651  154.8768 H   0  0  0  0  0  0  0  0  0  0  0  0
  151.2948  129.4526  156.4021 H   0  0  0  0  0  0  0  0  0  0  0  0
  150.8083  133.9807  156.1041 H   0  0  0  0  0  0  0  0  0  0  0  0
  149.0758  134.9261  154.5734 H   0  0  0  0  0  0  0  0  0  0  0  0
  147.8784  134.5710  152.4596 H   0  0  0  0  0  0  0  0  0  0  0  0
  146.4547  135.5779  152.5825 H   0  0  0  0  0  0  0  0  0  0  0  0
  145.4987  135.8792  151.1642 H   0  0  0  0  0  0  0  0  0  0  0  0
  144.5243  134.5329  153.7469 H   0  0  0  0  0  0  0  0  0  0  0  0
  144.1134  136.1501  153.2115 H   0  0  0  0  0  0  0  0  0  0  0  0
  142.0822  133.8317  153.7511 H   0  0  0  0  0  0  0  0  0  0  0  0
  141.1162  134.2083  152.3189 H   0  0  0  0  0  0  0  0  0  0  0  0
  141.7235  135.5126  153.3354 H   0  0  0  0  0  0  0  0  0  0  0  0
  143.5795  132.5159  152.1592 H   0  0  0  0  0  0  0  0  0  0  0  0
  142.6500  133.0516  150.7730 H   0  0  0  0  0  0  0  0  0  0  0  0
  144.6453  134.2124  149.8536 H   0  0  0  0  0  0  0  0  0  0  0  0
  144.2886  132.0206  148.9859 H   0  0  0  0  0  0  0  0  0  0  0  0
  145.0475  131.2364  150.3524 H   0  0  0  0  0  0  0  0  0  0  0  0
  146.0167  132.2060  149.2393 H   0  0  0  0  0  0  0  0  0  0  0  0
  148.7153  130.9753  152.8321 H   0  0  0  0  0  0  0  0  0  0  0  0
  143.0082  135.2637  151.3682 H   0  0  0  0  0  0  0  0  0  0  0  0
  1  2  1  0  0  0  0
  1 23  1  0  0  0  0
  1 24  1  0  0  0  0
  1 25  1  0  0  0  0
  2  3  1  0  0  0  0
  3  4  1  0  0  0  0
  3 26  1  0  0  0  0
  3 27  1  0  0  0  0
  4  5  1  0  0  0  0
  4 28  1  0  0  0  0
  4 29  1  0  0  0  0
  5  6  1  0  0  0  0
  6 22  1  0  0  0  0
  6  7  2  0  0  0  0
  7  8  1  0  0  0  0
  7 30  1  0  0  0  0
  8  9  2  0  0  0  0
  8 31  1  0  0  0  0
  9 10  1  0  0  0  0
  9 21  1  0  0  0  0
 10 11  1  0  0  0  0
 10 32  1  0  0  0  0
 11 12  2  0  0  0  0
 11 13  1  0  0  0  0
 13 19  1  0  0  0  0
 13 14  1  0  0  0  0
 14 15  1  0  0  0  0
 14 33  1  0  0  0  0
 14 34  1  0  0  0  0
 15 16  1  0  0  0  0
 15 35  1  0  0  0  0
 15 36  1  0  0  0  0
 16 17  1  0  0  0  0
 16 18  1  0  0  0  0
 16 47  1  0  0  0  0
 17 37  1  0  0  0  0
 17 38  1  0  0  0  0
 17 39  1  0  0  0  0
 18 19  1  0  0  0  0
 18 40  1  0  0  0  0
 18 41  1  0  0  0  0
 19 20  1  0  0  0  0
 19 42  1  0  0  0  0
 20 43  1  0  0  0  0
 20 44  1  0  0  0  0
 20 45  1  0  0  0  0
 21 22  2  0  0  0  0
 21 46  1  0  0  0  0
M  CHG  1  16   1
M  END
> <s_m_source_file>
AV-unprocessed.smi

> <i_m_source_file_index>
1071

> <i_lp_mmshare_version>
43012

> <i_f3d_flags>
0

> <s_epik_input>
W0NIM11PW0NIMl1bQ0gyXU9jMVtjSF1bY0hdYyhbY0hdbjEpW05IXUMoPU8pTjJbQ0gyXVtDSDJdTihbQ0gzXSlbQ0gyXVtDQEhdMltDSDNd

> <s_epik_cmdline>
J2VwaWtfcHl0aG9uJywgJy1waCcsICc3LjAnLCAnLXRuJywgJzgnLCAnLW1hJywgJzIwMCcsICctbWV0YWxfYmluZGluZycsICctaW1hZScsICc8aW5maWxlLm1hZT4nLCAnLW9tYWUnLCAnPG91dGZpbGUubWFlPic=

> <r_lp_tautomer_probability>
1

> <r_epik_Ionization_Penalty>
0.25455

> <r_epik_Ionization_Penalty_Charging>
0.254506

> <r_epik_Ionization_Penalty_Neutral>
4.43365e-05

> <r_epik_State_Penalty>
0.245983

> <r_epik_Charging_Adjusted_Penalty>
0.500488

> <i_epik_Tot_Q>
1

> <i_epik_Tot_abs_Q>
1

> <r_epik_Metal_State_Penalty>
0.245987

> <b_epik_Metal_Only>
0

> <s_lp_Force_Field>
OPLS_2005

> <r_lp_Energy>
54.7367

> <b_lp_Chiralities_Consistent>
1

> <s_lp_Variant>
AV-unprocessed.smi:1071-4

> <Gold.Version>
5.8.1

> <Gold.Id.Protein>
6NUR|6NUR_protein|mol2

> <Gold.PLP.Fitness>
42.7652

> <Gold.PLP.PLP>
-38.1079

> <Gold.PLP.part.hbond>
-1.0000

> <Gold.PLP.part.metal>
0.0000

> <Gold.PLP.part.buried>
-6.1112

> <Gold.PLP.part.nonpolar>
-29.7178

> <Gold.PLP.part.repulsive>
0.1913

> <Gold.PLP.ligand.clash>
0.0321

> <Gold.PLP.ligand.torsion>
0.9210

> <Gold.PLP.Chemscore.Hbond>
1.0000

> <Gold.PLP.Chemscore.CHOScore>
0.9637

> <Gold.PLP.Chemscore.Metal>
0.0000

> <Gold.Chemscore.Hbonds>
donor molecule, donor type, donor heavy atom, donor atom, acceptor molecule, acceptor atom, score
      L1  H    10    32       P1  7948  1.00
      L1  C    21    46       P1 10747  0.92

> <Gold.PLP.Chemscore.Internal.Correction>
0.6401

> <Gold.Rescore>
     Score         DG    S(hbond)    S(metal)    S(lipo)     H(rot)  DE(clash)    DE(int)     intcor
      9.09     -12.58       0.67        0.00      76.65       1.60       0.00       3.49       ----

> <Gold.Chemscore.Fitness>
9.0855

> <Gold.Chemscore.DG>
-12.5819

> <Gold.Chemscore.ZeroCoef>
-5.4800

> <Gold.Chemscore.Hbond>
0.6711

> <Gold.Chemscore.Metal>
0.0000

> <Gold.Chemscore.Lipo>
76.6502

> <Gold.Chemscore.Internal_Hbond>
0.0000

> <Gold.Chemscore.DEClash>
0.0048

> <Gold.Chemscore.DEInternal>
3.4916

> <Gold.Chemscore.Rot>
1.6045

> <Gold.Chemscore.Internal.Correction>
   9.000000E+99

> <Gold.Chemscore.Hbonds>
donor molecule, donor type, donor heavy atom, donor atom, acceptor molecule, acceptor atom, score
      L1  H    10    32       P1  7948  0.55

> <Gold.Chemscore.Hbond.Weighted>
-2.2414

> <Gold.Chemscore.Metal.Weighted>
-0.0000

> <Gold.Chemscore.Lipo.Weighted>
-8.9681

> <Gold.Chemscore.Internal_Hbond.Weighted>
0.0000

> <Gold.Chemscore.DEClash.Weighted>
0.0048

> <Gold.Chemscore.DEInternal.Weighted>
3.4916

> <Gold.Chemscore.Rot.Weighted>
4.1075

> <Gold.Chemscore.Internal.Correction.Weighted>
   9.000000E+99

> <Gold.Protein.RotatedTorsions>
[ 6907 6896 6895 6894 ] final  -29.04 input  -60.11 | X-H torsion
[ 7974 7965 7964 7962 ] final   70.06 input  175.53 | X-H torsion
[ 8008 7997 7996 7995 ] final   33.39 input   59.86 | X-H torsion
[ 10167 10162 10161 10158 ] final   49.04 input  -65.29 | X-H torsion
[ 10718 10713 10712 10709 ] final  -95.25 input   66.30 | X-H torsion
[ 10763 10752 10751 10750 ] final -132.31 input  -60.55 | X-H torsion
[ 11005 11000 10999 10996 ] final   38.89 input  -57.11 | X-H torsion

> <Gold.Protein.ActiveResidues>
 VAL166  LYS551  ARG553  GLY616  TRP617  ASP618  TYR619  PRO620  LYS621  CYS622 
 ASP623  PHE694  ASN695  SER759  ASP760  ASP761  ALA762  ILE779  LEU786  VAL792 
 PHE793  MET794  SER795  GLU796  ALA797  LYS798  CYS799  TRP800  GLU811  SER814 

> <Gold.Protein.RotatedAtoms>
  151.1247  135.0098  159.8554 H   0  0  0  0  0  0  0  0  0  0  0  0  # atno 6907 bound_to 6896
  152.5449  134.1681  159.8595 H   0  0  0  0  0  0  0  0  0  0  0  0  # atno 6908 bound_to 6896
  151.1742  133.4720  159.2627 H   0  0  0  0  0  0  0  0  0  0  0  0  # atno 6909 bound_to 6896
  145.7828  139.2896  143.1256 H   0  0  0  0  0  0  0  0  0  0  0  0  # atno 7974 bound_to 7965
  155.1378  140.3263  155.4459 H   0  0  0  0  0  0  0  0  0  0  0  0  # atno 8008 bound_to 7997
  156.2614  140.1999  156.6444 H   0  0  0  0  0  0  0  0  0  0  0  0  # atno 8009 bound_to 7997
  154.6565  140.0552  157.0001 H   0  0  0  0  0  0  0  0  0  0  0  0  # atno 8010 bound_to 7997
  140.2870  144.3090  150.6250 H   0  0  0  0  0  0  0  0  0  0  0  0  # atno 10167 bound_to 10162
  156.0040  130.5101  150.6049 H   0  0  0  0  0  0  0  0  0  0  0  0  # atno 10718 bound_to 10713
  154.8744  135.3802  154.4389 H   0  0  0  0  0  0  0  0  0  0  0  0  # atno 10763 bound_to 10752
  153.5075  135.7030  153.5803 H   0  0  0  0  0  0  0  0  0  0  0  0  # atno 10764 bound_to 10752
  153.4107  135.3925  155.2015 H   0  0  0  0  0  0  0  0  0  0  0  0  # atno 10765 bound_to 10752
  140.2082  134.3788  155.8062 H   0  0  0  0  0  0  0  0  0  0  0  0  # atno 11005 bound_to 11000
  146.0057  140.8481  142.9996 LP  0  0  0  0  0  0  0  0  0  0  0  0  # atno 17320 bound_to 7965
  144.6794  140.2416  143.7343 LP  0  0  0  0  0  0  0  0  0  0  0  0  # atno 17321 bound_to 7965
  140.5764  143.2176  151.7507 LP  0  0  0  0  0  0  0  0  0  0  0  0  # atno 17342 bound_to 10162
  139.4947  144.4143  152.0047 LP  0  0  0  0  0  0  0  0  0  0  0  0  # atno 17343 bound_to 10162
  157.3891  131.0793  151.1409 LP  0  0  0  0  0  0  0  0  0  0  0  0  # atno 17370 bound_to 10713
  157.2107  130.6436  149.5773 LP  0  0  0  0  0  0  0  0  0  0  0  0  # atno 17371 bound_to 10713
  141.2226  133.7129  156.8372 LP  0  0  0  0  0  0  0  0  0  0  0  0  # atno 17394 bound_to 11000
  140.1980  134.8918  157.3137 LP  0  0  0  0  0  0  0  0  0  0  0  0  # atno 17395 bound_to 11000

$$$$
