AV-unprocessed.smi:1099|AV-procd|sdf|4756|dock1
  -GOLD-   22720 3293D 1   1.00000     0.00000
 Structure written by MMmdl.
 41 43  0  0  0  0  0  0  0  0  1 V2000
  154.5563  140.0423  160.1038 C   0  0  0  0  0  0  0  0  0  0  0  0
  154.3795  141.0697  161.2264 C   0  0  0  0  0  0  0  0  0  0  0  0
  153.4412  142.1691  160.8549 C   0  0  0  0  0  0  0  0  0  0  0  0
  152.7799  142.2132  159.6952 N   0  0  0  0  0  0  0  0  0  0  0  0
  151.9398  143.3270  159.5963 C   0  0  0  0  0  0  0  0  0  0  0  0
  151.1333  143.5486  158.3532 C   0  0  0  0  0  0  0  0  0  0  0  0
  151.2853  142.3926  157.3505 C   0  0  0  0  0  0  0  0  0  0  0  0
  150.2551  142.4336  156.3194 N   0  0  0  0  0  0  0  0  0  0  0  0
  150.0720  141.4973  155.3758 C   0  0  0  0  0  0  0  0  0  0  0  0
  150.7835  140.4965  155.2787 O   0  0  0  0  0  0  0  0  0  0  0  0
  148.9238  141.7533  154.3838 C   0  0  1  0  0  0  0  0  0  0  0  0
  148.6023  140.5646  153.4442 C   0  0  0  0  0  0  0  0  0  0  0  0
  147.0889  140.3623  153.6481 C   0  0  1  0  0  0  0  0  0  0  0  0
  146.8349  139.7323  155.0305 C   0  0  0  0  0  0  0  0  0  0  0  0
  147.0910  140.9082  155.9910 C   0  0  0  0  0  0  0  0  0  0  0  0
  147.5438  142.0348  155.0360 C   0  0  2  0  0  0  0  0  0  0  0  0
  146.6067  141.7934  153.8560 C   0  0  0  0  0  0  0  0  0  0  0  0
  151.9644  144.1246  160.7131 C   0  0  0  0  0  0  0  0  0  0  0  0
  153.0430  143.5033  161.9317 S   0  0  0  0  0  0  0  0  0  0  0  0
  155.2421  139.2507  160.4062 H   0  0  0  0  0  0  0  0  0  0  0  0
  154.9598  140.5079  159.2042 H   0  0  0  0  0  0  0  0  0  0  0  0
  153.6051  139.5776  159.8430 H   0  0  0  0  0  0  0  0  0  0  0  0
  154.0030  140.5783  162.1240 H   0  0  0  0  0  0  0  0  0  0  0  0
  155.3450  141.5033  161.4896 H   0  0  0  0  0  0  0  0  0  0  0  0
  150.0806  143.6709  158.6114 H   0  0  0  0  0  0  0  0  0  0  0  0
  151.4343  144.4855  157.8828 H   0  0  0  0  0  0  0  0  0  0  0  0
  152.2747  142.4136  156.8905 H   0  0  0  0  0  0  0  0  0  0  0  0
  151.2052  141.4368  157.8692 H   0  0  0  0  0  0  0  0  0  0  0  0
  149.6323  143.2285  156.3272 H   0  0  0  0  0  0  0  0  0  0  0  0
  149.1951  142.6107  153.7647 H   0  0  0  0  0  0  0  0  0  0  0  0
  148.8136  140.8372  152.4093 H   0  0  0  0  0  0  0  0  0  0  0  0
  149.1654  139.6548  153.6572 H   0  0  0  0  0  0  0  0  0  0  0  0
  146.6072  139.8267  152.8295 H   0  0  0  0  0  0  0  0  0  0  0  0
  145.8060  139.3816  155.1190 H   0  0  0  0  0  0  0  0  0  0  0  0
  147.4957  138.8867  155.2245 H   0  0  0  0  0  0  0  0  0  0  0  0
  146.1637  141.1907  156.4917 H   0  0  0  0  0  0  0  0  0  0  0  0
  147.8118  140.6711  156.7725 H   0  0  0  0  0  0  0  0  0  0  0  0
  147.4658  143.0319  155.4707 H   0  0  0  0  0  0  0  0  0  0  0  0
  146.8034  142.4459  153.0034 H   0  0  0  0  0  0  0  0  0  0  0  0
  145.5494  141.8604  154.1190 H   0  0  0  0  0  0  0  0  0  0  0  0
  151.4138  145.0365  160.8922 H   0  0  0  0  0  0  0  0  0  0  0  0
  1  2  1  0  0  0  0
  1 20  1  0  0  0  0
  1 21  1  0  0  0  0
  1 22  1  0  0  0  0
  2  3  1  0  0  0  0
  2 23  1  0  0  0  0
  2 24  1  0  0  0  0
  3 19  1  0  0  0  0
  3  4  2  0  0  0  0
  4  5  1  0  0  0  0
  5  6  1  0  0  0  0
  5 18  2  0  0  0  0
  6  7  1  0  0  0  0
  6 25  1  0  0  0  0
  6 26  1  0  0  0  0
  7  8  1  0  0  0  0
  7 27  1  0  0  0  0
  7 28  1  0  0  0  0
  8  9  1  0  0  0  0
  8 29  1  0  0  0  0
  9 10  2  0  0  0  0
  9 11  1  0  0  0  0
 11 16  1  0  0  0  0
 11 12  1  0  0  0  0
 11 30  1  0  0  0  0
 12 13  1  0  0  0  0
 12 31  1  0  0  0  0
 12 32  1  0  0  0  0
 13 17  1  0  0  0  0
 13 14  1  0  0  0  0
 13 33  1  0  0  0  0
 14 15  1  0  0  0  0
 14 34  1  0  0  0  0
 14 35  1  0  0  0  0
 15 16  1  0  0  0  0
 15 36  1  0  0  0  0
 15 37  1  0  0  0  0
 16 17  1  0  0  0  0
 16 38  1  0  0  0  0
 17 39  1  0  0  0  0
 17 40  1  0  0  0  0
 18 19  1  0  0  0  0
 18 41  1  0  0  0  0
M  END
> <s_m_source_file>
AV-unprocessed.smi

> <i_m_source_file_index>
1099

> <i_lp_mmshare_version>
43012

> <i_f3d_flags>
0

> <s_epik_input>
W0NIM11bQ0gyXWMxbmMoW2NIXXMxKVtDSDJdW0NIMl1bTkhdQyg9TylbQ0BIXShbQ0gyXVtDQEBIXTIzKVtDQEBIXShbQ0gyXTMpW0NIMl1bQ0gyXTI=

> <s_epik_cmdline>
J2VwaWtfcHl0aG9uJywgJy1waCcsICc3LjAnLCAnLXRuJywgJzgnLCAnLW1hJywgJzIwMCcsICctbWV0YWxfYmluZGluZycsICctaW1hZScsICc8aW5maWxlLm1hZT4nLCAnLW9tYWUnLCAnPG91dGZpbGUubWFlPic=

> <r_epik_Ionization_Penalty>
0.00110131

> <r_epik_Ionization_Penalty_Charging>
0

> <r_epik_Ionization_Penalty_Neutral>
0.00110131

> <r_epik_State_Penalty>
0.00072257

> <r_epik_Charging_Adjusted_Penalty>
0.00072257

> <i_epik_Tot_Q>
0

> <i_epik_Tot_abs_Q>
0

> <r_epik_Metal_State_Penalty>
-0

> <b_epik_Metal_Only>
0

> <s_lp_Force_Field>
OPLS_2005

> <r_lp_Energy>
38.0082

> <b_lp_Chiralities_Consistent>
1

> <s_lp_Variant>
AV-unprocessed.smi:1099-2

> <Gold.Version>
5.8.1

> <Gold.Id.Protein>
6NUR|6NUR_protein|mol2

> <Gold.PLP.Fitness>
45.7116

> <Gold.PLP.PLP>
-40.1883

> <Gold.PLP.part.hbond>
-2.0000

> <Gold.PLP.part.metal>
0.0000

> <Gold.PLP.part.buried>
1.0190

> <Gold.PLP.part.nonpolar>
-38.4454

> <Gold.PLP.part.repulsive>
0.1294

> <Gold.PLP.ligand.clash>
0.0000

> <Gold.PLP.ligand.torsion>
0.2242

> <Gold.PLP.Chemscore.Hbond>
1.9833

> <Gold.PLP.Chemscore.CHOScore>
0.0000

> <Gold.PLP.Chemscore.Metal>
0.0000

> <Gold.Chemscore.Hbonds>
donor molecule, donor type, donor heavy atom, donor atom, acceptor molecule, acceptor atom, score
      L1  H     8    29       P1  8028  1.00
      P1  H  7989  7998       L1    10  0.94

> <Gold.PLP.Chemscore.Internal.Correction>
0.0217

> <Gold.Rescore>
     Score         DG    S(hbond)    S(metal)    S(lipo)     H(rot)  DE(clash)    DE(int)     intcor
     18.89     -20.92       1.58        0.00     117.91       1.42       1.85       0.17       ----

> <Gold.Chemscore.Fitness>
18.8873

> <Gold.Chemscore.DG>
-20.9153

> <Gold.Chemscore.ZeroCoef>
-5.4800

> <Gold.Chemscore.Hbond>
1.5766

> <Gold.Chemscore.Metal>
0.0000

> <Gold.Chemscore.Lipo>
117.9116

> <Gold.Chemscore.Internal_Hbond>
0.0000

> <Gold.Chemscore.DEClash>
1.8545

> <Gold.Chemscore.DEInternal>
0.1735

> <Gold.Chemscore.Rot>
1.4165

> <Gold.Chemscore.Internal.Correction>
   9.000000E+99

> <Gold.Chemscore.Hbonds>
donor molecule, donor type, donor heavy atom, donor atom, acceptor molecule, acceptor atom, score
      L1  H     8    29       P1  8028  0.98
      P1  H  7989  7998       L1    10  0.20

> <Gold.Chemscore.Hbond.Weighted>
-5.2658

> <Gold.Chemscore.Metal.Weighted>
-0.0000

> <Gold.Chemscore.Lipo.Weighted>
-13.7957

> <Gold.Chemscore.Internal_Hbond.Weighted>
0.0000

> <Gold.Chemscore.DEClash.Weighted>
1.8545

> <Gold.Chemscore.DEInternal.Weighted>
0.1735

> <Gold.Chemscore.Rot.Weighted>
3.6262

> <Gold.Chemscore.Internal.Correction.Weighted>
   9.000000E+99

> <Gold.Protein.RotatedTorsions>
[ 6907 6896 6895 6894 ] final   72.33 input  -60.11 | X-H torsion
[ 7974 7965 7964 7962 ] final -148.06 input  175.53 | X-H torsion
[ 8008 7997 7996 7995 ] final  -26.98 input   59.86 | X-H torsion
[ 10167 10162 10161 10158 ] final  -49.84 input  -65.29 | X-H torsion
[ 10718 10713 10712 10709 ] final  117.29 input   66.30 | X-H torsion
[ 10763 10752 10751 10750 ] final   20.06 input  -60.55 | X-H torsion
[ 11005 11000 10999 10996 ] final   21.50 input  -57.11 | X-H torsion

> <Gold.Protein.ActiveResidues>
 VAL166  LYS551  ARG553  GLY616  TRP617  ASP618  TYR619  PRO620  LYS621  CYS622 
 ASP623  PHE694  ASN695  SER759  ASP760  ASP761  ALA762  ILE779  LEU786  VAL792 
 PHE793  MET794  SER795  GLU796  ALA797  LYS798  CYS799  TRP800  GLU811  SER814 

> <Gold.Protein.RotatedAtoms>
  152.4862  134.4587  159.9597 H   0  0  0  0  0  0  0  0  0  0  0  0  # atno 6907 bound_to 6896
  151.4583  133.3593  159.2813 H   0  0  0  0  0  0  0  0  0  0  0  0  # atno 6908 bound_to 6896
  150.8974  134.8408  159.7396 H   0  0  0  0  0  0  0  0  0  0  0  0  # atno 6909 bound_to 6896
  144.8053  140.5245  143.5679 H   0  0  0  0  0  0  0  0  0  0  0  0  # atno 7974 bound_to 7965
  154.4399  140.1885  156.0859 H   0  0  0  0  0  0  0  0  0  0  0  0  # atno 8008 bound_to 7997
  156.0403  140.3320  155.7210 H   0  0  0  0  0  0  0  0  0  0  0  0  # atno 8009 bound_to 7997
  155.5710  140.0612  157.2797 H   0  0  0  0  0  0  0  0  0  0  0  0  # atno 8010 bound_to 7997
  140.6666  143.2681  151.4273 H   0  0  0  0  0  0  0  0  0  0  0  0  # atno 10167 bound_to 10162
  157.6106  131.1035  150.7593 H   0  0  0  0  0  0  0  0  0  0  0  0  # atno 10718 bound_to 10713
  153.1109  135.6696  153.9502 H   0  0  0  0  0  0  0  0  0  0  0  0  # atno 10763 bound_to 10752
  153.9045  135.3032  155.3450 H   0  0  0  0  0  0  0  0  0  0  0  0  # atno 10764 bound_to 10752
  154.7529  135.5026  153.9399 H   0  0  0  0  0  0  0  0  0  0  0  0  # atno 10765 bound_to 10752
  140.3909  134.1820  155.7662 H   0  0  0  0  0  0  0  0  0  0  0  0  # atno 11005 bound_to 11000
  145.5453  139.1476  143.3424 LP  0  0  0  0  0  0  0  0  0  0  0  0  # atno 17320 bound_to 7965
  146.2343  140.5592  142.8962 LP  0  0  0  0  0  0  0  0  0  0  0  0  # atno 17321 bound_to 7965
  139.5917  144.1484  152.2096 LP  0  0  0  0  0  0  0  0  0  0  0  0  # atno 17342 bound_to 10162
  140.0841  144.5676  150.7101 LP  0  0  0  0  0  0  0  0  0  0  0  0  # atno 17343 bound_to 10162
  156.7972  130.4909  149.5375 LP  0  0  0  0  0  0  0  0  0  0  0  0  # atno 17370 bound_to 10713
  156.1208  130.6108  151.0190 LP  0  0  0  0  0  0  0  0  0  0  0  0  # atno 17371 bound_to 10713
  141.1891  133.8245  157.0969 LP  0  0  0  0  0  0  0  0  0  0  0  0  # atno 17394 bound_to 11000
  140.0408  134.9855  157.0957 LP  0  0  0  0  0  0  0  0  0  0  0  0  # atno 17395 bound_to 11000

$$$$
