AV-unprocessed.smi:2089|AV-procd|sdf|8529|dock8
  -GOLD-   2272011253D 1   1.00000     0.00000
 Structure written by MMmdl.
 39 40  0  0  0  0  0  0  0  0  1 V2000
  153.1464  138.2174  159.7212 C   0  0  0  0  0  0  0  0  0  0  0  0
  154.4173  137.1932  160.5688 S   0  0  0  0  0  0  0  0  0  0  0  0
  154.0104  135.7805  160.5228 O   0  0  0  0  0  0  0  0  0  0  0  0
  155.7390  137.5915  160.0606 O   0  0  0  0  0  0  0  0  0  0  0  0
  154.3030  137.7210  162.2150 N   0  0  0  0  0  0  0  0  0  0  0  0
  153.9268  136.7339  163.2367 C   0  0  0  0  0  0  0  0  0  0  0  0
  155.0575  136.7504  164.2601 C   0  0  0  0  0  0  0  0  0  0  0  0
  155.5346  138.1936  164.2179 C   0  0  0  0  0  0  0  0  0  0  0  0
  155.3799  138.5809  162.7375 C   0  0  2  0  0  0  0  0  0  0  0  0
  155.1205  140.0788  162.5332 C   0  0  0  0  0  0  0  0  0  0  0  0
  155.7761  140.9156  163.1551 O   0  0  0  0  0  0  0  0  0  0  0  0
  154.1442  140.4042  161.6740 N   0  0  0  0  0  0  0  0  0  0  0  0
  153.7354  141.7688  161.3740 C   0  0  0  0  0  0  0  0  0  0  0  0
  153.3339  141.9051  159.8990 C   0  0  0  0  0  0  0  0  0  0  0  0
  152.4220  143.0941  159.6628 C   0  0  0  0  0  0  0  0  0  0  0  0
  152.1067  143.9811  160.7142 C   0  0  0  0  0  0  0  0  0  0  0  0
  151.2663  145.0770  160.4378 C   0  0  0  0  0  0  0  0  0  0  0  0
  150.7771  145.2434  159.1278 C   0  0  0  0  0  0  0  0  0  0  0  0
  151.1508  144.3018  158.1484 C   0  0  0  0  0  0  0  0  0  0  0  0
  151.9556  143.2474  158.4029 N   0  0  0  0  0  0  0  0  0  0  0  0
  153.1560  137.9946  158.6544 H   0  0  0  0  0  0  0  0  0  0  0  0
  153.3706  139.2732  159.8720 H   0  0  0  0  0  0  0  0  0  0  0  0
  152.1598  137.9940  160.1260 H   0  0  0  0  0  0  0  0  0  0  0  0
  152.9888  137.0480  163.6953 H   0  0  0  0  0  0  0  0  0  0  0  0
  153.7795  135.7416  162.8099 H   0  0  0  0  0  0  0  0  0  0  0  0
  154.7349  136.4379  165.2535 H   0  0  0  0  0  0  0  0  0  0  0  0
  155.8590  136.0842  163.9382 H   0  0  0  0  0  0  0  0  0  0  0  0
  154.9034  138.8040  164.8658 H   0  0  0  0  0  0  0  0  0  0  0  0
  156.5628  138.2930  164.5674 H   0  0  0  0  0  0  0  0  0  0  0  0
  156.3031  138.3030  162.2249 H   0  0  0  0  0  0  0  0  0  0  0  0
  153.6412  139.6589  161.2144 H   0  0  0  0  0  0  0  0  0  0  0  0
  152.8966  142.0413  162.0166 H   0  0  0  0  0  0  0  0  0  0  0  0
  154.5547  142.4523  161.6037 H   0  0  0  0  0  0  0  0  0  0  0  0
  154.2235  142.0132  159.2768 H   0  0  0  0  0  0  0  0  0  0  0  0
  152.8329  140.9961  159.5630 H   0  0  0  0  0  0  0  0  0  0  0  0
  152.5014  143.8291  161.7081 H   0  0  0  0  0  0  0  0  0  0  0  0
  151.0029  145.7780  161.2159 H   0  0  0  0  0  0  0  0  0  0  0  0
  150.1320  146.0730  158.8790 H   0  0  0  0  0  0  0  0  0  0  0  0
  150.7949  144.3986  157.1334 H   0  0  0  0  0  0  0  0  0  0  0  0
  1  2  1  0  0  0  0
  1 21  1  0  0  0  0
  1 22  1  0  0  0  0
  1 23  1  0  0  0  0
  2  3  2  0  0  0  0
  2  4  2  0  0  0  0
  2  5  1  0  0  0  0
  5  9  1  0  0  0  0
  5  6  1  0  0  0  0
  6  7  1  0  0  0  0
  6 24  1  0  0  0  0
  6 25  1  0  0  0  0
  7  8  1  0  0  0  0
  7 26  1  0  0  0  0
  7 27  1  0  0  0  0
  8  9  1  0  0  0  0
  8 28  1  0  0  0  0
  8 29  1  0  0  0  0
  9 10  1  0  0  0  0
  9 30  1  0  0  0  0
 10 11  2  0  0  0  0
 10 12  1  0  0  0  0
 12 13  1  0  0  0  0
 12 31  1  0  0  0  0
 13 14  1  0  0  0  0
 13 32  1  0  0  0  0
 13 33  1  0  0  0  0
 14 15  1  0  0  0  0
 14 34  1  0  0  0  0
 14 35  1  0  0  0  0
 15 20  1  0  0  0  0
 15 16  2  0  0  0  0
 16 17  1  0  0  0  0
 16 36  1  0  0  0  0
 17 18  2  0  0  0  0
 17 37  1  0  0  0  0
 18 19  1  0  0  0  0
 18 38  1  0  0  0  0
 19 20  2  0  0  0  0
 19 39  1  0  0  0  0
M  END
> <s_m_source_file>
AV-unprocessed.smi

> <i_m_source_file_index>
2089

> <i_lp_mmshare_version>
43012

> <i_f3d_flags>
0

> <s_epik_input>
W0NIM11TKD1PKSg9TylOMVtDSDJdW0NIMl1bQ0gyXVtDQEhdMUMoPU8pW05IXVtDSDJdW0NIMl1jMltjSF1bY0hdW2NIXVtjSF1uMg==

> <s_epik_cmdline>
J2VwaWtfcHl0aG9uJywgJy1waCcsICc3LjAnLCAnLXRuJywgJzgnLCAnLW1hJywgJzIwMCcsICctbWV0YWxfYmluZGluZycsICctaW1hZScsICc8aW5maWxlLm1hZT4nLCAnLW9tYWUnLCAnPG91dGZpbGUubWFlPic=

> <r_epik_Ionization_Penalty>
0.0244371

> <r_epik_Ionization_Penalty_Charging>
0

> <r_epik_Ionization_Penalty_Neutral>
0.0244371

> <r_epik_State_Penalty>
0.0198365

> <r_epik_Charging_Adjusted_Penalty>
0.0198365

> <i_epik_Tot_Q>
0

> <i_epik_Tot_abs_Q>
0

> <r_epik_Metal_State_Penalty>
0.0190441

> <b_epik_Metal_Only>
0

> <s_lp_Force_Field>
OPLS_2005

> <r_lp_Energy>
5.6995

> <b_lp_Chiralities_Consistent>
1

> <s_lp_Variant>
AV-unprocessed.smi:2089-2

> <Gold.Version>
5.8.1

> <Gold.Id.Protein>
6NUR|6NUR_protein|mol2

> <Gold.PLP.Fitness>
49.8510

> <Gold.PLP.PLP>
-45.3905

> <Gold.PLP.part.hbond>
-2.0000

> <Gold.PLP.part.metal>
0.0000

> <Gold.PLP.part.buried>
-5.7065

> <Gold.PLP.part.nonpolar>
-37.4090

> <Gold.PLP.part.repulsive>
0.0330

> <Gold.PLP.ligand.clash>
0.0000

> <Gold.PLP.ligand.torsion>
0.9446

> <Gold.PLP.Chemscore.Hbond>
0.9750

> <Gold.PLP.Chemscore.CHOScore>
0.9982

> <Gold.PLP.Chemscore.Metal>
0.0000

> <Gold.Chemscore.Hbonds>
donor molecule, donor type, donor heavy atom, donor atom, acceptor molecule, acceptor atom, score
      P1  H  6896  6907       L1     3  1.00
      L1  C    19    39       P1  8028  1.00

> <Gold.PLP.Chemscore.Internal.Correction>
0.4300

> <Gold.Rescore>
     Score         DG    S(hbond)    S(metal)    S(lipo)     H(rot)  DE(clash)    DE(int)     intcor
     17.03     -18.18       1.00        0.00     121.70       1.90       0.18       0.97       ----

> <Gold.Chemscore.Fitness>
17.0283

> <Gold.Chemscore.DG>
-18.1828

> <Gold.Chemscore.ZeroCoef>
-5.4800

> <Gold.Chemscore.Hbond>
0.9955

> <Gold.Chemscore.Metal>
0.0000

> <Gold.Chemscore.Lipo>
121.7023

> <Gold.Chemscore.Internal_Hbond>
0.0000

> <Gold.Chemscore.DEClash>
0.1840

> <Gold.Chemscore.DEInternal>
0.9705

> <Gold.Chemscore.Rot>
1.8990

> <Gold.Chemscore.Internal.Correction>
   9.000000E+99

> <Gold.Chemscore.Hbonds>
donor molecule, donor type, donor heavy atom, donor atom, acceptor molecule, acceptor atom, score
      P1  H  6896  6907       L1     3  0.97

> <Gold.Chemscore.Hbond.Weighted>
-3.3249

> <Gold.Chemscore.Metal.Weighted>
-0.0000

> <Gold.Chemscore.Lipo.Weighted>
-14.2392

> <Gold.Chemscore.Internal_Hbond.Weighted>
0.0000

> <Gold.Chemscore.DEClash.Weighted>
0.1840

> <Gold.Chemscore.DEInternal.Weighted>
0.9705

> <Gold.Chemscore.Rot.Weighted>
4.8613

> <Gold.Chemscore.Internal.Correction.Weighted>
   9.000000E+99

> <Gold.Protein.RotatedTorsions>
[ 6907 6896 6895 6894 ] final   46.74 input  -60.11 | X-H torsion
[ 7974 7965 7964 7962 ] final  -16.24 input  175.53 | X-H torsion
[ 8008 7997 7996 7995 ] final  149.00 input   59.86 | X-H torsion
[ 10167 10162 10161 10158 ] final   82.95 input  -65.29 | X-H torsion
[ 10718 10713 10712 10709 ] final   66.24 input   66.30 | X-H torsion
[ 10763 10752 10751 10750 ] final   27.43 input  -60.55 | X-H torsion
[ 11005 11000 10999 10996 ] final  -64.98 input  -57.11 | X-H torsion

> <Gold.Protein.ActiveResidues>
 VAL166  LYS551  ARG553  GLY616  TRP617  ASP618  TYR619  PRO620  LYS621  CYS622 
 ASP623  PHE694  ASN695  SER759  ASP760  ASP761  ALA762  ILE779  LEU786  VAL792 
 PHE793  MET794  SER795  GLU796  ALA797  LYS798  CYS799  TRP800  GLU811  SER814 

> <Gold.Protein.RotatedAtoms>
  152.2599  134.8045  160.0432 H   0  0  0  0  0  0  0  0  0  0  0  0  # atno 6907 bound_to 6896
  151.8695  133.3467  159.3738 H   0  0  0  0  0  0  0  0  0  0  0  0  # atno 6908 bound_to 6896
  150.7113  134.5054  159.5626 H   0  0  0  0  0  0  0  0  0  0  0  0  # atno 6909 bound_to 6896
  146.1996  140.3608  142.8428 H   0  0  0  0  0  0  0  0  0  0  0  0  # atno 7974 bound_to 7965
  156.2771  140.2113  156.5788 H   0  0  0  0  0  0  0  0  0  0  0  0  # atno 8008 bound_to 7997
  154.7075  140.0515  157.0541 H   0  0  0  0  0  0  0  0  0  0  0  0  # atno 8009 bound_to 7997
  155.0650  140.3170  155.4651 H   0  0  0  0  0  0  0  0  0  0  0  0  # atno 8010 bound_to 7997
  139.9234  144.6198  150.8417 H   0  0  0  0  0  0  0  0  0  0  0  0  # atno 10167 bound_to 10162
  157.6156  130.9257  150.0083 H   0  0  0  0  0  0  0  0  0  0  0  0  # atno 10718 bound_to 10713
  153.0556  135.6537  154.0585 H   0  0  0  0  0  0  0  0  0  0  0  0  # atno 10763 bound_to 10752
  154.0264  135.2915  155.3376 H   0  0  0  0  0  0  0  0  0  0  0  0  # atno 10764 bound_to 10752
  154.6869  135.5298  153.8406 H   0  0  0  0  0  0  0  0  0  0  0  0  # atno 10765 bound_to 10752
  141.1441  133.6674  156.5917 H   0  0  0  0  0  0  0  0  0  0  0  0  # atno 11005 bound_to 11000
  144.8655  140.7199  143.6080 LP  0  0  0  0  0  0  0  0  0  0  0  0  # atno 17320 bound_to 7965
  145.3528  139.1702  143.4425 LP  0  0  0  0  0  0  0  0  0  0  0  0  # atno 17321 bound_to 7965
  140.7656  143.3280  151.2472 LP  0  0  0  0  0  0  0  0  0  0  0  0  # atno 17342 bound_to 10162
  139.6842  143.9802  152.2825 LP  0  0  0  0  0  0  0  0  0  0  0  0  # atno 17343 bound_to 10162
  156.1277  130.3644  149.9782 LP  0  0  0  0  0  0  0  0  0  0  0  0  # atno 17370 bound_to 10713
  156.7849  130.9235  151.3646 LP  0  0  0  0  0  0  0  0  0  0  0  0  # atno 17371 bound_to 10713
  140.3758  134.7566  157.4629 LP  0  0  0  0  0  0  0  0  0  0  0  0  # atno 17394 bound_to 11000
  140.0675  134.5908  155.8678 LP  0  0  0  0  0  0  0  0  0  0  0  0  # atno 17395 bound_to 11000

$$$$
