#       Name:                AV-unprocessed.smi:1629
#       Creating user name   scv26
#       Creation time:       Fri Mar 27 07:20:00 2020


#       File generated by GOLD software.
#

@<TRIPOS>MOLECULE
AV-unprocessed.smi:1629
    47    48     1
SMALL
NO_CHARGES


@<TRIPOS>ATOM
      1 ****        -6.3700  -0.0781   0.2648 C.3            1 S1                 0.0000
      2 ****        -4.9674   0.7930  -0.5398 S.o2           1 S1                 0.0000
      3 ****        -4.5569  -0.0632  -1.6644 O.2            1 S1                 0.0000
      4 ****        -5.4662   2.1387  -0.8661 O.2            1 S1                 0.0000
      5 ****        -3.8882   0.8004   0.6710 N.pl3          1 S1                -1.0000
      6 ****        -2.5944   1.4421   0.4868 C.3            1 S1                 0.0000
      7 ****        -1.5953   0.4925  -0.2281 C.3            1 S1                 0.0000
      8 ****        -0.1373   1.0292  -0.2343 C.3            1 S1                 0.0000
      9 ****         0.3320   1.2952   1.1442 N.am           1 S1                 0.0000
     10 ****         1.3043   0.6319   1.8185 C.2            1 S1                 0.0000
     11 ****         1.6205   0.8898   2.9806 O.2            1 S1                 0.0000
     12 ****         1.9012  -0.3440   1.1179 N.am           1 S1                 0.0000
     13 ****         2.9768  -1.1961   1.6091 C.3            1 S1                 0.0000
     14 ****         3.2547  -2.3598   0.6422 C.3            1 S1                 0.0000
     15 ****         3.5355  -1.9074  -0.7811 C.ar           1 S1                 0.0000
     16 ****         2.5312  -1.9745  -1.7711 C.ar           1 S1                 0.0000
     17 ****         2.8390  -1.5269  -3.0703 C.ar           1 S1                 0.0000
     18 ****         4.1323  -1.0334  -3.3288 C.ar           1 S1                 0.0000
     19 ****         5.0638  -1.0077  -2.2718 C.ar           1 S1                 0.0000
     20 ****         4.7781  -1.4325  -1.0220 N.ar           1 S1                 0.0000
     21 ****        -0.5193   2.3205   1.7756 C.3            1 S1                 0.0000
     22 ****        -1.9941   1.8368   1.8617 C.3            1 S1                 0.0000
     23 ****        -7.1952  -0.1617  -0.4415 H              1 S1                 0.0000
     24 ****        -6.6951   0.4856   1.1386 H              1 S1                 0.0000
     25 ****        -6.0513  -1.0740   0.5712 H              1 S1                 0.0000
     26 ****        -2.6792   2.3539  -0.1059 H              1 S1                 0.0000
     27 ****        -1.6034  -0.4836   0.2599 H              1 S1                 0.0000
     28 ****        -1.9170   0.3207  -1.2554 H              1 S1                 0.0000
     29 ****         0.4929   0.3271  -0.7795 H              1 S1                 0.0000
     30 ****        -0.0733   1.9554  -0.8095 H              1 S1                 0.0000
     31 ****         1.5896  -0.5021   0.1706 H              1 S1                 0.0000
     32 ****         3.8752  -0.5887   1.7270 H              1 S1                 0.0000
     33 ****         2.7244  -1.5887   2.5953 H              1 S1                 0.0000
     34 ****         4.1021  -2.9434   1.0040 H              1 S1                 0.0000
     35 ****         2.4021  -3.0402   0.6359 H              1 S1                 0.0000
     36 ****         1.5461  -2.3535  -1.5406 H              1 S1                 0.0000
     37 ****         2.0961  -1.5604  -3.8536 H              1 S1                 0.0000
     38 ****         4.4042  -0.6822  -4.3132 H              1 S1                 0.0000
     39 ****         6.0643  -0.6351  -2.4342 H              1 S1                 0.0000
     40 ****        -0.1744   2.5804   2.7771 H              1 S1                 0.0000
     41 ****        -0.4475   3.2464   1.2012 H              1 S1                 0.0000
     42 ****        -2.6062   2.6147   2.3195 H              1 S1                 0.0000
     43 ****        -2.0358   0.9815   2.5384 H              1 S1                 0.0000
     44 ****        -4.1112   0.3647   1.5430 LP             1 S1                 0.0000
     45 ****         1.1519   1.6215   3.4757 LP             1 S1                 0.0000
     46 ****         2.3459   0.3676   3.4291 LP             1 S1                 0.0000
     47 ****         5.4653  -1.3968  -0.2964 LP             1 S1                 0.0000
@<TRIPOS>BOND
    1    1    2 1     
    2    1   23 1     
    3    1   24 1     
    4    1   25 1     
    5    2    3 2     
    6    2    4 2     
    7    2    5 1     
    8    5    6 1     
    9    6   22 1     
   10    6    7 1     
   11    6   26 1     
   12    7    8 1     
   13    7   27 1     
   14    7   28 1     
   15    8    9 1     
   16    8   29 1     
   17    8   30 1     
   18    9   10 am    
   19    9   21 1     
   20   10   11 2     
   21   10   12 am    
   22   12   13 1     
   23   12   31 1     
   24   13   14 1     
   25   13   32 1     
   26   13   33 1     
   27   14   15 1     
   28   14   34 1     
   29   14   35 1     
   30   15   20 ar    
   31   15   16 ar    
   32   16   17 ar    
   33   16   36 1     
   34   17   18 ar    
   35   17   37 1     
   36   18   19 ar    
   37   18   38 1     
   38   19   20 ar    
   39   19   39 1     
   40   21   22 1     
   41   21   40 1     
   42   21   41 1     
   43   22   42 1     
   44   22   43 1     
   45    5   44 1     
   46   11   45 1     
   47   11   46 1     
   48   20   47 1     
@<TRIPOS>SUBSTRUCTURE
      1 S1             1
@<TRIPOS>SET
LONE_PAIRS      STATIC     ATOMS    <user>   **** ""
6 3 4 44 45 46 47
DONOR_HYDROGENS      STATIC     ATOMS    <user>   **** ""
1 31
ATOM$BLUE        STATIC     ATOMS    COLORGROUP SYSTEM
6 3 4 44 45 46 47
ATOM$RED        STATIC     ATOMS    COLORGROUP SYSTEM
1 31
