AV-unprocessed.smi:69|AV-procd|sdf|658|dock5
  -GOLD-   2262016563D 1   1.00000     0.00000
 Structure written by MMmdl.
 32 34  0  0  0  0  0  0  0  0  1 V2000
  150.1555  144.8686  158.6907 N   0  0  0  0  0  0  0  0  0  0  0  0
  150.9305  143.7752  158.6934 C   0  0  0  0  0  0  0  0  0  0  0  0
  151.9816  143.7344  159.5455 N   0  0  0  0  0  0  0  0  0  0  0  0
  152.7710  142.6555  159.5661 C   0  0  0  0  0  0  0  0  0  0  0  0
  152.6819  141.5411  158.8353 N   0  0  0  0  0  0  0  0  0  0  0  0
  151.6206  141.5832  157.9773 C   0  0  0  0  0  0  0  0  0  0  0  0
  150.7018  142.6612  157.8463 C   0  0  0  0  0  0  0  0  0  0  0  0
  149.7541  142.3601  156.8777 N   0  0  0  0  0  0  0  0  0  0  0  0
  150.0977  141.1705  156.4616 C   0  0  0  0  0  0  0  0  0  0  0  0
  151.2071  140.6265  157.0722 N   0  0  0  0  0  0  0  0  0  0  0  0
  151.8353  139.2956  156.8078 C   0  0  1  0  0  0  0  0  0  0  0  0
  150.8528  138.3186  156.9621 O   0  0  0  0  0  0  0  0  0  0  0  0
  150.9798  137.3429  155.9349 C   0  0  1  0  0  0  0  0  0  0  0  0
  149.6315  136.6382  155.7208 C   0  0  0  0  0  0  0  0  0  0  0  0
  149.7249  135.7294  154.6448 O   0  0  0  0  0  0  0  0  0  0  0  0
  151.4294  138.1803  154.7363 C   0  0  2  0  0  0  0  0  0  0  0  0
  152.0444  137.4031  153.7251 O   0  0  0  0  0  0  0  0  0  0  0  0
  152.3649  139.2119  155.3653 C   0  0  2  0  0  0  0  0  0  0  0  0
  153.7172  138.7906  155.3452 O   0  0  0  0  0  0  0  0  0  0  0  0
  152.6080  139.1910  157.5716 H   0  0  0  0  0  0  0  0  0  0  0  0
  151.7643  136.6328  156.2044 H   0  0  0  0  0  0  0  0  0  0  0  0
  150.5699  138.6919  154.3030 H   0  0  0  0  0  0  0  0  0  0  0  0
  152.2944  140.1778  154.8627 H   0  0  0  0  0  0  0  0  0  0  0  0
  149.3656  144.9233  158.0636 H   0  0  0  0  0  0  0  0  0  0  0  0
  150.3641  145.6360  159.3126 H   0  0  0  0  0  0  0  0  0  0  0  0
  153.5904  142.6892  160.2687 H   0  0  0  0  0  0  0  0  0  0  0  0
  149.5440  140.6520  155.6922 H   0  0  0  0  0  0  0  0  0  0  0  0
  149.3036  136.1259  156.6263 H   0  0  0  0  0  0  0  0  0  0  0  0
  148.8627  137.3680  155.4656 H   0  0  0  0  0  0  0  0  0  0  0  0
  149.4060  136.1547  153.8635 H   0  0  0  0  0  0  0  0  0  0  0  0
  151.3835  137.1511  153.0982 H   0  0  0  0  0  0  0  0  0  0  0  0
  153.7367  137.8476  155.4065 H   0  0  0  0  0  0  0  0  0  0  0  0
  1  2  1  0  0  0  0
  1 24  1  0  0  0  0
  1 25  1  0  0  0  0
  2  7  1  0  0  0  0
  2  3  2  0  0  0  0
  3  4  1  0  0  0  0
  4  5  2  0  0  0  0
  4 26  1  0  0  0  0
  5  6  1  0  0  0  0
  6 10  1  0  0  0  0
  6  7  2  0  0  0  0
  7  8  1  0  0  0  0
  8  9  2  0  0  0  0
  9 10  1  0  0  0  0
  9 27  1  0  0  0  0
 10 11  1  0  0  0  0
 11 20  1  0  0  0  0
 11 18  1  0  0  0  0
 11 12  1  0  0  0  0
 12 13  1  0  0  0  0
 13 21  1  0  0  0  0
 13 14  1  0  0  0  0
 13 16  1  0  0  0  0
 14 15  1  0  0  0  0
 14 28  1  0  0  0  0
 14 29  1  0  0  0  0
 15 30  1  0  0  0  0
 16 22  1  0  0  0  0
 16 17  1  0  0  0  0
 16 18  1  0  0  0  0
 17 31  1  0  0  0  0
 18 23  1  0  0  0  0
 18 19  1  0  0  0  0
 19 32  1  0  0  0  0
M  END
> <s_m_source_file>
AV-unprocessed.smi

> <i_m_source_file_index>
69

> <i_lp_mmshare_version>
43012

> <i_f3d_flags>
0

> <s_epik_input>
bjFbY0hdbmMoW05IMl0pYyhjMTIpbltjSF1uMltDQEBIXTNPW0NASF0oW0NIMl1bT0hdKVtDQEBIXShbT0hdKVtDQEhdM1tPSF0=

> <s_epik_cmdline>
J2VwaWtfcHl0aG9uJywgJy1waCcsICc3LjAnLCAnLXRuJywgJzgnLCAnLW1hJywgJzIwMCcsICctbWV0YWxfYmluZGluZycsICctaW1hZScsICc8aW5maWxlLm1hZT4nLCAnLW9tYWUnLCAnPG91dGZpbGUubWFlPic=

> <r_lp_tautomer_probability>
1

> <r_epik_Ionization_Penalty>
0.000428445

> <r_epik_Ionization_Penalty_Charging>
0

> <r_epik_Ionization_Penalty_Neutral>
0.000428445

> <r_epik_State_Penalty>
-0

> <r_epik_Charging_Adjusted_Penalty>
0

> <i_epik_Tot_Q>
0

> <i_epik_Tot_abs_Q>
0

> <r_epik_Metal_State_Penalty>
-0

> <b_epik_Metal_Only>
0

> <s_epik_Chemistry_Notes>
This compound contains an acetal/aminal-like group ( X-CH(R)-Y where X, Y are N, S, or O) that may be acid/base labile, releasing an aldehyde.

> <s_lp_Force_Field>
OPLS_2005

> <r_lp_Energy>
38.6546

> <b_lp_Chiralities_Consistent>
1

> <s_lp_Variant>
AV-unprocessed.smi:69-16

> <Gold.Version>
5.8.1

> <Gold.Id.Protein>
6NUR|6NUR_protein|mol2

> <Gold.PLP.Fitness>
43.0032

> <Gold.PLP.PLP>
-29.3073

> <Gold.PLP.part.hbond>
-5.2979

> <Gold.PLP.part.metal>
0.0000

> <Gold.PLP.part.buried>
-6.3273

> <Gold.PLP.part.nonpolar>
-20.7717

> <Gold.PLP.part.repulsive>
2.4364

> <Gold.PLP.ligand.clash>
0.0000

> <Gold.PLP.ligand.torsion>
0.0425

> <Gold.PLP.Chemscore.Hbond>
4.5893

> <Gold.PLP.Chemscore.CHOScore>
0.0000

> <Gold.PLP.Chemscore.Metal>
0.0000

> <Gold.Chemscore.Hbonds>
donor molecule, donor type, donor heavy atom, donor atom, acceptor molecule, acceptor atom, score
      L1  H     1    24       P1  8029  0.95
      L1  H    15    30       P1  7948  1.00
      L1  H    17    31       P1  7949  0.80
      P1  H  7997  8008       L1    19  0.79
      P1  H 10752 10763       L1    17  1.00

> <Gold.PLP.Chemscore.Internal.Correction>
0.0131

> <Gold.Rescore>
     Score         DG    S(hbond)    S(metal)    S(lipo)     H(rot)  DE(clash)    DE(int)     intcor
      6.36      -7.66       2.72        0.00      29.05       4.03       1.26       0.04       ----

> <Gold.Chemscore.Fitness>
6.3583

> <Gold.Chemscore.DG>
-7.6595

> <Gold.Chemscore.ZeroCoef>
-5.4800

> <Gold.Chemscore.Hbond>
2.7219

> <Gold.Chemscore.Metal>
0.0000

> <Gold.Chemscore.Lipo>
29.0546

> <Gold.Chemscore.Internal_Hbond>
0.0000

> <Gold.Chemscore.DEClash>
1.2605

> <Gold.Chemscore.DEInternal>
0.0406

> <Gold.Chemscore.Rot>
4.0277

> <Gold.Chemscore.Internal.Correction>
   9.000000E+99

> <Gold.Chemscore.Hbonds>
donor molecule, donor type, donor heavy atom, donor atom, acceptor molecule, acceptor atom, score
      L1  H     1    24       P1  8029  0.20
      L1  H    15    30       P1  7948  0.67
      L1  H    17    31       P1  7949  0.60
      P1  H  7997  8008       L1    19  0.18
      P1  H 10752 10763       L1    17  0.37

> <Gold.Chemscore.Hbond.Weighted>
-9.0911

> <Gold.Chemscore.Metal.Weighted>
-0.0000

> <Gold.Chemscore.Lipo.Weighted>
-3.3994

> <Gold.Chemscore.Internal_Hbond.Weighted>
0.0000

> <Gold.Chemscore.DEClash.Weighted>
1.2605

> <Gold.Chemscore.DEInternal.Weighted>
0.0406

> <Gold.Chemscore.Rot.Weighted>
10.3110

> <Gold.Chemscore.Internal.Correction.Weighted>
   9.000000E+99

> <Gold.Protein.RotatedTorsions>
[ 6907 6896 6895 6894 ] final  -20.97 input  -60.11 | X-H torsion
[ 7974 7965 7964 7962 ] final  -33.54 input  175.53 | X-H torsion
[ 8008 7997 7996 7995 ] final  -22.27 input   59.86 | X-H torsion
[ 10167 10162 10161 10158 ] final -115.59 input  -65.29 | X-H torsion
[ 10718 10713 10712 10709 ] final  178.91 input   66.30 | X-H torsion
[ 10763 10752 10751 10750 ] final   25.55 input  -60.55 | X-H torsion
[ 11005 11000 10999 10996 ] final  -36.51 input  -57.11 | X-H torsion

> <Gold.Protein.ActiveResidues>
 VAL166  LYS551  ARG553  GLY616  TRP617  ASP618  TYR619  PRO620  LYS621  CYS622 
 ASP623  PHE694  ASN695  SER759  ASP760  ASP761  ALA762  ILE779  LEU786  VAL792 
 PHE793  MET794  SER795  GLU796  ALA797  LYS798  CYS799  TRP800  GLU811  SER814 

> <Gold.Protein.RotatedAtoms>
  151.2403  135.0586  159.9021 H   0  0  0  0  0  0  0  0  0  0  0  0  # atno 6907 bound_to 6896
  152.5394  134.0442  159.8091 H   0  0  0  0  0  0  0  0  0  0  0  0  # atno 6908 bound_to 6896
  151.0634  133.5476  159.2664 H   0  0  0  0  0  0  0  0  0  0  0  0  # atno 6909 bound_to 6896
  146.0902  140.5929  142.8868 H   0  0  0  0  0  0  0  0  0  0  0  0  # atno 7974 bound_to 7965
  154.4654  140.2012  156.0132 H   0  0  0  0  0  0  0  0  0  0  0  0  # atno 8008 bound_to 7997
  156.0917  140.3257  155.7796 H   0  0  0  0  0  0  0  0  0  0  0  0  # atno 8009 bound_to 7997
  155.4945  140.0549  157.2939 H   0  0  0  0  0  0  0  0  0  0  0  0  # atno 8010 bound_to 7997
  140.0884  143.4722  152.1884 H   0  0  0  0  0  0  0  0  0  0  0  0  # atno 10167 bound_to 10162
  156.8836  130.9824  151.3059 H   0  0  0  0  0  0  0  0  0  0  0  0  # atno 10718 bound_to 10713
  153.0684  135.6580  154.0303 H   0  0  0  0  0  0  0  0  0  0  0  0  # atno 10763 bound_to 10752
  153.9955  135.2942  155.3409 H   0  0  0  0  0  0  0  0  0  0  0  0  # atno 10764 bound_to 10752
  154.7050  135.5229  153.8650 H   0  0  0  0  0  0  0  0  0  0  0  0  # atno 10765 bound_to 10752
  140.9880  133.7020  156.1799 H   0  0  0  0  0  0  0  0  0  0  0  0  # atno 11005 bound_to 11000
  144.7355  140.4795  143.6907 LP  0  0  0  0  0  0  0  0  0  0  0  0  # atno 17320 bound_to 7965
  145.6053  139.1507  143.3106 LP  0  0  0  0  0  0  0  0  0  0  0  0  # atno 17321 bound_to 7965
  139.5739  144.7477  151.3818 LP  0  0  0  0  0  0  0  0  0  0  0  0  # atno 17342 bound_to 10162
  140.7041  143.7557  150.7452 LP  0  0  0  0  0  0  0  0  0  0  0  0  # atno 17343 bound_to 10162
  157.6126  130.8594  149.8975 LP  0  0  0  0  0  0  0  0  0  0  0  0  # atno 17370 bound_to 10713
  156.0664  130.3691  150.0868 LP  0  0  0  0  0  0  0  0  0  0  0  0  # atno 17371 bound_to 10713
  140.7084  134.4488  157.5583 LP  0  0  0  0  0  0  0  0  0  0  0  0  # atno 17394 bound_to 11000
  139.8979  134.8625  156.2024 LP  0  0  0  0  0  0  0  0  0  0  0  0  # atno 17395 bound_to 11000

$$$$
