#       Name:                AV-unprocessed.smi:1680
#       Creating user name   scv26
#       Creation time:       Fri Mar 27 07:48:40 2020


#       File generated by GOLD software.
#

@<TRIPOS>MOLECULE
AV-unprocessed.smi:1680
    45    46     1
SMALL
NO_CHARGES


@<TRIPOS>ATOM
      1 ****        -5.1245   0.7791   0.3841 C.3            1 S1                 0.0000
      2 ****        -3.8767   1.0376   1.2311 C.2            1 S1                 0.0000
      3 ****        -4.0319   1.4792   2.3698 O.2            1 S1                 0.0000
      4 ****        -2.6557   0.7772   0.7064 N.am           1 S1                 0.0000
      5 ****        -2.3924   0.1908  -0.6116 C.3            1 S1                 0.0000
      6 ****        -1.7187  -1.1819  -0.4205 C.3            1 S1                 0.0000
      7 ****        -0.4665  -1.0303   0.3257 N.3            1 S1                 0.0000
      8 ****         0.1814  -2.3348   0.4634 C.3            1 S1                 0.0000
      9 ****         1.6580  -2.2349   0.9004 C.3            1 S1                 0.0000
     10 ****         2.4801  -1.5854  -0.1164 N.am           1 S1                 0.0000
     11 ****         2.8144  -0.2865  -0.1297 C.2            1 S1                 0.0000
     12 ****         2.4893   0.5092   0.7521 O.2            1 S1                 0.0000
     13 ****         3.5358   0.0176  -1.2230 N.am           1 S1                 0.0000
     14 ****         4.0377   1.2847  -1.6215 C.2            1 S1                 0.0000
     15 ****         3.8787   2.4082  -0.9044 N.2            1 S1                 0.0000
     16 ****         4.4620   3.5064  -1.5228 N.2            1 S1                 0.0000
     17 ****         5.0362   3.1688  -2.6809 C.2            1 S1                 0.0000
     18 ****         4.9243   1.4752  -3.1273 S.3            1 S1                 0.0000
     19 ****        -0.7339  -0.4208   1.6343 C.3            1 S1                 0.0000
     20 ****        -1.4054   0.9536   1.4504 C.3            1 S1                 0.0000
     21 ****        -5.1970  -0.2749   0.1148 H              1 S1                 0.0000
     22 ****        -5.1049   1.3792  -0.5262 H              1 S1                 0.0000
     23 ****        -6.0262   1.0437   0.9375 H              1 S1                 0.0000
     24 ****        -3.2858   0.0712  -1.2224 H              1 S1                 0.0000
     25 ****        -1.7368   0.8564  -1.1758 H              1 S1                 0.0000
     26 ****        -2.3899  -1.8646   0.1035 H              1 S1                 0.0000
     27 ****        -1.5108  -1.6208  -1.3971 H              1 S1                 0.0000
     28 ****        -0.3802  -2.9521   1.1660 H              1 S1                 0.0000
     29 ****         0.1488  -2.8540  -0.4956 H              1 S1                 0.0000
     30 ****         1.7675  -1.7515   1.8715 H              1 S1                 0.0000
     31 ****         2.0507  -3.2430   1.0331 H              1 S1                 0.0000
     32 ****         2.7940  -2.1645  -0.8813 H              1 S1                 0.0000
     33 ****         3.7304  -0.7431  -1.8570 H              1 S1                 0.0000
     34 ****         5.5300   3.9226  -3.2761 H              1 S1                 0.0000
     35 ****        -1.3713  -1.0752   2.2310 H              1 S1                 0.0000
     36 ****         0.1938  -0.2854   2.1885 H              1 S1                 0.0000
     37 ****        -0.7458   1.6259   0.8993 H              1 S1                 0.0000
     38 ****        -1.5577   1.4168   2.4262 H              1 S1                 0.0000
     39 ****        -4.9531   1.6581   2.7155 LP             1 S1                 0.0000
     40 ****        -3.2368   1.6590   2.9491 LP             1 S1                 0.0000
     41 ****         0.1539  -0.4242  -0.1720 LP             1 S1                 0.0000
     42 ****         1.9466   0.1971   1.5319 LP             1 S1                 0.0000
     43 ****         2.7680   1.4675   0.6884 LP             1 S1                 0.0000
     44 ****         3.3974   2.4495  -0.0288 LP             1 S1                 0.0000
     45 ****         4.4533   4.4336  -1.1482 LP             1 S1                 0.0000
@<TRIPOS>BOND
    1    1    2 1     
    2    1   21 1     
    3    1   22 1     
    4    1   23 1     
    5    2    3 2     
    6    2    4 am    
    7    4   20 1     
    8    4    5 1     
    9    5    6 1     
   10    5   24 1     
   11    5   25 1     
   12    6    7 1     
   13    6   26 1     
   14    6   27 1     
   15    7    8 1     
   16    7   19 1     
   17    8    9 1     
   18    8   28 1     
   19    8   29 1     
   20    9   10 1     
   21    9   30 1     
   22    9   31 1     
   23   10   11 am    
   24   10   32 1     
   25   11   12 2     
   26   11   13 am    
   27   13   14 1     
   28   13   33 1     
   29   14   18 1     
   30   14   15 2     
   31   15   16 1     
   32   16   17 2     
   33   17   18 1     
   34   17   34 1     
   35   19   20 1     
   36   19   35 1     
   37   19   36 1     
   38   20   37 1     
   39   20   38 1     
   40    3   39 1     
   41    3   40 1     
   42    7   41 1     
   43   12   42 1     
   44   12   43 1     
   45   15   44 1     
   46   16   45 1     
@<TRIPOS>SUBSTRUCTURE
      1 S1             1
@<TRIPOS>SET
LONE_PAIRS      STATIC     ATOMS    <user>   **** ""
7 39 40 41 42 43 44 45
DONOR_HYDROGENS      STATIC     ATOMS    <user>   **** ""
2 32 33
ATOM$BLUE        STATIC     ATOMS    COLORGROUP SYSTEM
7 39 40 41 42 43 44 45
ATOM$RED        STATIC     ATOMS    COLORGROUP SYSTEM
2 32 33
