AV-unprocessed.smi:1560|AV-procd|sdf|6275|dock6
  -GOLD-   22720 6463D 1   1.00000     0.00000
 Structure written by MMmdl.
 47 48  0  0  0  0  0  0  0  0  1 V2000
  146.6472  139.3002  151.8937 C   0  0  0  0  0  0  0  0  0  0  0  0
  147.5107  139.1743  153.1604 C   0  0  0  0  0  0  0  0  0  0  0  0
  147.2722  140.2775  154.2444 C   0  0  1  0  0  0  0  0  0  0  0  0
  146.8296  141.5555  153.4835 C   0  0  0  0  0  0  0  0  0  0  0  0
  146.0806  139.8354  155.1549 C   0  0  0  0  0  0  0  0  0  0  0  0
  145.0097  139.1765  154.4175 N   0  0  0  0  0  0  0  0  0  0  0  0
  144.5838  137.9172  154.5961 C   0  0  0  0  0  0  0  0  0  0  0  0
  145.0785  137.1566  155.4271 O   0  0  0  0  0  0  0  0  0  0  0  0
  143.4271  137.4216  153.7098 C   0  0  0  0  0  0  0  0  0  0  0  0
  143.6274  136.0759  153.1440 N   0  0  0  0  0  0  0  0  0  0  0  0
  144.2402  135.9247  151.9081 C   0  0  0  0  0  0  0  0  0  0  0  0
  144.4261  134.7245  151.3093 C   0  0  0  0  0  0  0  0  0  0  0  0
  143.9756  133.4979  151.9581 C   0  0  0  0  0  0  0  0  0  0  0  0
  144.0956  132.3656  151.4959 O   0  0  0  0  0  0  0  0  0  0  0  0
  143.3650  133.6907  153.2001 N   0  0  0  0  0  0  0  0  0  0  0  0
  143.1702  134.9244  153.8224 C   0  0  0  0  0  0  0  0  0  0  0  0
  142.6064  134.9836  154.9142 O   0  0  0  0  0  0  0  0  0  0  0  0
  148.4996  140.5042  155.0655 N   0  0  0  0  0  0  0  0  0  0  0  0
  149.6955  140.9007  154.3092 C   0  0  0  0  0  0  0  0  0  0  0  0
  150.9457  140.9940  155.2001 C   0  0  0  0  0  0  0  0  0  0  0  0
  150.7087  141.9076  156.2630 O   0  0  0  0  0  0  0  0  0  0  0  0
  149.5992  141.5237  157.0645 C   0  0  0  0  0  0  0  0  0  0  0  0
  148.3343  141.4313  156.1937 C   0  0  0  0  0  0  0  0  0  0  0  0
  143.0353  132.8696  153.6863 H   0  0  0  0  0  0  0  0  0  0  0  0
  146.8529  138.4778  151.2086 H   0  0  0  0  0  0  0  0  0  0  0  0
  146.8500  140.2266  151.3568 H   0  0  0  0  0  0  0  0  0  0  0  0
  145.5831  139.2728  152.1283 H   0  0  0  0  0  0  0  0  0  0  0  0
  147.3659  138.1819  153.5856 H   0  0  0  0  0  0  0  0  0  0  0  0
  148.5573  139.1576  152.8544 H   0  0  0  0  0  0  0  0  0  0  0  0
  145.9459  141.3716  152.8713 H   0  0  0  0  0  0  0  0  0  0  0  0
  147.6005  141.9189  152.8045 H   0  0  0  0  0  0  0  0  0  0  0  0
  146.5747  142.3699  154.1611 H   0  0  0  0  0  0  0  0  0  0  0  0
  146.4245  139.1615  155.9407 H   0  0  0  0  0  0  0  0  0  0  0  0
  145.6423  140.6990  155.6558 H   0  0  0  0  0  0  0  0  0  0  0  0
  144.5461  139.7289  153.7108 H   0  0  0  0  0  0  0  0  0  0  0  0
  142.5126  137.4409  154.3045 H   0  0  0  0  0  0  0  0  0  0  0  0
  143.2623  138.1498  152.9137 H   0  0  0  0  0  0  0  0  0  0  0  0
  144.5839  136.8073  151.3878 H   0  0  0  0  0  0  0  0  0  0  0  0
  144.9084  134.6717  150.3439 H   0  0  0  0  0  0  0  0  0  0  0  0
  149.9164  140.1857  153.5198 H   0  0  0  0  0  0  0  0  0  0  0  0
  149.5366  141.8664  153.8296 H   0  0  0  0  0  0  0  0  0  0  0  0
  151.2083  140.0141  155.6019 H   0  0  0  0  0  0  0  0  0  0  0  0
  151.7998  141.3402  154.6177 H   0  0  0  0  0  0  0  0  0  0  0  0
  149.8042  140.5679  157.5495 H   0  0  0  0  0  0  0  0  0  0  0  0
  149.4608  142.2602  157.8560 H   0  0  0  0  0  0  0  0  0  0  0  0
  148.0842  142.4279  155.8300 H   0  0  0  0  0  0  0  0  0  0  0  0
  147.5213  141.1167  156.8445 H   0  0  0  0  0  0  0  0  0  0  0  0
  1  2  1  0  0  0  0
  1 25  1  0  0  0  0
  1 26  1  0  0  0  0
  1 27  1  0  0  0  0
  2  3  1  0  0  0  0
  2 28  1  0  0  0  0
  2 29  1  0  0  0  0
  3  4  1  0  0  0  0
  3  5  1  0  0  0  0
  3 18  1  0  0  0  0
  4 30  1  0  0  0  0
  4 31  1  0  0  0  0
  4 32  1  0  0  0  0
  5  6  1  0  0  0  0
  5 33  1  0  0  0  0
  5 34  1  0  0  0  0
  6  7  1  0  0  0  0
  6 35  1  0  0  0  0
  7  8  2  0  0  0  0
  7  9  1  0  0  0  0
  9 10  1  0  0  0  0
  9 36  1  0  0  0  0
  9 37  1  0  0  0  0
 10 16  1  0  0  0  0
 10 11  1  0  0  0  0
 11 12  2  0  0  0  0
 11 38  1  0  0  0  0
 12 13  1  0  0  0  0
 12 39  1  0  0  0  0
 13 14  2  0  0  0  0
 13 15  1  0  0  0  0
 15 24  1  0  0  0  0
 15 16  1  0  0  0  0
 16 17  2  0  0  0  0
 18 23  1  0  0  0  0
 18 19  1  0  0  0  0
 19 20  1  0  0  0  0
 19 40  1  0  0  0  0
 19 41  1  0  0  0  0
 20 21  1  0  0  0  0
 20 42  1  0  0  0  0
 20 43  1  0  0  0  0
 21 22  1  0  0  0  0
 22 23  1  0  0  0  0
 22 44  1  0  0  0  0
 22 45  1  0  0  0  0
 23 46  1  0  0  0  0
 23 47  1  0  0  0  0
M  END
> <s_m_source_file>
AV-unprocessed.smi

> <i_m_source_file_index>
1560

> <i_lp_mmshare_version>
43012

> <i_f3d_flags>
0

> <s_epik_input>
W0NIMl0xW0NIMl1PW0NIMl1bQ0gyXU4xW0NAQF0oW0NIM10pKFtDSDJdW0NIM10pW0NIMl1bTkhdQyg9TylbQ0gyXW4yW2NIXVtjSF1jKD1PKVtuSF1jMj1P

> <s_epik_cmdline>
J2VwaWtfcHl0aG9uJywgJy1waCcsICc3LjAnLCAnLXRuJywgJzgnLCAnLW1hJywgJzIwMCcsICctbWV0YWxfYmluZGluZycsICctaW1hZScsICc8aW5maWxlLm1hZT4nLCAnLW9tYWUnLCAnPG91dGZpbGUubWFlPic=

> <r_lp_tautomer_probability>
0.999537

> <r_epik_Ionization_Penalty>
0.321965

> <r_epik_Ionization_Penalty_Charging>
0.00329831

> <r_epik_Ionization_Penalty_Neutral>
0.318667

> <r_epik_State_Penalty>
0.288097

> <r_epik_Charging_Adjusted_Penalty>
0.291396

> <i_epik_Tot_Q>
0

> <i_epik_Tot_abs_Q>
0

> <r_epik_Metal_State_Penalty>
0.654595

> <b_epik_Metal_Only>
0

> <s_lp_Force_Field>
OPLS_2005

> <r_lp_Energy>
42.3402

> <b_lp_Chiralities_Consistent>
1

> <s_lp_Variant>
AV-unprocessed.smi:1560-1

> <Gold.Version>
5.8.1

> <Gold.Id.Protein>
6NUR|6NUR_protein|mol2

> <Gold.PLP.Fitness>
39.0214

> <Gold.PLP.PLP>
-32.6477

> <Gold.PLP.part.hbond>
-2.9791

> <Gold.PLP.part.metal>
0.0000

> <Gold.PLP.part.buried>
-2.0578

> <Gold.PLP.part.nonpolar>
-27.5606

> <Gold.PLP.part.repulsive>
0.4388

> <Gold.PLP.ligand.clash>
0.0000

> <Gold.PLP.ligand.torsion>
1.3578

> <Gold.PLP.Chemscore.Hbond>
2.0000

> <Gold.PLP.Chemscore.CHOScore>
1.0000

> <Gold.PLP.Chemscore.Metal>
0.0000

> <Gold.Chemscore.Hbonds>
donor molecule, donor type, donor heavy atom, donor atom, acceptor molecule, acceptor atom, score
      L1  H     6    35       P1 10175  1.00
      L1  H    15    24       P1 10957  1.00
      P1  H 11000 11005       L1    17  0.05
      L1  C    11    38       P1 10171  1.00

> <Gold.PLP.Chemscore.Internal.Correction>
0.0893

> <Gold.Rescore>
     Score         DG    S(hbond)    S(metal)    S(lipo)     H(rot)  DE(clash)    DE(int)     intcor
     11.46     -13.14       1.97        0.00      63.69       2.49       0.16       1.52       ----

> <Gold.Chemscore.Fitness>
11.4614

> <Gold.Chemscore.DG>
-13.1442

> <Gold.Chemscore.ZeroCoef>
-5.4800

> <Gold.Chemscore.Hbond>
1.9690

> <Gold.Chemscore.Metal>
0.0000

> <Gold.Chemscore.Lipo>
63.6944

> <Gold.Chemscore.Internal_Hbond>
0.0000

> <Gold.Chemscore.DEClash>
0.1633

> <Gold.Chemscore.DEInternal>
1.5195

> <Gold.Chemscore.Rot>
2.4862

> <Gold.Chemscore.Internal.Correction>
   9.000000E+99

> <Gold.Chemscore.Hbonds>
donor molecule, donor type, donor heavy atom, donor atom, acceptor molecule, acceptor atom, score
      L1  H     6    35       P1 10175  1.00
      L1  H    15    24       P1 10957  0.91
      P1  H 11000 11005       L1    17  0.06

> <Gold.Chemscore.Hbond.Weighted>
-6.5766

> <Gold.Chemscore.Metal.Weighted>
-0.0000

> <Gold.Chemscore.Lipo.Weighted>
-7.4522

> <Gold.Chemscore.Internal_Hbond.Weighted>
0.0000

> <Gold.Chemscore.DEClash.Weighted>
0.1633

> <Gold.Chemscore.DEInternal.Weighted>
1.5195

> <Gold.Chemscore.Rot.Weighted>
6.3646

> <Gold.Chemscore.Internal.Correction.Weighted>
   9.000000E+99

> <Gold.Protein.RotatedTorsions>
[ 6907 6896 6895 6894 ] final   36.57 input  -60.11 | X-H torsion
[ 7974 7965 7964 7962 ] final   32.83 input  175.53 | X-H torsion
[ 8008 7997 7996 7995 ] final -141.64 input   59.86 | X-H torsion
[ 10167 10162 10161 10158 ] final  135.73 input  -65.29 | X-H torsion
[ 10718 10713 10712 10709 ] final -146.04 input   66.30 | X-H torsion
[ 10763 10752 10751 10750 ] final   38.29 input  -60.55 | X-H torsion
[ 11005 11000 10999 10996 ] final  -44.68 input  -57.11 | X-H torsion

> <Gold.Protein.ActiveResidues>
 VAL166  LYS551  ARG553  GLY616  TRP617  ASP618  TYR619  PRO620  LYS621  CYS622 
 ASP623  PHE694  ASN695  SER759  ASP760  ASP761  ALA762  ILE779  LEU786  VAL792 
 PHE793  MET794  SER795  GLU796  ALA797  LYS798  CYS799  TRP800  GLU811  SER814 

> <Gold.Protein.RotatedAtoms>
  152.1315  134.9131  160.0558 H   0  0  0  0  0  0  0  0  0  0  0  0  # atno 6907 bound_to 6896
  152.0234  133.3903  159.4276 H   0  0  0  0  0  0  0  0  0  0  0  0  # atno 6908 bound_to 6896
  150.6857  134.3522  159.4958 H   0  0  0  0  0  0  0  0  0  0  0  0  # atno 6909 bound_to 6896
  146.1461  139.6475  142.9130 H   0  0  0  0  0  0  0  0  0  0  0  0  # atno 7974 bound_to 7965
  155.4812  140.0560  157.2967 H   0  0  0  0  0  0  0  0  0  0  0  0  # atno 8008 bound_to 7997
  154.4660  140.2018  156.0071 H   0  0  0  0  0  0  0  0  0  0  0  0  # atno 8009 bound_to 7997
  156.0974  140.3224  155.7900 H   0  0  0  0  0  0  0  0  0  0  0  0  # atno 8010 bound_to 7997
  139.5206  144.6501  151.5326 H   0  0  0  0  0  0  0  0  0  0  0  0  # atno 10167 bound_to 10162
  156.3900  130.7880  151.2082 H   0  0  0  0  0  0  0  0  0  0  0  0  # atno 10718 bound_to 10713
  153.0006  135.6254  154.2280 H   0  0  0  0  0  0  0  0  0  0  0  0  # atno 10763 bound_to 10752
  154.2023  135.2803  155.2988 H   0  0  0  0  0  0  0  0  0  0  0  0  # atno 10764 bound_to 10752
  154.5674  135.5687  153.7122 H   0  0  0  0  0  0  0  0  0  0  0  0  # atno 10765 bound_to 10752
  141.0466  133.6759  156.2906 H   0  0  0  0  0  0  0  0  0  0  0  0  # atno 11005 bound_to 11000
  145.4935  141.0438  143.2580 LP  0  0  0  0  0  0  0  0  0  0  0  0  # atno 17320 bound_to 7965
  144.7848  139.6450  143.7139 LP  0  0  0  0  0  0  0  0  0  0  0  0  # atno 17321 bound_to 7965
  140.6303  143.9089  150.6599 LP  0  0  0  0  0  0  0  0  0  0  0  0  # atno 17342 bound_to 10162
  140.2391  143.3677  152.1501 LP  0  0  0  0  0  0  0  0  0  0  0  0  # atno 17343 bound_to 10162
  157.7498  131.0318  150.4200 LP  0  0  0  0  0  0  0  0  0  0  0  0  # atno 17370 bound_to 10713
  156.4460  130.4001  149.6667 LP  0  0  0  0  0  0  0  0  0  0  0  0  # atno 17371 bound_to 10713
  140.6135  134.5435  157.5537 LP  0  0  0  0  0  0  0  0  0  0  0  0  # atno 17394 bound_to 11000
  139.9317  134.7952  156.0914 LP  0  0  0  0  0  0  0  0  0  0  0  0  # atno 17395 bound_to 11000

$$$$
