AV-unprocessed.smi:1802|AV-procd|sdf|7274|dock3
  -GOLD-   22720 8533D 1   1.00000     0.00000
 Structure written by MMmdl.
 41 42  0  0  0  0  0  0  0  0  2 V2000
  146.9492  131.8118  153.6410 C   0  0  0  0  0  0  0  0  0  0  0  0
  146.8014  132.9503  152.6218 C   0  0  1  0  0  0  0  0  0  0  0  0
  146.0277  132.4904  151.3747 C   0  0  0  0  0  0  0  0  0  0  0  0
  145.8708  133.6534  150.3872 C   0  0  0  0  0  0  0  0  0  0  0  0
  145.2164  134.8668  151.0664 C   0  0  0  0  0  0  0  0  0  0  0  0
  145.9909  135.2913  152.2611 N   0  3  1  0  0  0  0  0  0  0  0  0
  145.4669  136.5467  152.8559 C   0  0  0  0  0  0  0  0  0  0  0  0
  145.7664  137.7764  151.9820 C   0  0  0  0  0  0  0  0  0  0  0  0
  146.6371  138.8121  152.7129 C   0  0  0  0  0  0  0  0  0  0  0  0
  147.8481  138.2099  153.2595 N   0  0  0  0  0  0  0  0  0  0  0  0
  148.5176  138.6725  154.3255 C   0  0  0  0  0  0  0  0  0  0  0  0
  148.1810  139.6795  154.9493 O   0  0  0  0  0  0  0  0  0  0  0  0
  149.5811  137.9000  154.6092 N   0  0  0  0  0  0  0  0  0  0  0  0
  150.5261  138.0564  155.6581 C   0  0  0  0  0  0  0  0  0  0  0  0
  151.2517  139.1700  155.8457 N   0  0  0  0  0  0  0  0  0  0  0  0
  152.0982  139.0604  156.9415 N   0  0  0  0  0  0  0  0  0  0  0  0
  151.9785  137.8700  157.5361 C   0  0  0  0  0  0  0  0  0  0  0  0
  150.8205  136.7658  156.8145 S   0  0  0  0  0  0  0  0  0  0  0  0
  146.1219  134.1852  153.2473 C   0  0  0  0  0  0  0  0  0  0  0  0
  145.9776  131.4713  154.0007 H   0  0  0  0  0  0  0  0  0  0  0  0
  147.5313  132.1318  154.5058 H   0  0  0  0  0  0  0  0  0  0  0  0
  147.4604  130.9553  153.2008 H   0  0  0  0  0  0  0  0  0  0  0  0
  147.8052  133.2414  152.3085 H   0  0  0  0  0  0  0  0  0  0  0  0
  146.5460  131.6614  150.8917 H   0  0  0  0  0  0  0  0  0  0  0  0
  145.0433  132.1179  151.6616 H   0  0  0  0  0  0  0  0  0  0  0  0
  146.8481  133.9361  149.9936 H   0  0  0  0  0  0  0  0  0  0  0  0
  145.2729  133.3369  149.5319 H   0  0  0  0  0  0  0  0  0  0  0  0
  145.1609  135.6873  150.3497 H   0  0  0  0  0  0  0  0  0  0  0  0
  144.1922  134.6296  151.3592 H   0  0  0  0  0  0  0  0  0  0  0  0
  144.3836  136.4678  152.9586 H   0  0  0  0  0  0  0  0  0  0  0  0
  145.8617  136.6778  153.8646 H   0  0  0  0  0  0  0  0  0  0  0  0
  146.2698  137.4787  151.0624 H   0  0  0  0  0  0  0  0  0  0  0  0
  144.8237  138.2367  151.6826 H   0  0  0  0  0  0  0  0  0  0  0  0
  146.9021  139.6319  152.0430 H   0  0  0  0  0  0  0  0  0  0  0  0
  146.0762  139.2548  153.5362 H   0  0  0  0  0  0  0  0  0  0  0  0
  148.1910  137.3768  152.8034 H   0  0  0  0  0  0  0  0  0  0  0  0
  149.7296  137.1019  154.0093 H   0  0  0  0  0  0  0  0  0  0  0  0
  152.5767  137.6412  158.4057 H   0  0  0  0  0  0  0  0  0  0  0  0
  145.1338  133.9199  153.6281 H   0  0  0  0  0  0  0  0  0  0  0  0
  146.7087  134.5164  154.1035 H   0  0  0  0  0  0  0  0  0  0  0  0
  146.9212  135.5018  151.9285 H   0  0  0  0  0  0  0  0  0  0  0  0
  1  2  1  0  0  0  0
  1 20  1  0  0  0  0
  1 21  1  0  0  0  0
  1 22  1  0  0  0  0
  2 19  1  0  0  0  0
  2  3  1  0  0  0  0
  2 23  1  0  0  0  0
  3  4  1  0  0  0  0
  3 24  1  0  0  0  0
  3 25  1  0  0  0  0
  4  5  1  0  0  0  0
  4 26  1  0  0  0  0
  4 27  1  0  0  0  0
  5  6  1  0  0  0  0
  5 28  1  0  0  0  0
  5 29  1  0  0  0  0
  6  7  1  0  0  0  0
  6 19  1  0  0  0  0
  6 41  1  0  0  0  0
  7  8  1  0  0  0  0
  7 30  1  0  0  0  0
  7 31  1  0  0  0  0
  8  9  1  0  0  0  0
  8 32  1  0  0  0  0
  8 33  1  0  0  0  0
  9 10  1  0  0  0  0
  9 34  1  0  0  0  0
  9 35  1  0  0  0  0
 10 11  1  0  0  0  0
 10 36  1  0  0  0  0
 11 12  2  0  0  0  0
 11 13  1  0  0  0  0
 13 14  1  0  0  0  0
 13 37  1  0  0  0  0
 14 18  1  0  0  0  0
 14 15  2  0  0  0  0
 15 16  1  0  0  0  0
 16 17  2  0  0  0  0
 17 18  1  0  0  0  0
 17 38  1  0  0  0  0
 19 39  1  0  0  0  0
 19 40  1  0  0  0  0
M  CHG  1   6   1
M  END
> <s_m_source_file>
AV-unprocessed.smi

> <i_m_source_file_index>
1802

> <i_lp_mmshare_version>
43012

> <i_f3d_flags>
0

> <s_epik_input>
W0NIM11bQ0BASF0xW0NIMl1bQ0gyXVtDSDJdTihbQ0gyXTEpW0NIMl1bQ0gyXVtDSDJdW05IXUMoPU8pW05IXWMybm5bY0hdczI=

> <s_epik_cmdline>
J2VwaWtfcHl0aG9uJywgJy1waCcsICc3LjAnLCAnLXRuJywgJzgnLCAnLW1hJywgJzIwMCcsICctbWV0YWxfYmluZGluZycsICctaW1hZScsICc8aW5maWxlLm1hZT4nLCAnLW9tYWUnLCAnPG91dGZpbGUubWFlPic=

> <r_lp_tautomer_probability>
1

> <r_epik_Ionization_Penalty>
0.00272894

> <r_epik_Ionization_Penalty_Charging>
0.000288442

> <r_epik_Ionization_Penalty_Neutral>
0.0024405

> <r_epik_State_Penalty>
-0

> <r_epik_Charging_Adjusted_Penalty>
0.000288442

> <i_epik_Tot_Q>
1

> <i_epik_Tot_abs_Q>
1

> <r_epik_Metal_State_Penalty>
0.350525

> <b_epik_Metal_Only>
0

> <s_lp_Force_Field>
OPLS_2005

> <r_lp_Energy>
15.2014

> <b_lp_Chiralities_Consistent>
1

> <s_lp_Variant>
AV-unprocessed.smi:1802-4

> <Gold.Version>
5.8.1

> <Gold.Id.Protein>
6NUR|6NUR_protein|mol2

> <Gold.PLP.Fitness>
45.5278

> <Gold.PLP.PLP>
-30.8992

> <Gold.PLP.part.hbond>
-6.1256

> <Gold.PLP.part.metal>
0.0000

> <Gold.PLP.part.buried>
-0.9667

> <Gold.PLP.part.nonpolar>
-25.1525

> <Gold.PLP.part.repulsive>
0.2766

> <Gold.PLP.ligand.clash>
0.0000

> <Gold.PLP.ligand.torsion>
1.2071

> <Gold.PLP.Chemscore.Hbond>
5.6579

> <Gold.PLP.Chemscore.CHOScore>
0.0000

> <Gold.PLP.Chemscore.Metal>
0.0000

> <Gold.Chemscore.Hbonds>
donor molecule, donor type, donor heavy atom, donor atom, acceptor molecule, acceptor atom, score
      L1  H     6    41       P1  7948  1.53
      L1  H    10    36       P1  7948  1.00
      L1  H    13    37       P1  7948  0.04

> <Gold.PLP.Chemscore.Internal.Correction>
0.0690

> <Gold.Rescore>
     Score         DG    S(hbond)    S(metal)    S(lipo)     H(rot)  DE(clash)    DE(int)     intcor
     17.81     -19.47       3.52        0.00      62.23       1.98       0.52       1.14       ----

> <Gold.Chemscore.Fitness>
17.8066

> <Gold.Chemscore.DG>
-19.4654

> <Gold.Chemscore.ZeroCoef>
-5.4800

> <Gold.Chemscore.Hbond>
3.5245

> <Gold.Chemscore.Metal>
0.0000

> <Gold.Chemscore.Lipo>
62.2267

> <Gold.Chemscore.Internal_Hbond>
0.0000

> <Gold.Chemscore.DEClash>
0.5181

> <Gold.Chemscore.DEInternal>
1.1408

> <Gold.Chemscore.Rot>
1.9793

> <Gold.Chemscore.Internal.Correction>
   9.000000E+99

> <Gold.Chemscore.Hbonds>
donor molecule, donor type, donor heavy atom, donor atom, acceptor molecule, acceptor atom, score
      L1  H     6    41       P1  7948  0.75
      L1  H    10    36       P1  7948  1.00
      L1  H    13    37       P1  7948  0.06

> <Gold.Chemscore.Hbond.Weighted>
-11.7719

> <Gold.Chemscore.Metal.Weighted>
-0.0000

> <Gold.Chemscore.Lipo.Weighted>
-7.2805

> <Gold.Chemscore.Internal_Hbond.Weighted>
0.0000

> <Gold.Chemscore.DEClash.Weighted>
0.5181

> <Gold.Chemscore.DEInternal.Weighted>
1.1408

> <Gold.Chemscore.Rot.Weighted>
5.0670

> <Gold.Chemscore.Internal.Correction.Weighted>
   9.000000E+99

> <Gold.Protein.RotatedTorsions>
[ 6907 6896 6895 6894 ] final   11.19 input  -60.11 | X-H torsion
[ 7974 7965 7964 7962 ] final  -71.98 input  175.53 | X-H torsion
[ 8008 7997 7996 7995 ] final  -17.05 input   59.86 | X-H torsion
[ 10167 10162 10161 10158 ] final  -85.66 input  -65.29 | X-H torsion
[ 10718 10713 10712 10709 ] final    2.14 input   66.30 | X-H torsion
[ 10763 10752 10751 10750 ] final   53.70 input  -60.55 | X-H torsion
[ 11005 11000 10999 10996 ] final  129.40 input  -57.11 | X-H torsion

> <Gold.Protein.ActiveResidues>
 VAL166  LYS551  ARG553  GLY616  TRP617  ASP618  TYR619  PRO620  LYS621  CYS622 
 ASP623  PHE694  ASN695  SER759  ASP760  ASP761  ALA762  ILE779  LEU786  VAL792 
 PHE793  MET794  SER795  GLU796  ALA797  LYS798  CYS799  TRP800  GLU811  SER814 

> <Gold.Protein.RotatedAtoms>
  151.7503  135.0834  160.0329 H   0  0  0  0  0  0  0  0  0  0  0  0  # atno 6907 bound_to 6896
  152.3421  133.6075  159.5892 H   0  0  0  0  0  0  0  0  0  0  0  0  # atno 6908 bound_to 6896
  150.7486  133.9622  159.3561 H   0  0  0  0  0  0  0  0  0  0  0  0  # atno 6909 bound_to 6896
  145.6711  140.9221  143.0882 H   0  0  0  0  0  0  0  0  0  0  0  0  # atno 7974 bound_to 7965
  154.5007  140.2153  155.9353 H   0  0  0  0  0  0  0  0  0  0  0  0  # atno 8008 bound_to 7997
  156.1430  140.3176  155.8492 H   0  0  0  0  0  0  0  0  0  0  0  0  # atno 8009 bound_to 7997
  155.4084  140.0489  157.3024 H   0  0  0  0  0  0  0  0  0  0  0  0  # atno 8010 bound_to 7997
  140.4016  143.2660  151.9135 H   0  0  0  0  0  0  0  0  0  0  0  0  # atno 10167 bound_to 10162
  156.8586  130.5579  149.5664 H   0  0  0  0  0  0  0  0  0  0  0  0  # atno 10718 bound_to 10713
  152.9797  135.5770  154.4785 H   0  0  0  0  0  0  0  0  0  0  0  0  # atno 10763 bound_to 10752
  154.4337  135.2774  155.1897 H   0  0  0  0  0  0  0  0  0  0  0  0  # atno 10764 bound_to 10752
  154.3594  135.6192  153.5737 H   0  0  0  0  0  0  0  0  0  0  0  0  # atno 10765 bound_to 10752
  139.9613  134.9601  156.9143 H   0  0  0  0  0  0  0  0  0  0  0  0  # atno 11005 bound_to 11000
  144.7056  139.8573  143.7431 LP  0  0  0  0  0  0  0  0  0  0  0  0  # atno 17320 bound_to 7965
  146.1045  139.4043  143.0326 LP  0  0  0  0  0  0  0  0  0  0  0  0  # atno 17321 bound_to 7965
  139.4784  144.5628  151.8212 LP  0  0  0  0  0  0  0  0  0  0  0  0  # atno 17342 bound_to 10162
  140.4734  144.1554  150.5921 LP  0  0  0  0  0  0  0  0  0  0  0  0  # atno 17343 bound_to 10162
  156.0789  130.5804  150.9526 LP  0  0  0  0  0  0  0  0  0  0  0  0  # atno 17370 bound_to 10713
  157.6263  131.0925  150.8527 LP  0  0  0  0  0  0  0  0  0  0  0  0  # atno 17371 bound_to 10713
  140.5493  134.0643  155.7364 LP  0  0  0  0  0  0  0  0  0  0  0  0  # atno 17394 bound_to 11000
  141.1291  133.9333  157.2574 LP  0  0  0  0  0  0  0  0  0  0  0  0  # atno 17395 bound_to 11000

$$$$
