AV-unprocessed.smi:1700|AV-procd|sdf|6820|dock1
  -GOLD-   22720 7593D 1   1.00000     0.00000
 Structure written by MMmdl.
 34 35  0  0  0  0  0  0  0  0  1 V2000
  151.0317  145.1115  158.5670 C   0  0  0  0  0  0  0  0  0  0  0  0
  151.7600  143.8169  158.8901 C   0  0  0  0  0  0  0  0  0  0  0  0
  152.6934  143.7965  159.9483 C   0  0  0  0  0  0  0  0  0  0  0  0
  153.3658  142.5991  160.2469 C   0  0  0  0  0  0  0  0  0  0  0  0
  153.0739  141.4653  159.4697 C   0  0  0  0  0  0  0  0  0  0  0  0
  152.1841  141.4761  158.4564 N   0  0  0  0  0  0  0  0  0  0  0  0
  151.5267  142.6240  158.1544 C   0  0  0  0  0  0  0  0  0  0  0  0
  150.5764  142.7093  157.0974 N   0  0  0  0  0  0  0  0  0  0  0  0
  150.2856  141.7928  156.1571 C   0  0  0  0  0  0  0  0  0  0  0  0
  150.8064  140.6813  156.0575 O   0  0  0  0  0  0  0  0  0  0  0  0
  149.3397  142.2413  155.3195 N   0  0  0  0  0  0  0  0  0  0  0  0
  148.8111  141.4985  154.1812 C   0  0  0  0  0  0  0  0  0  0  0  0
  147.3064  141.7493  153.9902 C   0  0  1  0  0  0  0  0  0  0  0  0
  146.4701  141.4346  155.2268 C   0  0  0  0  0  0  0  0  0  0  0  0
  145.2233  142.2483  154.9627 C   0  0  0  0  0  0  0  0  0  0  0  0
  145.7839  143.4971  154.2834 C   0  0  0  0  0  0  0  0  0  0  0  0
  147.0517  143.1286  153.7442 O   0  0  0  0  0  0  0  0  0  0  0  0
  151.3412  145.9181  159.2321 H   0  0  0  0  0  0  0  0  0  0  0  0
  149.9547  144.9813  158.6764 H   0  0  0  0  0  0  0  0  0  0  0  0
  151.2419  145.4226  157.5433 H   0  0  0  0  0  0  0  0  0  0  0  0
  152.8940  144.6863  160.5266 H   0  0  0  0  0  0  0  0  0  0  0  0
  154.0857  142.5511  161.0504 H   0  0  0  0  0  0  0  0  0  0  0  0
  153.5672  140.5247  159.6657 H   0  0  0  0  0  0  0  0  0  0  0  0
  150.0603  143.5748  157.0504 H   0  0  0  0  0  0  0  0  0  0  0  0
  148.9675  143.1677  155.4693 H   0  0  0  0  0  0  0  0  0  0  0  0
  149.3570  141.7716  153.2765 H   0  0  0  0  0  0  0  0  0  0  0  0
  148.9968  140.4369  154.3456 H   0  0  0  0  0  0  0  0  0  0  0  0
  146.9221  141.1733  153.1464 H   0  0  0  0  0  0  0  0  0  0  0  0
  146.2688  140.3694  155.3436 H   0  0  0  0  0  0  0  0  0  0  0  0
  146.9665  141.7925  156.1299 H   0  0  0  0  0  0  0  0  0  0  0  0
  144.5691  141.7105  154.2751 H   0  0  0  0  0  0  0  0  0  0  0  0
  144.6571  142.4722  155.8673 H   0  0  0  0  0  0  0  0  0  0  0  0
  145.1185  143.8675  153.5032 H   0  0  0  0  0  0  0  0  0  0  0  0
  145.9342  144.2980  155.0079 H   0  0  0  0  0  0  0  0  0  0  0  0
  1  2  1  0  0  0  0
  1 18  1  0  0  0  0
  1 19  1  0  0  0  0
  1 20  1  0  0  0  0
  2  7  1  0  0  0  0
  2  3  2  0  0  0  0
  3  4  1  0  0  0  0
  3 21  1  0  0  0  0
  4  5  2  0  0  0  0
  4 22  1  0  0  0  0
  5  6  1  0  0  0  0
  5 23  1  0  0  0  0
  6  7  2  0  0  0  0
  7  8  1  0  0  0  0
  8  9  1  0  0  0  0
  8 24  1  0  0  0  0
  9 10  2  0  0  0  0
  9 11  1  0  0  0  0
 11 12  1  0  0  0  0
 11 25  1  0  0  0  0
 12 13  1  0  0  0  0
 12 26  1  0  0  0  0
 12 27  1  0  0  0  0
 13 17  1  0  0  0  0
 13 14  1  0  0  0  0
 13 28  1  0  0  0  0
 14 15  1  0  0  0  0
 14 29  1  0  0  0  0
 14 30  1  0  0  0  0
 15 16  1  0  0  0  0
 15 31  1  0  0  0  0
 15 32  1  0  0  0  0
 16 17  1  0  0  0  0
 16 33  1  0  0  0  0
 16 34  1  0  0  0  0
M  END
> <s_m_source_file>
AV-unprocessed.smi

> <i_m_source_file_index>
1700

> <i_lp_mmshare_version>
43012

> <i_f3d_flags>
0

> <s_epik_input>
W0NIM11jMVtjSF1bY0hdW2NIXW5jMVtOSF1DKD1PKVtOSF1bQ0gyXVtDQEBIXTJbQ0gyXVtDSDJdW0NIMl1PMg==

> <s_epik_cmdline>
J2VwaWtfcHl0aG9uJywgJy1waCcsICc3LjAnLCAnLXRuJywgJzgnLCAnLW1hJywgJzIwMCcsICctbWV0YWxfYmluZGluZycsICctaW1hZScsICc8aW5maWxlLm1hZT4nLCAnLW9tYWUnLCAnPG91dGZpbGUubWFlPic=

> <r_lp_tautomer_probability>
1

> <r_epik_Ionization_Penalty>
5.57253e-05

> <r_epik_Ionization_Penalty_Charging>
0

> <r_epik_Ionization_Penalty_Neutral>
5.57253e-05

> <r_epik_State_Penalty>
-0

> <r_epik_Charging_Adjusted_Penalty>
0

> <i_epik_Tot_Q>
0

> <i_epik_Tot_abs_Q>
0

> <r_epik_Metal_State_Penalty>
-0

> <b_epik_Metal_Only>
0

> <s_lp_Force_Field>
OPLS_2005

> <r_lp_Energy>
19.2835

> <b_lp_Chiralities_Consistent>
1

> <s_lp_Variant>
AV-unprocessed.smi:1700-2

> <Gold.Version>
5.8.1

> <Gold.Id.Protein>
6NUR|6NUR_protein|mol2

> <Gold.PLP.Fitness>
42.0687

> <Gold.PLP.PLP>
-36.9575

> <Gold.PLP.part.hbond>
-3.0000

> <Gold.PLP.part.metal>
0.0000

> <Gold.PLP.part.buried>
-3.4413

> <Gold.PLP.part.nonpolar>
-31.2631

> <Gold.PLP.part.repulsive>
1.0248

> <Gold.PLP.ligand.clash>
0.0000

> <Gold.PLP.ligand.torsion>
0.1860

> <Gold.PLP.Chemscore.Hbond>
1.8169

> <Gold.PLP.Chemscore.CHOScore>
0.0000

> <Gold.PLP.Chemscore.Metal>
0.0000

> <Gold.Chemscore.Hbonds>
donor molecule, donor type, donor heavy atom, donor atom, acceptor molecule, acceptor atom, score
      L1  H     8    24       P1  8028  0.60
      L1  H    11    25       P1  8028  1.00
      P1  H  8022  8030       L1    17  0.21

> <Gold.PLP.Chemscore.Internal.Correction>
0.0324

> <Gold.Rescore>
     Score         DG    S(hbond)    S(metal)    S(lipo)     H(rot)  DE(clash)    DE(int)     intcor
     17.04     -18.48       1.88        0.00      84.29       1.23       0.02       1.42       ----

> <Gold.Chemscore.Fitness>
17.0396

> <Gold.Chemscore.DG>
-18.4784

> <Gold.Chemscore.ZeroCoef>
-5.4800

> <Gold.Chemscore.Hbond>
1.8847

> <Gold.Chemscore.Metal>
0.0000

> <Gold.Chemscore.Lipo>
84.2870

> <Gold.Chemscore.Internal_Hbond>
0.0000

> <Gold.Chemscore.DEClash>
0.0215

> <Gold.Chemscore.DEInternal>
1.4173

> <Gold.Chemscore.Rot>
1.2337

> <Gold.Chemscore.Internal.Correction>
   9.000000E+99

> <Gold.Chemscore.Hbonds>
donor molecule, donor type, donor heavy atom, donor atom, acceptor molecule, acceptor atom, score
      L1  H     8    24       P1  8028  0.59
      L1  H    11    25       P1  8028  0.96
      P1  H  8022  8030       L1    17  0.19

> <Gold.Chemscore.Hbond.Weighted>
-6.2950

> <Gold.Chemscore.Metal.Weighted>
-0.0000

> <Gold.Chemscore.Lipo.Weighted>
-9.8616

> <Gold.Chemscore.Internal_Hbond.Weighted>
0.0000

> <Gold.Chemscore.DEClash.Weighted>
0.0215

> <Gold.Chemscore.DEInternal.Weighted>
1.4173

> <Gold.Chemscore.Rot.Weighted>
3.1582

> <Gold.Chemscore.Internal.Correction.Weighted>
   9.000000E+99

> <Gold.Protein.RotatedTorsions>
[ 6907 6896 6895 6894 ] final   64.66 input  -60.11 | X-H torsion
[ 7974 7965 7964 7962 ] final   43.82 input  175.53 | X-H torsion
[ 8008 7997 7996 7995 ] final   -8.02 input   59.86 | X-H torsion
[ 10167 10162 10161 10158 ] final -112.28 input  -65.29 | X-H torsion
[ 10718 10713 10712 10709 ] final   61.34 input   66.30 | X-H torsion
[ 10763 10752 10751 10750 ] final  171.21 input  -60.55 | X-H torsion
[ 11005 11000 10999 10996 ] final  148.58 input  -57.11 | X-H torsion

> <Gold.Protein.ActiveResidues>
 VAL166  LYS551  ARG553  GLY616  TRP617  ASP618  TYR619  PRO620  LYS621  CYS622 
 ASP623  PHE694  ASN695  SER759  ASP760  ASP761  ALA762  ILE779  LEU786  VAL792 
 PHE793  MET794  SER795  GLU796  ALA797  LYS798  CYS799  TRP800  GLU811  SER814 

> <Gold.Protein.RotatedAtoms>
  152.4349  134.5706  159.9919 H   0  0  0  0  0  0  0  0  0  0  0  0  # atno 6907 bound_to 6896
  151.5820  133.3371  159.3018 H   0  0  0  0  0  0  0  0  0  0  0  0  # atno 6908 bound_to 6896
  150.8246  134.7505  159.6866 H   0  0  0  0  0  0  0  0  0  0  0  0  # atno 6909 bound_to 6896
  146.0622  139.5144  142.9651 H   0  0  0  0  0  0  0  0  0  0  0  0  # atno 7974 bound_to 7965
  154.5781  140.2392  155.8093 H   0  0  0  0  0  0  0  0  0  0  0  0  # atno 8008 bound_to 7997
  156.2159  140.3012  155.9794 H   0  0  0  0  0  0  0  0  0  0  0  0  # atno 8009 bound_to 7997
  155.2590  140.0413  157.2985 H   0  0  0  0  0  0  0  0  0  0  0  0  # atno 8010 bound_to 7997
  140.1245  143.4414  152.1669 H   0  0  0  0  0  0  0  0  0  0  0  0  # atno 10167 bound_to 10162
  157.5820  130.8989  149.9448 H   0  0  0  0  0  0  0  0  0  0  0  0  # atno 10718 bound_to 10713
  154.4087  135.2756  155.2051 H   0  0  0  0  0  0  0  0  0  0  0  0  # atno 10763 bound_to 10752
  154.4046  135.6036  153.5920 H   0  0  0  0  0  0  0  0  0  0  0  0  # atno 10764 bound_to 10752
  152.9831  135.5934  154.4365 H   0  0  0  0  0  0  0  0  0  0  0  0  # atno 10765 bound_to 10752
  140.0972  134.9005  157.1741 H   0  0  0  0  0  0  0  0  0  0  0  0  # atno 11005 bound_to 11000
  145.6539  141.0256  143.1745 LP  0  0  0  0  0  0  0  0  0  0  0  0  # atno 17320 bound_to 7965
  144.7182  139.8123  143.7391 LP  0  0  0  0  0  0  0  0  0  0  0  0  # atno 17321 bound_to 7965
  139.5551  144.7367  151.4317 LP  0  0  0  0  0  0  0  0  0  0  0  0  # atno 17342 bound_to 10162
  140.6853  143.7988  150.7177 LP  0  0  0  0  0  0  0  0  0  0  0  0  # atno 17343 bound_to 10162
  156.0867  130.3667  150.0474 LP  0  0  0  0  0  0  0  0  0  0  0  0  # atno 17370 bound_to 10713
  156.8612  130.9492  151.3618 LP  0  0  0  0  0  0  0  0  0  0  0  0  # atno 17371 bound_to 10713
  140.3270  134.2852  155.7235 LP  0  0  0  0  0  0  0  0  0  0  0  0  # atno 17394 bound_to 11000
  141.2095  133.7746  156.9990 LP  0  0  0  0  0  0  0  0  0  0  0  0  # atno 17395 bound_to 11000

$$$$
