AV-unprocessed.smi:2843|AV-procd|sdf|10937|dock8
  -GOLD-   2272015383D 1   1.00000     0.00000
 Structure written by MMmdl.
 29 29  0  0  0  0  0  0  0  0  1 V2000
  153.2829  142.2208  160.6139 C   0  0  0  0  0  0  0  0  0  0  0  0
  152.5064  141.8962  159.3841 C   0  0  0  0  0  0  0  0  0  0  0  0
  151.7474  142.6498  158.5349 C   0  0  0  0  0  0  0  0  0  0  0  0
  151.2973  141.7123  157.5646 C   0  0  0  0  0  0  0  0  0  0  0  0
  150.4226  141.9546  156.3681 C   0  0  0  0  0  0  0  0  0  0  0  0
  150.2775  140.4008  155.3893 S   0  0  0  0  0  0  0  0  0  0  0  0
  151.6223  139.9451  155.0049 O   0  0  0  0  0  0  0  0  0  0  0  0
  149.3656  139.4857  156.0930 O   0  0  0  0  0  0  0  0  0  0  0  0
  149.4827  140.9333  153.9552 N   0  0  0  0  0  0  0  0  0  0  0  0
  148.1267  141.4631  154.0831 C   0  0  0  0  0  0  0  0  0  0  0  0
  147.1257  140.3200  154.2948 C   0  0  0  0  0  0  0  0  0  0  0  0
  146.9316  139.4730  153.0304 C   0  0  0  0  0  0  0  0  0  0  0  0
  146.5986  140.3069  151.9419 O   0  0  0  0  0  0  0  0  0  0  0  0
  151.7444  140.4930  157.8169 N   0  0  0  0  0  0  0  0  0  0  0  0
  152.5196  140.6009  158.9768 O   0  0  0  0  0  0  0  0  0  0  0  0
  153.2523  143.2903  160.8236 H   0  0  0  0  0  0  0  0  0  0  0  0
  154.3270  141.9289  160.4999 H   0  0  0  0  0  0  0  0  0  0  0  0
  152.8760  141.6947  161.4776 H   0  0  0  0  0  0  0  0  0  0  0  0
  151.5491  143.7097  158.5944 H   0  0  0  0  0  0  0  0  0  0  0  0
  149.4209  142.2711  156.6612 H   0  0  0  0  0  0  0  0  0  0  0  0
  150.8430  142.7292  155.7273 H   0  0  0  0  0  0  0  0  0  0  0  0
  149.5228  140.2151  153.2323 H   0  0  0  0  0  0  0  0  0  0  0  0
  148.0938  142.1570  154.9240 H   0  0  0  0  0  0  0  0  0  0  0  0
  147.8760  142.0277  153.1843 H   0  0  0  0  0  0  0  0  0  0  0  0
  147.4700  139.6818  155.1102 H   0  0  0  0  0  0  0  0  0  0  0  0
  146.1644  140.7310  154.6073 H   0  0  0  0  0  0  0  0  0  0  0  0
  147.8428  138.9235  152.7913 H   0  0  0  0  0  0  0  0  0  0  0  0
  146.1359  138.7414  153.1746 H   0  0  0  0  0  0  0  0  0  0  0  0
  145.6670  140.4656  151.9580 H   0  0  0  0  0  0  0  0  0  0  0  0
  1  2  1  0  0  0  0
  1 16  1  0  0  0  0
  1 17  1  0  0  0  0
  1 18  1  0  0  0  0
  2 15  1  0  0  0  0
  2  3  2  0  0  0  0
  3  4  1  0  0  0  0
  3 19  1  0  0  0  0
  4  5  1  0  0  0  0
  4 14  2  0  0  0  0
  5  6  1  0  0  0  0
  5 20  1  0  0  0  0
  5 21  1  0  0  0  0
  6  7  2  0  0  0  0
  6  8  2  0  0  0  0
  6  9  1  0  0  0  0
  9 10  1  0  0  0  0
  9 22  1  0  0  0  0
 10 11  1  0  0  0  0
 10 23  1  0  0  0  0
 10 24  1  0  0  0  0
 11 12  1  0  0  0  0
 11 25  1  0  0  0  0
 11 26  1  0  0  0  0
 12 13  1  0  0  0  0
 12 27  1  0  0  0  0
 12 28  1  0  0  0  0
 13 29  1  0  0  0  0
 14 15  1  0  0  0  0
M  END
> <s_m_source_file>
AV-unprocessed.smi

> <i_m_source_file_index>
2843

> <i_lp_mmshare_version>
43012

> <i_f3d_flags>
0

> <s_epik_input>
W0NIM11jMVtjSF1jKG5vMSlbQ0gyXVMoPU8pKD1PKVtOSF1bQ0gyXVtDSDJdW0NIMl1bT0hd

> <s_epik_cmdline>
J2VwaWtfcHl0aG9uJywgJy1waCcsICc3LjAnLCAnLXRuJywgJzgnLCAnLW1hJywgJzIwMCcsICctbWV0YWxfYmluZGluZycsICctaW1hZScsICc8aW5maWxlLm1hZT4nLCAnLW9tYWUnLCAnPG91dGZpbGUubWFlPic=

> <r_lp_tautomer_probability>
1

> <r_epik_Ionization_Penalty>
0.000153409

> <r_epik_Ionization_Penalty_Charging>
0

> <r_epik_Ionization_Penalty_Neutral>
0.000153409

> <r_epik_State_Penalty>
-0

> <r_epik_Charging_Adjusted_Penalty>
0

> <i_epik_Tot_Q>
0

> <i_epik_Tot_abs_Q>
0

> <r_epik_Metal_State_Penalty>
0.110712

> <b_epik_Metal_Only>
0

> <s_lp_Force_Field>
OPLS_2005

> <r_lp_Energy>
-3.16936

> <b_lp_Chiralities_Consistent>
1

> <s_lp_Variant>
AV-unprocessed.smi:2843-1

> <Gold.Version>
5.8.1

> <Gold.Id.Protein>
6NUR|6NUR_protein|mol2

> <Gold.PLP.Fitness>
38.1488

> <Gold.PLP.PLP>
-30.3349

> <Gold.PLP.part.hbond>
-5.6731

> <Gold.PLP.part.metal>
0.0000

> <Gold.PLP.part.buried>
-3.5325

> <Gold.PLP.part.nonpolar>
-21.8596

> <Gold.PLP.part.repulsive>
0.0625

> <Gold.PLP.ligand.clash>
0.0000

> <Gold.PLP.ligand.torsion>
0.3131

> <Gold.PLP.Chemscore.Hbond>
2.7577

> <Gold.PLP.Chemscore.CHOScore>
0.0000

> <Gold.PLP.Chemscore.Metal>
0.0000

> <Gold.Chemscore.Hbonds>
donor molecule, donor type, donor heavy atom, donor atom, acceptor molecule, acceptor atom, score
      L1  H     9    22       P1  7957  0.70
      L1  H    13    29       P1 10175  0.80
      P1  H  7989  7998       L1     7  0.75
      P1  H  8011  8017       L1     9  0.07

> <Gold.PLP.Chemscore.Internal.Correction>
0.1670

> <Gold.Rescore>
     Score         DG    S(hbond)    S(metal)    S(lipo)     H(rot)  DE(clash)    DE(int)     intcor
      8.92     -11.68       1.97        0.00      64.36       3.09       0.09       2.67       ----

> <Gold.Chemscore.Fitness>
8.9174

> <Gold.Chemscore.DG>
-11.6812

> <Gold.Chemscore.ZeroCoef>
-5.4800

> <Gold.Chemscore.Hbond>
1.9731

> <Gold.Chemscore.Metal>
0.0000

> <Gold.Chemscore.Lipo>
64.3639

> <Gold.Chemscore.Internal_Hbond>
0.0000

> <Gold.Chemscore.DEClash>
0.0930

> <Gold.Chemscore.DEInternal>
2.6708

> <Gold.Chemscore.Rot>
3.0935

> <Gold.Chemscore.Internal.Correction>
   9.000000E+99

> <Gold.Chemscore.Hbonds>
donor molecule, donor type, donor heavy atom, donor atom, acceptor molecule, acceptor atom, score
      L1  H     9    22       P1  7957  0.68
      L1  H    13    29       P1 10175  0.11
      P1  H  7989  7998       L1     7  0.09

> <Gold.Chemscore.Hbond.Weighted>
-6.5901

> <Gold.Chemscore.Metal.Weighted>
-0.0000

> <Gold.Chemscore.Lipo.Weighted>
-7.5306

> <Gold.Chemscore.Internal_Hbond.Weighted>
0.0000

> <Gold.Chemscore.DEClash.Weighted>
0.0930

> <Gold.Chemscore.DEInternal.Weighted>
2.6708

> <Gold.Chemscore.Rot.Weighted>
7.9195

> <Gold.Chemscore.Internal.Correction.Weighted>
   9.000000E+99

> <Gold.Protein.RotatedTorsions>
[ 6907 6896 6895 6894 ] final -164.82 input  -60.11 | X-H torsion
[ 7974 7965 7964 7962 ] final  -49.67 input  175.53 | X-H torsion
[ 8008 7997 7996 7995 ] final   28.03 input   59.86 | X-H torsion
[ 10167 10162 10161 10158 ] final  -37.85 input  -65.29 | X-H torsion
[ 10718 10713 10712 10709 ] final -147.46 input   66.30 | X-H torsion
[ 10763 10752 10751 10750 ] final   72.23 input  -60.55 | X-H torsion
[ 11005 11000 10999 10996 ] final   14.68 input  -57.11 | X-H torsion

> <Gold.Protein.ActiveResidues>
 VAL166  LYS551  ARG553  GLY616  TRP617  ASP618  TYR619  PRO620  LYS621  CYS622 
 ASP623  PHE694  ASN695  SER759  ASP760  ASP761  ALA762  ILE779  LEU786  VAL792 
 PHE793  MET794  SER795  GLU796  ALA797  LYS798  CYS799  TRP800  GLU811  SER814 

> <Gold.Protein.RotatedAtoms>
  151.4178  133.3707  159.2751 H   0  0  0  0  0  0  0  0  0  0  0  0  # atno 6907 bound_to 6896
  150.9315  134.8731  159.7565 H   0  0  0  0  0  0  0  0  0  0  0  0  # atno 6908 bound_to 6896
  152.5030  134.4123  159.9505 H   0  0  0  0  0  0  0  0  0  0  0  0  # atno 6909 bound_to 6896
  145.9380  140.7688  142.9566 H   0  0  0  0  0  0  0  0  0  0  0  0  # atno 7974 bound_to 7965
  155.0522  140.3181  155.4688 H   0  0  0  0  0  0  0  0  0  0  0  0  # atno 8008 bound_to 7997
  156.2832  140.2144  156.5592 H   0  0  0  0  0  0  0  0  0  0  0  0  # atno 8009 bound_to 7997
  154.7201  140.0490  157.0619 H   0  0  0  0  0  0  0  0  0  0  0  0  # atno 8010 bound_to 7997
  140.7107  143.3315  151.2559 H   0  0  0  0  0  0  0  0  0  0  0  0  # atno 10167 bound_to 10162
  156.4078  130.7966  151.2182 H   0  0  0  0  0  0  0  0  0  0  0  0  # atno 10718 bound_to 10713
  153.0446  135.5108  154.7712 H   0  0  0  0  0  0  0  0  0  0  0  0  # atno 10763 bound_to 10752
  154.6622  135.2940  154.9854 H   0  0  0  0  0  0  0  0  0  0  0  0  # atno 10764 bound_to 10752
  154.0700  135.6679  153.4875 H   0  0  0  0  0  0  0  0  0  0  0  0  # atno 10765 bound_to 10752
  140.4668  134.1071  155.7725 H   0  0  0  0  0  0  0  0  0  0  0  0  # atno 11005 bound_to 11000
  144.6774  140.2235  143.7363 LP  0  0  0  0  0  0  0  0  0  0  0  0  # atno 17320 bound_to 7965
  145.8337  139.2098  143.1868 LP  0  0  0  0  0  0  0  0  0  0  0  0  # atno 17321 bound_to 7965
  139.6798  143.9874  152.2802 LP  0  0  0  0  0  0  0  0  0  0  0  0  # atno 17342 bound_to 10162
  139.9500  144.6626  150.8181 LP  0  0  0  0  0  0  0  0  0  0  0  0  # atno 17343 bound_to 10162
  157.7506  131.0267  150.3972 LP  0  0  0  0  0  0  0  0  0  0  0  0  # atno 17370 bound_to 10713
  156.4265  130.3963  149.6789 LP  0  0  0  0  0  0  0  0  0  0  0  0  # atno 17371 bound_to 10713
  141.1596  133.8819  157.1885 LP  0  0  0  0  0  0  0  0  0  0  0  0  # atno 17394 bound_to 11000
  139.9910  135.0064  156.9975 LP  0  0  0  0  0  0  0  0  0  0  0  0  # atno 17395 bound_to 11000

$$$$
