AV-unprocessed.smi:34|AV-procd|sdf|222|dock5
  -GOLD-   2262015543D 1   1.00000     0.00000
 Structure written by MMmdl.
 55 59  0  0  0  0  0  0  0  0  1 V2000
  152.0778  140.5122  158.5541 O   0  0  0  0  0  0  0  0  0  0  0  0
  151.6948  141.5591  158.0310 C   0  0  0  0  0  0  0  0  0  0  0  0
  151.0912  141.5871  156.7112 N   0  0  0  0  0  0  0  0  0  0  0  0
  150.9355  140.5589  155.8454 C   0  0  0  0  0  0  0  0  0  0  0  0
  151.9912  139.8821  155.3209 N   0  0  0  0  0  0  0  0  0  0  0  0
  151.7876  138.8760  154.4645 C   0  0  0  0  0  0  0  0  0  0  0  0
  150.6312  138.3934  154.0034 N   0  0  0  0  0  0  0  0  0  0  0  0
  149.5690  139.0737  154.5226 C   0  0  0  0  0  0  0  0  0  0  0  0
  149.6364  140.1606  155.4367 C   0  0  0  0  0  0  0  0  0  0  0  0
  148.3537  140.6008  155.7368 N   0  0  0  0  0  0  0  0  0  0  0  0
  147.5774  139.8117  155.0431 C   0  0  0  0  0  0  0  0  0  0  0  0
  148.2297  138.8651  154.2797 N   0  0  0  0  0  0  0  0  0  0  0  0
  147.6650  137.8032  153.3840 C   0  0  1  0  0  0  0  0  0  0  0  0
  146.7415  137.0529  154.1151 O   0  0  0  0  0  0  0  0  0  0  0  0
  145.4279  137.4916  153.7941 C   0  0  2  0  0  0  0  0  0  0  0  0
  144.3855  136.4407  154.1909 C   0  0  0  0  0  0  0  0  0  0  0  0
  143.1137  137.0646  154.2557 O   0  0  0  0  0  0  0  0  0  0  0  0
  141.9966  136.3167  154.3297 C   0  0  0  0  0  0  0  0  0  0  0  0
  141.9965  135.1161  154.6090 O   0  0  0  0  0  0  0  0  0  0  0  0
  140.7583  137.0944  154.0359 C   0  0  0  0  0  0  0  0  0  0  0  0
  140.8635  138.4650  153.7024 C   0  0  0  0  0  0  0  0  0  0  0  0
  139.7117  139.2256  153.4218 C   0  0  0  0  0  0  0  0  0  0  0  0
  138.4403  138.6249  153.4716 C   0  0  0  0  0  0  0  0  0  0  0  0
  138.3219  137.2622  153.8015 C   0  0  0  0  0  0  0  0  0  0  0  0
  139.4727  136.4996  154.0819 C   0  0  0  0  0  0  0  0  0  0  0  0
  145.5335  137.7548  152.2936 C   0  0  2  0  0  0  0  0  0  0  0  0
  145.5088  136.6059  151.6144 F   0  0  0  0  0  0  0  0  0  0  0  0
  146.9107  138.3898  152.1646 C   0  0  1  0  0  0  0  0  0  0  0  0
  146.7970  139.8028  152.1587 O   0  0  0  0  0  0  0  0  0  0  0  0
  151.7343  142.8685  158.7627 C   0  0  0  0  0  0  0  0  0  0  0  0
  151.2854  144.0477  158.1267 C   0  0  0  0  0  0  0  0  0  0  0  0
  151.3083  145.2790  158.8104 C   0  0  0  0  0  0  0  0  0  0  0  0
  151.7707  145.3395  160.1387 C   0  0  0  0  0  0  0  0  0  0  0  0
  152.2062  144.1672  160.7845 C   0  0  0  0  0  0  0  0  0  0  0  0
  152.1860  142.9355  160.1011 C   0  0  0  0  0  0  0  0  0  0  0  0
  150.7383  142.4819  156.4047 H   0  0  0  0  0  0  0  0  0  0  0  0
  152.6788  138.3887  154.0969 H   0  0  0  0  0  0  0  0  0  0  0  0
  146.5017  139.9022  155.0792 H   0  0  0  0  0  0  0  0  0  0  0  0
  148.5236  137.1864  153.1154 H   0  0  0  0  0  0  0  0  0  0  0  0
  145.2190  138.4342  154.3028 H   0  0  0  0  0  0  0  0  0  0  0  0
  144.3528  135.6481  153.4421 H   0  0  0  0  0  0  0  0  0  0  0  0
  144.6424  135.9840  155.1480 H   0  0  0  0  0  0  0  0  0  0  0  0
  141.8290  138.9486  153.6580 H   0  0  0  0  0  0  0  0  0  0  0  0
  139.8048  140.2715  153.1685 H   0  0  0  0  0  0  0  0  0  0  0  0
  137.5571  139.2083  153.2572 H   0  0  0  0  0  0  0  0  0  0  0  0
  137.3464  136.7999  153.8405 H   0  0  0  0  0  0  0  0  0  0  0  0
  139.3459  135.4563  154.3316 H   0  0  0  0  0  0  0  0  0  0  0  0
  144.7234  138.3743  151.9064 H   0  0  0  0  0  0  0  0  0  0  0  0
  147.4099  138.0809  151.2453 H   0  0  0  0  0  0  0  0  0  0  0  0
  145.9039  140.0304  152.3699 H   0  0  0  0  0  0  0  0  0  0  0  0
  150.9266  144.0173  157.1077 H   0  0  0  0  0  0  0  0  0  0  0  0
  150.9700  146.1773  158.3156 H   0  0  0  0  0  0  0  0  0  0  0  0
  151.7874  146.2839  160.6627 H   0  0  0  0  0  0  0  0  0  0  0  0
  152.5543  144.2117  161.8059 H   0  0  0  0  0  0  0  0  0  0  0  0
  152.5163  142.0458  160.6177 H   0  0  0  0  0  0  0  0  0  0  0  0
  1  2  2  0  0  0  0
  2  3  1  0  0  0  0
  2 30  1  0  0  0  0
  3  4  1  0  0  0  0
  3 36  1  0  0  0  0
  4  9  1  0  0  0  0
  4  5  2  0  0  0  0
  5  6  1  0  0  0  0
  6  7  2  0  0  0  0
  6 37  1  0  0  0  0
  7  8  1  0  0  0  0
  8 12  1  0  0  0  0
  8  9  2  0  0  0  0
  9 10  1  0  0  0  0
 10 11  2  0  0  0  0
 11 12  1  0  0  0  0
 11 38  1  0  0  0  0
 12 13  1  0  0  0  0
 13 28  1  0  0  0  0
 13 14  1  0  0  0  0
 13 39  1  0  0  0  0
 14 15  1  0  0  0  0
 15 16  1  0  0  0  0
 15 26  1  0  0  0  0
 15 40  1  0  0  0  0
 16 17  1  0  0  0  0
 16 41  1  0  0  0  0
 16 42  1  0  0  0  0
 17 18  1  0  0  0  0
 18 19  2  0  0  0  0
 18 20  1  0  0  0  0
 20 25  1  0  0  0  0
 20 21  2  0  0  0  0
 21 22  1  0  0  0  0
 21 43  1  0  0  0  0
 22 23  2  0  0  0  0
 22 44  1  0  0  0  0
 23 24  1  0  0  0  0
 23 45  1  0  0  0  0
 24 25  2  0  0  0  0
 24 46  1  0  0  0  0
 25 47  1  0  0  0  0
 26 27  1  0  0  0  0
 26 28  1  0  0  0  0
 26 48  1  0  0  0  0
 28 29  1  0  0  0  0
 28 49  1  0  0  0  0
 29 50  1  0  0  0  0
 30 35  1  0  0  0  0
 30 31  2  0  0  0  0
 31 32  1  0  0  0  0
 31 51  1  0  0  0  0
 32 33  2  0  0  0  0
 32 52  1  0  0  0  0
 33 34  1  0  0  0  0
 33 53  1  0  0  0  0
 34 35  2  0  0  0  0
 34 54  1  0  0  0  0
 35 55  1  0  0  0  0
M  END
> <s_m_source_file>
AV-unprocessed.smi

> <i_m_source_file_index>
34

> <i_lp_mmshare_version>
43012

> <i_f3d_flags>
0

> <s_epik_input>
W2NIXTFbY0hdW2NIXVtjSF1bY0hdYzFDKD1PKVtOSF1jKG5bY0hdbjIpYyhjMjMpbltjSF1uM1tDQEBIXTRPW0NASF0oW0NAQEhdKEYpW0NASF00W09IXSlbQ0gyXU9DKD1PKWM1W2NIXVtjSF1bY0hdW2NIXVtjSF01

> <s_epik_cmdline>
J2VwaWtfcHl0aG9uJywgJy1waCcsICc3LjAnLCAnLXRuJywgJzgnLCAnLW1hJywgJzIwMCcsICctbWV0YWxfYmluZGluZycsICctaW1hZScsICc8aW5maWxlLm1hZT4nLCAnLW9tYWUnLCAnPG91dGZpbGUubWFlPic=

> <r_lp_tautomer_probability>
1

> <r_epik_Ionization_Penalty>
0.00257489

> <r_epik_Ionization_Penalty_Charging>
0

> <r_epik_Ionization_Penalty_Neutral>
0.00257489

> <r_epik_State_Penalty>
0.00519398

> <r_epik_Charging_Adjusted_Penalty>
0.00519398

> <i_epik_Tot_Q>
0

> <i_epik_Tot_abs_Q>
0

> <r_epik_Metal_State_Penalty>
0.335891

> <b_epik_Metal_Only>
0

> <s_epik_Chemistry_Notes>
This compound has an ester and may undergo hydrolysis at high or low pH. This compound contains an acetal/aminal-like group ( X-CH(R)-Y where X, Y are N, S, or O) that may be acid/base labile, releasing an aldehyde.

> <s_lp_Force_Field>
OPLS_2005

> <r_lp_Energy>
48.7075

> <b_lp_Chiralities_Consistent>
1

> <s_lp_Variant>
AV-unprocessed.smi:34-8

> <Gold.Version>
5.8.1

> <Gold.Id.Protein>
6NUR|6NUR_protein|mol2

> <Gold.PLP.Fitness>
58.8951

> <Gold.PLP.PLP>
-58.0341

> <Gold.PLP.part.hbond>
-3.5004

> <Gold.PLP.part.metal>
0.0000

> <Gold.PLP.part.buried>
-0.4152

> <Gold.PLP.part.nonpolar>
-54.5945

> <Gold.PLP.part.repulsive>
0.6547

> <Gold.PLP.ligand.clash>
0.3956

> <Gold.PLP.ligand.torsion>
1.0737

> <Gold.PLP.Chemscore.Hbond>
0.9786

> <Gold.PLP.Chemscore.CHOScore>
0.0000

> <Gold.PLP.Chemscore.Metal>
0.0000

> <Gold.Chemscore.Hbonds>
donor molecule, donor type, donor heavy atom, donor atom, acceptor molecule, acceptor atom, score
      L1  H    29    50       P1 10175  0.42
      P1  H 11000 11005       L1    19  0.50

> <Gold.PLP.Chemscore.Internal.Correction>
0.4682

> <Gold.Rescore>
     Score         DG    S(hbond)    S(metal)    S(lipo)     H(rot)  DE(clash)    DE(int)     intcor
     15.52     -18.91       1.47        0.00     132.27       2.72       1.37       2.03       ----

> <Gold.Chemscore.Fitness>
15.5169

> <Gold.Chemscore.DG>
-18.9120

> <Gold.Chemscore.ZeroCoef>
-5.4800

> <Gold.Chemscore.Hbond>
1.4740

> <Gold.Chemscore.Metal>
0.0000

> <Gold.Chemscore.Lipo>
132.2712

> <Gold.Chemscore.Internal_Hbond>
0.0000

> <Gold.Chemscore.DEClash>
1.3667

> <Gold.Chemscore.DEInternal>
2.0284

> <Gold.Chemscore.Rot>
2.7215

> <Gold.Chemscore.Internal.Correction>
   9.000000E+99

> <Gold.Chemscore.Hbonds>
donor molecule, donor type, donor heavy atom, donor atom, acceptor molecule, acceptor atom, score
      L1  H    29    50       P1 10175  0.36
      P1  H 11000 11005       L1    19  0.49

> <Gold.Chemscore.Hbond.Weighted>
-4.9233

> <Gold.Chemscore.Metal.Weighted>
-0.0000

> <Gold.Chemscore.Lipo.Weighted>
-15.4757

> <Gold.Chemscore.Internal_Hbond.Weighted>
0.0000

> <Gold.Chemscore.DEClash.Weighted>
1.3667

> <Gold.Chemscore.DEInternal.Weighted>
2.0284

> <Gold.Chemscore.Rot.Weighted>
6.9670

> <Gold.Chemscore.Internal.Correction.Weighted>
   9.000000E+99

> <Gold.Protein.RotatedTorsions>
[ 6907 6896 6895 6894 ] final    4.86 input  -60.11 | X-H torsion
[ 7974 7965 7964 7962 ] final    9.30 input  175.53 | X-H torsion
[ 8008 7997 7996 7995 ] final -120.69 input   59.86 | X-H torsion
[ 10167 10162 10161 10158 ] final -164.93 input  -65.29 | X-H torsion
[ 10718 10713 10712 10709 ] final -125.09 input   66.30 | X-H torsion
[ 10763 10752 10751 10750 ] final -112.99 input  -60.55 | X-H torsion
[ 11005 11000 10999 10996 ] final   -1.49 input  -57.11 | X-H torsion

> <Gold.Protein.ActiveResidues>
 VAL166  LYS551  ARG553  GLY616  TRP617  ASP618  TYR619  PRO620  LYS621  CYS622 
 ASP623  PHE694  ASN695  SER759  ASP760  ASP761  ALA762  ILE779  LEU786  VAL792 
 PHE793  MET794  SER795  GLU796  ALA797  LYS798  CYS799  TRP800  GLU811  SER814 

> <Gold.Protein.RotatedAtoms>
  151.6481  135.1005  160.0154 H   0  0  0  0  0  0  0  0  0  0  0  0  # atno 6907 bound_to 6896
  152.4016  133.6822  159.6329 H   0  0  0  0  0  0  0  0  0  0  0  0  # atno 6908 bound_to 6896
  150.7915  133.8698  159.3296 H   0  0  0  0  0  0  0  0  0  0  0  0  # atno 6909 bound_to 6896
  146.2405  139.9804  142.8437 H   0  0  0  0  0  0  0  0  0  0  0  0  # atno 7974 bound_to 7965
  155.1360  140.0401  157.2786 H   0  0  0  0  0  0  0  0  0  0  0  0  # atno 8008 bound_to 7997
  154.6508  140.2569  155.7190 H   0  0  0  0  0  0  0  0  0  0  0  0  # atno 8009 bound_to 7997
  156.2576  140.2836  156.0941 H   0  0  0  0  0  0  0  0  0  0  0  0  # atno 8010 bound_to 7997
  139.6216  144.0612  152.1938 H   0  0  0  0  0  0  0  0  0  0  0  0  # atno 10167 bound_to 10162
  156.1644  130.6624  151.0095 H   0  0  0  0  0  0  0  0  0  0  0  0  # atno 10718 bound_to 10713
  154.8375  135.4470  154.1280 H   0  0  0  0  0  0  0  0  0  0  0  0  # atno 10763 bound_to 10752
  153.2498  135.6925  153.7698 H   0  0  0  0  0  0  0  0  0  0  0  0  # atno 10764 bound_to 10752
  153.7015  135.3371  155.3201 H   0  0  0  0  0  0  0  0  0  0  0  0  # atno 10765 bound_to 10752
  140.6479  133.9430  155.8363 H   0  0  0  0  0  0  0  0  0  0  0  0  # atno 11005 bound_to 11000
  145.1597  140.9666  143.4384 LP  0  0  0  0  0  0  0  0  0  0  0  0  # atno 17320 bound_to 7965
  145.0128  139.3495  143.6111 LP  0  0  0  0  0  0  0  0  0  0  0  0  # atno 17321 bound_to 7965
  140.0256  144.6120  150.7530 LP  0  0  0  0  0  0  0  0  0  0  0  0  # atno 17342 bound_to 10162
  140.7386  143.2780  151.3684 LP  0  0  0  0  0  0  0  0  0  0  0  0  # atno 17343 bound_to 10162
  157.6757  131.0851  150.7500 LP  0  0  0  0  0  0  0  0  0  0  0  0  # atno 17370 bound_to 10713
  156.7562  130.4784  149.5446 LP  0  0  0  0  0  0  0  0  0  0  0  0  # atno 17371 bound_to 10713
  141.0558  134.0418  157.3724 LP  0  0  0  0  0  0  0  0  0  0  0  0  # atno 17394 bound_to 11000
  139.9056  135.0178  156.7470 LP  0  0  0  0  0  0  0  0  0  0  0  0  # atno 17395 bound_to 11000

$$$$
