AV-unprocessed.smi:2008|AV-procd|sdf|8144|dock6
  -GOLD-   2272010383D 1   1.00000     0.00000
 Structure written by MMmdl.
 46 47  0  0  0  0  0  0  0  0  2 V2000
  152.1599  140.8180  157.6327 C   0  0  0  0  0  0  0  0  0  0  0  0
  151.7695  140.7543  156.2655 O   0  0  0  0  0  0  0  0  0  0  0  0
  151.2802  139.5591  155.7793 C   0  0  0  0  0  0  0  0  0  0  0  0
  151.1951  138.4594  156.6556 C   0  0  0  0  0  0  0  0  0  0  0  0
  150.6963  137.2362  156.1682 C   0  0  0  0  0  0  0  0  0  0  0  0
  150.2889  137.1536  154.8150 C   0  0  0  0  0  0  0  0  0  0  0  0
  149.7843  135.9770  154.1970 N   0  0  0  0  0  0  0  0  0  0  0  0
  149.8759  134.7032  154.6156 C   0  0  0  0  0  0  0  0  0  0  0  0
  150.4190  134.3297  155.6551 O   0  0  0  0  0  0  0  0  0  0  0  0
  149.2805  133.8641  153.7559 N   0  0  0  0  0  0  0  0  0  0  0  0
  149.1893  132.4186  153.9311 C   0  0  0  0  0  0  0  0  0  0  0  0
  147.7999  131.8852  153.5250 C   0  0  0  0  0  0  0  0  0  0  0  0
  147.8736  130.5980  152.7759 N   0  3  1  0  0  0  0  0  0  0  0  0
  148.6635  129.5797  153.5284 C   0  0  0  0  0  0  0  0  0  0  0  0
  148.8626  128.2888  152.7230 C   0  0  0  0  0  0  0  0  0  0  0  0
  147.5114  127.6965  152.3258 C   0  0  0  0  0  0  0  0  0  0  0  0
  146.7129  128.7438  151.5471 C   0  0  0  0  0  0  0  0  0  0  0  0
  146.5420  130.0596  152.3399 C   0  0  2  0  0  0  0  0  0  0  0  0
  145.7409  131.0482  151.4648 C   0  0  0  0  0  0  0  0  0  0  0  0
  150.4278  138.3086  154.0177 C   0  0  0  0  0  0  0  0  0  0  0  0
  150.9044  139.4839  154.4787 N   0  0  0  0  0  0  0  0  0  0  0  0
  152.5191  141.8219  157.8588 H   0  0  0  0  0  0  0  0  0  0  0  0
  152.9703  140.1204  157.8490 H   0  0  0  0  0  0  0  0  0  0  0  0
  151.3205  140.6097  158.2976 H   0  0  0  0  0  0  0  0  0  0  0  0
  151.5115  138.5509  157.6843 H   0  0  0  0  0  0  0  0  0  0  0  0
  150.6510  136.3909  156.8367 H   0  0  0  0  0  0  0  0  0  0  0  0
  149.2403  136.1309  153.3604 H   0  0  0  0  0  0  0  0  0  0  0  0
  148.8521  134.2533  152.9284 H   0  0  0  0  0  0  0  0  0  0  0  0
  149.9724  131.9249  153.3529 H   0  0  0  0  0  0  0  0  0  0  0  0
  149.4011  132.2136  154.9793 H   0  0  0  0  0  0  0  0  0  0  0  0
  147.1604  131.7659  154.4010 H   0  0  0  0  0  0  0  0  0  0  0  0
  147.3344  132.6579  152.9202 H   0  0  0  0  0  0  0  0  0  0  0  0
  149.6469  129.9688  153.7866 H   0  0  0  0  0  0  0  0  0  0  0  0
  148.1608  129.3538  154.4704 H   0  0  0  0  0  0  0  0  0  0  0  0
  149.4548  128.4961  151.8305 H   0  0  0  0  0  0  0  0  0  0  0  0
  149.4280  127.5648  153.3106 H   0  0  0  0  0  0  0  0  0  0  0  0
  147.6533  126.8013  151.7195 H   0  0  0  0  0  0  0  0  0  0  0  0
  146.9594  127.3909  153.2158 H   0  0  0  0  0  0  0  0  0  0  0  0
  147.2140  128.9476  150.5996 H   0  0  0  0  0  0  0  0  0  0  0  0
  145.7359  128.3307  151.2926 H   0  0  0  0  0  0  0  0  0  0  0  0
  145.9566  129.8448  153.2357 H   0  0  0  0  0  0  0  0  0  0  0  0
  144.8800  130.5566  151.0104 H   0  0  0  0  0  0  0  0  0  0  0  0
  146.3513  131.4500  150.6553 H   0  0  0  0  0  0  0  0  0  0  0  0
  145.3357  131.8826  152.0356 H   0  0  0  0  0  0  0  0  0  0  0  0
  150.1437  138.2927  152.9755 H   0  0  0  0  0  0  0  0  0  0  0  0
  148.3828  130.7934  151.9256 H   0  0  0  0  0  0  0  0  0  0  0  0
  1  2  1  0  0  0  0
  1 22  1  0  0  0  0
  1 23  1  0  0  0  0
  1 24  1  0  0  0  0
  2  3  1  0  0  0  0
  3 21  1  0  0  0  0
  3  4  2  0  0  0  0
  4  5  1  0  0  0  0
  4 25  1  0  0  0  0
  5  6  2  0  0  0  0
  5 26  1  0  0  0  0
  6  7  1  0  0  0  0
  6 20  1  0  0  0  0
  7  8  1  0  0  0  0
  7 27  1  0  0  0  0
  8  9  2  0  0  0  0
  8 10  1  0  0  0  0
 10 11  1  0  0  0  0
 10 28  1  0  0  0  0
 11 12  1  0  0  0  0
 11 29  1  0  0  0  0
 11 30  1  0  0  0  0
 12 13  1  0  0  0  0
 12 31  1  0  0  0  0
 12 32  1  0  0  0  0
 13 18  1  0  0  0  0
 13 14  1  0  0  0  0
 13 46  1  0  0  0  0
 14 15  1  0  0  0  0
 14 33  1  0  0  0  0
 14 34  1  0  0  0  0
 15 16  1  0  0  0  0
 15 35  1  0  0  0  0
 15 36  1  0  0  0  0
 16 17  1  0  0  0  0
 16 37  1  0  0  0  0
 16 38  1  0  0  0  0
 17 18  1  0  0  0  0
 17 39  1  0  0  0  0
 17 40  1  0  0  0  0
 18 19  1  0  0  0  0
 18 41  1  0  0  0  0
 19 42  1  0  0  0  0
 19 43  1  0  0  0  0
 19 44  1  0  0  0  0
 20 21  2  0  0  0  0
 20 45  1  0  0  0  0
M  CHG  1  13   1
M  END
> <s_m_source_file>
AV-unprocessed.smi

> <i_m_source_file_index>
2008

> <i_lp_mmshare_version>
43012

> <i_f3d_flags>
0

> <s_epik_input>
W0NIM11PYzFbY0hdW2NIXWMoW2NIXW4xKVtOSF1DKD1PKVtOSF1bQ0gyXVtDSDJdTjJbQ0gyXVtDSDJdW0NIMl1bQ0gyXVtDQEhdMltDSDNd

> <s_epik_cmdline>
J2VwaWtfcHl0aG9uJywgJy1waCcsICc3LjAnLCAnLXRuJywgJzgnLCAnLW1hJywgJzIwMCcsICctbWV0YWxfYmluZGluZycsICctaW1hZScsICc8aW5maWxlLm1hZT4nLCAnLW9tYWUnLCAnPG91dGZpbGUubWFlPic=

> <r_lp_tautomer_probability>
1

> <r_epik_Ionization_Penalty>
0.00219526

> <r_epik_Ionization_Penalty_Charging>
0.00211816

> <r_epik_Ionization_Penalty_Neutral>
7.71003e-05

> <r_epik_State_Penalty>
0.00145254

> <r_epik_Charging_Adjusted_Penalty>
0.0035707

> <i_epik_Tot_Q>
1

> <i_epik_Tot_abs_Q>
1

> <r_epik_Metal_State_Penalty>
-0

> <b_epik_Metal_Only>
0

> <s_lp_Force_Field>
OPLS_2005

> <r_lp_Energy>
23.0726

> <b_lp_Chiralities_Consistent>
1

> <s_lp_Variant>
AV-unprocessed.smi:2008-4

> <Gold.Version>
5.8.1

> <Gold.Id.Protein>
6NUR|6NUR_protein|mol2

> <Gold.PLP.Fitness>
48.2705

> <Gold.PLP.PLP>
-35.1432

> <Gold.PLP.part.hbond>
-4.5180

> <Gold.PLP.part.metal>
0.0000

> <Gold.PLP.part.buried>
-2.1923

> <Gold.PLP.part.nonpolar>
-28.0608

> <Gold.PLP.part.repulsive>
0.2179

> <Gold.PLP.ligand.clash>
0.7517

> <Gold.PLP.ligand.torsion>
0.5010

> <Gold.PLP.Chemscore.Hbond>
3.2952

> <Gold.PLP.Chemscore.CHOScore>
1.6569

> <Gold.PLP.Chemscore.Metal>
0.0000

> <Gold.Chemscore.Hbonds>
donor molecule, donor type, donor heavy atom, donor atom, acceptor molecule, acceptor atom, score
      L1  H     7    27       P1  7948  0.93
      L1  H    10    28       P1  7948  0.19
      L1  H    13    46       P1 10747  1.00
      P1  H  7989  7998       L1    21  1.00
      L1  C    20    45       P1  7948  0.77
      L1  C    20    45       P1  7949  0.01
      L1  C    20    45       P1  7957  0.94

> <Gold.PLP.Chemscore.Internal.Correction>
0.0250

> <Gold.Rescore>
     Score         DG    S(hbond)    S(metal)    S(lipo)     H(rot)  DE(clash)    DE(int)     intcor
     19.16     -20.84       2.87        0.00      86.83       1.71       0.06       1.62       ----

> <Gold.Chemscore.Fitness>
19.1567

> <Gold.Chemscore.DG>
-20.8375

> <Gold.Chemscore.ZeroCoef>
-5.4800

> <Gold.Chemscore.Hbond>
2.8677

> <Gold.Chemscore.Metal>
0.0000

> <Gold.Chemscore.Lipo>
86.8268

> <Gold.Chemscore.Internal_Hbond>
0.0000

> <Gold.Chemscore.DEClash>
0.0562

> <Gold.Chemscore.DEInternal>
1.6246

> <Gold.Chemscore.Rot>
1.7107

> <Gold.Chemscore.Internal.Correction>
   9.000000E+99

> <Gold.Chemscore.Hbonds>
donor molecule, donor type, donor heavy atom, donor atom, acceptor molecule, acceptor atom, score
      L1  H     7    27       P1  7948  0.71
      L1  H    10    28       P1  7948  0.01
      L1  H    13    46       P1 10747  0.98
      P1  H  7989  7998       L1    21  0.78

> <Gold.Chemscore.Hbond.Weighted>
-9.5781

> <Gold.Chemscore.Metal.Weighted>
-0.0000

> <Gold.Chemscore.Lipo.Weighted>
-10.1587

> <Gold.Chemscore.Internal_Hbond.Weighted>
0.0000

> <Gold.Chemscore.DEClash.Weighted>
0.0562

> <Gold.Chemscore.DEInternal.Weighted>
1.6246

> <Gold.Chemscore.Rot.Weighted>
4.3794

> <Gold.Chemscore.Internal.Correction.Weighted>
   9.000000E+99

> <Gold.Protein.RotatedTorsions>
[ 6907 6896 6895 6894 ] final -165.71 input  -60.11 | X-H torsion
[ 7974 7965 7964 7962 ] final   -2.23 input  175.53 | X-H torsion
[ 8008 7997 7996 7995 ] final  -99.25 input   59.86 | X-H torsion
[ 10167 10162 10161 10158 ] final   99.91 input  -65.29 | X-H torsion
[ 10718 10713 10712 10709 ] final  159.64 input   66.30 | X-H torsion
[ 10763 10752 10751 10750 ] final -126.48 input  -60.55 | X-H torsion
[ 11005 11000 10999 10996 ] final -139.14 input  -57.11 | X-H torsion

> <Gold.Protein.ActiveResidues>
 VAL166  LYS551  ARG553  GLY616  TRP617  ASP618  TYR619  PRO620  LYS621  CYS622 
 ASP623  PHE694  ASN695  SER759  ASP760  ASP761  ALA762  ILE779  LEU786  VAL792 
 PHE793  MET794  SER795  GLU796  ALA797  LYS798  CYS799  TRP800  GLU811  SER814 

> <Gold.Protein.RotatedAtoms>
  151.4319  133.3668  159.2769 H   0  0  0  0  0  0  0  0  0  0  0  0  # atno 6907 bound_to 6896
  150.9219  134.8638  159.7505 H   0  0  0  0  0  0  0  0  0  0  0  0  # atno 6908 bound_to 6896
  152.4986  134.4258  159.9547 H   0  0  0  0  0  0  0  0  0  0  0  0  # atno 6909 bound_to 6896
  146.2407  140.1539  142.8333 H   0  0  0  0  0  0  0  0  0  0  0  0  # atno 7974 bound_to 7965
  154.8122  140.0449  157.1351 H   0  0  0  0  0  0  0  0  0  0  0  0  # atno 8008 bound_to 7997
  154.9355  140.3045  155.5126 H   0  0  0  0  0  0  0  0  0  0  0  0  # atno 8009 bound_to 7997
  156.2973  140.2315  156.4419 H   0  0  0  0  0  0  0  0  0  0  0  0  # atno 8010 bound_to 7997
  139.7575  144.6965  151.0341 H   0  0  0  0  0  0  0  0  0  0  0  0  # atno 10167 bound_to 10162
  157.1614  131.0588  151.2230 H   0  0  0  0  0  0  0  0  0  0  0  0  # atno 10718 bound_to 10713
  154.8746  135.3994  154.3438 H   0  0  0  0  0  0  0  0  0  0  0  0  # atno 10763 bound_to 10752
  153.4233  135.7023  153.6284 H   0  0  0  0  0  0  0  0  0  0  0  0  # atno 10764 bound_to 10752
  153.4937  135.3742  155.2475 H   0  0  0  0  0  0  0  0  0  0  0  0  # atno 10765 bound_to 10752
  140.8548  134.2241  157.4740 H   0  0  0  0  0  0  0  0  0  0  0  0  # atno 11005 bound_to 11000
  145.0145  140.8742  143.5204 LP  0  0  0  0  0  0  0  0  0  0  0  0  # atno 17320 bound_to 7965
  145.1578  139.2476  143.5407 LP  0  0  0  0  0  0  0  0  0  0  0  0  # atno 17321 bound_to 7965
  140.7804  143.4736  151.0113 LP  0  0  0  0  0  0  0  0  0  0  0  0  # atno 17342 bound_to 10162
  139.8423  143.7548  152.3180 LP  0  0  0  0  0  0  0  0  0  0  0  0  # atno 17343 bound_to 10162
  157.4129  130.7395  149.6853 LP  0  0  0  0  0  0  0  0  0  0  0  0  # atno 17370 bound_to 10713
  155.9753  130.4090  150.3858 LP  0  0  0  0  0  0  0  0  0  0  0  0  # atno 17371 bound_to 10713
  139.8705  134.9701  156.4689 LP  0  0  0  0  0  0  0  0  0  0  0  0  # atno 17394 bound_to 11000
  140.8749  133.7960  155.9404 LP  0  0  0  0  0  0  0  0  0  0  0  0  # atno 17395 bound_to 11000

$$$$
