AV-unprocessed.smi:1752|AV-procd|sdf|7060|dock8
  -GOLD-   22720 8273D 1   1.00000     0.00000
 Structure written by MMmdl.
 43 44  0  0  0  0  0  0  0  0  2 V2000
  152.4292  139.4346  158.0418 C   0  0  0  0  0  0  0  0  0  0  0  0
  152.1517  140.9422  158.1078 C   0  0  2  0  0  0  0  0  0  0  0  0
  152.1712  141.4532  159.5642 C   0  0  0  0  0  0  0  0  0  0  0  0
  152.0826  142.8998  159.6564 N   0  0  0  0  0  0  0  0  0  0  0  0
  151.9448  143.6809  160.7846 C   0  0  0  0  0  0  0  0  0  0  0  0
  151.9016  144.9825  160.3745 C   0  0  0  0  0  0  0  0  0  0  0  0
  152.0276  144.8953  158.9596 C   0  0  0  0  0  0  0  0  0  0  0  0
  152.1394  143.6476  158.5334 N   0  0  0  0  0  0  0  0  0  0  0  0
  150.8594  141.2097  157.4785 N   0  0  0  0  0  0  0  0  0  0  0  0
  150.5415  140.9767  156.1927 C   0  0  0  0  0  0  0  0  0  0  0  0
  151.3487  140.5196  155.3827 O   0  0  0  0  0  0  0  0  0  0  0  0
  149.2643  141.2914  155.8587 N   0  0  0  0  0  0  0  0  0  0  0  0
  148.1770  141.5903  156.8057 C   0  0  0  0  0  0  0  0  0  0  0  0
  147.4369  140.3010  157.2016 C   0  0  0  0  0  0  0  0  0  0  0  0
  146.8594  139.5159  156.0050 C   0  0  0  0  0  0  0  0  0  0  0  0
  147.9303  138.8801  155.1910 N   0  3  1  0  0  0  0  0  0  0  0  0
  147.5575  137.5286  154.7173 C   0  0  0  0  0  0  0  0  0  0  0  0
  148.4513  139.7237  154.0785 C   0  0  0  0  0  0  0  0  0  0  0  0
  148.8015  141.1783  154.4698 C   0  0  0  0  0  0  0  0  0  0  0  0
  153.4052  139.1978  158.4668 H   0  0  0  0  0  0  0  0  0  0  0  0
  152.4257  139.0787  157.0110 H   0  0  0  0  0  0  0  0  0  0  0  0
  151.6793  138.8672  158.5944 H   0  0  0  0  0  0  0  0  0  0  0  0
  152.9472  141.4376  157.5479 H   0  0  0  0  0  0  0  0  0  0  0  0
  151.3522  141.0141  160.1358 H   0  0  0  0  0  0  0  0  0  0  0  0
  153.0936  141.1435  160.0577 H   0  0  0  0  0  0  0  0  0  0  0  0
  151.8854  143.2502  161.7731 H   0  0  0  0  0  0  0  0  0  0  0  0
  151.7973  145.8631  160.9904 H   0  0  0  0  0  0  0  0  0  0  0  0
  152.0428  145.6958  158.2348 H   0  0  0  0  0  0  0  0  0  0  0  0
  150.1432  141.6001  158.0734 H   0  0  0  0  0  0  0  0  0  0  0  0
  148.5382  142.1025  157.6981 H   0  0  0  0  0  0  0  0  0  0  0  0
  147.4702  142.2936  156.3642 H   0  0  0  0  0  0  0  0  0  0  0  0
  148.0998  139.6544  157.7782 H   0  0  0  0  0  0  0  0  0  0  0  0
  146.6210  140.5663  157.8744 H   0  0  0  0  0  0  0  0  0  0  0  0
  146.2088  138.7409  156.4128 H   0  0  0  0  0  0  0  0  0  0  0  0
  146.2205  140.1448  155.3832 H   0  0  0  0  0  0  0  0  0  0  0  0
  146.6914  137.5714  154.0553 H   0  0  0  0  0  0  0  0  0  0  0  0
  147.3164  136.8762  155.5573 H   0  0  0  0  0  0  0  0  0  0  0  0
  148.3828  137.0691  154.1722 H   0  0  0  0  0  0  0  0  0  0  0  0
  149.3504  139.2393  153.6950 H   0  0  0  0  0  0  0  0  0  0  0  0
  147.7356  139.7352  153.2551 H   0  0  0  0  0  0  0  0  0  0  0  0
  147.9217  141.8033  154.3144 H   0  0  0  0  0  0  0  0  0  0  0  0
  149.5451  141.5821  153.7805 H   0  0  0  0  0  0  0  0  0  0  0  0
  148.7046  138.7396  155.8245 H   0  0  0  0  0  0  0  0  0  0  0  0
  1  2  1  0  0  0  0
  1 20  1  0  0  0  0
  1 21  1  0  0  0  0
  1 22  1  0  0  0  0
  2  3  1  0  0  0  0
  2  9  1  0  0  0  0
  2 23  1  0  0  0  0
  3  4  1  0  0  0  0
  3 24  1  0  0  0  0
  3 25  1  0  0  0  0
  4  8  1  0  0  0  0
  4  5  1  0  0  0  0
  5  6  2  0  0  0  0
  5 26  1  0  0  0  0
  6  7  1  0  0  0  0
  6 27  1  0  0  0  0
  7  8  2  0  0  0  0
  7 28  1  0  0  0  0
  9 10  1  0  0  0  0
  9 29  1  0  0  0  0
 10 11  2  0  0  0  0
 10 12  1  0  0  0  0
 12 19  1  0  0  0  0
 12 13  1  0  0  0  0
 13 14  1  0  0  0  0
 13 30  1  0  0  0  0
 13 31  1  0  0  0  0
 14 15  1  0  0  0  0
 14 32  1  0  0  0  0
 14 33  1  0  0  0  0
 15 16  1  0  0  0  0
 15 34  1  0  0  0  0
 15 35  1  0  0  0  0
 16 17  1  0  0  0  0
 16 18  1  0  0  0  0
 16 43  1  0  0  0  0
 17 36  1  0  0  0  0
 17 37  1  0  0  0  0
 17 38  1  0  0  0  0
 18 19  1  0  0  0  0
 18 39  1  0  0  0  0
 18 40  1  0  0  0  0
 19 41  1  0  0  0  0
 19 42  1  0  0  0  0
M  CHG  1  16   1
M  END
> <s_m_source_file>
AV-unprocessed.smi

> <i_m_source_file_index>
1752

> <i_lp_mmshare_version>
43012

> <i_f3d_flags>
0

> <s_epik_input>
bjFbY0hdW2NIXVtjSF1uMVtDSDJdW0NAQEhdKFtDSDNdKVtOSF1DKD1PKU4yW0NIMl1bQ0gyXVtDSDJdTihbQ0gzXSlbQ0gyXVtDSDJdMg==

> <s_epik_cmdline>
J2VwaWtfcHl0aG9uJywgJy1waCcsICc3LjAnLCAnLXRuJywgJzgnLCAnLW1hJywgJzIwMCcsICctbWV0YWxfYmluZGluZycsICctaW1hZScsICc8aW5maWxlLm1hZT4nLCAnLW9tYWUnLCAnPG91dGZpbGUubWFlPic=

> <r_lp_tautomer_probability>
1

> <r_epik_Ionization_Penalty>
0.00208423

> <r_epik_Ionization_Penalty_Charging>
0.00203643

> <r_epik_Ionization_Penalty_Neutral>
4.77939e-05

> <r_epik_State_Penalty>
0.00139278

> <r_epik_Charging_Adjusted_Penalty>
0.00342922

> <i_epik_Tot_Q>
1

> <i_epik_Tot_abs_Q>
1

> <r_epik_Metal_State_Penalty>
-0

> <b_epik_Metal_Only>
0

> <s_lp_Force_Field>
OPLS_2005

> <r_lp_Energy>
39.6128

> <b_lp_Chiralities_Consistent>
1

> <s_lp_Variant>
AV-unprocessed.smi:1752-3

> <Gold.Version>
5.8.1

> <Gold.Id.Protein>
6NUR|6NUR_protein|mol2

> <Gold.PLP.Fitness>
38.0562

> <Gold.PLP.PLP>
-35.5939

> <Gold.PLP.part.hbond>
-1.0000

> <Gold.PLP.part.metal>
0.0000

> <Gold.PLP.part.buried>
-5.0675

> <Gold.PLP.part.nonpolar>
-29.4906

> <Gold.PLP.part.repulsive>
0.1038

> <Gold.PLP.ligand.clash>
0.0000

> <Gold.PLP.ligand.torsion>
0.1255

> <Gold.PLP.Chemscore.Hbond>
0.8960

> <Gold.PLP.Chemscore.CHOScore>
0.0000

> <Gold.PLP.Chemscore.Metal>
0.0000

> <Gold.Chemscore.Hbonds>
donor molecule, donor type, donor heavy atom, donor atom, acceptor molecule, acceptor atom, score
      P1  H  7989  7998       L1    11  0.86

> <Gold.PLP.Chemscore.Internal.Correction>
0.0253

> <Gold.Rescore>
     Score         DG    S(hbond)    S(metal)    S(lipo)     H(rot)  DE(clash)    DE(int)     intcor
     14.03     -14.23       0.91        0.00      79.76       1.41       0.08       0.12       ----

> <Gold.Chemscore.Fitness>
14.0272

> <Gold.Chemscore.DG>
-14.2315

> <Gold.Chemscore.ZeroCoef>
-5.4800

> <Gold.Chemscore.Hbond>
0.9088

> <Gold.Chemscore.Metal>
0.0000

> <Gold.Chemscore.Lipo>
79.7600

> <Gold.Chemscore.Internal_Hbond>
0.0000

> <Gold.Chemscore.DEClash>
0.0830

> <Gold.Chemscore.DEInternal>
0.1213

> <Gold.Chemscore.Rot>
1.4125

> <Gold.Chemscore.Internal.Correction>
   9.000000E+99

> <Gold.Chemscore.Hbonds>
donor molecule, donor type, donor heavy atom, donor atom, acceptor molecule, acceptor atom, score
      P1  H  7989  7998       L1    11  0.84

> <Gold.Chemscore.Hbond.Weighted>
-3.0355

> <Gold.Chemscore.Metal.Weighted>
-0.0000

> <Gold.Chemscore.Lipo.Weighted>
-9.3319

> <Gold.Chemscore.Internal_Hbond.Weighted>
0.0000

> <Gold.Chemscore.DEClash.Weighted>
0.0830

> <Gold.Chemscore.DEInternal.Weighted>
0.1213

> <Gold.Chemscore.Rot.Weighted>
3.6160

> <Gold.Chemscore.Internal.Correction.Weighted>
   9.000000E+99

> <Gold.Protein.RotatedTorsions>
[ 6907 6896 6895 6894 ] final  153.42 input  -60.11 | X-H torsion
[ 7974 7965 7964 7962 ] final  172.30 input  175.53 | X-H torsion
[ 8008 7997 7996 7995 ] final -152.03 input   59.86 | X-H torsion
[ 10167 10162 10161 10158 ] final   15.94 input  -65.29 | X-H torsion
[ 10718 10713 10712 10709 ] final  103.02 input   66.30 | X-H torsion
[ 10763 10752 10751 10750 ] final  -47.54 input  -60.55 | X-H torsion
[ 11005 11000 10999 10996 ] final   10.66 input  -57.11 | X-H torsion

> <Gold.Protein.ActiveResidues>
 VAL166  LYS551  ARG553  GLY616  TRP617  ASP618  TYR619  PRO620  LYS621  CYS622 
 ASP623  PHE694  ASN695  SER759  ASP760  ASP761  ALA762  ILE779  LEU786  VAL792 
 PHE793  MET794  SER795  GLU796  ALA797  LYS798  CYS799  TRP800  GLU811  SER814 

> <Gold.Protein.RotatedAtoms>
  152.0729  133.4115  159.4466 H   0  0  0  0  0  0  0  0  0  0  0  0  # atno 6907 bound_to 6896
  150.6863  134.3071  159.4740 H   0  0  0  0  0  0  0  0  0  0  0  0  # atno 6908 bound_to 6896
  152.0904  134.9410  160.0622 H   0  0  0  0  0  0  0  0  0  0  0  0  # atno 6909 bound_to 6896
  144.7272  139.9478  143.6431 H   0  0  0  0  0  0  0  0  0  0  0  0  # atno 7974 bound_to 7965
  155.6487  140.0709  157.2594 H   0  0  0  0  0  0  0  0  0  0  0  0  # atno 8008 bound_to 7997
  154.4167  140.1737  156.1701 H   0  0  0  0  0  0  0  0  0  0  0  0  # atno 8009 bound_to 7997
  155.9795  140.3355  155.6653 H   0  0  0  0  0  0  0  0  0  0  0  0  # atno 8010 bound_to 7997
  140.5832  143.8940  150.6808 H   0  0  0  0  0  0  0  0  0  0  0  0  # atno 10167 bound_to 10162
  157.6785  131.0768  150.5492 H   0  0  0  0  0  0  0  0  0  0  0  0  # atno 10718 bound_to 10713
  154.0631  135.6615  153.4814 H   0  0  0  0  0  0  0  0  0  0  0  0  # atno 10763 bound_to 10752
  153.0419  135.5139  154.7640 H   0  0  0  0  0  0  0  0  0  0  0  0  # atno 10764 bound_to 10752
  154.6682  135.3025  154.9744 H   0  0  0  0  0  0  0  0  0  0  0  0  # atno 10765 bound_to 10752
  140.5120  134.0642  155.7821 H   0  0  0  0  0  0  0  0  0  0  0  0  # atno 11005 bound_to 11000
  146.0735  139.3723  143.0508 LP  0  0  0  0  0  0  0  0  0  0  0  0  # atno 17320 bound_to 7965
  145.7936  140.9803  143.1036 LP  0  0  0  0  0  0  0  0  0  0  0  0  # atno 17321 bound_to 7965
  140.2444  143.3639  152.1459 LP  0  0  0  0  0  0  0  0  0  0  0  0  # atno 17342 bound_to 10162
  139.5182  144.7003  151.5513 LP  0  0  0  0  0  0  0  0  0  0  0  0  # atno 17343 bound_to 10162
  156.5797  130.4301  149.5983 LP  0  0  0  0  0  0  0  0  0  0  0  0  # atno 17370 bound_to 10713
  156.2671  130.6996  151.1782 LP  0  0  0  0  0  0  0  0  0  0  0  0  # atno 17371 bound_to 10713
  141.1380  133.9187  157.2390 LP  0  0  0  0  0  0  0  0  0  0  0  0  # atno 17394 bound_to 11000
  139.9653  135.0143  156.9371 LP  0  0  0  0  0  0  0  0  0  0  0  0  # atno 17395 bound_to 11000

$$$$
