#       Name:                AV-unprocessed.smi:72
#       Creating user name   scv26
#       Creation time:       Thu Mar 26 17:04:30 2020


#       File generated by GOLD software.
#

@<TRIPOS>MOLECULE
AV-unprocessed.smi:72
    41    42     1
SMALL
NO_CHARGES


@<TRIPOS>ATOM
      1 ****        -2.6438   4.5677   0.9654 N.2            1 S1                 0.0000
      2 ****        -2.1491   3.4517   0.6506 C.2            1 S1                 0.0000
      3 ****        -0.7152   3.2594   0.6756 N.2            1 S1                 0.0000
      4 ****        -0.2549   2.0965   0.3294 C.2            1 S1                 0.0000
      5 ****        -1.1377   1.0148  -0.0862 N.am           1 S1                 0.0000
      6 ****        -0.5891  -0.3416  -0.4816 C.3            1 S1                 0.0000
      7 ****         0.6896  -0.1855  -1.0107 O.3            1 S1                 0.0000
      8 ****         1.4055  -1.3925  -0.8040 C.3            1 S1                 0.0000
      9 ****         2.9152  -1.1378  -0.9330 C.3            1 S1                 0.0000
     10 ****         3.3023  -1.1811  -2.2899 O.3            1 S1                 0.0000
     11 ****         0.9725  -1.8011   0.6095 C.3            1 S1                 0.0000
     12 ****         1.0585  -3.2047   0.7577 O.3            1 S1                 0.0000
     13 ****        -0.4801  -1.3355   0.6970 C.3            1 S1                 0.0000
     14 ****        -0.7423  -0.7669   1.9677 O.3            1 S1                 0.0000
     15 ****        -2.5420   1.2219  -0.0730 C.2            1 S1                 0.0000
     16 ****        -3.2709   0.2791  -0.3821 O.2            1 S1                 0.0000
     17 ****        -3.0185   2.4448   0.2928 N.pl3          1 S1                -1.0000
     18 ****        -1.2269  -0.7117  -1.2863 H              1 S1                 0.0000
     19 ****         1.0651  -2.1359  -1.5287 H              1 S1                 0.0000
     20 ****         1.5912  -1.2974   1.3545 H              1 S1                 0.0000
     21 ****        -1.1853  -2.1474   0.5125 H              1 S1                 0.0000
     22 ****        -3.6520   4.5702   0.9097 H              1 S1                 0.0000
     23 ****         0.8087   1.8554   0.3336 H              1 S1                 0.0000
     24 ****         3.1958  -0.1836  -0.4857 H              1 S1                 0.0000
     25 ****         3.4724  -1.9163  -0.4111 H              1 S1                 0.0000
     26 ****         4.2335  -1.0290  -2.3417 H              1 S1                 0.0000
     27 ****         0.5038  -3.6081   0.1077 H              1 S1                 0.0000
     28 ****        -1.6076  -0.3860   1.9504 H              1 S1                 0.0000
     29 ****        -2.0994   5.3606   1.2393 LP             1 S1                 0.0000
     30 ****        -0.0995   3.9979   0.9505 LP             1 S1                 0.0000
     31 ****         1.1571   0.5686  -0.5493 LP             1 S1                 0.0000
     32 ****         0.6294   0.0089  -1.9897 LP             1 S1                 0.0000
     33 ****         2.8161  -0.4731  -2.8020 LP             1 S1                 0.0000
     34 ****         3.0854  -2.0786  -2.6739 LP             1 S1                 0.0000
     35 ****         0.7522  -3.4670   1.6728 LP             1 S1                 0.0000
     36 ****         2.0044  -3.5009   0.6252 LP             1 S1                 0.0000
     37 ****        -0.0651  -0.0586   2.1673 LP             1 S1                 0.0000
     38 ****        -0.6994  -1.4766   2.6709 LP             1 S1                 0.0000
     39 ****        -2.8696  -0.6018  -0.6330 LP             1 S1                 0.0000
     40 ****        -4.2642   0.3942  -0.3822 LP             1 S1                 0.0000
     41 ****        -4.0043   2.6123   0.3016 LP             1 S1                 0.0000
@<TRIPOS>BOND
    1    1    2 2     
    2    1   22 1     
    3    2   17 1     
    4    2    3 1     
    5    3    4 2     
    6    4    5 1     
    7    4   23 1     
    8    5    6 1     
    9    5   15 am    
   10    6   18 1     
   11    6   13 1     
   12    6    7 1     
   13    7    8 1     
   14    8   19 1     
   15    8    9 1     
   16    8   11 1     
   17    9   10 1     
   18    9   24 1     
   19    9   25 1     
   20   10   26 1     
   21   11   20 1     
   22   11   12 1     
   23   11   13 1     
   24   12   27 1     
   25   13   21 1     
   26   13   14 1     
   27   14   28 1     
   28   15   16 2     
   29   15   17 1     
   30    1   29 1     
   31    3   30 1     
   32    7   31 1     
   33    7   32 1     
   34   10   33 1     
   35   10   34 1     
   36   12   35 1     
   37   12   36 1     
   38   14   37 1     
   39   14   38 1     
   40   16   39 1     
   41   16   40 1     
   42   17   41 1     
@<TRIPOS>SUBSTRUCTURE
      1 S1             1
@<TRIPOS>SET
LONE_PAIRS      STATIC     ATOMS    <user>   **** ""
13 29 30 31 32 33 34 35 36 37 38 39 40 41
DONOR_HYDROGENS      STATIC     ATOMS    <user>   **** ""
4 22 26 27 28
ATOM$BLUE        STATIC     ATOMS    COLORGROUP SYSTEM
13 29 30 31 32 33 34 35 36 37 38 39 40 41
ATOM$RED        STATIC     ATOMS    COLORGROUP SYSTEM
4 22 26 27 28
