AV-unprocessed.smi:350|AV-procd|sdf|2398|dock9
  -GOLD-   2262022333D 1   1.00000     0.00000
 Structure written by MMmdl.
 35 36  0  0  0  0  0  0  0  0  1 V2000
  151.2877  144.6933  160.3323 C   0  0  0  0  0  0  0  0  0  0  0  0
  151.8136  143.4699  159.6317 C   0  0  0  0  0  0  0  0  0  0  0  0
  151.4121  143.2776  158.4183 N   0  0  0  0  0  0  0  0  0  0  0  0
  151.8333  142.1849  157.6850 N   0  0  0  0  0  0  0  0  0  0  0  0
  151.2613  142.1157  156.3341 C   0  0  0  0  0  0  0  0  0  0  0  0
  150.4312  140.8309  156.1199 C   0  0  2  0  0  0  0  0  0  0  0  0
  150.9699  140.1078  155.0307 O   0  0  0  0  0  0  0  0  0  0  0  0
  148.9650  141.1613  155.8843 C   0  0  0  0  0  0  0  0  0  0  0  0
  148.1075  141.3887  156.9823 C   0  0  0  0  0  0  0  0  0  0  0  0
  146.7500  141.6998  156.7710 C   0  0  0  0  0  0  0  0  0  0  0  0
  146.2422  141.7876  155.4602 C   0  0  0  0  0  0  0  0  0  0  0  0
  144.5794  142.1684  155.2017 Cl  0  0  0  0  0  0  0  0  0  0  0  0
  147.0936  141.5656  154.3607 C   0  0  0  0  0  0  0  0  0  0  0  0
  148.4509  141.2546  154.5718 C   0  0  0  0  0  0  0  0  0  0  0  0
  152.6894  141.2268  158.1420 C   0  0  0  0  0  0  0  0  0  0  0  0
  153.0423  140.2677  157.4542 O   0  0  0  0  0  0  0  0  0  0  0  0
  153.1396  141.4505  159.5179 C   0  0  0  0  0  0  0  0  0  0  0  0
  154.0359  140.4684  160.0372 C   0  0  0  0  0  0  0  0  0  0  0  0
  154.7585  139.6788  160.4782 N   0  0  0  0  0  0  0  0  0  0  0  0
  152.7311  142.5177  160.2488 C   0  0  0  0  0  0  0  0  0  0  0  0
  153.1683  142.7947  161.6809 C   0  0  0  0  0  0  0  0  0  0  0  0
  152.1064  145.3275  160.6733 H   0  0  0  0  0  0  0  0  0  0  0  0
  150.6913  144.4140  161.2009 H   0  0  0  0  0  0  0  0  0  0  0  0
  150.6559  145.2969  159.6786 H   0  0  0  0  0  0  0  0  0  0  0  0
  150.6063  142.9816  156.2169 H   0  0  0  0  0  0  0  0  0  0  0  0
  152.0159  142.2318  155.5537 H   0  0  0  0  0  0  0  0  0  0  0  0
  150.5009  140.1954  157.0039 H   0  0  0  0  0  0  0  0  0  0  0  0
  151.5149  139.4149  155.3710 H   0  0  0  0  0  0  0  0  0  0  0  0
  148.4871  141.3263  157.9916 H   0  0  0  0  0  0  0  0  0  0  0  0
  146.0994  141.8713  157.6160 H   0  0  0  0  0  0  0  0  0  0  0  0
  146.7077  141.6340  153.3542 H   0  0  0  0  0  0  0  0  0  0  0  0
  149.0971  141.0890  153.7220 H   0  0  0  0  0  0  0  0  0  0  0  0
  153.8248  142.0170  162.0702 H   0  0  0  0  0  0  0  0  0  0  0  0
  152.3028  142.8515  162.3421 H   0  0  0  0  0  0  0  0  0  0  0  0
  153.7092  143.7397  161.7394 H   0  0  0  0  0  0  0  0  0  0  0  0
  1  2  1  0  0  0  0
  1 22  1  0  0  0  0
  1 23  1  0  0  0  0
  1 24  1  0  0  0  0
  2 20  1  0  0  0  0
  2  3  2  0  0  0  0
  3  4  1  0  0  0  0
  4  5  1  0  0  0  0
  4 15  1  0  0  0  0
  5  6  1  0  0  0  0
  5 25  1  0  0  0  0
  5 26  1  0  0  0  0
  6  7  1  0  0  0  0
  6  8  1  0  0  0  0
  6 27  1  0  0  0  0
  7 28  1  0  0  0  0
  8 14  1  0  0  0  0
  8  9  2  0  0  0  0
  9 10  1  0  0  0  0
  9 29  1  0  0  0  0
 10 11  2  0  0  0  0
 10 30  1  0  0  0  0
 11 12  1  0  0  0  0
 11 13  1  0  0  0  0
 13 14  2  0  0  0  0
 13 31  1  0  0  0  0
 14 32  1  0  0  0  0
 15 16  2  0  0  0  0
 15 17  1  0  0  0  0
 17 18  1  0  0  0  0
 17 20  2  0  0  0  0
 18 19  3  0  0  0  0
 20 21  1  0  0  0  0
 21 33  1  0  0  0  0
 21 34  1  0  0  0  0
 21 35  1  0  0  0  0
M  END
> <s_m_source_file>
AV-unprocessed.smi

> <i_m_source_file_index>
350

> <i_lp_mmshare_version>
43012

> <i_f3d_flags>
0

> <s_epik_input>
TiNDYyhjMVtDSDNdKWMoPU8pbihuYzFbQ0gzXSlbQ0gyXVtDQEhdKFtPSF0pYzJbY0hdW2NIXWMoQ2wpW2NIXVtjSF0y

> <s_epik_cmdline>
J2VwaWtfcHl0aG9uJywgJy1waCcsICc3LjAnLCAnLXRuJywgJzgnLCAnLW1hJywgJzIwMCcsICctbWV0YWxfYmluZGluZycsICctaW1hZScsICc8aW5maWxlLm1hZT4nLCAnLW9tYWUnLCAnPG91dGZpbGUubWFlPic=

> <r_lp_tautomer_probability>
1

> <r_epik_Ionization_Penalty>
1.17315e-07

> <r_epik_Ionization_Penalty_Charging>
1.40848e-10

> <r_epik_Ionization_Penalty_Neutral>
1.17174e-07

> <r_epik_State_Penalty>
-0

> <r_epik_Charging_Adjusted_Penalty>
1.40848e-10

> <i_epik_Tot_Q>
0

> <i_epik_Tot_abs_Q>
0

> <r_epik_Metal_State_Penalty>
-0

> <b_epik_Metal_Only>
0

> <s_lp_Force_Field>
OPLS_2005

> <r_lp_Energy>
28.0073

> <b_lp_Chiralities_Consistent>
1

> <s_lp_Variant>
AV-unprocessed.smi:350-1

> <Gold.Version>
5.8.1

> <Gold.Id.Protein>
6NUR|6NUR_protein|mol2

> <Gold.PLP.Fitness>
46.9589

> <Gold.PLP.PLP>
-43.8113

> <Gold.PLP.part.hbond>
-2.0000

> <Gold.PLP.part.metal>
0.0000

> <Gold.PLP.part.buried>
-6.9660

> <Gold.PLP.part.nonpolar>
-34.2085

> <Gold.PLP.part.repulsive>
0.0650

> <Gold.PLP.ligand.clash>
0.0000

> <Gold.PLP.ligand.torsion>
1.4292

> <Gold.PLP.Chemscore.Hbond>
2.0000

> <Gold.PLP.Chemscore.CHOScore>
0.0000

> <Gold.PLP.Chemscore.Metal>
0.0000

> <Gold.Chemscore.Hbonds>
donor molecule, donor type, donor heavy atom, donor atom, acceptor molecule, acceptor atom, score
      P1  H  7989  7998       L1     7  1.00
      P1  H  7997  8008       L1    16  0.94

> <Gold.PLP.Chemscore.Internal.Correction>
0.0061

> <Gold.Rescore>
     Score         DG    S(hbond)    S(metal)    S(lipo)     H(rot)  DE(clash)    DE(int)     intcor
     16.41     -18.82       1.92        0.00     100.90       1.90       0.47       1.93       ----

> <Gold.Chemscore.Fitness>
16.4118

> <Gold.Chemscore.DG>
-18.8187

> <Gold.Chemscore.ZeroCoef>
-5.4800

> <Gold.Chemscore.Hbond>
1.9190

> <Gold.Chemscore.Metal>
0.0000

> <Gold.Chemscore.Lipo>
100.8980

> <Gold.Chemscore.Internal_Hbond>
0.0000

> <Gold.Chemscore.DEClash>
0.4730

> <Gold.Chemscore.DEInternal>
1.9338

> <Gold.Chemscore.Rot>
1.9047

> <Gold.Chemscore.Internal.Correction>
   9.000000E+99

> <Gold.Chemscore.Hbonds>
donor molecule, donor type, donor heavy atom, donor atom, acceptor molecule, acceptor atom, score
      P1  H  7989  7998       L1     7  0.85
      P1  H  7997  8008       L1    16  0.87

> <Gold.Chemscore.Hbond.Weighted>
-6.4096

> <Gold.Chemscore.Metal.Weighted>
-0.0000

> <Gold.Chemscore.Lipo.Weighted>
-11.8051

> <Gold.Chemscore.Internal_Hbond.Weighted>
0.0000

> <Gold.Chemscore.DEClash.Weighted>
0.4730

> <Gold.Chemscore.DEInternal.Weighted>
1.9338

> <Gold.Chemscore.Rot.Weighted>
4.8760

> <Gold.Chemscore.Internal.Correction.Weighted>
   9.000000E+99

> <Gold.Protein.RotatedTorsions>
[ 6907 6896 6895 6894 ] final -133.25 input  -60.11 | X-H torsion
[ 7974 7965 7964 7962 ] final -127.58 input  175.53 | X-H torsion
[ 8008 7997 7996 7995 ] final  -64.91 input   59.86 | X-H torsion
[ 10167 10162 10161 10158 ] final  105.34 input  -65.29 | X-H torsion
[ 10718 10713 10712 10709 ] final   42.74 input   66.30 | X-H torsion
[ 10763 10752 10751 10750 ] final   83.42 input  -60.55 | X-H torsion
[ 11005 11000 10999 10996 ] final  115.60 input  -57.11 | X-H torsion

> <Gold.Protein.ActiveResidues>
 VAL166  LYS551  ARG553  GLY616  TRP617  ASP618  TYR619  PRO620  LYS621  CYS622 
 ASP623  PHE694  ASN695  SER759  ASP760  ASP761  ALA762  ILE779  LEU786  VAL792 
 PHE793  MET794  SER795  GLU796  ALA797  LYS798  CYS799  TRP800  GLU811  SER814 

> <Gold.Protein.RotatedAtoms>
  150.9718  133.6335  159.2736 H   0  0  0  0  0  0  0  0  0  0  0  0  # atno 6907 bound_to 6896
  151.3621  135.0905  159.9448 H   0  0  0  0  0  0  0  0  0  0  0  0  # atno 6908 bound_to 6896
  152.5185  133.9290  159.7626 H   0  0  0  0  0  0  0  0  0  0  0  0  # atno 6909 bound_to 6896
  144.9756  140.7589  143.4644 H   0  0  0  0  0  0  0  0  0  0  0  0  # atno 7974 bound_to 7965
  154.4640  140.0944  156.6970 H   0  0  0  0  0  0  0  0  0  0  0  0  # atno 8008 bound_to 7997
  155.4912  140.3471  155.4337 H   0  0  0  0  0  0  0  0  0  0  0  0  # atno 8009 bound_to 7997
  156.0922  140.1400  156.9565 H   0  0  0  0  0  0  0  0  0  0  0  0  # atno 8010 bound_to 7997
  139.7101  144.7079  151.1041 H   0  0  0  0  0  0  0  0  0  0  0  0  # atno 10167 bound_to 10162
  157.4082  130.7899  149.7407 H   0  0  0  0  0  0  0  0  0  0  0  0  # atno 10718 bound_to 10713
  153.1290  135.4692  154.9318 H   0  0  0  0  0  0  0  0  0  0  0  0  # atno 10763 bound_to 10752
  154.7646  135.3141  154.8313 H   0  0  0  0  0  0  0  0  0  0  0  0  # atno 10764 bound_to 10752
  153.8860  135.6889  153.4817 H   0  0  0  0  0  0  0  0  0  0  0  0  # atno 10765 bound_to 10752
  139.9015  134.9586  156.7069 H   0  0  0  0  0  0  0  0  0  0  0  0  # atno 11005 bound_to 11000
  145.2495  139.2038  143.4950 LP  0  0  0  0  0  0  0  0  0  0  0  0  # atno 17320 bound_to 7965
  146.3394  140.2405  142.8595 LP  0  0  0  0  0  0  0  0  0  0  0  0  # atno 17321 bound_to 7965
  140.7731  143.5305  150.9429 LP  0  0  0  0  0  0  0  0  0  0  0  0  # atno 17342 bound_to 10162
  139.8989  143.6860  152.3134 LP  0  0  0  0  0  0  0  0  0  0  0  0  # atno 17343 bound_to 10162
  155.9842  130.3993  150.3321 LP  0  0  0  0  0  0  0  0  0  0  0  0  # atno 17370 bound_to 10713
  157.1456  131.0308  151.2908 LP  0  0  0  0  0  0  0  0  0  0  0  0  # atno 17371 bound_to 10713
  140.7106  133.9226  155.8082 LP  0  0  0  0  0  0  0  0  0  0  0  0  # atno 17394 bound_to 11000
  141.0303  134.0765  157.4022 LP  0  0  0  0  0  0  0  0  0  0  0  0  # atno 17395 bound_to 11000

$$$$
