#       Name:                AV-unprocessed.smi:2247
#       Creating user name   scv26
#       Creation time:       Fri Mar 27 12:29:14 2020


#       File generated by GOLD software.
#

@<TRIPOS>MOLECULE
AV-unprocessed.smi:2247
    41    42     1
SMALL
NO_CHARGES


@<TRIPOS>ATOM
      1 ****        -4.0133  -1.7784   0.9526 C.3            1 S1                 0.0000
      2 ****        -3.4251  -1.2080  -0.3485 C.3            1 S1                 0.0000
      3 ****        -3.9900  -1.8785  -1.6098 C.3            1 S1                 0.0000
      4 ****        -1.9564  -1.2406  -0.3527 N.am           1 S1                 0.0000
      5 ****        -1.2129  -2.4683  -0.1155 C.3            1 S1                 0.0000
      6 ****         0.2385  -2.0130   0.0639 C.3            1 S1                 0.0000
      7 ****         0.3286  -0.6146  -0.5672 C.3            1 S1                 0.0000
      8 ****         1.1142   0.2728   0.2892 N.am           1 S1                 0.0000
      9 ****         1.7575   1.3795  -0.1129 C.2            1 S1                 0.0000
     10 ****         1.7653   1.7336  -1.2961 O.2            1 S1                 0.0000
     11 ****         2.3891   1.9853   0.9615 N.2            1 S1                 0.0000
     12 ****         3.4547   2.6907   0.7417 C.2            1 S1                 0.0000
     13 ****         4.2097   3.3968   1.6644 N.pl3          1 S1                 0.0000
     14 ****         5.2492   3.9871   1.0003 C.2            1 S1                 0.0000
     15 ****         5.1556   3.6640  -0.2864 C.2            1 S1                 0.0000
     16 ****         4.0665   2.8685  -0.4781 O.3            1 S1                 0.0000
     17 ****        -1.1437  -0.2012  -0.5908 C.2            1 S1                 0.0000
     18 ****        -1.5040   0.9510  -0.8326 O.2            1 S1                 0.0000
     19 ****        -5.0888  -1.6057   0.9983 H              1 S1                 0.0000
     20 ****        -3.5673  -1.3048   1.8278 H              1 S1                 0.0000
     21 ****        -3.8543  -2.8539   1.0324 H              1 S1                 0.0000
     22 ****        -3.7419  -0.1643  -0.3842 H              1 S1                 0.0000
     23 ****        -5.0758  -1.7879  -1.6462 H              1 S1                 0.0000
     24 ****        -3.7455  -2.9407  -1.6412 H              1 S1                 0.0000
     25 ****        -3.5904  -1.4168  -2.5132 H              1 S1                 0.0000
     26 ****        -1.5633  -3.0121   0.7614 H              1 S1                 0.0000
     27 ****        -1.3096  -3.1204  -0.9846 H              1 S1                 0.0000
     28 ****         0.4679  -1.9732   1.1306 H              1 S1                 0.0000
     29 ****         0.9428  -2.7110  -0.3898 H              1 S1                 0.0000
     30 ****         0.7140  -0.6675  -1.5869 H              1 S1                 0.0000
     31 ****         1.1556   0.0367   1.2700 H              1 S1                 0.0000
     32 ****         4.0534   3.4935   2.6574 H              1 S1                 0.0000
     33 ****         5.9650   4.5940   1.5350 H              1 S1                 0.0000
     34 ****         5.7553   3.9090  -1.1504 H              1 S1                 0.0000
     35 ****         1.2834   1.1905  -1.9837 LP             1 S1                 0.0000
     36 ****         2.2535   2.5634  -1.5664 LP             1 S1                 0.0000
     37 ****         2.0299   1.8804   1.8889 LP             1 S1                 0.0000
     38 ****         3.4330   3.3070  -1.1155 LP             1 S1                 0.0000
     39 ****         4.3521   1.9841  -0.8474 LP             1 S1                 0.0000
     40 ****        -2.4783   1.1741  -0.8635 LP             1 S1                 0.0000
     41 ****        -0.8224   1.6637  -0.9980 LP             1 S1                 0.0000
@<TRIPOS>BOND
    1    1    2 1     
    2    1   19 1     
    3    1   20 1     
    4    1   21 1     
    5    2    3 1     
    6    2    4 1     
    7    2   22 1     
    8    3   23 1     
    9    3   24 1     
   10    3   25 1     
   11    4   17 am    
   12    4    5 1     
   13    5    6 1     
   14    5   26 1     
   15    5   27 1     
   16    6    7 1     
   17    6   28 1     
   18    6   29 1     
   19    7    8 1     
   20    7   17 1     
   21    7   30 1     
   22    8   31 1     
   23    8    9 am    
   24    9   11 1     
   25    9   10 2     
   26   11   12 2     
   27   12   16 1     
   28   12   13 1     
   29   13   32 1     
   30   13   14 1     
   31   14   33 1     
   32   14   15 2     
   33   15   34 1     
   34   15   16 1     
   35   17   18 2     
   36   10   35 1     
   37   10   36 1     
   38   11   37 1     
   39   16   38 1     
   40   16   39 1     
   41   18   40 1     
   42   18   41 1     
@<TRIPOS>SUBSTRUCTURE
      1 S1             1
@<TRIPOS>SET
LONE_PAIRS      STATIC     ATOMS    <user>   **** ""
7 35 36 37 38 39 40 41
DONOR_HYDROGENS      STATIC     ATOMS    <user>   **** ""
2 31 32
ATOM$BLUE        STATIC     ATOMS    COLORGROUP SYSTEM
7 35 36 37 38 39 40 41
ATOM$RED        STATIC     ATOMS    COLORGROUP SYSTEM
2 31 32
