AV-unprocessed.smi:2397|AV-procd|sdf|9496|dock2
  -GOLD-   2272013123D 1   1.00000     0.00000
 Structure written by MMmdl.
 37 38  0  0  0  0  0  0  0  0  2 V2000
  144.9518  141.8178  155.5280 C   0  0  0  0  0  0  0  0  0  0  0  0
  146.2435  142.0520  154.7301 C   0  0  0  0  0  0  0  0  0  0  0  0
  146.0135  142.8417  153.4325 C   0  0  0  0  0  0  0  0  0  0  0  0
  147.0010  140.7558  154.4805 C   0  0  0  0  0  0  0  0  0  0  0  0
  146.4582  139.8298  153.6743 N   0  3  0  0  0  0  0  0  0  0  0  0
  147.1188  138.6698  153.4442 C   0  0  0  0  0  0  0  0  0  0  0  0
  148.3693  138.4311  154.0427 C   0  0  0  0  0  0  0  0  0  0  0  0
  148.8876  139.4473  154.8741 C   0  0  0  0  0  0  0  0  0  0  0  0
  150.1255  139.3459  155.5410 N   0  0  0  0  0  0  0  0  0  0  0  0
  151.1502  138.7884  154.6594 C   0  0  0  0  0  0  0  0  0  0  0  0
  152.4439  138.5062  155.4351 C   0  0  0  0  0  0  0  0  0  0  0  0
  152.8733  139.7027  156.0681 O   0  0  0  0  0  0  0  0  0  0  0  0
  151.9251  140.1552  157.0265 C   0  0  0  0  0  0  0  0  0  0  0  0
  150.5778  140.4941  156.3450 C   0  0  2  0  0  0  0  0  0  0  0  0
  149.6059  140.9768  157.4414 C   0  0  0  0  0  0  0  0  0  0  0  0
  149.1023  142.2121  157.3462 N   0  0  0  0  0  0  0  0  0  0  0  0
  149.3274  140.2364  158.3814 O   0  0  0  0  0  0  0  0  0  0  0  0
  148.1888  140.5845  155.0773 N   0  0  0  0  0  0  0  0  0  0  0  0
  145.1609  141.3223  156.4765 H   0  0  0  0  0  0  0  0  0  0  0  0
  144.2482  141.1950  154.9744 H   0  0  0  0  0  0  0  0  0  0  0  0
  144.4526  142.7610  155.7515 H   0  0  0  0  0  0  0  0  0  0  0  0
  146.8816  142.6760  155.3583 H   0  0  0  0  0  0  0  0  0  0  0  0
  146.9572  143.0540  152.9294 H   0  0  0  0  0  0  0  0  0  0  0  0
  145.5262  143.7956  153.6356 H   0  0  0  0  0  0  0  0  0  0  0  0
  145.3813  142.2893  152.7365 H   0  0  0  0  0  0  0  0  0  0  0  0
  146.6237  137.9682  152.7890 H   0  0  0  0  0  0  0  0  0  0  0  0
  148.8919  137.5036  153.8632 H   0  0  0  0  0  0  0  0  0  0  0  0
  150.8040  137.8625  154.1977 H   0  0  0  0  0  0  0  0  0  0  0  0
  151.3507  139.4918  153.8496 H   0  0  0  0  0  0  0  0  0  0  0  0
  152.2963  137.7161  156.1734 H   0  0  0  0  0  0  0  0  0  0  0  0
  153.2240  138.1651  154.7543 H   0  0  0  0  0  0  0  0  0  0  0  0
  151.7982  139.3954  157.8004 H   0  0  0  0  0  0  0  0  0  0  0  0
  152.3366  141.0374  157.5187 H   0  0  0  0  0  0  0  0  0  0  0  0
  150.7617  141.3298  155.6683 H   0  0  0  0  0  0  0  0  0  0  0  0
  148.4812  142.5598  158.0627 H   0  0  0  0  0  0  0  0  0  0  0  0
  149.3631  142.8012  156.5683 H   0  0  0  0  0  0  0  0  0  0  0  0
  145.5515  139.9896  153.2342 H   0  0  0  0  0  0  0  0  0  0  0  0
  1  2  1  0  0  0  0
  1 19  1  0  0  0  0
  1 20  1  0  0  0  0
  1 21  1  0  0  0  0
  2  3  1  0  0  0  0
  2  4  1  0  0  0  0
  2 22  1  0  0  0  0
  3 23  1  0  0  0  0
  3 24  1  0  0  0  0
  3 25  1  0  0  0  0
  4 18  1  0  0  0  0
  4  5  2  0  0  0  0
  5  6  1  0  0  0  0
  5 37  1  0  0  0  0
  6  7  2  0  0  0  0
  6 26  1  0  0  0  0
  7  8  1  0  0  0  0
  7 27  1  0  0  0  0
  8  9  1  0  0  0  0
  8 18  2  0  0  0  0
  9 14  1  0  0  0  0
  9 10  1  0  0  0  0
 10 11  1  0  0  0  0
 10 28  1  0  0  0  0
 10 29  1  0  0  0  0
 11 12  1  0  0  0  0
 11 30  1  0  0  0  0
 11 31  1  0  0  0  0
 12 13  1  0  0  0  0
 13 14  1  0  0  0  0
 13 32  1  0  0  0  0
 13 33  1  0  0  0  0
 14 15  1  0  0  0  0
 14 34  1  0  0  0  0
 15 16  1  0  0  0  0
 15 17  2  0  0  0  0
 16 35  1  0  0  0  0
 16 36  1  0  0  0  0
M  CHG  1   5   1
M  END
> <s_m_source_file>
AV-unprocessed.smi

> <i_m_source_file_index>
2397

> <i_lp_mmshare_version>
43012

> <i_f3d_flags>
0

> <s_epik_input>
W0NIM11bQ0hdKFtDSDNdKWMxbltjSF1bY0hdYyhuMSlOMltDSDJdW0NIMl1PW0NIMl1bQ0BIXTJDKD1PKVtOSDJd

> <s_epik_cmdline>
J2VwaWtfcHl0aG9uJywgJy1waCcsICc3LjAnLCAnLXRuJywgJzgnLCAnLW1hJywgJzIwMCcsICctbWV0YWxfYmluZGluZycsICctaW1hZScsICc8aW5maWxlLm1hZT4nLCAnLW9tYWUnLCAnPG91dGZpbGUubWFlPic=

> <r_lp_tautomer_probability>
0.999336

> <r_epik_Ionization_Penalty>
1.74009

> <r_epik_Ionization_Penalty_Charging>
1.74009

> <r_epik_Ionization_Penalty_Neutral>
2.46902e-07

> <r_epik_State_Penalty>
1.8491

> <r_epik_Charging_Adjusted_Penalty>
3.5892

> <i_epik_Tot_Q>
1

> <i_epik_Tot_abs_Q>
1

> <r_epik_Metal_State_Penalty>
1.87997

> <b_epik_Metal_Only>
0

> <s_lp_Force_Field>
OPLS_2005

> <r_lp_Energy>
12.8895

> <b_lp_Chiralities_Consistent>
1

> <s_lp_Variant>
AV-unprocessed.smi:2397-4

> <Gold.Version>
5.8.1

> <Gold.Id.Protein>
6NUR|6NUR_protein|mol2

> <Gold.PLP.Fitness>
40.6717

> <Gold.PLP.PLP>
-29.2369

> <Gold.PLP.part.hbond>
-3.3187

> <Gold.PLP.part.metal>
0.0000

> <Gold.PLP.part.buried>
-3.1615

> <Gold.PLP.part.nonpolar>
-22.7413

> <Gold.PLP.part.repulsive>
0.1802

> <Gold.PLP.ligand.clash>
0.0000

> <Gold.PLP.ligand.torsion>
0.2983

> <Gold.PLP.Chemscore.Hbond>
3.9120

> <Gold.PLP.Chemscore.CHOScore>
0.0000

> <Gold.PLP.Chemscore.Metal>
0.0000

> <Gold.Chemscore.Hbonds>
donor molecule, donor type, donor heavy atom, donor atom, acceptor molecule, acceptor atom, score
      L1  H     5    37       P1 10175  1.79
      L1  H    16    36       P1  8028  0.52
      P1  H  7997  8008       L1    12  1.00

> <Gold.PLP.Chemscore.Internal.Correction>
0.2953

> <Gold.Rescore>
     Score         DG    S(hbond)    S(metal)    S(lipo)     H(rot)  DE(clash)    DE(int)     intcor
     13.83     -16.79       2.87        0.00      53.50       1.77       0.02       2.94       ----

> <Gold.Chemscore.Fitness>
13.8322

> <Gold.Chemscore.DG>
-16.7894

> <Gold.Chemscore.ZeroCoef>
-5.4800

> <Gold.Chemscore.Hbond>
2.8699

> <Gold.Chemscore.Metal>
0.0000

> <Gold.Chemscore.Lipo>
53.5004

> <Gold.Chemscore.Internal_Hbond>
0.0000

> <Gold.Chemscore.DEClash>
0.0166

> <Gold.Chemscore.DEInternal>
2.9406

> <Gold.Chemscore.Rot>
1.7717

> <Gold.Chemscore.Internal.Correction>
   9.000000E+99

> <Gold.Chemscore.Hbonds>
donor molecule, donor type, donor heavy atom, donor atom, acceptor molecule, acceptor atom, score
      L1  H     5    37       P1 10175  0.86
      L1  H    16    36       P1  8028  0.53
      P1  H  7997  8008       L1    12  0.95

> <Gold.Chemscore.Hbond.Weighted>
-9.5855

> <Gold.Chemscore.Metal.Weighted>
-0.0000

> <Gold.Chemscore.Lipo.Weighted>
-6.2595

> <Gold.Chemscore.Internal_Hbond.Weighted>
0.0000

> <Gold.Chemscore.DEClash.Weighted>
0.0166

> <Gold.Chemscore.DEInternal.Weighted>
2.9406

> <Gold.Chemscore.Rot.Weighted>
4.5357

> <Gold.Chemscore.Internal.Correction.Weighted>
   9.000000E+99

> <Gold.Protein.RotatedTorsions>
[ 6907 6896 6895 6894 ] final    5.81 input  -60.11 | X-H torsion
[ 7974 7965 7964 7962 ] final -124.38 input  175.53 | X-H torsion
[ 8008 7997 7996 7995 ] final  -24.88 input   59.86 | X-H torsion
[ 10167 10162 10161 10158 ] final   25.83 input  -65.29 | X-H torsion
[ 10718 10713 10712 10709 ] final  -94.59 input   66.30 | X-H torsion
[ 10763 10752 10751 10750 ] final  -34.79 input  -60.55 | X-H torsion
[ 11005 11000 10999 10996 ] final  -49.10 input  -57.11 | X-H torsion

> <Gold.Protein.ActiveResidues>
 VAL166  LYS551  ARG553  GLY616  TRP617  ASP618  TYR619  PRO620  LYS621  CYS622 
 ASP623  PHE694  ASN695  SER759  ASP760  ASP761  ALA762  ILE779  LEU786  VAL792 
 PHE793  MET794  SER795  GLU796  ALA797  LYS798  CYS799  TRP800  GLU811  SER814 

> <Gold.Protein.RotatedAtoms>
  151.6636  135.0986  160.0184 H   0  0  0  0  0  0  0  0  0  0  0  0  # atno 6907 bound_to 6896
  152.3932  133.6705  159.6263 H   0  0  0  0  0  0  0  0  0  0  0  0  # atno 6908 bound_to 6896
  150.7844  133.8835  159.3334 H   0  0  0  0  0  0  0  0  0  0  0  0  # atno 6909 bound_to 6896
  145.0087  140.7886  143.4452 H   0  0  0  0  0  0  0  0  0  0  0  0  # atno 7974 bound_to 7965
  154.4505  140.1941  156.0532 H   0  0  0  0  0  0  0  0  0  0  0  0  # atno 8008 bound_to 7997
  156.0638  140.3293  155.7466 H   0  0  0  0  0  0  0  0  0  0  0  0  # atno 8009 bound_to 7997
  155.5370  140.0583  157.2868 H   0  0  0  0  0  0  0  0  0  0  0  0  # atno 8010 bound_to 7997
  140.5073  144.0217  150.6357 H   0  0  0  0  0  0  0  0  0  0  0  0  # atno 10167 bound_to 10162
  156.0029  130.5074  150.5949 H   0  0  0  0  0  0  0  0  0  0  0  0  # atno 10718 bound_to 10713
  153.8525  135.6847  153.4791 H   0  0  0  0  0  0  0  0  0  0  0  0  # atno 10763 bound_to 10752
  153.1389  135.4666  154.9462 H   0  0  0  0  0  0  0  0  0  0  0  0  # atno 10764 bound_to 10752
  154.7795  135.3264  154.7967 H   0  0  0  0  0  0  0  0  0  0  0  0  # atno 10765 bound_to 10752
  141.0739  133.6671  156.3536 H   0  0  0  0  0  0  0  0  0  0  0  0  # atno 11005 bound_to 11000
  145.2053  139.2231  143.5171 LP  0  0  0  0  0  0  0  0  0  0  0  0  # atno 17320 bound_to 7965
  146.3466  140.1880  142.8589 LP  0  0  0  0  0  0  0  0  0  0  0  0  # atno 17321 bound_to 7965
  140.3530  143.2952  152.0466 LP  0  0  0  0  0  0  0  0  0  0  0  0  # atno 17342 bound_to 10162
  139.4887  144.6359  151.6975 LP  0  0  0  0  0  0  0  0  0  0  0  0  # atno 17343 bound_to 10162
  157.3808  131.0780  151.1479 LP  0  0  0  0  0  0  0  0  0  0  0  0  # atno 17370 bound_to 10713
  157.2202  130.6478  149.5808 LP  0  0  0  0  0  0  0  0  0  0  0  0  # atno 17371 bound_to 10713
  140.5614  134.5930  157.5434 LP  0  0  0  0  0  0  0  0  0  0  0  0  # atno 17394 bound_to 11000
  139.9552  134.7548  156.0358 LP  0  0  0  0  0  0  0  0  0  0  0  0  # atno 17395 bound_to 11000

$$$$
