#       Name:                AV-unprocessed.smi:79
#       Creating user name   scv26
#       Creation time:       Thu Mar 26 17:14:44 2020


#       File generated by GOLD software.
#

@<TRIPOS>MOLECULE
AV-unprocessed.smi:79
    66    69     1
SMALL
NO_CHARGES


@<TRIPOS>ATOM
      1 ****        -5.1580   2.2618  -3.3354 C.3            1 S1                 0.0000
      2 ****        -3.7362   2.5895  -3.8153 C.3            1 S1                 0.0000
      3 ****        -3.7527   2.6675  -5.2248 O.3            1 S1                 0.0000
      4 ****        -2.6977   1.5280  -3.3994 C.3            1 S1                 0.0000
      5 ****        -2.5304   1.4320  -1.9267 N.4            1 S1                 1.0000
      6 ****        -1.9938   0.1129  -1.5042 C.3            1 S1                 0.0000
      7 ****        -1.9381   0.0011   0.0287 C.3            1 S1                 0.0000
      8 ****        -1.1958   1.1227   0.5996 N.3            1 S1                 0.0000
      9 ****         0.1341   0.9059   0.7757 C.ar           1 S1                 0.0000
     10 ****         1.0433   1.6704   0.1140 N.ar           1 S1                 0.0000
     11 ****         2.3523   1.4556   0.2748 C.ar           1 S1                 0.0000
     12 ****         2.9602   0.5446   1.0363 N.ar           1 S1                 0.0000
     13 ****         2.0548  -0.2238   1.7065 C.ar           1 S1                 0.0000
     14 ****         0.6377  -0.1115   1.6342 C.ar           1 S1                 0.0000
     15 ****         0.0462  -1.0561   2.4642 N.2            1 S1                 0.0000
     16 ****         1.0551  -1.6943   2.9917 C.2            1 S1                 0.0000
     17 ****         2.2988  -1.2661   2.5844 N.pl3          1 S1                 0.0000
     18 ****         3.5860  -1.7928   3.0122 C.3            1 S1                 0.0000
     19 ****         4.0355  -3.0451   2.2364 C.3            1 S1                 0.0000
     20 ****         4.2231  -2.6635   0.7540 C.3            1 S1                 0.0000
     21 ****         4.7339  -3.7309  -0.0195 O.3            1 S1                 0.0000
     22 ****         5.1834  -3.8311   2.8861 C.3            1 S1                 0.0000
     23 ****         4.4341  -5.0660   2.8583 O.3            1 S1                 0.0000
     24 ****         3.2412  -4.3314   2.5058 C.3            1 S1                 0.0000
     25 ****        -1.6564   2.4555   0.1961 C.3            1 S1                 0.0000
     26 ****        -2.9872   2.8188   0.8769 C.3            1 S1                 0.0000
     27 ****        -1.7541   2.5604  -1.3434 C.3            1 S1                 0.0000
     28 ****        -5.2103   2.2302  -2.2468 H              1 S1                 0.0000
     29 ****        -5.4940   1.2952  -3.7128 H              1 S1                 0.0000
     30 ****        -5.8692   3.0166  -3.6729 H              1 S1                 0.0000
     31 ****        -3.4480   3.5744  -3.4493 H              1 S1                 0.0000
     32 ****        -4.0522   1.8415  -5.5737 H              1 S1                 0.0000
     33 ****        -3.0183   0.5620  -3.7930 H              1 S1                 0.0000
     34 ****        -1.7292   1.7361  -3.8576 H              1 S1                 0.0000
     35 ****        -2.6197  -0.6880  -1.8992 H              1 S1                 0.0000
     36 ****        -0.9968  -0.0237  -1.9266 H              1 S1                 0.0000
     37 ****        -2.9471   0.0000   0.4412 H              1 S1                 0.0000
     38 ****        -1.4997  -0.9573   0.3057 H              1 S1                 0.0000
     39 ****         3.0064   2.1062  -0.2868 H              1 S1                 0.0000
     40 ****         0.9165  -2.4990   3.6989 H              1 S1                 0.0000
     41 ****         4.3303  -1.0000   2.9257 H              1 S1                 0.0000
     42 ****         3.5128  -2.0102   4.0786 H              1 S1                 0.0000
     43 ****         3.2780  -2.3642   0.3014 H              1 S1                 0.0000
     44 ****         4.9044  -1.8179   0.6544 H              1 S1                 0.0000
     45 ****         4.8476  -3.4309  -0.9083 H              1 S1                 0.0000
     46 ****         6.0941  -3.8787   2.2882 H              1 S1                 0.0000
     47 ****         5.4112  -3.5216   3.9072 H              1 S1                 0.0000
     48 ****         2.5525  -4.2635   3.3484 H              1 S1                 0.0000
     49 ****         2.7403  -4.7402   1.6275 H              1 S1                 0.0000
     50 ****        -0.9351   3.1981   0.5404 H              1 S1                 0.0000
     51 ****        -3.2801   3.8409   0.6354 H              1 S1                 0.0000
     52 ****        -2.9002   2.7525   1.9618 H              1 S1                 0.0000
     53 ****        -3.8009   2.1628   0.5676 H              1 S1                 0.0000
     54 ****        -0.7542   2.5578  -1.7790 H              1 S1                 0.0000
     55 ****        -2.2004   3.5171  -1.6115 H              1 S1                 0.0000
     56 ****        -3.4590   1.4878  -1.5335 H              1 S1                 0.0000
     57 ****        -2.8307   2.8595  -5.5612 LP             1 S1                 0.0000
     58 ****        -4.3716   3.3980  -5.5133 LP             1 S1                 0.0000
     59 ****        -1.4759   1.1558   1.5590 LP             1 S1                 0.0000
     60 ****         0.7304   2.3979  -0.4967 LP             1 S1                 0.0000
     61 ****         3.9521   0.4388   1.1066 LP             1 S1                 0.0000
     62 ****        -0.9291  -1.2113   2.6214 LP             1 S1                 0.0000
     63 ****         4.0918  -4.4972  -0.0020 LP             1 S1                 0.0000
     64 ****         5.6144  -4.0252   0.3521 LP             1 S1                 0.0000
     65 ****         4.3811  -5.5317   3.7417 LP             1 S1                 0.0000
     66 ****         4.7377  -5.7124   2.1584 LP             1 S1                 0.0000
@<TRIPOS>BOND
    1    1    2 1     
    2    1   28 1     
    3    1   29 1     
    4    1   30 1     
    5    2    3 1     
    6    2    4 1     
    7    2   31 1     
    8    3   32 1     
    9    4    5 1     
   10    4   33 1     
   11    4   34 1     
   12    5   27 1     
   13    5    6 1     
   14    5   56 1     
   15    6    7 1     
   16    6   35 1     
   17    6   36 1     
   18    7    8 1     
   19    7   37 1     
   20    7   38 1     
   21    8    9 1     
   22    8   25 1     
   23    9   14 ar    
   24    9   10 ar    
   25   10   11 ar    
   26   11   12 ar    
   27   11   39 1     
   28   12   13 ar    
   29   13   17 1     
   30   13   14 ar    
   31   14   15 1     
   32   15   16 2     
   33   16   17 1     
   34   16   40 1     
   35   17   18 1     
   36   18   19 1     
   37   18   41 1     
   38   18   42 1     
   39   19   24 1     
   40   19   20 1     
   41   19   22 1     
   42   20   21 1     
   43   20   43 1     
   44   20   44 1     
   45   21   45 1     
   46   22   23 1     
   47   22   46 1     
   48   22   47 1     
   49   23   24 1     
   50   24   48 1     
   51   24   49 1     
   52   25   26 1     
   53   25   27 1     
   54   25   50 1     
   55   26   51 1     
   56   26   52 1     
   57   26   53 1     
   58   27   54 1     
   59   27   55 1     
   60    3   57 1     
   61    3   58 1     
   62    8   59 1     
   63   10   60 1     
   64   12   61 1     
   65   15   62 1     
   66   21   63 1     
   67   21   64 1     
   68   23   65 1     
   69   23   66 1     
@<TRIPOS>SUBSTRUCTURE
      1 S1             1
@<TRIPOS>SET
LONE_PAIRS      STATIC     ATOMS    <user>   **** ""
10 57 58 59 60 61 62 63 64 65 66
DONOR_HYDROGENS      STATIC     ATOMS    <user>   **** ""
3 32 56 45
ATOM$BLUE        STATIC     ATOMS    COLORGROUP SYSTEM
10 57 58 59 60 61 62 63 64 65 66
ATOM$RED        STATIC     ATOMS    COLORGROUP SYSTEM
3 32 56 45
