AV-unprocessed.smi:1864|AV-procd|sdf|7553|dock2
  -GOLD-   22720 9273D 1   1.00000     0.00000
 Structure written by MMmdl.
 33 34  0  0  0  0  0  0  0  0  2 V2000
  147.8449  136.8992  160.1569 C   0  0  0  0  0  0  0  0  0  0  0  0
  148.9459  137.3411  159.2543 C   0  0  0  0  0  0  0  0  0  0  0  0
  149.0581  138.6056  158.8676 N   0  0  0  0  0  0  0  0  0  0  0  0
  150.1915  138.5917  158.0419 O   0  0  0  0  0  0  0  0  0  0  0  0
  150.6334  137.3084  158.0359 C   0  0  0  0  0  0  0  0  0  0  0  0
  151.8368  136.9554  157.2145 C   0  0  0  0  0  0  0  0  0  0  0  0
  151.9716  137.7771  155.9181 C   0  0  0  0  0  0  0  0  0  0  0  0
  152.3991  139.1403  156.2353 N   0  5  0  0  0  0  0  0  0  0  0  0
  151.5979  140.2466  156.1694 C   0  0  0  0  0  0  0  0  0  0  0  0
  150.7650  140.4921  155.2879 O   0  0  0  0  0  0  0  0  0  0  0  0
  151.7143  141.2837  157.2389 C   0  0  0  0  0  0  0  0  0  0  0  0
  152.3722  141.0161  158.3239 N   0  0  0  0  0  0  0  0  0  0  0  0
  152.5388  141.9389  159.3359 N   0  0  0  0  0  0  0  0  0  0  0  0
  153.5350  141.5404  160.3296 C   0  0  0  0  0  0  0  0  0  0  0  0
  151.8417  143.0991  159.4394 C   0  0  0  0  0  0  0  0  0  0  0  0
  152.0080  143.9286  160.3336 O   0  0  0  0  0  0  0  0  0  0  0  0
  150.7671  143.3452  158.3770 C   0  0  0  0  0  0  0  0  0  0  0  0
  151.0988  142.6571  157.0390 C   0  0  0  0  0  0  0  0  0  0  0  0
  149.8897  136.4855  158.7764 N   0  0  0  0  0  0  0  0  0  0  0  0
  147.1871  137.7321  160.4082 H   0  0  0  0  0  0  0  0  0  0  0  0
  148.2565  136.4936  161.0814 H   0  0  0  0  0  0  0  0  0  0  0  0
  147.2501  136.1247  159.6724 H   0  0  0  0  0  0  0  0  0  0  0  0
  152.7239  137.0893  157.8348 H   0  0  0  0  0  0  0  0  0  0  0  0
  151.7859  135.8923  156.9755 H   0  0  0  0  0  0  0  0  0  0  0  0
  152.6789  137.2761  155.2554 H   0  0  0  0  0  0  0  0  0  0  0  0
  151.0157  137.7740  155.3931 H   0  0  0  0  0  0  0  0  0  0  0  0
  153.6564  142.2539  161.1455 H   0  0  0  0  0  0  0  0  0  0  0  0
  154.5088  141.4193  159.8536 H   0  0  0  0  0  0  0  0  0  0  0  0
  153.2584  140.5830  160.7724 H   0  0  0  0  0  0  0  0  0  0  0  0
  149.8262  142.9548  158.7667 H   0  0  0  0  0  0  0  0  0  0  0  0
  150.6258  144.4160  158.2260 H   0  0  0  0  0  0  0  0  0  0  0  0
  151.7850  143.2764  156.4604 H   0  0  0  0  0  0  0  0  0  0  0  0
  150.1786  142.5909  156.4578 H   0  0  0  0  0  0  0  0  0  0  0  0
  1  2  1  0  0  0  0
  1 20  1  0  0  0  0
  1 21  1  0  0  0  0
  1 22  1  0  0  0  0
  2 19  1  0  0  0  0
  2  3  2  0  0  0  0
  3  4  1  0  0  0  0
  4  5  1  0  0  0  0
  5  6  1  0  0  0  0
  5 19  2  0  0  0  0
  6  7  1  0  0  0  0
  6 23  1  0  0  0  0
  6 24  1  0  0  0  0
  7  8  1  0  0  0  0
  7 25  1  0  0  0  0
  7 26  1  0  0  0  0
  8  9  1  0  0  0  0
  9 10  2  0  0  0  0
  9 11  1  0  0  0  0
 11 18  1  0  0  0  0
 11 12  2  0  0  0  0
 12 13  1  0  0  0  0
 13 14  1  0  0  0  0
 13 15  1  0  0  0  0
 14 27  1  0  0  0  0
 14 28  1  0  0  0  0
 14 29  1  0  0  0  0
 15 16  2  0  0  0  0
 15 17  1  0  0  0  0
 17 18  1  0  0  0  0
 17 30  1  0  0  0  0
 17 31  1  0  0  0  0
 18 32  1  0  0  0  0
 18 33  1  0  0  0  0
M  CHG  1   8  -1
M  END
> <s_m_source_file>
AV-unprocessed.smi

> <i_m_source_file_index>
1864

> <i_lp_mmshare_version>
43012

> <i_f3d_flags>
0

> <s_epik_input>
W0NIM11jMW5vYyhuMSlbQ0gyXVtDSDJdW05IXUMoPU8pQzI9Tk4oW0NIM10pQyg9TylbQ0gyXVtDSDJdMg==

> <s_epik_cmdline>
J2VwaWtfcHl0aG9uJywgJy1waCcsICc3LjAnLCAnLXRuJywgJzgnLCAnLW1hJywgJzIwMCcsICctbWV0YWxfYmluZGluZycsICctaW1hZScsICc8aW5maWxlLm1hZT4nLCAnLW9tYWUnLCAnPG91dGZpbGUubWFlPic=

> <r_lp_tautomer_probability>
1

> <r_epik_Ionization_Penalty>
5.04632

> <r_epik_Ionization_Penalty_Charging>
5.04632

> <r_epik_Ionization_Penalty_Neutral>
3.43742e-09

> <r_epik_State_Penalty>
5.0462

> <r_epik_Charging_Adjusted_Penalty>
10.0925

> <i_epik_Tot_Q>
-1

> <i_epik_Tot_abs_Q>
1

> <r_epik_Metal_State_Penalty>
1.15274

> <b_epik_Metal_Only>
1

> <s_epik_Chemistry_Notes>
This compound has an imine and may undergo hydrolysis.

> <s_lp_Force_Field>
OPLS_2005

> <r_lp_Energy>
22.1734

> <b_lp_Chiralities_Consistent>
1

> <s_lp_Variant>
AV-unprocessed.smi:1864-2

> <Gold.Version>
5.8.1

> <Gold.Id.Protein>
6NUR|6NUR_protein|mol2

> <Gold.PLP.Fitness>
41.3322

> <Gold.PLP.PLP>
-31.0089

> <Gold.PLP.part.hbond>
-3.7489

> <Gold.PLP.part.metal>
0.0000

> <Gold.PLP.part.buried>
-5.6441

> <Gold.PLP.part.nonpolar>
-21.8143

> <Gold.PLP.part.repulsive>
0.1217

> <Gold.PLP.ligand.clash>
0.0000

> <Gold.PLP.ligand.torsion>
0.8776

> <Gold.PLP.Chemscore.Hbond>
3.9920

> <Gold.PLP.Chemscore.CHOScore>
0.0000

> <Gold.PLP.Chemscore.Metal>
0.0000

> <Gold.Chemscore.Hbonds>
donor molecule, donor type, donor heavy atom, donor atom, acceptor molecule, acceptor atom, score
      P1  H  6896  6909       L1    19  0.78
      P1  H  7989  7998       L1    10  0.99
      P1  H  7997  8009       L1     8  1.30

> <Gold.PLP.Chemscore.Internal.Correction>
0.1026

> <Gold.Rescore>
     Score         DG    S(hbond)    S(metal)    S(lipo)     H(rot)  DE(clash)    DE(int)     intcor
     12.04     -15.69       2.66        0.00      50.22       1.77       0.09       3.57       ----

> <Gold.Chemscore.Fitness>
12.0353

> <Gold.Chemscore.DG>
-15.6930

> <Gold.Chemscore.ZeroCoef>
-5.4800

> <Gold.Chemscore.Hbond>
2.6578

> <Gold.Chemscore.Metal>
0.0000

> <Gold.Chemscore.Lipo>
50.2155

> <Gold.Chemscore.Internal_Hbond>
0.0000

> <Gold.Chemscore.DEClash>
0.0873

> <Gold.Chemscore.DEInternal>
3.5704

> <Gold.Chemscore.Rot>
1.7731

> <Gold.Chemscore.Internal.Correction>
   9.000000E+99

> <Gold.Chemscore.Hbonds>
donor molecule, donor type, donor heavy atom, donor atom, acceptor molecule, acceptor atom, score
      P1  H  6896  6909       L1    19  0.64
      P1  H  7989  7998       L1    10  0.73
      P1  H  7997  8009       L1     8  0.17

> <Gold.Chemscore.Hbond.Weighted>
-8.8771

> <Gold.Chemscore.Metal.Weighted>
-0.0000

> <Gold.Chemscore.Lipo.Weighted>
-5.8752

> <Gold.Chemscore.Internal_Hbond.Weighted>
0.0000

> <Gold.Chemscore.DEClash.Weighted>
0.0873

> <Gold.Chemscore.DEInternal.Weighted>
3.5704

> <Gold.Chemscore.Rot.Weighted>
4.5393

> <Gold.Chemscore.Internal.Correction.Weighted>
   9.000000E+99

> <Gold.Protein.RotatedTorsions>
[ 6907 6896 6895 6894 ] final   86.91 input  -60.11 | X-H torsion
[ 7974 7965 7964 7962 ] final  -41.80 input  175.53 | X-H torsion
[ 8008 7997 7996 7995 ] final -166.90 input   59.86 | X-H torsion
[ 10167 10162 10161 10158 ] final  -48.15 input  -65.29 | X-H torsion
[ 10718 10713 10712 10709 ] final -110.26 input   66.30 | X-H torsion
[ 10763 10752 10751 10750 ] final  -56.49 input  -60.55 | X-H torsion
[ 11005 11000 10999 10996 ] final -137.71 input  -57.11 | X-H torsion

> <Gold.Protein.ActiveResidues>
 VAL166  LYS551  ARG553  GLY616  TRP617  ASP618  TYR619  PRO620  LYS621  CYS622 
 ASP623  PHE694  ASN695  SER759  ASP760  ASP761  ALA762  ILE779  LEU786  VAL792 
 PHE793  MET794  SER795  GLU796  ALA797  LYS798  CYS799  TRP800  GLU811  SER814 

> <Gold.Protein.RotatedAtoms>
  152.5402  134.2358  159.8842 H   0  0  0  0  0  0  0  0  0  0  0  0  # atno 6907 bound_to 6896
  151.2327  133.4435  159.2612 H   0  0  0  0  0  0  0  0  0  0  0  0  # atno 6908 bound_to 6896
  151.0700  134.9805  159.8360 H   0  0  0  0  0  0  0  0  0  0  0  0  # atno 6909 bound_to 6896
  146.0177  140.6888  142.9193 H   0  0  0  0  0  0  0  0  0  0  0  0  # atno 7974 bound_to 7965
  155.8703  140.0992  157.1555 H   0  0  0  0  0  0  0  0  0  0  0  0  # atno 8008 bound_to 7997
  154.3996  140.1348  156.4132 H   0  0  0  0  0  0  0  0  0  0  0  0  # atno 8009 bound_to 7997
  155.7758  140.3459  155.5273 H   0  0  0  0  0  0  0  0  0  0  0  0  # atno 8010 bound_to 7997
  140.6743  143.2752  151.4030 H   0  0  0  0  0  0  0  0  0  0  0  0  # atno 10167 bound_to 10162
  156.0581  130.5806  150.8213 H   0  0  0  0  0  0  0  0  0  0  0  0  # atno 10718 bound_to 10713
  154.2074  135.6400  153.5105 H   0  0  0  0  0  0  0  0  0  0  0  0  # atno 10763 bound_to 10752
  152.9997  135.5466  154.6251 H   0  0  0  0  0  0  0  0  0  0  0  0  # atno 10764 bound_to 10752
  154.5679  135.2914  155.0829 H   0  0  0  0  0  0  0  0  0  0  0  0  # atno 10765 bound_to 10752
  140.8685  134.2081  157.4665 H   0  0  0  0  0  0  0  0  0  0  0  0  # atno 11005 bound_to 11000
  144.6977  140.3510  143.7182 LP  0  0  0  0  0  0  0  0  0  0  0  0  # atno 17320 bound_to 7965
  145.7243  139.1718  143.2467 LP  0  0  0  0  0  0  0  0  0  0  0  0  # atno 17321 bound_to 7965
  139.6028  144.1260  152.2216 LP  0  0  0  0  0  0  0  0  0  0  0  0  # atno 17342 bound_to 10162
  140.0650  144.5826  150.7234 LP  0  0  0  0  0  0  0  0  0  0  0  0  # atno 17343 bound_to 10162
  157.5568  131.0945  150.9617 LP  0  0  0  0  0  0  0  0  0  0  0  0  # atno 17370 bound_to 10713
  156.9864  130.5546  149.5300 LP  0  0  0  0  0  0  0  0  0  0  0  0  # atno 17371 bound_to 10713
  139.8710  134.9763  156.4915 LP  0  0  0  0  0  0  0  0  0  0  0  0  # atno 17394 bound_to 11000
  140.8601  133.8066  155.9256 LP  0  0  0  0  0  0  0  0  0  0  0  0  # atno 17395 bound_to 11000

$$$$
