AV-unprocessed.smi:2063|AV-procd|sdf|8415|dock8
  -GOLD-   2272011103D 1   1.00000     0.00000
 Structure written by MMmdl.
 38 39  0  0  0  0  0  0  0  0  2 V2000
  149.9921  141.0020  157.5114 C   0  0  0  0  0  0  0  0  0  0  0  0
  150.1707  140.9877  155.9864 C   0  0  0  0  0  0  0  0  0  0  0  0
  148.8912  141.3658  155.2258 C   0  0  0  0  0  0  0  0  0  0  0  0
  150.7566  139.6993  155.4988 C   0  0  0  0  0  0  0  0  0  0  0  0
  151.9214  139.6260  154.8471 N   0  0  0  0  0  0  0  0  0  0  0  0
  152.2497  138.3226  154.5044 N   0  0  0  0  0  0  0  0  0  0  0  0
  151.3278  137.4297  154.8907 C   0  0  0  0  0  0  0  0  0  0  0  0
  151.4570  136.1127  154.6604 N   0  5  0  0  0  0  0  0  0  0  0  0
  150.5520  135.2451  155.1676 C   0  0  0  0  0  0  0  0  0  0  0  0
  150.6386  134.6450  156.2412 O   0  0  0  0  0  0  0  0  0  0  0  0
  149.4846  135.0610  154.3775 N   0  0  0  0  0  0  0  0  0  0  0  0
  148.3544  134.1696  154.6348 C   0  0  1  0  0  0  0  0  0  0  0  0
  147.0375  134.9411  154.4570 C   0  0  0  0  0  0  0  0  0  0  0  0
  148.4383  132.9467  153.7019 C   0  0  1  0  0  0  0  0  0  0  0  0
  149.6658  132.0581  153.9246 C   0  0  0  0  0  0  0  0  0  0  0  0
  149.2053  130.6757  153.4862 C   0  0  0  0  0  0  0  0  0  0  0  0
  147.6939  130.8253  153.2995 C   0  0  0  0  0  0  0  0  0  0  0  0
  147.3681  132.0467  153.9458 O   0  0  0  0  0  0  0  0  0  0  0  0
  149.9641  138.1512  155.7435 S   0  0  0  0  0  0  0  0  0  0  0  0
  150.9395  140.8175  158.0188 H   0  0  0  0  0  0  0  0  0  0  0  0
  149.2860  140.2366  157.8349 H   0  0  0  0  0  0  0  0  0  0  0  0
  149.6164  141.9665  157.8536 H   0  0  0  0  0  0  0  0  0  0  0  0
  150.9029  141.7631  155.7571 H   0  0  0  0  0  0  0  0  0  0  0  0
  149.0760  141.4211  154.1525 H   0  0  0  0  0  0  0  0  0  0  0  0
  148.5156  142.3376  155.5472 H   0  0  0  0  0  0  0  0  0  0  0  0
  148.1007  140.6330  155.3911 H   0  0  0  0  0  0  0  0  0  0  0  0
  149.4616  135.5801  153.5123 H   0  0  0  0  0  0  0  0  0  0  0  0
  148.4020  133.8061  155.6627 H   0  0  0  0  0  0  0  0  0  0  0  0
  146.1773  134.3036  154.6621 H   0  0  0  0  0  0  0  0  0  0  0  0
  146.9350  135.3228  153.4407 H   0  0  0  0  0  0  0  0  0  0  0  0
  146.9852  135.7905  155.1387 H   0  0  0  0  0  0  0  0  0  0  0  0
  148.3996  133.2624  152.6573 H   0  0  0  0  0  0  0  0  0  0  0  0
  150.5383  132.4086  153.3726 H   0  0  0  0  0  0  0  0  0  0  0  0
  149.9289  132.0342  154.9831 H   0  0  0  0  0  0  0  0  0  0  0  0
  149.6848  130.3616  152.5586 H   0  0  0  0  0  0  0  0  0  0  0  0
  149.4390  129.9357  154.2524 H   0  0  0  0  0  0  0  0  0  0  0  0
  147.4441  130.9033  152.2404 H   0  0  0  0  0  0  0  0  0  0  0  0
  147.1332  129.9911  153.7215 H   0  0  0  0  0  0  0  0  0  0  0  0
  1  2  1  0  0  0  0
  1 20  1  0  0  0  0
  1 21  1  0  0  0  0
  1 22  1  0  0  0  0
  2  3  1  0  0  0  0
  2  4  1  0  0  0  0
  2 23  1  0  0  0  0
  3 24  1  0  0  0  0
  3 25  1  0  0  0  0
  3 26  1  0  0  0  0
  4 19  1  0  0  0  0
  4  5  2  0  0  0  0
  5  6  1  0  0  0  0
  6  7  2  0  0  0  0
  7  8  1  0  0  0  0
  7 19  1  0  0  0  0
  8  9  1  0  0  0  0
  9 10  2  0  0  0  0
  9 11  1  0  0  0  0
 11 12  1  0  0  0  0
 11 27  1  0  0  0  0
 12 13  1  0  0  0  0
 12 14  1  0  0  0  0
 12 28  1  0  0  0  0
 13 29  1  0  0  0  0
 13 30  1  0  0  0  0
 13 31  1  0  0  0  0
 14 18  1  0  0  0  0
 14 15  1  0  0  0  0
 14 32  1  0  0  0  0
 15 16  1  0  0  0  0
 15 33  1  0  0  0  0
 15 34  1  0  0  0  0
 16 17  1  0  0  0  0
 16 35  1  0  0  0  0
 16 36  1  0  0  0  0
 17 18  1  0  0  0  0
 17 37  1  0  0  0  0
 17 38  1  0  0  0  0
M  CHG  1   8  -1
M  END
> <s_m_source_file>
AV-unprocessed.smi

> <i_m_source_file_index>
2063

> <i_lp_mmshare_version>
43012

> <i_f3d_flags>
0

> <s_epik_input>
W0NIM11bQ0hdKFtDSDNdKWMxbm5jKHMxKVtOSF1DKD1PKVtOSF1bQ0BIXShbQ0gzXSlbQ0BASF0yW0NIMl1bQ0gyXVtDSDJdTzI=

> <s_epik_cmdline>
J2VwaWtfcHl0aG9uJywgJy1waCcsICc3LjAnLCAnLXRuJywgJzgnLCAnLW1hJywgJzIwMCcsICctbWV0YWxfYmluZGluZycsICctaW1hZScsICc8aW5maWxlLm1hZT4nLCAnLW9tYWUnLCAnPG91dGZpbGUubWFlPic=

> <r_lp_tautomer_probability>
1

> <r_epik_Ionization_Penalty>
4.37022

> <r_epik_Ionization_Penalty_Charging>
4.21437

> <r_epik_Ionization_Penalty_Neutral>
0.15585

> <r_epik_State_Penalty>
4.21389

> <r_epik_Charging_Adjusted_Penalty>
8.42826

> <i_epik_Tot_Q>
-1

> <i_epik_Tot_abs_Q>
1

> <r_epik_Metal_State_Penalty>
0.693772

> <b_epik_Metal_Only>
1

> <s_lp_Force_Field>
OPLS_2005

> <r_lp_Energy>
9.58688

> <b_lp_Chiralities_Consistent>
1

> <s_lp_Variant>
AV-unprocessed.smi:2063-8

> <Gold.Version>
5.8.1

> <Gold.Id.Protein>
6NUR|6NUR_protein|mol2

> <Gold.PLP.Fitness>
39.8488

> <Gold.PLP.PLP>
-29.7374

> <Gold.PLP.part.hbond>
-3.0000

> <Gold.PLP.part.metal>
0.0000

> <Gold.PLP.part.buried>
-5.3133

> <Gold.PLP.part.nonpolar>
-22.8856

> <Gold.PLP.part.repulsive>
0.4172

> <Gold.PLP.ligand.clash>
0.0000

> <Gold.PLP.ligand.torsion>
0.9425

> <Gold.PLP.Chemscore.Hbond>
3.9500

> <Gold.PLP.Chemscore.CHOScore>
0.0000

> <Gold.PLP.Chemscore.Metal>
0.0000

> <Gold.Chemscore.Hbonds>
donor molecule, donor type, donor heavy atom, donor atom, acceptor molecule, acceptor atom, score
      L1  H    11    27       P1  7948  0.95
      P1  H  7989  7998       L1     5  0.96
      P1  H 10752 10764       L1     8  2.00

> <Gold.PLP.Chemscore.Internal.Correction>
0.1464

> <Gold.Rescore>
     Score         DG    S(hbond)    S(metal)    S(lipo)     H(rot)  DE(clash)    DE(int)     intcor
     14.98     -15.95       2.43        0.00      50.66       1.39       0.01       0.96       ----

> <Gold.Chemscore.Fitness>
14.9795

> <Gold.Chemscore.DG>
-15.9548

> <Gold.Chemscore.ZeroCoef>
-5.4800

> <Gold.Chemscore.Hbond>
2.4266

> <Gold.Chemscore.Metal>
0.0000

> <Gold.Chemscore.Lipo>
50.6558

> <Gold.Chemscore.Internal_Hbond>
0.0000

> <Gold.Chemscore.DEClash>
0.0106

> <Gold.Chemscore.DEInternal>
0.9647

> <Gold.Chemscore.Rot>
1.3893

> <Gold.Chemscore.Internal.Correction>
   9.000000E+99

> <Gold.Chemscore.Hbonds>
donor molecule, donor type, donor heavy atom, donor atom, acceptor molecule, acceptor atom, score
      L1  H    11    27       P1  7948  0.22
      P1  H  7989  7998       L1     5  0.31
      P1  H 10752 10764       L1     8  0.84

> <Gold.Chemscore.Hbond.Weighted>
-8.1048

> <Gold.Chemscore.Metal.Weighted>
-0.0000

> <Gold.Chemscore.Lipo.Weighted>
-5.9267

> <Gold.Chemscore.Internal_Hbond.Weighted>
0.0000

> <Gold.Chemscore.DEClash.Weighted>
0.0106

> <Gold.Chemscore.DEInternal.Weighted>
0.9647

> <Gold.Chemscore.Rot.Weighted>
3.5567

> <Gold.Chemscore.Internal.Correction.Weighted>
   9.000000E+99

> <Gold.Protein.RotatedTorsions>
[ 6907 6896 6895 6894 ] final  102.01 input  -60.11 | X-H torsion
[ 7974 7965 7964 7962 ] final   78.46 input  175.53 | X-H torsion
[ 8008 7997 7996 7995 ] final  -20.13 input   59.86 | X-H torsion
[ 10167 10162 10161 10158 ] final  154.08 input  -65.29 | X-H torsion
[ 10718 10713 10712 10709 ] final  140.84 input   66.30 | X-H torsion
[ 10763 10752 10751 10750 ] final  -70.86 input  -60.55 | X-H torsion
[ 11005 11000 10999 10996 ] final -159.19 input  -57.11 | X-H torsion

> <Gold.Protein.ActiveResidues>
 VAL166  LYS551  ARG553  GLY616  TRP617  ASP618  TYR619  PRO620  LYS621  CYS622 
 ASP623  PHE694  ASN695  SER759  ASP760  ASP761  ALA762  ILE779  LEU786  VAL792 
 PHE793  MET794  SER795  GLU796  ALA797  LYS798  CYS799  TRP800  GLU811  SER814 

> <Gold.Protein.RotatedAtoms>
  152.5335  134.0040  159.7907 H   0  0  0  0  0  0  0  0  0  0  0  0  # atno 6907 bound_to 6896
  151.0254  133.5831  159.2674 H   0  0  0  0  0  0  0  0  0  0  0  0  # atno 6908 bound_to 6896
  151.2855  135.0733  159.9238 H   0  0  0  0  0  0  0  0  0  0  0  0  # atno 6909 bound_to 6896
  145.6768  139.2512  143.1837 H   0  0  0  0  0  0  0  0  0  0  0  0  # atno 7974 bound_to 7965
  154.4790  140.2070  155.9808 H   0  0  0  0  0  0  0  0  0  0  0  0  # atno 8008 bound_to 7997
  156.1135  140.3225  155.8076 H   0  0  0  0  0  0  0  0  0  0  0  0  # atno 8009 bound_to 7997
  155.4593  140.0523  157.2983 H   0  0  0  0  0  0  0  0  0  0  0  0  # atno 8010 bound_to 7997
  139.4824  144.5218  151.7864 H   0  0  0  0  0  0  0  0  0  0  0  0  # atno 10167 bound_to 10162
  157.3987  131.1014  151.0574 H   0  0  0  0  0  0  0  0  0  0  0  0  # atno 10718 bound_to 10713
  154.4236  135.5981  153.6025 H   0  0  0  0  0  0  0  0  0  0  0  0  # atno 10763 bound_to 10752
  152.9795  135.5958  154.3925 H   0  0  0  0  0  0  0  0  0  0  0  0  # atno 10764 bound_to 10752
  154.3754  135.2841  155.2221 H   0  0  0  0  0  0  0  0  0  0  0  0  # atno 10765 bound_to 10752
  140.6454  134.4507  157.5234 H   0  0  0  0  0  0  0  0  0  0  0  0  # atno 11005 bound_to 11000
  146.0998  140.7557  142.9554 LP  0  0  0  0  0  0  0  0  0  0  0  0  # atno 17320 bound_to 7965
  144.7039  140.3769  143.7134 LP  0  0  0  0  0  0  0  0  0  0  0  0  # atno 17321 bound_to 7965
  140.4733  144.1556  150.5921 LP  0  0  0  0  0  0  0  0  0  0  0  0  # atno 17342 bound_to 10162
  140.4359  143.2548  151.9536 LP  0  0  0  0  0  0  0  0  0  0  0  0  # atno 17343 bound_to 10162
  157.1580  130.6213  149.5602 LP  0  0  0  0  0  0  0  0  0  0  0  0  # atno 17370 bound_to 10713
  155.9817  130.4826  150.6843 LP  0  0  0  0  0  0  0  0  0  0  0  0  # atno 17371 bound_to 10713
  139.9065  134.8438  156.1687 LP  0  0  0  0  0  0  0  0  0  0  0  0  # atno 17394 bound_to 11000
  141.0576  133.6857  156.1891 LP  0  0  0  0  0  0  0  0  0  0  0  0  # atno 17395 bound_to 11000

$$$$
