AV-unprocessed.smi:1088|AV-procd|sdf|4731|dock9
  -GOLD-   22720 3263D 1   1.00000     0.00000
 Structure written by MMmdl.
 48 49  0  0  0  0  0  0  0  0  2 V2000
  144.0590  132.4176  150.1100 C   0  0  0  0  0  0  0  0  0  0  0  0
  145.3290  131.8143  150.2857 O   0  0  0  0  0  0  0  0  0  0  0  0
  146.3793  132.7650  150.3428 C   0  0  0  0  0  0  0  0  0  0  0  0
  146.5715  133.2065  151.8007 C   0  0  0  0  0  0  0  0  0  0  0  0
  146.3509  134.6621  151.9810 N   0  3  1  0  0  0  0  0  0  0  0  0
  145.7430  135.3504  150.8227 C   0  0  0  0  0  0  0  0  0  0  0  0
  145.0983  136.6026  151.4023 C   0  0  0  0  0  0  0  0  0  0  0  0
  144.5765  136.1217  152.7510 C   0  0  0  0  0  0  0  0  0  0  0  0
  145.5582  135.0146  153.1857 C   0  0  2  0  0  0  0  0  0  0  0  0
  146.4973  135.4348  154.3364 C   0  0  0  0  0  0  0  0  0  0  0  0
  147.2669  136.6309  154.0136 N   0  0  0  0  0  0  0  0  0  0  0  0
  147.2193  137.7817  154.7009 C   0  0  0  0  0  0  0  0  0  0  0  0
  146.5422  137.9318  155.7186 O   0  0  0  0  0  0  0  0  0  0  0  0
  148.0750  138.9330  154.1582 C   0  0  0  0  0  0  0  0  0  0  0  0
  149.3175  139.1138  154.9191 N   0  0  0  0  0  0  0  0  0  0  0  0
  150.5378  138.8948  154.3060 C   0  0  0  0  0  0  0  0  0  0  0  0
  151.7241  139.0356  154.9369 C   0  0  0  0  0  0  0  0  0  0  0  0
  151.7847  139.4341  156.3382 C   0  0  0  0  0  0  0  0  0  0  0  0
  152.8445  139.5938  156.9447 O   0  0  0  0  0  0  0  0  0  0  0  0
  150.5221  139.6361  156.9456 N   0  0  0  0  0  0  0  0  0  0  0  0
  150.4777  140.0484  158.3334 C   0  0  0  0  0  0  0  0  0  0  0  0
  149.2856  139.5031  156.2759 C   0  0  0  0  0  0  0  0  0  0  0  0
  148.2105  139.7182  156.8423 O   0  0  0  0  0  0  0  0  0  0  0  0
  143.2893  131.6466  150.0756 H   0  0  0  0  0  0  0  0  0  0  0  0
  144.0153  132.9785  149.1755 H   0  0  0  0  0  0  0  0  0  0  0  0
  143.8237  133.0913  150.9348 H   0  0  0  0  0  0  0  0  0  0  0  0
  147.3009  132.3500  149.9324 H   0  0  0  0  0  0  0  0  0  0  0  0
  146.1179  133.6316  149.7335 H   0  0  0  0  0  0  0  0  0  0  0  0
  145.8981  132.6512  152.4552 H   0  0  0  0  0  0  0  0  0  0  0  0
  147.5864  132.9555  152.1137 H   0  0  0  0  0  0  0  0  0  0  0  0
  146.4829  135.5833  150.0564 H   0  0  0  0  0  0  0  0  0  0  0  0
  144.9751  134.7182  150.3735 H   0  0  0  0  0  0  0  0  0  0  0  0
  145.8538  137.3752  151.5505 H   0  0  0  0  0  0  0  0  0  0  0  0
  144.3150  137.0124  150.7641 H   0  0  0  0  0  0  0  0  0  0  0  0
  144.4842  136.9369  153.4694 H   0  0  0  0  0  0  0  0  0  0  0  0
  143.5818  135.6928  152.6218 H   0  0  0  0  0  0  0  0  0  0  0  0
  144.9712  134.1479  153.4964 H   0  0  0  0  0  0  0  0  0  0  0  0
  145.9268  135.6067  155.2510 H   0  0  0  0  0  0  0  0  0  0  0  0
  147.1988  134.6298  154.5585 H   0  0  0  0  0  0  0  0  0  0  0  0
  147.8574  136.5901  153.1951 H   0  0  0  0  0  0  0  0  0  0  0  0
  148.3011  138.7242  153.1117 H   0  0  0  0  0  0  0  0  0  0  0  0
  147.5023  139.8625  154.1576 H   0  0  0  0  0  0  0  0  0  0  0  0
  150.5470  138.5946  153.2683 H   0  0  0  0  0  0  0  0  0  0  0  0
  152.6416  138.8518  154.3972 H   0  0  0  0  0  0  0  0  0  0  0  0
  149.6735  139.5039  158.8312 H   0  0  0  0  0  0  0  0  0  0  0  0
  150.2950  141.1239  158.3381 H   0  0  0  0  0  0  0  0  0  0  0  0
  151.4141  139.8065  158.8358 H   0  0  0  0  0  0  0  0  0  0  0  0
  147.2578  135.0857  152.1180 H   0  0  0  0  0  0  0  0  0  0  0  0
  1  2  1  0  0  0  0
  1 24  1  0  0  0  0
  1 25  1  0  0  0  0
  1 26  1  0  0  0  0
  2  3  1  0  0  0  0
  3  4  1  0  0  0  0
  3 27  1  0  0  0  0
  3 28  1  0  0  0  0
  4  5  1  0  0  0  0
  4 29  1  0  0  0  0
  4 30  1  0  0  0  0
  5  9  1  0  0  0  0
  5  6  1  0  0  0  0
  5 48  1  0  0  0  0
  6  7  1  0  0  0  0
  6 31  1  0  0  0  0
  6 32  1  0  0  0  0
  7  8  1  0  0  0  0
  7 33  1  0  0  0  0
  7 34  1  0  0  0  0
  8  9  1  0  0  0  0
  8 35  1  0  0  0  0
  8 36  1  0  0  0  0
  9 10  1  0  0  0  0
  9 37  1  0  0  0  0
 10 11  1  0  0  0  0
 10 38  1  0  0  0  0
 10 39  1  0  0  0  0
 11 12  1  0  0  0  0
 11 40  1  0  0  0  0
 12 13  2  0  0  0  0
 12 14  1  0  0  0  0
 14 15  1  0  0  0  0
 14 41  1  0  0  0  0
 14 42  1  0  0  0  0
 15 22  1  0  0  0  0
 15 16  1  0  0  0  0
 16 17  2  0  0  0  0
 16 43  1  0  0  0  0
 17 18  1  0  0  0  0
 17 44  1  0  0  0  0
 18 19  2  0  0  0  0
 18 20  1  0  0  0  0
 20 21  1  0  0  0  0
 20 22  1  0  0  0  0
 21 45  1  0  0  0  0
 21 46  1  0  0  0  0
 21 47  1  0  0  0  0
 22 23  2  0  0  0  0
M  CHG  1   5   1
M  END
> <s_m_source_file>
AV-unprocessed.smi

> <i_m_source_file_index>
1088

> <i_lp_mmshare_version>
43012

> <i_f3d_flags>
0

> <s_epik_input>
W0NIM11PW0NIMl1bQ0gyXU4xW0NIMl1bQ0gyXVtDSDJdW0NASF0xW0NIMl1bTkhdQyg9TylbQ0gyXW4yW2NIXVtjSF1jKD1PKW4oW0NIM10pYzI9Tw==

> <s_epik_cmdline>
J2VwaWtfcHl0aG9uJywgJy1waCcsICc3LjAnLCAnLXRuJywgJzgnLCAnLW1hJywgJzIwMCcsICctbWV0YWxfYmluZGluZycsICctaW1hZScsICc8aW5maWxlLm1hZT4nLCAnLW9tYWUnLCAnPG91dGZpbGUubWFlPic=

> <r_lp_tautomer_probability>
1

> <r_epik_Ionization_Penalty>
0.0127388

> <r_epik_Ionization_Penalty_Charging>
0.0127387

> <r_epik_Ionization_Penalty_Neutral>
8.26414e-08

> <r_epik_State_Penalty>
0.00987716

> <r_epik_Charging_Adjusted_Penalty>
0.0226159

> <i_epik_Tot_Q>
1

> <i_epik_Tot_abs_Q>
1

> <r_epik_Metal_State_Penalty>
0.00987836

> <b_epik_Metal_Only>
0

> <s_lp_Force_Field>
OPLS_2005

> <r_lp_Energy>
36.9775

> <b_lp_Chiralities_Consistent>
1

> <s_lp_Variant>
AV-unprocessed.smi:1088-4

> <Gold.Version>
5.8.1

> <Gold.Id.Protein>
6NUR|6NUR_protein|mol2

> <Gold.PLP.Fitness>
41.9636

> <Gold.PLP.PLP>
-31.5638

> <Gold.PLP.part.hbond>
-2.7801

> <Gold.PLP.part.metal>
0.0000

> <Gold.PLP.part.buried>
-1.0793

> <Gold.PLP.part.nonpolar>
-26.8003

> <Gold.PLP.part.repulsive>
0.1626

> <Gold.PLP.ligand.clash>
1.6063

> <Gold.PLP.ligand.torsion>
1.4688

> <Gold.PLP.Chemscore.Hbond>
4.0000

> <Gold.PLP.Chemscore.CHOScore>
0.9628

> <Gold.PLP.Chemscore.Metal>
0.0000

> <Gold.Chemscore.Hbonds>
donor molecule, donor type, donor heavy atom, donor atom, acceptor molecule, acceptor atom, score
      L1  H     5    48       P1  7948  2.00
      L1  H    11    40       P1  7948  1.00
      P1  H  7997  8009       L1    19  1.00
      L1  C    16    43       P1  7957  0.54

> <Gold.PLP.Chemscore.Internal.Correction>
0.0555

> <Gold.Rescore>
     Score         DG    S(hbond)    S(metal)    S(lipo)     H(rot)  DE(clash)    DE(int)     intcor
     13.32     -16.94       2.94        0.00      70.13       2.57       0.63       2.98       ----

> <Gold.Chemscore.Fitness>
13.3248

> <Gold.Chemscore.DG>
-16.9374

> <Gold.Chemscore.ZeroCoef>
-5.4800

> <Gold.Chemscore.Hbond>
2.9431

> <Gold.Chemscore.Metal>
0.0000

> <Gold.Chemscore.Lipo>
70.1253

> <Gold.Chemscore.Internal_Hbond>
0.0000

> <Gold.Chemscore.DEClash>
0.6293

> <Gold.Chemscore.DEInternal>
2.9833

> <Gold.Chemscore.Rot>
2.5692

> <Gold.Chemscore.Internal.Correction>
   9.000000E+99

> <Gold.Chemscore.Hbonds>
donor molecule, donor type, donor heavy atom, donor atom, acceptor molecule, acceptor atom, score
      L1  H     5    48       P1  7948  0.92
      L1  H    11    40       P1  7948  1.00
      P1  H  7997  8009       L1    19  0.99

> <Gold.Chemscore.Hbond.Weighted>
-9.8299

> <Gold.Chemscore.Metal.Weighted>
-0.0000

> <Gold.Chemscore.Lipo.Weighted>
-8.2047

> <Gold.Chemscore.Internal_Hbond.Weighted>
0.0000

> <Gold.Chemscore.DEClash.Weighted>
0.6293

> <Gold.Chemscore.DEInternal.Weighted>
2.9833

> <Gold.Chemscore.Rot.Weighted>
6.5772

> <Gold.Chemscore.Internal.Correction.Weighted>
   9.000000E+99

> <Gold.Protein.RotatedTorsions>
[ 6907 6896 6895 6894 ] final  -31.59 input  -60.11 | X-H torsion
[ 7974 7965 7964 7962 ] final  169.98 input  175.53 | X-H torsion
[ 8008 7997 7996 7995 ] final  168.72 input   59.86 | X-H torsion
[ 10167 10162 10161 10158 ] final  -68.09 input  -65.29 | X-H torsion
[ 10718 10713 10712 10709 ] final  -41.95 input   66.30 | X-H torsion
[ 10763 10752 10751 10750 ] final  -69.32 input  -60.55 | X-H torsion
[ 11005 11000 10999 10996 ] final  112.04 input  -57.11 | X-H torsion

> <Gold.Protein.ActiveResidues>
 VAL166  LYS551  ARG553  GLY616  TRP617  ASP618  TYR619  PRO620  LYS621  CYS622 
 ASP623  PHE694  ASN695  SER759  ASP760  ASP761  ALA762  ILE779  LEU786  VAL792 
 PHE793  MET794  SER795  GLU796  ALA797  LYS798  CYS799  TRP800  GLU811  SER814 

> <Gold.Protein.RotatedAtoms>
  151.0901  134.9911  159.8398 H   0  0  0  0  0  0  0  0  0  0  0  0  # atno 6907 bound_to 6896
  152.5428  134.2076  159.8747 H   0  0  0  0  0  0  0  0  0  0  0  0  # atno 6908 bound_to 6896
  151.2111  133.4511  159.2631 H   0  0  0  0  0  0  0  0  0  0  0  0  # atno 6909 bound_to 6896
  144.7338  139.9135  143.6416 H   0  0  0  0  0  0  0  0  0  0  0  0  # atno 7974 bound_to 7965
  156.1522  140.1583  156.8751 H   0  0  0  0  0  0  0  0  0  0  0  0  # atno 8008 bound_to 7997
  154.5081  140.0808  156.7973 H   0  0  0  0  0  0  0  0  0  0  0  0  # atno 8009 bound_to 7997
  155.3874  140.3408  155.4252 H   0  0  0  0  0  0  0  0  0  0  0  0  # atno 8010 bound_to 7997
  140.5534  143.2312  151.6868 H   0  0  0  0  0  0  0  0  0  0  0  0  # atno 10167 bound_to 10162
  156.2649  130.4200  149.8502 H   0  0  0  0  0  0  0  0  0  0  0  0  # atno 10718 bound_to 10713
  154.4017  135.6029  153.5901 H   0  0  0  0  0  0  0  0  0  0  0  0  # atno 10763 bound_to 10752
  152.9788  135.5908  154.4177 H   0  0  0  0  0  0  0  0  0  0  0  0  # atno 10764 bound_to 10752
  154.3976  135.2842  155.2095 H   0  0  0  0  0  0  0  0  0  0  0  0  # atno 10765 bound_to 10752
  139.8917  134.9521  156.6524 H   0  0  0  0  0  0  0  0  0  0  0  0  # atno 11005 bound_to 11000
  146.0983  139.3977  143.0363 LP  0  0  0  0  0  0  0  0  0  0  0  0  # atno 17320 bound_to 7965
  145.7614  140.9933  143.1198 LP  0  0  0  0  0  0  0  0  0  0  0  0  # atno 17321 bound_to 7965
  139.5037  144.3782  152.0403 LP  0  0  0  0  0  0  0  0  0  0  0  0  # atno 17342 bound_to 10162
  140.2901  144.3764  150.6091 LP  0  0  0  0  0  0  0  0  0  0  0  0  # atno 17343 bound_to 10162
  156.6004  130.8544  151.3430 LP  0  0  0  0  0  0  0  0  0  0  0  0  # atno 17370 bound_to 10713
  157.7263  130.9628  150.1653 LP  0  0  0  0  0  0  0  0  0  0  0  0  # atno 17371 bound_to 10713
  140.7510  133.8897  155.8347 LP  0  0  0  0  0  0  0  0  0  0  0  0  # atno 17394 bound_to 11000
  141.0000  134.1163  157.4326 LP  0  0  0  0  0  0  0  0  0  0  0  0  # atno 17395 bound_to 11000

$$$$
