AV-unprocessed.smi:3098|AV-procd|sdf|11800|dock4
  -GOLD-   2272017173D 1   1.00000     0.00000
 Structure written by MMmdl.
 30 31  0  0  0  0  0  0  0  0  2 V2000
  143.3874  133.8722  148.0613 N   0  3  0  0  0  0  0  0  0  0  0  0
  143.7876  132.5454  148.5584 C   0  0  0  0  0  0  0  0  0  0  0  0
  144.6604  132.6675  149.7913 C   0  0  0  0  0  0  0  0  0  0  0  0
  145.0778  133.9306  150.2609 C   0  0  0  0  0  0  0  0  0  0  0  0
  145.8590  134.0963  151.3489 N   0  0  0  0  0  0  0  0  0  0  0  0
  146.2604  132.9943  152.0285 C   0  0  0  0  0  0  0  0  0  0  0  0
  147.0745  133.1697  153.1569 N   0  0  0  0  0  0  0  0  0  0  0  0
  148.4562  132.7547  152.9483 C   0  0  0  0  0  0  0  0  0  0  0  0
  149.2402  132.8550  154.2683 C   0  0  0  0  0  0  0  0  0  0  0  0
  149.1431  134.1807  154.7815 O   0  0  0  0  0  0  0  0  0  0  0  0
  147.7945  134.5524  155.0529 C   0  0  0  0  0  0  0  0  0  0  0  0
  146.9730  134.4961  153.7533 C   0  0  0  0  0  0  0  0  0  0  0  0
  145.8914  131.6880  151.6385 C   0  0  0  0  0  0  0  0  0  0  0  0
  146.3105  130.6073  152.3397 F   0  0  0  0  0  0  0  0  0  0  0  0
  145.0767  131.5233  150.5020 C   0  0  0  0  0  0  0  0  0  0  0  0
  142.7456  134.2981  148.7148 H   0  0  0  0  0  0  0  0  0  0  0  0
  142.9364  133.7744  147.1628 H   0  0  0  0  0  0  0  0  0  0  0  0
  142.8954  131.9633  148.7909 H   0  0  0  0  0  0  0  0  0  0  0  0
  144.3243  132.0125  147.7727 H   0  0  0  0  0  0  0  0  0  0  0  0
  144.7821  134.8332  149.7467 H   0  0  0  0  0  0  0  0  0  0  0  0
  148.4830  131.7308  152.5732 H   0  0  0  0  0  0  0  0  0  0  0  0
  148.9221  133.3886  152.1925 H   0  0  0  0  0  0  0  0  0  0  0  0
  148.8618  132.1411  155.0018 H   0  0  0  0  0  0  0  0  0  0  0  0
  150.2904  132.6147  154.1015 H   0  0  0  0  0  0  0  0  0  0  0  0
  147.3699  133.8926  155.8113 H   0  0  0  0  0  0  0  0  0  0  0  0
  147.7799  135.5618  155.4635 H   0  0  0  0  0  0  0  0  0  0  0  0
  147.3401  135.2466  153.0517 H   0  0  0  0  0  0  0  0  0  0  0  0
  145.9279  134.7295  153.9599 H   0  0  0  0  0  0  0  0  0  0  0  0
  144.7803  130.5349  150.1823 H   0  0  0  0  0  0  0  0  0  0  0  0
  144.2050  134.4575  147.9646 H   0  0  0  0  0  0  0  0  0  0  0  0
  1  2  1  0  0  0  0
  1 16  1  0  0  0  0
  1 17  1  0  0  0  0
  1 30  1  0  0  0  0
  2  3  1  0  0  0  0
  2 18  1  0  0  0  0
  2 19  1  0  0  0  0
  3 15  1  0  0  0  0
  3  4  2  0  0  0  0
  4  5  1  0  0  0  0
  4 20  1  0  0  0  0
  5  6  2  0  0  0  0
  6  7  1  0  0  0  0
  6 13  1  0  0  0  0
  7 12  1  0  0  0  0
  7  8  1  0  0  0  0
  8  9  1  0  0  0  0
  8 21  1  0  0  0  0
  8 22  1  0  0  0  0
  9 10  1  0  0  0  0
  9 23  1  0  0  0  0
  9 24  1  0  0  0  0
 10 11  1  0  0  0  0
 11 12  1  0  0  0  0
 11 25  1  0  0  0  0
 11 26  1  0  0  0  0
 12 27  1  0  0  0  0
 12 28  1  0  0  0  0
 13 14  1  0  0  0  0
 13 15  2  0  0  0  0
 15 29  1  0  0  0  0
M  CHG  1   1   1
M  END
> <s_m_source_file>
AV-unprocessed.smi

> <i_m_source_file_index>
3098

> <i_lp_mmshare_version>
43012

> <i_f3d_flags>
0

> <s_epik_input>
W05IMl1bQ0gyXWMxW2NIXW5jKGMoRilbY0hdMSlOMltDSDJdW0NIMl1PW0NIMl1bQ0gyXTI=

> <s_epik_cmdline>
J2VwaWtfcHl0aG9uJywgJy1waCcsICc3LjAnLCAnLXRuJywgJzgnLCAnLW1hJywgJzIwMCcsICctbWV0YWxfYmluZGluZycsICctaW1hZScsICc8aW5maWxlLm1hZT4nLCAnLW9tYWUnLCAnPG91dGZpbGUubWFlPic=

> <r_lp_tautomer_probability>
1

> <r_epik_Ionization_Penalty>
0.06982

> <r_epik_Ionization_Penalty_Charging>
0.0698168

> <r_epik_Ionization_Penalty_Neutral>
3.20429e-06

> <r_epik_State_Penalty>
0.0611812

> <r_epik_Charging_Adjusted_Penalty>
0.130998

> <i_epik_Tot_Q>
1

> <i_epik_Tot_abs_Q>
1

> <r_epik_Metal_State_Penalty>
0.0611834

> <b_epik_Metal_Only>
0

> <s_lp_Force_Field>
OPLS_2005

> <r_lp_Energy>
20.0675

> <b_lp_Chiralities_Consistent>
1

> <s_lp_Variant>
AV-unprocessed.smi:3098-1

> <Gold.Version>
5.8.1

> <Gold.Id.Protein>
6NUR|6NUR_protein|mol2

> <Gold.PLP.Fitness>
40.9715

> <Gold.PLP.PLP>
-28.4327

> <Gold.PLP.part.hbond>
-2.9278

> <Gold.PLP.part.metal>
0.0000

> <Gold.PLP.part.buried>
-3.0296

> <Gold.PLP.part.nonpolar>
-23.5465

> <Gold.PLP.part.repulsive>
0.6880

> <Gold.PLP.ligand.clash>
0.0000

> <Gold.PLP.ligand.torsion>
0.4664

> <Gold.PLP.Chemscore.Hbond>
3.9263

> <Gold.PLP.Chemscore.CHOScore>
0.5278

> <Gold.PLP.Chemscore.Metal>
0.0000

> <Gold.Chemscore.Hbonds>
donor molecule, donor type, donor heavy atom, donor atom, acceptor molecule, acceptor atom, score
      L1  H     1    16       P1 10186  2.00
      L1  H     1    17       P1 10195  0.93
      L1  H     1    30       P1  7921  1.00
      L1  C     4    20       P1  7921  0.49

> <Gold.PLP.Chemscore.Internal.Correction>
0.1094

> <Gold.Rescore>
     Score         DG    S(hbond)    S(metal)    S(lipo)     H(rot)  DE(clash)    DE(int)     intcor
     18.64     -19.35       2.85        0.00      66.42       1.34       0.15       0.56       ----

> <Gold.Chemscore.Fitness>
18.6370

> <Gold.Chemscore.DG>
-19.3454

> <Gold.Chemscore.ZeroCoef>
-5.4800

> <Gold.Chemscore.Hbond>
2.8533

> <Gold.Chemscore.Metal>
0.0000

> <Gold.Chemscore.Lipo>
66.4233

> <Gold.Chemscore.Internal_Hbond>
0.0000

> <Gold.Chemscore.DEClash>
0.1456

> <Gold.Chemscore.DEInternal>
0.5628

> <Gold.Chemscore.Rot>
1.3423

> <Gold.Chemscore.Internal.Correction>
   9.000000E+99

> <Gold.Chemscore.Hbonds>
donor molecule, donor type, donor heavy atom, donor atom, acceptor molecule, acceptor atom, score
      L1  H     1    16       P1 10186  0.95
      L1  H     1    17       P1 10195  0.87
      L1  H     1    30       P1  7921  0.96

> <Gold.Chemscore.Hbond.Weighted>
-9.5302

> <Gold.Chemscore.Metal.Weighted>
-0.0000

> <Gold.Chemscore.Lipo.Weighted>
-7.7715

> <Gold.Chemscore.Internal_Hbond.Weighted>
0.0000

> <Gold.Chemscore.DEClash.Weighted>
0.1456

> <Gold.Chemscore.DEInternal.Weighted>
0.5628

> <Gold.Chemscore.Rot.Weighted>
3.4363

> <Gold.Chemscore.Internal.Correction.Weighted>
   9.000000E+99

> <Gold.Protein.RotatedTorsions>
[ 6907 6896 6895 6894 ] final  -40.94 input  -60.11 | X-H torsion
[ 7974 7965 7964 7962 ] final -143.82 input  175.53 | X-H torsion
[ 8008 7997 7996 7995 ] final   -3.19 input   59.86 | X-H torsion
[ 10167 10162 10161 10158 ] final -111.21 input  -65.29 | X-H torsion
[ 10718 10713 10712 10709 ] final -116.75 input   66.30 | X-H torsion
[ 10763 10752 10751 10750 ] final   76.62 input  -60.55 | X-H torsion
[ 11005 11000 10999 10996 ] final -166.87 input  -57.11 | X-H torsion

> <Gold.Protein.ActiveResidues>
 VAL166  LYS551  ARG553  GLY616  TRP617  ASP618  TYR619  PRO620  LYS621  CYS622 
 ASP623  PHE694  ASN695  SER759  ASP760  ASP761  ALA762  ILE779  LEU786  VAL792 
 PHE793  MET794  SER795  GLU796  ALA797  LYS798  CYS799  TRP800  GLU811  SER814 

> <Gold.Protein.RotatedAtoms>
  150.9726  134.9096  159.7796 H   0  0  0  0  0  0  0  0  0  0  0  0  # atno 6907 bound_to 6896
  152.5195  134.3520  159.9264 H   0  0  0  0  0  0  0  0  0  0  0  0  # atno 6908 bound_to 6896
  151.3529  133.3878  159.2716 H   0  0  0  0  0  0  0  0  0  0  0  0  # atno 6909 bound_to 6896
  144.8342  140.5787  143.5495 H   0  0  0  0  0  0  0  0  0  0  0  0  # atno 7974 bound_to 7965
  154.6276  140.2515  155.7473 H   0  0  0  0  0  0  0  0  0  0  0  0  # atno 8008 bound_to 7997
  156.2461  140.2913  156.0532 H   0  0  0  0  0  0  0  0  0  0  0  0  # atno 8009 bound_to 7997
  155.1797  140.0388  157.2870 H   0  0  0  0  0  0  0  0  0  0  0  0  # atno 8010 bound_to 7997
  140.1360  143.4319  152.1594 H   0  0  0  0  0  0  0  0  0  0  0  0  # atno 10167 bound_to 10162
  156.0985  130.6152  150.9075 H   0  0  0  0  0  0  0  0  0  0  0  0  # atno 10718 bound_to 10713
  153.0738  135.4944  154.8362 H   0  0  0  0  0  0  0  0  0  0  0  0  # atno 10763 bound_to 10752
  154.7060  135.3010  154.9272 H   0  0  0  0  0  0  0  0  0  0  0  0  # atno 10764 bound_to 10752
  153.9981  135.6770  153.4810 H   0  0  0  0  0  0  0  0  0  0  0  0  # atno 10765 bound_to 10752
  140.5597  134.5346  157.5140 H   0  0  0  0  0  0  0  0  0  0  0  0  # atno 11005 bound_to 11000
  145.4831  139.1494  143.3751 LP  0  0  0  0  0  0  0  0  0  0  0  0  # atno 17320 bound_to 7965
  146.2642  140.4967  142.8841 LP  0  0  0  0  0  0  0  0  0  0  0  0  # atno 17321 bound_to 7965
  139.5495  144.7326  151.4478 LP  0  0  0  0  0  0  0  0  0  0  0  0  # atno 17342 bound_to 10162
  140.6788  143.8128  150.7094 LP  0  0  0  0  0  0  0  0  0  0  0  0  # atno 17343 bound_to 10162
  157.6151  131.0934  150.8725 LP  0  0  0  0  0  0  0  0  0  0  0  0  # atno 17370 bound_to 10713
  156.8858  130.5195  149.5288 LP  0  0  0  0  0  0  0  0  0  0  0  0  # atno 17371 bound_to 10713
  139.9414  134.7780  156.0669 LP  0  0  0  0  0  0  0  0  0  0  0  0  # atno 17394 bound_to 11000
  141.1122  133.6639  156.3006 LP  0  0  0  0  0  0  0  0  0  0  0  0  # atno 17395 bound_to 11000

$$$$
