#       Name:                AV-unprocessed.smi:1867
#       Creating user name   scv26
#       Creation time:       Fri Mar 27 09:28:06 2020


#       File generated by GOLD software.
#

@<TRIPOS>MOLECULE
AV-unprocessed.smi:1867
    55    58     1
SMALL
NO_CHARGES


@<TRIPOS>ATOM
      1 ****        -0.7436   3.2282  -0.4363 O.2            1 S1                 0.0000
      2 ****        -1.1708   2.0870  -0.5924 C.2            1 S1                 0.0000
      3 ****        -0.4035   0.9994  -0.8017 N.am           1 S1                 0.0000
      4 ****         1.0131   0.9032  -0.8460 C.ar           1 S1                 0.0000
      5 ****         1.8989   1.8511  -0.2824 C.ar           1 S1                 0.0000
      6 ****         3.2861   1.6294  -0.3793 C.ar           1 S1                 0.0000
      7 ****         3.7561   0.4620  -1.0266 C.ar           1 S1                 0.0000
      8 ****         5.1363   0.2069  -1.1497 N.pl3          1 S1                 0.0000
      9 ****         5.6397  -1.0575  -1.6635 C.3            1 S1                 0.0000
     10 ****         7.1557  -0.9649  -1.4990 C.3            1 S1                 0.0000
     11 ****         7.3160  -0.1121  -0.2407 C.3            1 S1                 0.0000
     12 ****         6.1153   0.8409  -0.2773 C.3            1 S1                 0.0000
     13 ****         2.9051  -0.4473  -1.5588 N.ar           1 S1                 0.0000
     14 ****         1.5772  -0.2309  -1.4629 C.ar           1 S1                 0.0000
     15 ****        -2.4922   1.8346  -0.5836 N.am           1 S1                 0.0000
     16 ****        -3.5929   2.7807  -0.3850 C.3            1 S1                 0.0000
     17 ****        -4.9240   2.0957  -0.1016 C.3            1 S1                 0.0000
     18 ****        -5.9503   3.1910  -0.4068 C.3            1 S1                 0.0000
     19 ****        -5.3281   4.0961  -1.4041 N.4            1 S1                 1.0000
     20 ****        -6.1269   4.2654  -2.6475 C.3            1 S1                 0.0000
     21 ****        -5.2742   4.8760  -3.7692 C.3            1 S1                 0.0000
     22 ****        -4.0906   3.9622  -4.1395 C.3            1 S1                 0.0000
     23 ****        -3.6949   3.0147  -2.9909 C.3            1 S1                 0.0000
     24 ****        -3.9137   3.6686  -1.6044 C.3            1 S1                 0.0000
     25 ****        -0.8979   0.1427  -1.0021 H              1 S1                 0.0000
     26 ****         1.5484   2.7332   0.2300 H              1 S1                 0.0000
     27 ****         3.9661   2.3561   0.0398 H              1 S1                 0.0000
     28 ****         5.2377  -1.8784  -1.0682 H              1 S1                 0.0000
     29 ****         5.3556  -1.2129  -2.7047 H              1 S1                 0.0000
     30 ****         7.6343  -1.9411  -1.4182 H              1 S1                 0.0000
     31 ****         7.5895  -0.4445  -2.3540 H              1 S1                 0.0000
     32 ****         7.2483  -0.7508   0.6410 H              1 S1                 0.0000
     33 ****         8.2709   0.4123  -0.2017 H              1 S1                 0.0000
     34 ****         6.3979   1.8032  -0.7057 H              1 S1                 0.0000
     35 ****         5.7245   1.0123   0.7263 H              1 S1                 0.0000
     36 ****         0.9439  -0.9898  -1.8988 H              1 S1                 0.0000
     37 ****        -2.7628   0.8747  -0.7439 H              1 S1                 0.0000
     38 ****        -3.3693   3.4201   0.4718 H              1 S1                 0.0000
     39 ****        -5.0696   1.2542  -0.7809 H              1 S1                 0.0000
     40 ****        -5.0002   1.7200   0.9194 H              1 S1                 0.0000
     41 ****        -6.8998   2.7698  -0.7404 H              1 S1                 0.0000
     42 ****        -6.1532   3.7739   0.4923 H              1 S1                 0.0000
     43 ****        -6.5172   3.3015  -2.9792 H              1 S1                 0.0000
     44 ****        -6.9891   4.8973  -2.4323 H              1 S1                 0.0000
     45 ****        -5.8846   5.0709  -4.6516 H              1 S1                 0.0000
     46 ****        -4.8978   5.8455  -3.4395 H              1 S1                 0.0000
     47 ****        -4.3377   3.3671  -5.0194 H              1 S1                 0.0000
     48 ****        -3.2392   4.5821  -4.4229 H              1 S1                 0.0000
     49 ****        -4.2877   2.1011  -3.0560 H              1 S1                 0.0000
     50 ****        -2.6565   2.7114  -3.1256 H              1 S1                 0.0000
     51 ****        -3.2872   4.5609  -1.5633 H              1 S1                 0.0000
     52 ****        -5.2804   5.0058  -0.9677 H              1 S1                 0.0000
     53 ****         0.2411   3.4011  -0.4601 LP             1 S1                 0.0000
     54 ****        -1.3805   3.9842  -0.2855 LP             1 S1                 0.0000
     55 ****         3.2553  -1.2653  -2.0152 LP             1 S1                 0.0000
@<TRIPOS>BOND
    1    1    2 2     
    2    2    3 am    
    3    2   15 am    
    4    3    4 1     
    5    3   25 1     
    6    4   14 ar    
    7    4    5 ar    
    8    5    6 ar    
    9    5   26 1     
   10    6    7 ar    
   11    6   27 1     
   12    7    8 1     
   13    7   13 ar    
   14    8   12 1     
   15    8    9 1     
   16    9   10 1     
   17    9   28 1     
   18    9   29 1     
   19   10   11 1     
   20   10   30 1     
   21   10   31 1     
   22   11   12 1     
   23   11   32 1     
   24   11   33 1     
   25   12   34 1     
   26   12   35 1     
   27   13   14 ar    
   28   14   36 1     
   29   15   16 1     
   30   15   37 1     
   31   16   24 1     
   32   16   17 1     
   33   16   38 1     
   34   17   18 1     
   35   17   39 1     
   36   17   40 1     
   37   18   19 1     
   38   18   41 1     
   39   18   42 1     
   40   19   24 1     
   41   19   20 1     
   42   19   52 1     
   43   20   21 1     
   44   20   43 1     
   45   20   44 1     
   46   21   22 1     
   47   21   45 1     
   48   21   46 1     
   49   22   23 1     
   50   22   47 1     
   51   22   48 1     
   52   23   24 1     
   53   23   49 1     
   54   23   50 1     
   55   24   51 1     
   56    1   53 1     
   57    1   54 1     
   58   13   55 1     
@<TRIPOS>SUBSTRUCTURE
      1 S1             1
@<TRIPOS>SET
LONE_PAIRS      STATIC     ATOMS    <user>   **** ""
3 53 54 55
DONOR_HYDROGENS      STATIC     ATOMS    <user>   **** ""
3 25 37 52
ATOM$BLUE        STATIC     ATOMS    COLORGROUP SYSTEM
3 53 54 55
ATOM$RED        STATIC     ATOMS    COLORGROUP SYSTEM
3 25 37 52
