AV-unprocessed.smi:1933|AV-procd|sdf|7819|dock9
  -GOLD-   22720 9563D 1   1.00000     0.00000
 Structure written by MMmdl.
 48 50  0  0  0  0  0  0  0  0  2 V2000
  144.7730  136.3388  153.0251 O   0  0  0  0  0  0  0  0  0  0  0  0
  145.9730  136.3379  152.7500 C   0  0  0  0  0  0  0  0  0  0  0  0
  146.8438  137.2407  153.2254 N   0  0  0  0  0  0  0  0  0  0  0  0
  146.5219  138.3503  154.1182 C   0  0  0  0  0  0  0  0  0  0  0  0
  147.1360  139.7021  153.6587 C   0  0  2  0  0  0  0  0  0  0  0  0
  148.5957  139.9392  154.1442 C   0  0  2  0  0  0  0  0  0  0  0  0
  149.4069  138.6622  154.3188 C   0  0  0  0  0  0  0  0  0  0  0  0
  150.5290  139.1164  155.2389 C   0  0  0  0  0  0  0  0  0  0  0  0
  149.8720  139.9628  156.1664 O   0  0  0  0  0  0  0  0  0  0  0  0
  148.7504  140.5763  155.5374 C   0  0  0  0  0  0  0  0  0  0  0  0
  146.2787  140.8600  154.0565 N   0  3  0  0  0  0  0  0  0  0  0  0
  145.7310  140.7690  155.4319 C   0  0  0  0  0  0  0  0  0  0  0  0
  144.7063  141.8925  155.6659 C   0  0  0  0  0  0  0  0  0  0  0  0
  145.3129  143.1563  155.4221 O   0  0  0  0  0  0  0  0  0  0  0  0
  145.7741  143.2818  154.0817 C   0  0  0  0  0  0  0  0  0  0  0  0
  146.8422  142.2111  153.8048 C   0  0  0  0  0  0  0  0  0  0  0  0
  146.5895  135.4443  151.9569 N   0  0  0  0  0  0  0  0  0  0  0  0
  146.0332  134.3030  151.3210 C   0  0  0  0  0  0  0  0  0  0  0  0
  144.6342  134.3504  151.1266 C   0  0  0  0  0  0  0  0  0  0  0  0
  143.9852  133.2700  150.4984 C   0  0  0  0  0  0  0  0  0  0  0  0
  144.7534  132.1690  150.0794 C   0  0  0  0  0  0  0  0  0  0  0  0
  146.1410  132.2025  150.3097 C   0  0  0  0  0  0  0  0  0  0  0  0
  146.7651  133.2368  150.9120 N   0  0  0  0  0  0  0  0  0  0  0  0
  147.8091  137.1557  152.9417 H   0  0  0  0  0  0  0  0  0  0  0  0
  145.4348  138.4178  154.1437 H   0  0  0  0  0  0  0  0  0  0  0  0
  146.8327  138.1225  155.1386 H   0  0  0  0  0  0  0  0  0  0  0  0
  147.1675  139.7002  152.5679 H   0  0  0  0  0  0  0  0  0  0  0  0
  149.1196  140.5734  153.4275 H   0  0  0  0  0  0  0  0  0  0  0  0
  148.8119  137.8924  154.8128 H   0  0  0  0  0  0  0  0  0  0  0  0
  149.7798  138.2571  153.3776 H   0  0  0  0  0  0  0  0  0  0  0  0
  151.0322  138.2872  155.7363 H   0  0  0  0  0  0  0  0  0  0  0  0
  151.2731  139.6929  154.6870 H   0  0  0  0  0  0  0  0  0  0  0  0
  148.9105  141.6520  155.4692 H   0  0  0  0  0  0  0  0  0  0  0  0
  147.8749  140.4028  156.1637 H   0  0  0  0  0  0  0  0  0  0  0  0
  145.2502  139.8017  155.5816 H   0  0  0  0  0  0  0  0  0  0  0  0
  146.5351  140.8459  156.1645 H   0  0  0  0  0  0  0  0  0  0  0  0
  143.8352  141.7649  155.0211 H   0  0  0  0  0  0  0  0  0  0  0  0
  144.3471  141.8648  156.6947 H   0  0  0  0  0  0  0  0  0  0  0  0
  144.9389  143.1904  153.3852 H   0  0  0  0  0  0  0  0  0  0  0  0
  146.1956  144.2779  153.9448 H   0  0  0  0  0  0  0  0  0  0  0  0
  147.7021  142.3906  154.4514 H   0  0  0  0  0  0  0  0  0  0  0  0
  147.1871  142.2971  152.7749 H   0  0  0  0  0  0  0  0  0  0  0  0
  147.5777  135.5834  151.8062 H   0  0  0  0  0  0  0  0  0  0  0  0
  144.0592  135.2046  151.4540 H   0  0  0  0  0  0  0  0  0  0  0  0
  142.9168  133.2870  150.3411 H   0  0  0  0  0  0  0  0  0  0  0  0
  144.2918  131.3221  149.5938 H   0  0  0  0  0  0  0  0  0  0  0  0
  146.7673  131.3782  150.0019 H   0  0  0  0  0  0  0  0  0  0  0  0
  145.4700  140.7909  153.4552 H   0  0  0  0  0  0  0  0  0  0  0  0
  1  2  2  0  0  0  0
  2  3  1  0  0  0  0
  2 17  1  0  0  0  0
  3  4  1  0  0  0  0
  3 24  1  0  0  0  0
  4  5  1  0  0  0  0
  4 25  1  0  0  0  0
  4 26  1  0  0  0  0
  5  6  1  0  0  0  0
  5 11  1  0  0  0  0
  5 27  1  0  0  0  0
  6 10  1  0  0  0  0
  6  7  1  0  0  0  0
  6 28  1  0  0  0  0
  7  8  1  0  0  0  0
  7 29  1  0  0  0  0
  7 30  1  0  0  0  0
  8  9  1  0  0  0  0
  8 31  1  0  0  0  0
  8 32  1  0  0  0  0
  9 10  1  0  0  0  0
 10 33  1  0  0  0  0
 10 34  1  0  0  0  0
 11 16  1  0  0  0  0
 11 12  1  0  0  0  0
 11 48  1  0  0  0  0
 12 13  1  0  0  0  0
 12 35  1  0  0  0  0
 12 36  1  0  0  0  0
 13 14  1  0  0  0  0
 13 37  1  0  0  0  0
 13 38  1  0  0  0  0
 14 15  1  0  0  0  0
 15 16  1  0  0  0  0
 15 39  1  0  0  0  0
 15 40  1  0  0  0  0
 16 41  1  0  0  0  0
 16 42  1  0  0  0  0
 17 18  1  0  0  0  0
 17 43  1  0  0  0  0
 18 23  1  0  0  0  0
 18 19  2  0  0  0  0
 19 20  1  0  0  0  0
 19 44  1  0  0  0  0
 20 21  2  0  0  0  0
 20 45  1  0  0  0  0
 21 22  1  0  0  0  0
 21 46  1  0  0  0  0
 22 23  2  0  0  0  0
 22 47  1  0  0  0  0
M  CHG  1  11   1
M  END
> <s_m_source_file>
AV-unprocessed.smi

> <i_m_source_file_index>
1933

> <i_lp_mmshare_version>
43012

> <i_f3d_flags>
0

> <s_epik_input>
bjFbY0hdW2NIXVtjSF1bY0hdYzFbTkhdQyg9TylbTkhdW0NIMl1bQ0BIXShbQ0BASF0yW0NIMl1bQ0gyXU9bQ0gyXTIpTjNbQ0gyXVtDSDJdT1tDSDJdW0NIMl0z

> <s_epik_cmdline>
J2VwaWtfcHl0aG9uJywgJy1waCcsICc3LjAnLCAnLXRuJywgJzgnLCAnLW1hJywgJzIwMCcsICctbWV0YWxfYmluZGluZycsICctaW1hZScsICc8aW5maWxlLm1hZT4nLCAnLW9tYWUnLCAnPG91dGZpbGUubWFlPic=

> <r_epik_Ionization_Penalty>
0.983294

> <r_epik_Ionization_Penalty_Charging>
0.98326

> <r_epik_Ionization_Penalty_Neutral>
3.39688e-05

> <r_epik_State_Penalty>
1.0303

> <r_epik_Charging_Adjusted_Penalty>
2.01356

> <i_epik_Tot_Q>
1

> <i_epik_Tot_abs_Q>
1

> <r_epik_Metal_State_Penalty>
1.0303

> <b_epik_Metal_Only>
0

> <s_lp_Force_Field>
OPLS_2005

> <r_lp_Energy>
40.1747

> <b_lp_Chiralities_Consistent>
1

> <s_lp_Variant>
AV-unprocessed.smi:1933-5

> <Gold.Version>
5.8.1

> <Gold.Id.Protein>
6NUR|6NUR_protein|mol2

> <Gold.PLP.Fitness>
48.7854

> <Gold.PLP.PLP>
-36.3301

> <Gold.PLP.part.hbond>
-3.0000

> <Gold.PLP.part.metal>
0.0000

> <Gold.PLP.part.buried>
-5.2809

> <Gold.PLP.part.nonpolar>
-28.9305

> <Gold.PLP.part.repulsive>
0.5684

> <Gold.PLP.ligand.clash>
0.0000

> <Gold.PLP.ligand.torsion>
1.3694

> <Gold.PLP.Chemscore.Hbond>
3.9920

> <Gold.PLP.Chemscore.CHOScore>
1.0000

> <Gold.PLP.Chemscore.Metal>
0.0000

> <Gold.Chemscore.Hbonds>
donor molecule, donor type, donor heavy atom, donor atom, acceptor molecule, acceptor atom, score
      L1  H     3    24       P1  7948  0.88
      L1  H    11    48       P1 10175  1.89
      L1  H    17    43       P1  7948  0.88
      L1  C    22    47       P1 10747  1.00

> <Gold.PLP.Chemscore.Internal.Correction>
0.2180

> <Gold.Rescore>
     Score         DG    S(hbond)    S(metal)    S(lipo)     H(rot)  DE(clash)    DE(int)     intcor
     17.00     -20.79       2.88        0.00      87.14       1.77       0.31       3.48       ----

> <Gold.Chemscore.Fitness>
16.9993

> <Gold.Chemscore.DG>
-20.7865

> <Gold.Chemscore.ZeroCoef>
-5.4800

> <Gold.Chemscore.Hbond>
2.8848

> <Gold.Chemscore.Metal>
0.0000

> <Gold.Chemscore.Lipo>
87.1386

> <Gold.Chemscore.Internal_Hbond>
0.0000

> <Gold.Chemscore.DEClash>
0.3118

> <Gold.Chemscore.DEInternal>
3.4754

> <Gold.Chemscore.Rot>
1.7671

> <Gold.Chemscore.Internal.Correction>
   9.000000E+99

> <Gold.Chemscore.Hbonds>
donor molecule, donor type, donor heavy atom, donor atom, acceptor molecule, acceptor atom, score
      L1  H     3    24       P1  7948  0.87
      L1  H    11    48       P1 10175  0.74
      L1  H    17    43       P1  7948  0.85

> <Gold.Chemscore.Hbond.Weighted>
-9.6351

> <Gold.Chemscore.Metal.Weighted>
-0.0000

> <Gold.Chemscore.Lipo.Weighted>
-10.1952

> <Gold.Chemscore.Internal_Hbond.Weighted>
0.0000

> <Gold.Chemscore.DEClash.Weighted>
0.3118

> <Gold.Chemscore.DEInternal.Weighted>
3.4754

> <Gold.Chemscore.Rot.Weighted>
4.5238

> <Gold.Chemscore.Internal.Correction.Weighted>
   9.000000E+99

> <Gold.Protein.RotatedTorsions>
[ 6907 6896 6895 6894 ] final  109.88 input  -60.11 | X-H torsion
[ 7974 7965 7964 7962 ] final  -71.53 input  175.53 | X-H torsion
[ 8008 7997 7996 7995 ] final -166.83 input   59.86 | X-H torsion
[ 10167 10162 10161 10158 ] final  -77.45 input  -65.29 | X-H torsion
[ 10718 10713 10712 10709 ] final  -11.37 input   66.30 | X-H torsion
[ 10763 10752 10751 10750 ] final -156.80 input  -60.55 | X-H torsion
[ 11005 11000 10999 10996 ] final   71.90 input  -57.11 | X-H torsion

> <Gold.Protein.ActiveResidues>
 VAL166  LYS551  ARG553  GLY616  TRP617  ASP618  TYR619  PRO620  LYS621  CYS622 
 ASP623  PHE694  ASN695  SER759  ASP760  ASP761  ALA762  ILE779  LEU786  VAL792 
 PHE793  MET794  SER795  GLU796  ALA797  LYS798  CYS799  TRP800  GLU811  SER814 

> <Gold.Protein.RotatedAtoms>
  152.5046  133.8880  159.7379 H   0  0  0  0  0  0  0  0  0  0  0  0  # atno 6907 bound_to 6896
  150.9326  133.6741  159.2814 H   0  0  0  0  0  0  0  0  0  0  0  0  # atno 6908 bound_to 6896
  151.4080  135.0985  159.9629 H   0  0  0  0  0  0  0  0  0  0  0  0  # atno 6909 bound_to 6896
  145.6769  140.9201  143.0853 H   0  0  0  0  0  0  0  0  0  0  0  0  # atno 7974 bound_to 7965
  155.8693  140.0991  157.1561 H   0  0  0  0  0  0  0  0  0  0  0  0  # atno 8008 bound_to 7997
  154.3996  140.1350  156.4121 H   0  0  0  0  0  0  0  0  0  0  0  0  # atno 8009 bound_to 7997
  155.7768  140.3459  155.5278 H   0  0  0  0  0  0  0  0  0  0  0  0  # atno 8010 bound_to 7997
  140.4769  143.2412  151.8119 H   0  0  0  0  0  0  0  0  0  0  0  0  # atno 10167 bound_to 10162
  156.6600  130.4979  149.6033 H   0  0  0  0  0  0  0  0  0  0  0  0  # atno 10718 bound_to 10713
  154.7685  135.3138  154.8238 H   0  0  0  0  0  0  0  0  0  0  0  0  # atno 10763 bound_to 10752
  153.8980  135.6818  153.4761 H   0  0  0  0  0  0  0  0  0  0  0  0  # atno 10764 bound_to 10752
  153.1295  135.4786  154.9259 H   0  0  0  0  0  0  0  0  0  0  0  0  # atno 10765 bound_to 10752
  139.9519  134.7212  156.0843 H   0  0  0  0  0  0  0  0  0  0  0  0  # atno 11005 bound_to 11000
  144.7038  139.8645  143.7436 LP  0  0  0  0  0  0  0  0  0  0  0  0  # atno 17320 bound_to 7965
  146.0998  139.3992  143.0354 LP  0  0  0  0  0  0  0  0  0  0  0  0  # atno 17321 bound_to 7965
  139.4827  144.4822  151.9292 LP  0  0  0  0  0  0  0  0  0  0  0  0  # atno 17342 bound_to 10162
  140.3907  144.2619  150.5900 LP  0  0  0  0  0  0  0  0  0  0  0  0  # atno 17343 bound_to 10162
  156.2018  130.6624  151.1175 LP  0  0  0  0  0  0  0  0  0  0  0  0  # atno 17370 bound_to 10713
  157.7113  131.0733  150.6491 LP  0  0  0  0  0  0  0  0  0  0  0  0  # atno 17371 bound_to 10713
  141.1183  133.6621  156.3150 LP  0  0  0  0  0  0  0  0  0  0  0  0  # atno 17394 bound_to 11000
  140.5700  134.5850  157.5455 LP  0  0  0  0  0  0  0  0  0  0  0  0  # atno 17395 bound_to 11000

$$$$
