AV-unprocessed.smi:208|AV-procd|sdf|1606|dock1
  -GOLD-   2262019523D 1   1.00000     0.00000
 Structure written by MMmdl.
 50 53  0  0  0  0  0  0  0  0  1 V2000
  146.2022  129.5027  151.5703 C   0  0  0  0  0  0  0  0  0  0  0  0
  146.2476  130.8527  152.3030 C   0  0  0  0  0  0  0  0  0  0  0  0
  146.4244  132.0913  151.3815 C   0  0  1  0  0  0  0  0  0  0  0  0
  145.4799  131.9780  150.1639 C   0  0  0  0  0  0  0  0  0  0  0  0
  145.7201  131.1119  149.3209 O   0  0  0  0  0  0  0  0  0  0  0  0
  144.4292  132.8243  150.0444 N   0  0  0  0  0  0  0  0  0  0  0  0
  143.5289  132.7372  148.8936 C   0  0  0  0  0  0  0  0  0  0  0  0
  144.1082  133.8920  151.0000 C   0  0  0  0  0  0  0  0  0  0  0  0
  144.8519  133.7844  152.3386 C   0  0  0  0  0  0  0  0  0  0  0  0
  146.2270  133.3492  152.1170 N   0  0  0  0  0  0  0  0  0  0  0  0
  147.1903  133.7613  152.9836 C   0  0  0  0  0  0  0  0  0  0  0  0
  148.2454  132.9420  153.2392 N   0  0  0  0  0  0  0  0  0  0  0  0
  149.2259  133.3342  154.0566 C   0  0  0  0  0  0  0  0  0  0  0  0
  149.3489  134.4858  154.7174 N   0  0  0  0  0  0  0  0  0  0  0  0
  148.2869  135.3073  154.4834 C   0  0  0  0  0  0  0  0  0  0  0  0
  147.1744  135.0271  153.6385 C   0  0  0  0  0  0  0  0  0  0  0  0
  146.2901  136.0994  153.6592 N   0  0  0  0  0  0  0  0  0  0  0  0
  146.8543  136.9678  154.4517 C   0  0  0  0  0  0  0  0  0  0  0  0
  148.0530  136.5706  154.9994 N   0  0  0  0  0  0  0  0  0  0  0  0
  148.8857  137.3410  155.9116 C   0  0  0  0  0  0  0  0  0  0  0  0
  150.1848  137.8867  155.2859 C   0  0  0  0  0  0  0  0  0  0  0  0
  151.0907  136.7027  154.8878 C   0  0  0  0  0  0  0  0  0  0  0  0
  151.9920  137.0345  153.8502 O   0  0  0  0  0  0  0  0  0  0  0  0
  150.0202  138.9902  154.2301 C   0  0  0  0  0  0  0  0  0  0  0  0
  150.9192  139.8760  154.9329 O   0  0  0  0  0  0  0  0  0  0  0  0
  150.8551  139.0119  156.0883 C   0  0  0  0  0  0  0  0  0  0  0  0
  145.9237  128.7043  152.2581 H   0  0  0  0  0  0  0  0  0  0  0  0
  147.1674  129.2333  151.1452 H   0  0  0  0  0  0  0  0  0  0  0  0
  145.4687  129.5145  150.7639 H   0  0  0  0  0  0  0  0  0  0  0  0
  145.3068  130.9381  152.8488 H   0  0  0  0  0  0  0  0  0  0  0  0
  147.0232  130.8274  153.0686 H   0  0  0  0  0  0  0  0  0  0  0  0
  147.4260  132.0602  150.9574 H   0  0  0  0  0  0  0  0  0  0  0  0
  142.9698  131.8008  148.9174 H   0  0  0  0  0  0  0  0  0  0  0  0
  144.0879  132.7785  147.9575 H   0  0  0  0  0  0  0  0  0  0  0  0
  142.8072  133.5548  148.8756 H   0  0  0  0  0  0  0  0  0  0  0  0
  144.3714  134.8381  150.5248 H   0  0  0  0  0  0  0  0  0  0  0  0
  143.0336  133.9257  151.1846 H   0  0  0  0  0  0  0  0  0  0  0  0
  144.8069  134.7516  152.8415 H   0  0  0  0  0  0  0  0  0  0  0  0
  144.3510  133.0662  152.9885 H   0  0  0  0  0  0  0  0  0  0  0  0
  150.0281  132.6252  154.1989 H   0  0  0  0  0  0  0  0  0  0  0  0
  146.4033  137.9256  154.6671 H   0  0  0  0  0  0  0  0  0  0  0  0
  148.2787  138.1556  156.3087 H   0  0  0  0  0  0  0  0  0  0  0  0
  149.1211  136.7078  156.7679 H   0  0  0  0  0  0  0  0  0  0  0  0
  151.6716  136.3539  155.7422 H   0  0  0  0  0  0  0  0  0  0  0  0
  150.5006  135.8559  154.5372 H   0  0  0  0  0  0  0  0  0  0  0  0
  151.5351  136.9803  153.0246 H   0  0  0  0  0  0  0  0  0  0  0  0
  150.3843  138.7190  153.2386 H   0  0  0  0  0  0  0  0  0  0  0  0
  149.0157  139.4103  154.1732 H   0  0  0  0  0  0  0  0  0  0  0  0
  150.2227  139.4342  156.8710 H   0  0  0  0  0  0  0  0  0  0  0  0
  151.8400  138.7618  156.4837 H   0  0  0  0  0  0  0  0  0  0  0  0
  1  2  1  0  0  0  0
  1 27  1  0  0  0  0
  1 28  1  0  0  0  0
  1 29  1  0  0  0  0
  2  3  1  0  0  0  0
  2 30  1  0  0  0  0
  2 31  1  0  0  0  0
  3 10  1  0  0  0  0
  3  4  1  0  0  0  0
  3 32  1  0  0  0  0
  4  5  2  0  0  0  0
  4  6  1  0  0  0  0
  6  7  1  0  0  0  0
  6  8  1  0  0  0  0
  7 33  1  0  0  0  0
  7 34  1  0  0  0  0
  7 35  1  0  0  0  0
  8  9  1  0  0  0  0
  8 36  1  0  0  0  0
  8 37  1  0  0  0  0
  9 10  1  0  0  0  0
  9 38  1  0  0  0  0
  9 39  1  0  0  0  0
 10 11  1  0  0  0  0
 11 16  1  0  0  0  0
 11 12  2  0  0  0  0
 12 13  1  0  0  0  0
 13 14  2  0  0  0  0
 13 40  1  0  0  0  0
 14 15  1  0  0  0  0
 15 19  1  0  0  0  0
 15 16  2  0  0  0  0
 16 17  1  0  0  0  0
 17 18  2  0  0  0  0
 18 19  1  0  0  0  0
 18 41  1  0  0  0  0
 19 20  1  0  0  0  0
 20 21  1  0  0  0  0
 20 42  1  0  0  0  0
 20 43  1  0  0  0  0
 21 26  1  0  0  0  0
 21 22  1  0  0  0  0
 21 24  1  0  0  0  0
 22 23  1  0  0  0  0
 22 44  1  0  0  0  0
 22 45  1  0  0  0  0
 23 46  1  0  0  0  0
 24 25  1  0  0  0  0
 24 47  1  0  0  0  0
 24 48  1  0  0  0  0
 25 26  1  0  0  0  0
 26 49  1  0  0  0  0
 26 50  1  0  0  0  0
M  END
> <s_m_source_file>
AV-unprocessed.smi

> <i_m_source_file_index>
208

> <i_lp_mmshare_version>
43012

> <i_f3d_flags>
0

> <s_epik_input>
W0NIM11bQ0gyXVtDQEBIXTFDKD1PKU4oW0NIM10pW0NIMl1bQ0gyXU4xYyhuW2NIXW4yKWMoYzIzKW5bY0hdbjNbQ0gyXUM0KFtDSDJdW09IXSlbQ0gyXU9bQ0gyXTQ=

> <s_epik_cmdline>
J2VwaWtfcHl0aG9uJywgJy1waCcsICc3LjAnLCAnLXRuJywgJzgnLCAnLW1hJywgJzIwMCcsICctbWV0YWxfYmluZGluZycsICctaW1hZScsICc8aW5maWxlLm1hZT4nLCAnLW9tYWUnLCAnPG91dGZpbGUubWFlPic=

> <r_lp_tautomer_probability>
1

> <r_epik_Ionization_Penalty>
0.000581289

> <r_epik_Ionization_Penalty_Charging>
0

> <r_epik_Ionization_Penalty_Neutral>
0.000581289

> <r_epik_State_Penalty>
0.000280365

> <r_epik_Charging_Adjusted_Penalty>
0.000280365

> <i_epik_Tot_Q>
0

> <i_epik_Tot_abs_Q>
0

> <r_epik_Metal_State_Penalty>
-0

> <b_epik_Metal_Only>
0

> <s_lp_Force_Field>
OPLS_2005

> <r_lp_Energy>
42.9171

> <b_lp_Chiralities_Consistent>
1

> <s_lp_Variant>
AV-unprocessed.smi:208-2

> <Gold.Version>
5.8.1

> <Gold.Id.Protein>
6NUR|6NUR_protein|mol2

> <Gold.PLP.Fitness>
41.7046

> <Gold.PLP.PLP>
-34.1177

> <Gold.PLP.part.hbond>
-4.0000

> <Gold.PLP.part.metal>
0.0000

> <Gold.PLP.part.buried>
2.7432

> <Gold.PLP.part.nonpolar>
-33.1331

> <Gold.PLP.part.repulsive>
0.5897

> <Gold.PLP.ligand.clash>
0.0000

> <Gold.PLP.ligand.torsion>
0.9720

> <Gold.PLP.Chemscore.Hbond>
2.9920

> <Gold.PLP.Chemscore.CHOScore>
0.0000

> <Gold.PLP.Chemscore.Metal>
0.0000

> <Gold.Chemscore.Hbonds>
donor molecule, donor type, donor heavy atom, donor atom, acceptor molecule, acceptor atom, score
      L1  H    23    46       P1  7949  0.94
      P1  H  7989  7998       L1    25  1.00
      P1  H 10752 10765       L1    23  1.00

> <Gold.PLP.Chemscore.Internal.Correction>
0.5550

> <Gold.Rescore>
     Score         DG    S(hbond)    S(metal)    S(lipo)     H(rot)  DE(clash)    DE(int)     intcor
      4.97     -15.49       2.11        0.00      79.17       2.46       4.93       5.59       ----

> <Gold.Chemscore.Fitness>
4.9738

> <Gold.Chemscore.DG>
-15.4880

> <Gold.Chemscore.ZeroCoef>
-5.4800

> <Gold.Chemscore.Hbond>
2.1085

> <Gold.Chemscore.Metal>
0.0000

> <Gold.Chemscore.Lipo>
79.1690

> <Gold.Chemscore.Internal_Hbond>
0.0000

> <Gold.Chemscore.DEClash>
4.9285

> <Gold.Chemscore.DEInternal>
5.5857

> <Gold.Chemscore.Rot>
2.4598

> <Gold.Chemscore.Internal.Correction>
   9.000000E+99

> <Gold.Chemscore.Hbonds>
donor molecule, donor type, donor heavy atom, donor atom, acceptor molecule, acceptor atom, score
      L1  H    23    46       P1  7949  0.85
      P1  H  7989  7998       L1    25  0.30
      P1  H 10752 10765       L1    23  0.20

> <Gold.Chemscore.Hbond.Weighted>
-7.0424

> <Gold.Chemscore.Metal.Weighted>
-0.0000

> <Gold.Chemscore.Lipo.Weighted>
-9.2628

> <Gold.Chemscore.Internal_Hbond.Weighted>
0.0000

> <Gold.Chemscore.DEClash.Weighted>
4.9285

> <Gold.Chemscore.DEInternal.Weighted>
5.5857

> <Gold.Chemscore.Rot.Weighted>
6.2972

> <Gold.Chemscore.Internal.Correction.Weighted>
   9.000000E+99

> <Gold.Protein.RotatedTorsions>
[ 6907 6896 6895 6894 ] final    9.53 input  -60.11 | X-H torsion
[ 7974 7965 7964 7962 ] final -148.32 input  175.53 | X-H torsion
[ 8008 7997 7996 7995 ] final  148.07 input   59.86 | X-H torsion
[ 10167 10162 10161 10158 ] final   64.97 input  -65.29 | X-H torsion
[ 10718 10713 10712 10709 ] final  -66.41 input   66.30 | X-H torsion
[ 10763 10752 10751 10750 ] final  136.49 input  -60.55 | X-H torsion
[ 11005 11000 10999 10996 ] final -166.34 input  -57.11 | X-H torsion

> <Gold.Protein.ActiveResidues>
 VAL166  LYS551  ARG553  GLY616  TRP617  ASP618  TYR619  PRO620  LYS621  CYS622 
 ASP623  PHE694  ASN695  SER759  ASP760  ASP761  ALA762  ILE779  LEU786  VAL792 
 PHE793  MET794  SER795  GLU796  ALA797  LYS798  CYS799  TRP800  GLU811  SER814 

> <Gold.Protein.RotatedAtoms>
  151.7237  135.0889  160.0288 H   0  0  0  0  0  0  0  0  0  0  0  0  # atno 6907 bound_to 6896
  152.3586  133.6264  159.6006 H   0  0  0  0  0  0  0  0  0  0  0  0  # atno 6908 bound_to 6896
  150.7588  133.9377  159.3488 H   0  0  0  0  0  0  0  0  0  0  0  0  # atno 6909 bound_to 6896
  144.8037  140.5212  143.5690 H   0  0  0  0  0  0  0  0  0  0  0  0  # atno 7974 bound_to 7965
  156.2803  140.2138  156.5640 H   0  0  0  0  0  0  0  0  0  0  0  0  # atno 8008 bound_to 7997
  154.7190  140.0505  157.0644 H   0  0  0  0  0  0  0  0  0  0  0  0  # atno 8009 bound_to 7997
  155.0504  140.3155  155.4697 H   0  0  0  0  0  0  0  0  0  0  0  0  # atno 8010 bound_to 7997
  140.1164  144.4772  150.6947 H   0  0  0  0  0  0  0  0  0  0  0  0  # atno 10167 bound_to 10162
  156.0614  130.4261  150.1705 H   0  0  0  0  0  0  0  0  0  0  0  0  # atno 10718 bound_to 10713
  153.8574  135.3071  155.3436 H   0  0  0  0  0  0  0  0  0  0  0  0  # atno 10763 bound_to 10752
  154.7864  135.4807  153.9958 H   0  0  0  0  0  0  0  0  0  0  0  0  # atno 10764 bound_to 10752
  153.1482  135.6838  153.9017 H   0  0  0  0  0  0  0  0  0  0  0  0  # atno 10765 bound_to 10752
  140.5656  134.5289  157.5152 H   0  0  0  0  0  0  0  0  0  0  0  0  # atno 11005 bound_to 11000
  145.5490  139.1476  143.3404 LP  0  0  0  0  0  0  0  0  0  0  0  0  # atno 17320 bound_to 7965
  146.2324  140.5629  142.8969 LP  0  0  0  0  0  0  0  0  0  0  0  0  # atno 17321 bound_to 7965
  140.6897  143.2369  151.5165 LP  0  0  0  0  0  0  0  0  0  0  0  0  # atno 17342 bound_to 10162
  139.5592  144.2199  152.1663 LP  0  0  0  0  0  0  0  0  0  0  0  0  # atno 17343 bound_to 10162
  156.9772  130.9853  151.3445 LP  0  0  0  0  0  0  0  0  0  0  0  0  # atno 17370 bound_to 10713
  157.5625  130.8255  149.8284 LP  0  0  0  0  0  0  0  0  0  0  0  0  # atno 17371 bound_to 10713
  139.9386  134.7828  156.0736 LP  0  0  0  0  0  0  0  0  0  0  0  0  # atno 17394 bound_to 11000
  141.1088  133.6650  156.2927 LP  0  0  0  0  0  0  0  0  0  0  0  0  # atno 17395 bound_to 11000

$$$$
