AV-unprocessed.smi:2520|AV-procd|sdf|9907|dock9
  -GOLD-   2272013543D 1   1.00000     0.00000
 Structure written by MMmdl.
 41 44  0  0  0  0  0  0  0  0  1 V2000
  145.5249  138.6730  153.0377 O   0  0  0  0  0  0  0  0  0  0  0  0
  146.4375  137.9217  152.6994 C   0  0  0  0  0  0  0  0  0  0  0  0
  147.7265  138.2380  152.9456 N   0  0  0  0  0  0  0  0  0  0  0  0
  148.3135  139.3737  153.5765 C   0  0  0  0  0  0  0  0  0  0  0  0
  147.4975  140.5252  153.5992 C   0  0  0  0  0  0  0  0  0  0  0  0
  148.0023  141.6927  154.1965 C   0  0  0  0  0  0  0  0  0  0  0  0
  149.2999  141.6319  154.7323 C   0  0  0  0  0  0  0  0  0  0  0  0
  150.0502  140.5101  154.6858 N   0  0  0  0  0  0  0  0  0  0  0  0
  149.5618  139.4038  154.1152 N   0  0  0  0  0  0  0  0  0  0  0  0
  146.2217  136.7538  152.0750 N   0  0  0  0  0  0  0  0  0  0  0  0
  144.9173  136.2539  151.6597 C   0  0  2  0  0  0  0  0  0  0  0  0
  143.9321  136.1614  152.8244 C   0  0  1  0  0  0  0  0  0  0  0  0
  142.6801  136.8773  153.1866 C   0  0  0  0  0  0  0  0  0  0  0  0
  141.8172  135.6369  153.5387 C   0  0  0  0  0  0  0  0  0  0  0  0
  142.5702  134.4867  153.0839 O   0  0  0  0  0  0  0  0  0  0  0  0
  143.3712  134.9949  152.0361 C   0  0  2  0  0  0  0  0  0  0  0  0
  144.8239  134.6806  151.6239 C   0  0  0  0  0  0  0  0  0  0  0  0
  145.0287  134.0118  150.2576 C   0  0  0  0  0  0  0  0  0  0  0  0
  145.9187  132.7819  150.4471 C   0  0  0  0  0  0  0  0  0  0  0  0
  146.6818  133.0555  151.7347 C   0  0  0  0  0  0  0  0  0  0  0  0
  145.6835  133.8336  152.5860 C   0  0  0  0  0  0  0  0  0  0  0  0
  148.3890  137.5284  152.6684 H   0  0  0  0  0  0  0  0  0  0  0  0
  146.5060  140.5171  153.1703 H   0  0  0  0  0  0  0  0  0  0  0  0
  147.4181  142.5996  154.2419 H   0  0  0  0  0  0  0  0  0  0  0  0
  149.7441  142.4955  155.2044 H   0  0  0  0  0  0  0  0  0  0  0  0
  147.0249  136.1900  151.8348 H   0  0  0  0  0  0  0  0  0  0  0  0
  144.5036  136.7531  150.7783 H   0  0  0  0  0  0  0  0  0  0  0  0
  144.4475  135.8419  153.7355 H   0  0  0  0  0  0  0  0  0  0  0  0
  142.8073  137.5544  154.0314 H   0  0  0  0  0  0  0  0  0  0  0  0
  142.2702  137.4333  152.3422 H   0  0  0  0  0  0  0  0  0  0  0  0
  141.6424  135.5544  154.6118 H   0  0  0  0  0  0  0  0  0  0  0  0
  140.8485  135.6812  153.0397 H   0  0  0  0  0  0  0  0  0  0  0  0
  142.7506  135.2904  151.1823 H   0  0  0  0  0  0  0  0  0  0  0  0
  144.0833  133.7316  149.7922 H   0  0  0  0  0  0  0  0  0  0  0  0
  145.5158  134.7040  149.5706 H   0  0  0  0  0  0  0  0  0  0  0  0
  145.2941  131.8971  150.5764 H   0  0  0  0  0  0  0  0  0  0  0  0
  146.5768  132.6028  149.5963 H   0  0  0  0  0  0  0  0  0  0  0  0
  147.0354  132.1455  152.2200 H   0  0  0  0  0  0  0  0  0  0  0  0
  147.5484  133.6828  151.5217 H   0  0  0  0  0  0  0  0  0  0  0  0
  146.2021  134.4211  153.3439 H   0  0  0  0  0  0  0  0  0  0  0  0
  145.0477  133.1287  153.1232 H   0  0  0  0  0  0  0  0  0  0  0  0
  1  2  2  0  0  0  0
  2  3  1  0  0  0  0
  2 10  1  0  0  0  0
  3  4  1  0  0  0  0
  3 22  1  0  0  0  0
  4  9  1  0  0  0  0
  4  5  2  0  0  0  0
  5  6  1  0  0  0  0
  5 23  1  0  0  0  0
  6  7  2  0  0  0  0
  6 24  1  0  0  0  0
  7  8  1  0  0  0  0
  7 25  1  0  0  0  0
  8  9  2  0  0  0  0
 10 11  1  0  0  0  0
 10 26  1  0  0  0  0
 11 17  1  0  0  0  0
 11 12  1  0  0  0  0
 11 27  1  0  0  0  0
 12 16  1  0  0  0  0
 12 13  1  0  0  0  0
 12 28  1  0  0  0  0
 13 14  1  0  0  0  0
 13 29  1  0  0  0  0
 13 30  1  0  0  0  0
 14 15  1  0  0  0  0
 14 31  1  0  0  0  0
 14 32  1  0  0  0  0
 15 16  1  0  0  0  0
 16 17  1  0  0  0  0
 16 33  1  0  0  0  0
 17 21  1  0  0  0  0
 17 18  1  0  0  0  0
 18 19  1  0  0  0  0
 18 34  1  0  0  0  0
 18 35  1  0  0  0  0
 19 20  1  0  0  0  0
 19 36  1  0  0  0  0
 19 37  1  0  0  0  0
 20 21  1  0  0  0  0
 20 38  1  0  0  0  0
 20 39  1  0  0  0  0
 21 40  1  0  0  0  0
 21 41  1  0  0  0  0
M  END
> <s_m_source_file>
AV-unprocessed.smi

> <i_m_source_file_index>
2520

> <i_lp_mmshare_version>
43012

> <i_f3d_flags>
0

> <s_epik_input>
bjFuW2NIXVtjSF1bY0hdYzFbTkhdQyg9TylbTkhdW0NAQEhdMltDQEBIXShbQ0gyXVtDSDJdTzMpW0NASF0zQzI0W0NIMl1bQ0gyXVtDSDJdW0NIMl00

> <s_epik_cmdline>
J2VwaWtfcHl0aG9uJywgJy1waCcsICc3LjAnLCAnLXRuJywgJzgnLCAnLW1hJywgJzIwMCcsICctbWV0YWxfYmluZGluZycsICctaW1hZScsICc8aW5maWxlLm1hZT4nLCAnLW9tYWUnLCAnPG91dGZpbGUubWFlPic=

> <r_lp_tautomer_probability>
1

> <r_epik_Ionization_Penalty>
0.00552561

> <r_epik_Ionization_Penalty_Charging>
0

> <r_epik_Ionization_Penalty_Neutral>
0.00552561

> <r_epik_State_Penalty>
-0

> <r_epik_Charging_Adjusted_Penalty>
0

> <i_epik_Tot_Q>
0

> <i_epik_Tot_abs_Q>
0

> <r_epik_Metal_State_Penalty>
-0

> <b_epik_Metal_Only>
0

> <s_lp_Force_Field>
OPLS_2005

> <r_lp_Energy>
83.7492

> <b_lp_Chiralities_Consistent>
1

> <s_lp_Variant>
AV-unprocessed.smi:2520-1

> <Gold.Version>
5.8.1

> <Gold.Id.Protein>
6NUR|6NUR_protein|mol2

> <Gold.PLP.Fitness>
42.7322

> <Gold.PLP.PLP>
-31.7986

> <Gold.PLP.part.hbond>
-3.6742

> <Gold.PLP.part.metal>
0.0000

> <Gold.PLP.part.buried>
-0.6090

> <Gold.PLP.part.nonpolar>
-31.3107

> <Gold.PLP.part.repulsive>
4.7204

> <Gold.PLP.ligand.clash>
0.0000

> <Gold.PLP.ligand.torsion>
0.2896

> <Gold.PLP.Chemscore.Hbond>
2.7440

> <Gold.PLP.Chemscore.CHOScore>
1.0000

> <Gold.PLP.Chemscore.Metal>
0.0000

> <Gold.Chemscore.Hbonds>
donor molecule, donor type, donor heavy atom, donor atom, acceptor molecule, acceptor atom, score
      L1  H     3    22       P1  7948  1.00
      L1  H    10    26       P1  7948  0.85
      P1  H  7989  7998       L1     8  0.90
      L1  C     7    25       P1  8028  1.00

> <Gold.PLP.Chemscore.Internal.Correction>
0.2809

> <Gold.Rescore>
     Score         DG    S(hbond)    S(metal)    S(lipo)     H(rot)  DE(clash)    DE(int)     intcor
     12.59     -17.97       1.90        0.00      74.36       1.00       2.54       2.84       ----

> <Gold.Chemscore.Fitness>
12.5946

> <Gold.Chemscore.DG>
-17.9733

> <Gold.Chemscore.ZeroCoef>
-5.4800

> <Gold.Chemscore.Hbond>
1.9020

> <Gold.Chemscore.Metal>
0.0000

> <Gold.Chemscore.Lipo>
74.3644

> <Gold.Chemscore.Internal_Hbond>
0.0000

> <Gold.Chemscore.DEClash>
2.5358

> <Gold.Chemscore.DEInternal>
2.8429

> <Gold.Chemscore.Rot>
1.0000

> <Gold.Chemscore.Internal.Correction>
   9.000000E+99

> <Gold.Chemscore.Hbonds>
donor molecule, donor type, donor heavy atom, donor atom, acceptor molecule, acceptor atom, score
      L1  H     3    22       P1  7948  0.98
      L1  H    10    26       P1  7948  0.83
      P1  H  7989  7998       L1     8  0.15

> <Gold.Chemscore.Hbond.Weighted>
-6.3527

> <Gold.Chemscore.Metal.Weighted>
-0.0000

> <Gold.Chemscore.Lipo.Weighted>
-8.7006

> <Gold.Chemscore.Internal_Hbond.Weighted>
0.0000

> <Gold.Chemscore.DEClash.Weighted>
2.5358

> <Gold.Chemscore.DEInternal.Weighted>
2.8429

> <Gold.Chemscore.Rot.Weighted>
2.5600

> <Gold.Chemscore.Internal.Correction.Weighted>
   9.000000E+99

> <Gold.Protein.RotatedTorsions>
[ 6907 6896 6895 6894 ] final  -33.80 input  -60.11 | X-H torsion
[ 7974 7965 7964 7962 ] final  -54.35 input  175.53 | X-H torsion
[ 8008 7997 7996 7995 ] final  119.38 input   59.86 | X-H torsion
[ 10167 10162 10161 10158 ] final   45.34 input  -65.29 | X-H torsion
[ 10718 10713 10712 10709 ] final -179.44 input   66.30 | X-H torsion
[ 10763 10752 10751 10750 ] final  113.44 input  -60.55 | X-H torsion
[ 11005 11000 10999 10996 ] final -149.18 input  -57.11 | X-H torsion

> <Gold.Protein.ActiveResidues>
 VAL166  LYS551  ARG553  GLY616  TRP617  ASP618  TYR619  PRO620  LYS621  CYS622 
 ASP623  PHE694  ASN695  SER759  ASP760  ASP761  ALA762  ILE779  LEU786  VAL792 
 PHE793  MET794  SER795  GLU796  ALA797  LYS798  CYS799  TRP800  GLU811  SER814 

> <Gold.Protein.RotatedAtoms>
  151.0609  134.9736  159.8259 H   0  0  0  0  0  0  0  0  0  0  0  0  # atno 6907 bound_to 6896
  152.5395  134.2418  159.8875 H   0  0  0  0  0  0  0  0  0  0  0  0  # atno 6908 bound_to 6896
  151.2438  133.4342  159.2642 H   0  0  0  0  0  0  0  0  0  0  0  0  # atno 6909 bound_to 6896
  145.8866  140.8103  142.9813 H   0  0  0  0  0  0  0  0  0  0  0  0  # atno 7974 bound_to 7965
  156.2593  140.2854  156.0983 H   0  0  0  0  0  0  0  0  0  0  0  0  # atno 8008 bound_to 7997
  155.1388  140.0395  157.2810 H   0  0  0  0  0  0  0  0  0  0  0  0  # atno 8009 bound_to 7997
  154.6545  140.2552  155.7183 H   0  0  0  0  0  0  0  0  0  0  0  0  # atno 8010 bound_to 7997
  140.3252  144.2657  150.6176 H   0  0  0  0  0  0  0  0  0  0  0  0  # atno 10167 bound_to 10162
  156.8591  130.9745  151.3085 H   0  0  0  0  0  0  0  0  0  0  0  0  # atno 10718 bound_to 10713
  153.4925  135.3655  155.2499 H   0  0  0  0  0  0  0  0  0  0  0  0  # atno 10763 bound_to 10752
  154.8751  135.3980  154.3572 H   0  0  0  0  0  0  0  0  0  0  0  0  # atno 10764 bound_to 10752
  153.4194  135.7080  153.6370 H   0  0  0  0  0  0  0  0  0  0  0  0  # atno 10765 bound_to 10752
  140.7535  134.3380  157.5120 H   0  0  0  0  0  0  0  0  0  0  0  0  # atno 11005 bound_to 11000
  144.6729  140.1465  143.7433 LP  0  0  0  0  0  0  0  0  0  0  0  0  # atno 17320 bound_to 7965
  145.8959  139.2402  143.1522 LP  0  0  0  0  0  0  0  0  0  0  0  0  # atno 17321 bound_to 7965
  140.5448  143.2217  151.8026 LP  0  0  0  0  0  0  0  0  0  0  0  0  # atno 17342 bound_to 10162
  139.4866  144.4554  151.9604 LP  0  0  0  0  0  0  0  0  0  0  0  0  # atno 17343 bound_to 10162
  157.6260  130.8692  149.9190 LP  0  0  0  0  0  0  0  0  0  0  0  0  # atno 17370 bound_to 10713
  156.0786  130.3676  150.0626 LP  0  0  0  0  0  0  0  0  0  0  0  0  # atno 17371 bound_to 10713
  139.8783  134.9157  156.3136 LP  0  0  0  0  0  0  0  0  0  0  0  0  # atno 17394 bound_to 11000
  140.9729  133.7316  156.0561 LP  0  0  0  0  0  0  0  0  0  0  0  0  # atno 17395 bound_to 11000

$$$$
