AV-unprocessed.smi:2556|AV-procd|sdf|10023|dock1
  -GOLD-   2272014 63D 1   1.00000     0.00000
 Structure written by MMmdl.
 35 37  0  0  0  0  0  0  0  0  1 V2000
  145.6659  142.7529  154.4624 C   0  0  0  0  0  0  0  0  0  0  0  0
  146.9108  141.9823  154.4873 N   0  0  0  0  0  0  0  0  0  0  0  0
  147.4565  141.4458  153.3468 C   0  0  0  0  0  0  0  0  0  0  0  0
  146.9422  141.5810  152.2370 O   0  0  0  0  0  0  0  0  0  0  0  0
  148.6196  140.7351  153.4715 N   0  0  0  0  0  0  0  0  0  0  0  0
  149.3176  140.4867  154.6067 C   0  0  0  0  0  0  0  0  0  0  0  0
  150.3595  139.8352  154.6354 O   0  0  0  0  0  0  0  0  0  0  0  0
  148.6993  141.0784  155.7984 C   0  0  0  0  0  0  0  0  0  0  0  0
  147.5473  141.7969  155.7459 C   0  0  0  0  0  0  0  0  0  0  0  0
  147.1783  142.2494  157.0076 N   0  0  0  0  0  0  0  0  0  0  0  0
  148.1576  141.7655  157.7741 C   0  0  0  0  0  0  0  0  0  0  0  0
  149.1061  141.0540  157.1306 N   0  0  0  0  0  0  0  0  0  0  0  0
  150.2691  140.4256  157.7379 C   0  0  0  0  0  0  0  0  0  0  0  0
  151.5873  141.1429  157.3830 C   0  0  2  0  0  0  0  0  0  0  0  0
  152.6854  140.2691  157.5602 O   0  0  0  0  0  0  0  0  0  0  0  0
  151.7461  142.4280  158.1795 C   0  0  0  0  0  0  0  0  0  0  0  0
  152.1165  142.3753  159.5405 C   0  0  0  0  0  0  0  0  0  0  0  0
  152.2737  143.5640  160.2796 C   0  0  0  0  0  0  0  0  0  0  0  0
  152.0641  144.8117  159.6617 C   0  0  0  0  0  0  0  0  0  0  0  0
  151.6981  144.8706  158.3034 C   0  0  0  0  0  0  0  0  0  0  0  0
  151.5396  143.6823  157.5641 C   0  0  0  0  0  0  0  0  0  0  0  0
  149.0018  140.3519  152.6194 H   0  0  0  0  0  0  0  0  0  0  0  0
  145.2607  142.9110  153.4624 H   0  0  0  0  0  0  0  0  0  0  0  0
  145.8270  143.7362  154.9054 H   0  0  0  0  0  0  0  0  0  0  0  0
  144.9020  142.2422  155.0493 H   0  0  0  0  0  0  0  0  0  0  0  0
  148.1867  141.9343  158.8407 H   0  0  0  0  0  0  0  0  0  0  0  0
  150.1268  140.4369  158.8194 H   0  0  0  0  0  0  0  0  0  0  0  0
  150.3038  139.3745  157.4531 H   0  0  0  0  0  0  0  0  0  0  0  0
  151.5676  141.3992  156.3229 H   0  0  0  0  0  0  0  0  0  0  0  0
  152.3690  139.4647  157.9420 H   0  0  0  0  0  0  0  0  0  0  0  0
  152.2825  141.4234  160.0239 H   0  0  0  0  0  0  0  0  0  0  0  0
  152.5567  143.5188  161.3210 H   0  0  0  0  0  0  0  0  0  0  0  0
  152.1858  145.7229  160.2286 H   0  0  0  0  0  0  0  0  0  0  0  0
  151.5404  145.8274  157.8277 H   0  0  0  0  0  0  0  0  0  0  0  0
  151.2621  143.7363  156.5213 H   0  0  0  0  0  0  0  0  0  0  0  0
  1  2  1  0  0  0  0
  1 23  1  0  0  0  0
  1 24  1  0  0  0  0
  1 25  1  0  0  0  0
  2  9  1  0  0  0  0
  2  3  1  0  0  0  0
  3  4  2  0  0  0  0
  3  5  1  0  0  0  0
  5 22  1  0  0  0  0
  5  6  1  0  0  0  0
  6  7  2  0  0  0  0
  6  8  1  0  0  0  0
  8 12  1  0  0  0  0
  8  9  2  0  0  0  0
  9 10  1  0  0  0  0
 10 11  2  0  0  0  0
 11 12  1  0  0  0  0
 11 26  1  0  0  0  0
 12 13  1  0  0  0  0
 13 14  1  0  0  0  0
 13 27  1  0  0  0  0
 13 28  1  0  0  0  0
 14 15  1  0  0  0  0
 14 16  1  0  0  0  0
 14 29  1  0  0  0  0
 15 30  1  0  0  0  0
 16 21  1  0  0  0  0
 16 17  2  0  0  0  0
 17 18  1  0  0  0  0
 17 31  1  0  0  0  0
 18 19  2  0  0  0  0
 18 32  1  0  0  0  0
 19 20  1  0  0  0  0
 19 33  1  0  0  0  0
 20 21  2  0  0  0  0
 20 34  1  0  0  0  0
 21 35  1  0  0  0  0
M  END
> <s_m_source_file>
AV-unprocessed.smi

> <i_m_source_file_index>
2556

> <i_lp_mmshare_version>
43012

> <i_f3d_flags>
0

> <s_epik_input>
Tz1jMVtuSF1jKD1PKW4oW0NIM10pYyhjMTIpbltjSF1uMltDSDJdW0NASF0oW09IXSljM1tjSF1bY0hdW2NIXVtjSF1bY0hdMw==

> <s_epik_cmdline>
J2VwaWtfcHl0aG9uJywgJy1waCcsICc3LjAnLCAnLXRuJywgJzgnLCAnLW1hJywgJzIwMCcsICctbWV0YWxfYmluZGluZycsICctaW1hZScsICc8aW5maWxlLm1hZT4nLCAnLW9tYWUnLCAnPG91dGZpbGUubWFlPic=

> <r_lp_tautomer_probability>
1

> <r_epik_Ionization_Penalty>
0.000177505

> <r_epik_Ionization_Penalty_Charging>
0.000176585

> <r_epik_Ionization_Penalty_Neutral>
9.19728e-07

> <r_epik_State_Penalty>
-0

> <r_epik_Charging_Adjusted_Penalty>
0.000176585

> <i_epik_Tot_Q>
0

> <i_epik_Tot_abs_Q>
0

> <r_epik_Metal_State_Penalty>
0.122509

> <b_epik_Metal_Only>
0

> <s_lp_Force_Field>
OPLS_2005

> <r_lp_Energy>
28.9299

> <b_lp_Chiralities_Consistent>
1

> <s_lp_Variant>
AV-unprocessed.smi:2556-1

> <Gold.Version>
5.8.1

> <Gold.Id.Protein>
6NUR|6NUR_protein|mol2

> <Gold.PLP.Fitness>
45.7685

> <Gold.PLP.PLP>
-38.0053

> <Gold.PLP.part.hbond>
-3.0000

> <Gold.PLP.part.metal>
0.0000

> <Gold.PLP.part.buried>
-1.1818

> <Gold.PLP.part.nonpolar>
-33.6547

> <Gold.PLP.part.repulsive>
0.6065

> <Gold.PLP.ligand.clash>
0.0000

> <Gold.PLP.ligand.torsion>
0.6024

> <Gold.PLP.Chemscore.Hbond>
2.9760

> <Gold.PLP.Chemscore.CHOScore>
0.0000

> <Gold.PLP.Chemscore.Metal>
0.0000

> <Gold.Chemscore.Hbonds>
donor molecule, donor type, donor heavy atom, donor atom, acceptor molecule, acceptor atom, score
      L1  H     5    22       P1  7957  1.00
      P1  H  7989  7998       L1     7  1.00
      P1  H  7997  8009       L1    15  0.93

> <Gold.PLP.Chemscore.Internal.Correction>
0.0401

> <Gold.Rescore>
     Score         DG    S(hbond)    S(metal)    S(lipo)     H(rot)  DE(clash)    DE(int)     intcor
     16.27     -18.86       2.69        0.00      88.13       2.31       1.72       0.88       ----

> <Gold.Chemscore.Fitness>
16.2704

> <Gold.Chemscore.DG>
-18.8650

> <Gold.Chemscore.ZeroCoef>
-5.4800

> <Gold.Chemscore.Hbond>
2.6921

> <Gold.Chemscore.Metal>
0.0000

> <Gold.Chemscore.Lipo>
88.1252

> <Gold.Chemscore.Internal_Hbond>
0.0000

> <Gold.Chemscore.DEClash>
1.7151

> <Gold.Chemscore.DEInternal>
0.8795

> <Gold.Chemscore.Rot>
2.3115

> <Gold.Chemscore.Internal.Correction>
   9.000000E+99

> <Gold.Chemscore.Hbonds>
donor molecule, donor type, donor heavy atom, donor atom, acceptor molecule, acceptor atom, score
      L1  H     5    22       P1  7957  0.99
      P1  H  7989  7998       L1     7  0.43
      P1  H  7997  8009       L1    15  0.74

> <Gold.Chemscore.Hbond.Weighted>
-8.9917

> <Gold.Chemscore.Metal.Weighted>
-0.0000

> <Gold.Chemscore.Lipo.Weighted>
-10.3107

> <Gold.Chemscore.Internal_Hbond.Weighted>
0.0000

> <Gold.Chemscore.DEClash.Weighted>
1.7151

> <Gold.Chemscore.DEInternal.Weighted>
0.8795

> <Gold.Chemscore.Rot.Weighted>
5.9174

> <Gold.Chemscore.Internal.Correction.Weighted>
   9.000000E+99

> <Gold.Protein.RotatedTorsions>
[ 6907 6896 6895 6894 ] final   21.00 input  -60.11 | X-H torsion
[ 7974 7965 7964 7962 ] final  150.46 input  175.53 | X-H torsion
[ 8008 7997 7996 7995 ] final  164.52 input   59.86 | X-H torsion
[ 10167 10162 10161 10158 ] final    7.43 input  -65.29 | X-H torsion
[ 10718 10713 10712 10709 ] final -103.60 input   66.30 | X-H torsion
[ 10763 10752 10751 10750 ] final  -13.68 input  -60.55 | X-H torsion
[ 11005 11000 10999 10996 ] final    6.82 input  -57.11 | X-H torsion

> <Gold.Protein.ActiveResidues>
 VAL166  LYS551  ARG553  GLY616  TRP617  ASP618  TYR619  PRO620  LYS621  CYS622 
 ASP623  PHE694  ASN695  SER759  ASP760  ASP761  ALA762  ILE779  LEU786  VAL792 
 PHE793  MET794  SER795  GLU796  ALA797  LYS798  CYS799  TRP800  GLU811  SER814 

> <Gold.Protein.RotatedAtoms>
  151.9051  135.0362  160.0509 H   0  0  0  0  0  0  0  0  0  0  0  0  # atno 6907 bound_to 6896
  152.2326  133.5066  159.5233 H   0  0  0  0  0  0  0  0  0  0  0  0  # atno 6908 bound_to 6896
  150.7030  134.1113  159.4043 H   0  0  0  0  0  0  0  0  0  0  0  0  # atno 6909 bound_to 6896
  144.8362  139.6411  143.6037 H   0  0  0  0  0  0  0  0  0  0  0  0  # atno 7974 bound_to 7965
  156.1873  140.1694  156.8160 H   0  0  0  0  0  0  0  0  0  0  0  0  # atno 8008 bound_to 7997
  154.5430  140.0733  156.8573 H   0  0  0  0  0  0  0  0  0  0  0  0  # atno 8009 bound_to 7997
  155.3178  140.3371  155.4244 H   0  0  0  0  0  0  0  0  0  0  0  0  # atno 8010 bound_to 7997
  140.6372  143.7859  150.7376 H   0  0  0  0  0  0  0  0  0  0  0  0  # atno 10167 bound_to 10162
  156.0271  130.5475  150.7276 H   0  0  0  0  0  0  0  0  0  0  0  0  # atno 10718 bound_to 10713
  153.5169  135.7016  153.5752 H   0  0  0  0  0  0  0  0  0  0  0  0  # atno 10763 bound_to 10752
  153.3818  135.3918  155.1862 H   0  0  0  0  0  0  0  0  0  0  0  0  # atno 10764 bound_to 10752
  154.8698  135.3837  154.4654 H   0  0  0  0  0  0  0  0  0  0  0  0  # atno 10765 bound_to 10752
  140.5552  134.0245  155.7951 H   0  0  0  0  0  0  0  0  0  0  0  0  # atno 11005 bound_to 11000
  146.2661  139.6523  142.9328 LP  0  0  0  0  0  0  0  0  0  0  0  0  # atno 17320 bound_to 7965
  145.4789  141.0437  143.2657 LP  0  0  0  0  0  0  0  0  0  0  0  0  # atno 17321 bound_to 7965
  140.1483  143.4380  152.2148 LP  0  0  0  0  0  0  0  0  0  0  0  0  # atno 17342 bound_to 10162
  139.5582  144.7387  151.4233 LP  0  0  0  0  0  0  0  0  0  0  0  0  # atno 17343 bound_to 10162
  157.4876  131.0908  151.0464 LP  0  0  0  0  0  0  0  0  0  0  0  0  # atno 17370 bound_to 10713
  157.0880  130.5930  149.5434 LP  0  0  0  0  0  0  0  0  0  0  0  0  # atno 17371 bound_to 10713
  141.1148  133.9558  157.2843 LP  0  0  0  0  0  0  0  0  0  0  0  0  # atno 17394 bound_to 11000
  139.9435  135.0187  156.8781 LP  0  0  0  0  0  0  0  0  0  0  0  0  # atno 17395 bound_to 11000

$$$$
