#       Name:                AV-unprocessed.smi:2678
#       Creating user name   scv26
#       Creation time:       Fri Mar 27 14:39:31 2020


#       File generated by GOLD software.
#

@<TRIPOS>MOLECULE
AV-unprocessed.smi:2678
    51    52     1
SMALL
NO_CHARGES


@<TRIPOS>ATOM
      1 ****         9.6467   5.3547  -1.2963 C.3            1 S1                 0.0000
      2 ****         8.3697   4.8254  -1.9629 C.3            1 S1                 0.0000
      3 ****         7.8921   5.7417  -3.0974 C.3            1 S1                 0.0000
      4 ****         7.3126   4.6943  -0.9635 N.am           1 S1                 0.0000
      5 ****         6.7324   3.5488  -0.5705 C.2            1 S1                 0.0000
      6 ****         7.0467   2.4478  -1.0222 O.2            1 S1                 0.0000
      7 ****         5.6253   3.6801   0.4926 C.3            1 S1                 0.0000
      8 ****         5.9153   2.8638   1.7749 C.3            1 S1                 0.0000
      9 ****         5.6360   1.3559   1.6280 C.3            1 S1                 0.0000
     10 ****         4.2183   1.0956   1.0962 C.3            1 S1                 0.0000
     11 ****         3.9844   1.8212  -0.2396 C.3            1 S1                 0.0000
     12 ****         2.6237   1.5593  -0.7137 N.am           1 S1                 0.0000
     13 ****         2.1480   1.6590  -1.9691 C.2            1 S1                 0.0000
     14 ****         2.8713   2.0187  -2.8950 O.2            1 S1                 0.0000
     15 ****         0.8417   1.3483  -2.0866 N.am           1 S1                 0.0000
     16 ****         0.0253   1.2918  -3.2478 C.ar           1 S1                 0.0000
     17 ****         0.5130   1.2854  -4.5773 C.ar           1 S1                 0.0000
     18 ****        -0.4096   1.2080  -5.6386 C.ar           1 S1                 0.0000
     19 ****        -1.7825   1.1348  -5.3336 C.ar           1 S1                 0.0000
     20 ****        -2.2607   1.1294  -4.0717 N.ar           1 S1                 0.0000
     21 ****        -1.3704   1.2034  -3.0594 C.ar           1 S1                 0.0000
     22 ****         4.2281   3.3395  -0.0740 C.3            1 S1                 0.0000
     23 ****        10.4554   5.4508  -2.0214 H              1 S1                 0.0000
     24 ****         9.9880   4.6792  -0.5112 H              1 S1                 0.0000
     25 ****         9.4850   6.3350  -0.8465 H              1 S1                 0.0000
     26 ****         8.6019   3.8532  -2.4005 H              1 S1                 0.0000
     27 ****         8.6599   5.8471  -3.8644 H              1 S1                 0.0000
     28 ****         7.6501   6.7394  -2.7295 H              1 S1                 0.0000
     29 ****         7.0004   5.3376  -3.5784 H              1 S1                 0.0000
     30 ****         6.9902   5.5507  -0.5365 H              1 S1                 0.0000
     31 ****         5.6018   4.7307   0.7875 H              1 S1                 0.0000
     32 ****         6.9477   3.0155   2.0935 H              1 S1                 0.0000
     33 ****         5.2967   3.2550   2.5836 H              1 S1                 0.0000
     34 ****         6.3674   0.8982   0.9622 H              1 S1                 0.0000
     35 ****         5.7615   0.8651   2.5935 H              1 S1                 0.0000
     36 ****         4.0660   0.0229   0.9720 H              1 S1                 0.0000
     37 ****         3.4867   1.4290   1.8337 H              1 S1                 0.0000
     38 ****         4.6873   1.4064  -0.9626 H              1 S1                 0.0000
     39 ****         1.9646   1.2643  -0.0078 H              1 S1                 0.0000
     40 ****         0.3663   1.1397  -1.2204 H              1 S1                 0.0000
     41 ****         1.5656   1.3251  -4.8080 H              1 S1                 0.0000
     42 ****        -0.0711   1.2010  -6.6640 H              1 S1                 0.0000
     43 ****        -2.5156   1.0738  -6.1243 H              1 S1                 0.0000
     44 ****        -1.7887   1.1929  -2.0630 H              1 S1                 0.0000
     45 ****         3.4715   3.7504   0.5960 H              1 S1                 0.0000
     46 ****         4.0855   3.8526  -1.0261 H              1 S1                 0.0000
     47 ****         7.7645   2.3779  -1.7149 LP             1 S1                 0.0000
     48 ****         6.5841   1.6232  -0.6966 LP             1 S1                 0.0000
     49 ****         3.8304   2.2430  -2.7222 LP             1 S1                 0.0000
     50 ****         2.5009   2.0871  -3.8213 LP             1 S1                 0.0000
     51 ****        -3.2428   1.0724  -3.8922 LP             1 S1                 0.0000
@<TRIPOS>BOND
    1    1    2 1     
    2    1   23 1     
    3    1   24 1     
    4    1   25 1     
    5    2    3 1     
    6    2    4 1     
    7    2   26 1     
    8    3   27 1     
    9    3   28 1     
   10    3   29 1     
   11    4    5 am    
   12    4   30 1     
   13    5    6 2     
   14    5    7 1     
   15    7   22 1     
   16    7    8 1     
   17    7   31 1     
   18    8    9 1     
   19    8   32 1     
   20    8   33 1     
   21    9   10 1     
   22    9   34 1     
   23    9   35 1     
   24   10   11 1     
   25   10   36 1     
   26   10   37 1     
   27   11   12 1     
   28   11   22 1     
   29   11   38 1     
   30   12   13 am    
   31   12   39 1     
   32   13   14 2     
   33   13   15 am    
   34   15   16 1     
   35   15   40 1     
   36   16   21 ar    
   37   16   17 ar    
   38   17   18 ar    
   39   17   41 1     
   40   18   19 ar    
   41   18   42 1     
   42   19   20 ar    
   43   19   43 1     
   44   20   21 ar    
   45   21   44 1     
   46   22   45 1     
   47   22   46 1     
   48    6   47 1     
   49    6   48 1     
   50   14   49 1     
   51   14   50 1     
   52   20   51 1     
@<TRIPOS>SUBSTRUCTURE
      1 S1             1
@<TRIPOS>SET
LONE_PAIRS      STATIC     ATOMS    <user>   **** ""
5 47 48 49 50 51
DONOR_HYDROGENS      STATIC     ATOMS    <user>   **** ""
3 30 39 40
ATOM$BLUE        STATIC     ATOMS    COLORGROUP SYSTEM
5 47 48 49 50 51
ATOM$RED        STATIC     ATOMS    COLORGROUP SYSTEM
3 30 39 40
