AV-unprocessed.smi:1509|AV-procd|sdf|6091|dock9
  -GOLD-   22720 6223D 1   1.00000     0.00000
 Structure written by MMmdl.
 42 43  0  0  0  0  0  0  0  0  2 V2000
  145.9711  131.9716  150.2893 C   0  0  0  0  0  0  0  0  0  0  0  0
  145.4805  131.4913  151.6663 C   0  0  1  0  0  0  0  0  0  0  0  0
  145.1976  129.9783  151.7045 C   0  0  0  0  0  0  0  0  0  0  0  0
  146.5018  129.1692  151.7243 C   0  0  0  0  0  0  0  0  0  0  0  0
  147.4221  129.6347  152.8635 C   0  0  0  0  0  0  0  0  0  0  0  0
  147.7011  131.0911  152.7700 N   0  3  2  0  0  0  0  0  0  0  0  0
  148.7024  131.5340  153.7732 C   0  0  0  0  0  0  0  0  0  0  0  0
  149.2224  132.9561  153.5016 C   0  0  0  0  0  0  0  0  0  0  0  0
  148.9195  133.9150  154.6651 C   0  0  0  0  0  0  0  0  0  0  0  0
  149.2971  135.2876  154.3495 N   0  0  0  0  0  0  0  0  0  0  0  0
  150.0687  136.0697  155.1211 C   0  0  0  0  0  0  0  0  0  0  0  0
  150.5200  135.7121  156.2089 O   0  0  0  0  0  0  0  0  0  0  0  0
  150.3795  137.4687  154.5873 C   0  0  0  0  0  0  0  0  0  0  0  0
  151.7224  137.8805  154.9506 N   0  0  0  0  0  0  0  0  0  0  0  0
  152.3991  138.9998  154.6849 C   0  0  0  0  0  0  0  0  0  0  0  0
  153.6180  138.9689  155.2013 N   0  0  0  0  0  0  0  0  0  0  0  0
  153.6651  137.7319  155.8222 N   0  0  0  0  0  0  0  0  0  0  0  0
  152.5433  137.0816  155.6768 N   0  0  0  0  0  0  0  0  0  0  0  0
  146.4458  131.8910  152.8019 C   0  0  0  0  0  0  0  0  0  0  0  0
  146.9334  131.5346  150.0231 H   0  0  0  0  0  0  0  0  0  0  0  0
  146.0873  133.0556  150.2728 H   0  0  0  0  0  0  0  0  0  0  0  0
  145.2594  131.7078  149.5064 H   0  0  0  0  0  0  0  0  0  0  0  0
  144.5339  132.0016  151.8483 H   0  0  0  0  0  0  0  0  0  0  0  0
  144.6205  129.7439  152.6002 H   0  0  0  0  0  0  0  0  0  0  0  0
  144.5787  129.6812  150.8572 H   0  0  0  0  0  0  0  0  0  0  0  0
  146.2762  128.1087  151.8404 H   0  0  0  0  0  0  0  0  0  0  0  0
  147.0179  129.2677  150.7688 H   0  0  0  0  0  0  0  0  0  0  0  0
  146.9683  129.4116  153.8305 H   0  0  0  0  0  0  0  0  0  0  0  0
  148.3569  129.0747  152.8149 H   0  0  0  0  0  0  0  0  0  0  0  0
  148.2807  131.4595  154.7769 H   0  0  0  0  0  0  0  0  0  0  0  0
  149.5575  130.8568  153.7485 H   0  0  0  0  0  0  0  0  0  0  0  0
  150.2992  132.9229  153.3301 H   0  0  0  0  0  0  0  0  0  0  0  0
  148.7766  133.3515  152.5894 H   0  0  0  0  0  0  0  0  0  0  0  0
  147.8615  133.8725  154.9300 H   0  0  0  0  0  0  0  0  0  0  0  0
  149.4729  133.6096  155.5535 H   0  0  0  0  0  0  0  0  0  0  0  0
  148.9654  135.6626  153.4723 H   0  0  0  0  0  0  0  0  0  0  0  0
  150.2846  137.4863  153.5008 H   0  0  0  0  0  0  0  0  0  0  0  0
  149.6639  138.1900  154.9851 H   0  0  0  0  0  0  0  0  0  0  0  0
  152.0040  139.8282  154.1155 H   0  0  0  0  0  0  0  0  0  0  0  0
  146.6645  132.9555  152.7269 H   0  0  0  0  0  0  0  0  0  0  0  0
  145.9578  131.7451  153.7672 H   0  0  0  0  0  0  0  0  0  0  0  0
  148.1205  131.2376  151.8628 H   0  0  0  0  0  0  0  0  0  0  0  0
  1  2  1  0  0  0  0
  1 20  1  0  0  0  0
  1 21  1  0  0  0  0
  1 22  1  0  0  0  0
  2 19  1  0  0  0  0
  2  3  1  0  0  0  0
  2 23  1  0  0  0  0
  3  4  1  0  0  0  0
  3 24  1  0  0  0  0
  3 25  1  0  0  0  0
  4  5  1  0  0  0  0
  4 26  1  0  0  0  0
  4 27  1  0  0  0  0
  5  6  1  0  0  0  0
  5 28  1  0  0  0  0
  5 29  1  0  0  0  0
  6  7  1  0  0  0  0
  6 19  1  0  0  0  0
  6 42  1  0  0  0  0
  7  8  1  0  0  0  0
  7 30  1  0  0  0  0
  7 31  1  0  0  0  0
  8  9  1  0  0  0  0
  8 32  1  0  0  0  0
  8 33  1  0  0  0  0
  9 10  1  0  0  0  0
  9 34  1  0  0  0  0
  9 35  1  0  0  0  0
 10 11  1  0  0  0  0
 10 36  1  0  0  0  0
 11 12  2  0  0  0  0
 11 13  1  0  0  0  0
 13 14  1  0  0  0  0
 13 37  1  0  0  0  0
 13 38  1  0  0  0  0
 14 18  1  0  0  0  0
 14 15  1  0  0  0  0
 15 16  2  0  0  0  0
 15 39  1  0  0  0  0
 16 17  1  0  0  0  0
 17 18  2  0  0  0  0
 19 40  1  0  0  0  0
 19 41  1  0  0  0  0
M  CHG  1   6   1
M  END
> <s_m_source_file>
AV-unprocessed.smi

> <i_m_source_file_index>
1509

> <i_lp_mmshare_version>
43012

> <i_f3d_flags>
0

> <s_epik_input>
W0NIM11bQ0BASF0xW0NIMl1bQ0gyXVtDSDJdTihbQ0gyXTEpW0NIMl1bQ0gyXVtDSDJdW05IXUMoPU8pW0NIMl1uMltjSF1ubm4y

> <s_epik_cmdline>
J2VwaWtfcHl0aG9uJywgJy1waCcsICc3LjAnLCAnLXRuJywgJzgnLCAnLW1hJywgJzIwMCcsICctbWV0YWxfYmluZGluZycsICctaW1hZScsICc8aW5maWxlLm1hZT4nLCAnLW9tYWUnLCAnPG91dGZpbGUubWFlPic=

> <r_lp_tautomer_probability>
1

> <r_epik_Ionization_Penalty>
0.00044216

> <r_epik_Ionization_Penalty_Charging>
0.000440775

> <r_epik_Ionization_Penalty_Neutral>
1.38512e-06

> <r_epik_State_Penalty>
0.000271914

> <r_epik_Charging_Adjusted_Penalty>
0.000712689

> <i_epik_Tot_Q>
1

> <i_epik_Tot_abs_Q>
1

> <r_epik_Metal_State_Penalty>
-0

> <b_epik_Metal_Only>
0

> <s_lp_Force_Field>
OPLS_2005

> <r_lp_Energy>
22.736

> <b_lp_Chiralities_Consistent>
1

> <s_lp_Variant>
AV-unprocessed.smi:1509-2

> <Gold.Version>
5.8.1

> <Gold.Id.Protein>
6NUR|6NUR_protein|mol2

> <Gold.PLP.Fitness>
47.4858

> <Gold.PLP.PLP>
-37.7565

> <Gold.PLP.part.hbond>
-5.2657

> <Gold.PLP.part.metal>
0.0000

> <Gold.PLP.part.buried>
-4.5009

> <Gold.PLP.part.nonpolar>
-28.1394

> <Gold.PLP.part.repulsive>
0.0618

> <Gold.PLP.ligand.clash>
0.0000

> <Gold.PLP.ligand.torsion>
0.8059

> <Gold.PLP.Chemscore.Hbond>
3.7600

> <Gold.PLP.Chemscore.CHOScore>
0.0000

> <Gold.PLP.Chemscore.Metal>
0.0000

> <Gold.Chemscore.Hbonds>
donor molecule, donor type, donor heavy atom, donor atom, acceptor molecule, acceptor atom, score
      L1  H     6    42       P1 10747  1.00
      L1  H    10    36       P1  7948  1.00
      P1  H  7997  8009       L1    16  0.99
      P1  H 10752 10763       L1    18  0.74

> <Gold.PLP.Chemscore.Internal.Correction>
0.0610

> <Gold.Rescore>
     Score         DG    S(hbond)    S(metal)    S(lipo)     H(rot)  DE(clash)    DE(int)     intcor
     14.82     -17.42       3.21        0.00      75.50       2.97       0.05       2.55       ----

> <Gold.Chemscore.Fitness>
14.8162

> <Gold.Chemscore.DG>
-17.4204

> <Gold.Chemscore.ZeroCoef>
-5.4800

> <Gold.Chemscore.Hbond>
3.2051

> <Gold.Chemscore.Metal>
0.0000

> <Gold.Chemscore.Lipo>
75.4971

> <Gold.Chemscore.Internal_Hbond>
0.0000

> <Gold.Chemscore.DEClash>
0.0500

> <Gold.Chemscore.DEInternal>
2.5541

> <Gold.Chemscore.Rot>
2.9680

> <Gold.Chemscore.Internal.Correction>
   9.000000E+99

> <Gold.Chemscore.Hbonds>
donor molecule, donor type, donor heavy atom, donor atom, acceptor molecule, acceptor atom, score
      L1  H     6    42       P1 10747  0.99
      L1  H    10    36       P1  7948  0.85
      P1  H  7997  8009       L1    16  0.88
      P1  H 10752 10763       L1    18  0.28

> <Gold.Chemscore.Hbond.Weighted>
-10.7052

> <Gold.Chemscore.Metal.Weighted>
-0.0000

> <Gold.Chemscore.Lipo.Weighted>
-8.8332

> <Gold.Chemscore.Internal_Hbond.Weighted>
0.0000

> <Gold.Chemscore.DEClash.Weighted>
0.0500

> <Gold.Chemscore.DEInternal.Weighted>
2.5541

> <Gold.Chemscore.Rot.Weighted>
7.5980

> <Gold.Chemscore.Internal.Correction.Weighted>
   9.000000E+99

> <Gold.Protein.RotatedTorsions>
[ 6907 6896 6895 6894 ] final    2.59 input  -60.11 | X-H torsion
[ 7974 7965 7964 7962 ] final  151.96 input  175.53 | X-H torsion
[ 8008 7997 7996 7995 ] final -136.47 input   59.86 | X-H torsion
[ 10167 10162 10161 10158 ] final  116.86 input  -65.29 | X-H torsion
[ 10718 10713 10712 10709 ] final  -24.72 input   66.30 | X-H torsion
[ 10763 10752 10751 10750 ] final   79.51 input  -60.55 | X-H torsion
[ 11005 11000 10999 10996 ] final  -91.18 input  -57.11 | X-H torsion

> <Gold.Protein.ActiveResidues>
 VAL166  LYS551  ARG553  GLY616  TRP617  ASP618  TYR619  PRO620  LYS621  CYS622 
 ASP623  PHE694  ASN695  SER759  ASP760  ASP761  ALA762  ILE779  LEU786  VAL792 
 PHE793  MET794  SER795  GLU796  ALA797  LYS798  CYS799  TRP800  GLU811  SER814 

> <Gold.Protein.RotatedAtoms>
  151.6114  135.1040  160.0081 H   0  0  0  0  0  0  0  0  0  0  0  0  # atno 6907 bound_to 6896
  152.4206  133.7106  159.6487 H   0  0  0  0  0  0  0  0  0  0  0  0  # atno 6908 bound_to 6896
  150.8094  133.8377  159.3211 H   0  0  0  0  0  0  0  0  0  0  0  0  # atno 6909 bound_to 6896
  144.8255  139.6606  143.6082 H   0  0  0  0  0  0  0  0  0  0  0  0  # atno 7974 bound_to 7965
  155.3958  140.0503  157.3039 H   0  0  0  0  0  0  0  0  0  0  0  0  # atno 8008 bound_to 7997
  154.5014  140.2158  155.9299 H   0  0  0  0  0  0  0  0  0  0  0  0  # atno 8009 bound_to 7997
  156.1472  140.3143  155.8595 H   0  0  0  0  0  0  0  0  0  0  0  0  # atno 8010 bound_to 7997
  139.6218  144.7102  151.2618 H   0  0  0  0  0  0  0  0  0  0  0  0  # atno 10167 bound_to 10162
  156.4739  130.4530  149.6852 H   0  0  0  0  0  0  0  0  0  0  0  0  # atno 10718 bound_to 10713
  153.0958  135.4837  154.8776 H   0  0  0  0  0  0  0  0  0  0  0  0  # atno 10763 bound_to 10752
  154.7323  135.3063  154.8873 H   0  0  0  0  0  0  0  0  0  0  0  0  # atno 10764 bound_to 10752
  153.9505  135.6824  153.4797 H   0  0  0  0  0  0  0  0  0  0  0  0  # atno 10765 bound_to 10752
  141.1550  133.7739  156.9843 H   0  0  0  0  0  0  0  0  0  0  0  0  # atno 11005 bound_to 11000
  146.2560  139.6304  142.9394 LP  0  0  0  0  0  0  0  0  0  0  0  0  # atno 17320 bound_to 7965
  145.5009  141.0437  143.2541 LP  0  0  0  0  0  0  0  0  0  0  0  0  # atno 17321 bound_to 7965
  140.7386  143.6642  150.8138 LP  0  0  0  0  0  0  0  0  0  0  0  0  # atno 17342 bound_to 10162
  140.0254  143.5499  152.2783 LP  0  0  0  0  0  0  0  0  0  0  0  0  # atno 17343 bound_to 10162
  156.3590  130.7471  151.2441 LP  0  0  0  0  0  0  0  0  0  0  0  0  # atno 17370 bound_to 10713
  157.7489  131.0356  150.4369 LP  0  0  0  0  0  0  0  0  0  0  0  0  # atno 17371 bound_to 10713
  140.1045  134.9515  157.1973 LP  0  0  0  0  0  0  0  0  0  0  0  0  # atno 17394 bound_to 11000
  140.3274  134.2848  155.7234 LP  0  0  0  0  0  0  0  0  0  0  0  0  # atno 17395 bound_to 11000

$$$$
