#       Name:                AV-unprocessed.smi:43
#       Creating user name   scv26
#       Creation time:       Thu Mar 26 16:24:54 2020


#       File generated by GOLD software.
#

@<TRIPOS>MOLECULE
AV-unprocessed.smi:43
    34    35     1
SMALL
NO_CHARGES


@<TRIPOS>ATOM
      1 ****        -1.8432  -2.3632  -0.4942 C.3            1 S1                 0.0000
      2 ****        -2.2862  -1.0487  -0.0671 N.pl3          1 S1                 0.0000
      3 ****        -3.6033  -0.8289   0.1724 N.2            1 S1                 0.0000
      4 ****        -3.7152   0.4032   0.5763 N.2            1 S1                 0.0000
      5 ****        -2.4865   1.0313   0.6169 N.2            1 S1                 0.0000
      6 ****        -1.6378   0.0988   0.2007 C.2            1 S1                 0.0000
      7 ****        -0.2542   0.2641   0.0625 N.pl3          1 S1                 0.0000
      8 ****         0.6747  -0.4955  -0.7684 C.3            1 S1                 0.0000
      9 ****         1.7915   0.4642  -1.1574 C.3            1 S1                 0.0000
     10 ****         2.9693  -0.2051  -1.5561 O.3            1 S1                 0.0000
     11 ****         1.9734   1.2608   0.1197 C.3            1 S1                 0.0000
     12 ****         0.5441   1.3286   0.6861 C.3            1 S1                 0.0000
     13 ****         0.5310   1.2258   2.2188 C.2            1 S1                 0.0000
     14 ****         0.2428   2.2647   2.8513 O.co2          1 S1                 0.0000
     15 ****         0.8098   0.1179   2.7302 O.co2          1 S1                -1.0000
     16 ****         1.4542   1.1222  -1.9597 H              1 S1                 0.0000
     17 ****         0.0950   2.2789   0.3938 H              1 S1                 0.0000
     18 ****        -0.9462  -2.6507   0.0538 H              1 S1                 0.0000
     19 ****        -1.6333  -2.3531  -1.5634 H              1 S1                 0.0000
     20 ****        -2.6167  -3.1063  -0.2964 H              1 S1                 0.0000
     21 ****         1.0615  -1.3325  -0.1847 H              1 S1                 0.0000
     22 ****         0.1910  -0.8938  -1.6596 H              1 S1                 0.0000
     23 ****         3.6409   0.4408  -1.7132 H              1 S1                 0.0000
     24 ****         2.6442   0.7294   0.7980 H              1 S1                 0.0000
     25 ****         2.3988   2.2483  -0.0615 H              1 S1                 0.0000
     26 ****        -4.3467  -1.4882   0.0600 LP             1 S1                 0.0000
     27 ****        -4.5801   0.8389   0.8253 LP             1 S1                 0.0000
     28 ****        -2.2830   1.9700   0.8951 LP             1 S1                 0.0000
     29 ****         2.7963  -0.7231  -2.3938 LP             1 S1                 0.0000
     30 ****         3.2641  -0.8298  -0.8329 LP             1 S1                 0.0000
     31 ****         0.2221   2.2519   3.8511 LP             1 S1                 0.0000
     32 ****         0.0329   3.1086   2.3577 LP             1 S1                 0.0000
     33 ****         0.8135   0.0129   3.7247 LP             1 S1                 0.0000
     34 ****         1.0289  -0.6623   2.1443 LP             1 S1                 0.0000
@<TRIPOS>BOND
    1    1    2 1     
    2    1   18 1     
    3    1   19 1     
    4    1   20 1     
    5    2    6 1     
    6    2    3 1     
    7    3    4 2     
    8    4    5 1     
    9    5    6 2     
   10    6    7 1     
   11    7   12 1     
   12    7    8 1     
   13    8    9 1     
   14    8   21 1     
   15    8   22 1     
   16    9   16 1     
   17    9   10 1     
   18    9   11 1     
   19   10   23 1     
   20   11   12 1     
   21   11   24 1     
   22   11   25 1     
   23   12   17 1     
   24   12   13 1     
   25   13   14 ar    
   26   13   15 ar    
   27    3   26 1     
   28    4   27 1     
   29    5   28 1     
   30   10   29 1     
   31   10   30 1     
   32   14   31 1     
   33   14   32 1     
   34   15   33 1     
   35   15   34 1     
@<TRIPOS>SUBSTRUCTURE
      1 S1             1
@<TRIPOS>SET
LONE_PAIRS      STATIC     ATOMS    <user>   **** ""
9 26 27 28 29 30 31 32 33 34
DONOR_HYDROGENS      STATIC     ATOMS    <user>   **** ""
1 23
ATOM$BLUE        STATIC     ATOMS    COLORGROUP SYSTEM
9 26 27 28 29 30 31 32 33 34
ATOM$RED        STATIC     ATOMS    COLORGROUP SYSTEM
1 23
