AV-unprocessed.smi:221|AV-procd|sdf|1692|dock1
  -GOLD-   2262020133D 1   1.00000     0.00000
 Structure written by MMmdl.
 50 53  0  0  0  0  0  0  0  0  1 V2000
  150.9090  143.8898  157.2762 N   0  0  0  0  0  0  0  0  0  0  0  0
  150.4759  143.5601  158.4969 C   0  0  0  0  0  0  0  0  0  0  0  0
  149.3956  143.9587  158.9280 O   0  0  0  0  0  0  0  0  0  0  0  0
  151.3778  142.6481  159.3551 C   0  0  2  0  0  0  0  0  0  0  0  0
  152.8533  143.0633  159.4262 C   0  0  0  0  0  0  0  0  0  0  0  0
  153.5350  141.8168  159.9950 C   0  0  2  0  0  0  0  0  0  0  0  0
  154.7081  141.6002  159.4002 F   0  0  0  0  0  0  0  0  0  0  0  0
  152.5472  140.6629  159.7500 C   0  0  0  0  0  0  0  0  0  0  0  0
  151.4071  141.2170  159.0220 N   0  0  0  0  0  0  0  0  0  0  0  0
  151.3908  140.8403  157.7174 C   0  0  0  0  0  0  0  0  0  0  0  0
  152.4959  140.3103  157.1283 N   0  0  0  0  0  0  0  0  0  0  0  0
  152.4588  139.9432  155.8438 C   0  0  0  0  0  0  0  0  0  0  0  0
  151.4390  140.0122  154.9847 N   0  0  0  0  0  0  0  0  0  0  0  0
  150.3291  140.5387  155.5770 C   0  0  0  0  0  0  0  0  0  0  0  0
  150.2202  140.9738  156.9267 C   0  0  0  0  0  0  0  0  0  0  0  0
  148.9407  141.4546  157.1733 N   0  0  0  0  0  0  0  0  0  0  0  0
  148.3243  141.3085  156.0317 C   0  0  0  0  0  0  0  0  0  0  0  0
  149.0826  140.7610  155.0210 N   0  0  0  0  0  0  0  0  0  0  0  0
  148.6539  140.4861  153.6611 C   0  0  0  0  0  0  0  0  0  0  0  0
  147.4437  139.5223  153.5812 C   0  0  1  0  0  0  0  0  0  0  0  0
  146.8055  139.4752  152.1718 C   0  0  0  0  0  0  0  0  0  0  0  0
  147.4184  138.4951  151.3595 O   0  0  0  0  0  0  0  0  0  0  0  0
  147.8101  138.1140  154.1136 C   0  0  2  0  0  0  0  0  0  0  0  0
  146.6311  137.1868  154.3501 C   0  0  0  0  0  0  0  0  0  0  0  0
  147.2325  136.1334  155.2733 C   0  0  0  0  0  0  0  0  0  0  0  0
  148.1960  136.8218  156.0618 O   0  0  0  0  0  0  0  0  0  0  0  0
  148.4515  138.1078  155.5055 C   0  0  0  0  0  0  0  0  0  0  0  0
  150.9676  142.7076  160.3646 H   0  0  0  0  0  0  0  0  0  0  0  0
  153.7311  141.9296  161.0616 H   0  0  0  0  0  0  0  0  0  0  0  0
  150.3449  144.4861  156.6884 H   0  0  0  0  0  0  0  0  0  0  0  0
  151.7985  143.5432  156.9467 H   0  0  0  0  0  0  0  0  0  0  0  0
  153.2431  143.2917  158.4331 H   0  0  0  0  0  0  0  0  0  0  0  0
  153.0116  143.9418  160.0525 H   0  0  0  0  0  0  0  0  0  0  0  0
  153.0243  139.8308  159.2271 H   0  0  0  0  0  0  0  0  0  0  0  0
  152.1863  140.2681  160.7003 H   0  0  0  0  0  0  0  0  0  0  0  0
  153.3773  139.5351  155.4483 H   0  0  0  0  0  0  0  0  0  0  0  0
  147.2901  141.5907  155.8959 H   0  0  0  0  0  0  0  0  0  0  0  0
  148.4118  141.4342  153.1789 H   0  0  0  0  0  0  0  0  0  0  0  0
  149.5079  140.0762  153.1214 H   0  0  0  0  0  0  0  0  0  0  0  0
  146.6766  139.9240  154.2450 H   0  0  0  0  0  0  0  0  0  0  0  0
  145.7391  139.2609  152.2347 H   0  0  0  0  0  0  0  0  0  0  0  0
  146.8839  140.4419  151.6742 H   0  0  0  0  0  0  0  0  0  0  0  0
  147.9371  137.9297  151.9116 H   0  0  0  0  0  0  0  0  0  0  0  0
  148.4947  137.6268  153.4169 H   0  0  0  0  0  0  0  0  0  0  0  0
  145.8244  137.7152  154.8601 H   0  0  0  0  0  0  0  0  0  0  0  0
  146.2316  136.7540  153.4324 H   0  0  0  0  0  0  0  0  0  0  0  0
  146.4821  135.6443  155.8946 H   0  0  0  0  0  0  0  0  0  0  0  0
  147.7443  135.3659  154.6913 H   0  0  0  0  0  0  0  0  0  0  0  0
  149.5216  138.3131  155.4719 H   0  0  0  0  0  0  0  0  0  0  0  0
  147.9858  138.8546  156.1504 H   0  0  0  0  0  0  0  0  0  0  0  0
  1  2  1  0  0  0  0
  1 30  1  0  0  0  0
  1 31  1  0  0  0  0
  2  3  2  0  0  0  0
  2  4  1  0  0  0  0
  4 28  1  0  0  0  0
  4  9  1  0  0  0  0
  4  5  1  0  0  0  0
  5  6  1  0  0  0  0
  5 32  1  0  0  0  0
  5 33  1  0  0  0  0
  6 29  1  0  0  0  0
  6  7  1  0  0  0  0
  6  8  1  0  0  0  0
  8  9  1  0  0  0  0
  8 34  1  0  0  0  0
  8 35  1  0  0  0  0
  9 10  1  0  0  0  0
 10 15  1  0  0  0  0
 10 11  2  0  0  0  0
 11 12  1  0  0  0  0
 12 13  2  0  0  0  0
 12 36  1  0  0  0  0
 13 14  1  0  0  0  0
 14 18  1  0  0  0  0
 14 15  2  0  0  0  0
 15 16  1  0  0  0  0
 16 17  2  0  0  0  0
 17 18  1  0  0  0  0
 17 37  1  0  0  0  0
 18 19  1  0  0  0  0
 19 20  1  0  0  0  0
 19 38  1  0  0  0  0
 19 39  1  0  0  0  0
 20 21  1  0  0  0  0
 20 23  1  0  0  0  0
 20 40  1  0  0  0  0
 21 22  1  0  0  0  0
 21 41  1  0  0  0  0
 21 42  1  0  0  0  0
 22 43  1  0  0  0  0
 23 27  1  0  0  0  0
 23 24  1  0  0  0  0
 23 44  1  0  0  0  0
 24 25  1  0  0  0  0
 24 45  1  0  0  0  0
 24 46  1  0  0  0  0
 25 26  1  0  0  0  0
 25 47  1  0  0  0  0
 25 48  1  0  0  0  0
 26 27  1  0  0  0  0
 27 49  1  0  0  0  0
 27 50  1  0  0  0  0
M  END
> <s_m_source_file>
AV-unprocessed.smi

> <i_m_source_file_index>
221

> <i_lp_mmshare_version>
43012

> <i_f3d_flags>
0

> <s_epik_input>
W05IMl1DKD1PKVtDQEBIXTFbQ0gyXVtDQEBIXShGKVtDSDJdTjFjKG5bY0hdbjIpYyhjMjMpbltjSF1uM1tDSDJdW0NASF0oW0NIMl1bT0hdKVtDQEBIXTRbQ0gyXVtDSDJdT1tDSDJdNA==

> <s_epik_cmdline>
J2VwaWtfcHl0aG9uJywgJy1waCcsICc3LjAnLCAnLXRuJywgJzgnLCAnLW1hJywgJzIwMCcsICctbWV0YWxfYmluZGluZycsICctaW1hZScsICc8aW5maWxlLm1hZT4nLCAnLW9tYWUnLCAnPG91dGZpbGUubWFlPic=

> <r_lp_tautomer_probability>
1

> <r_epik_Ionization_Penalty>
0.000818822

> <r_epik_Ionization_Penalty_Charging>
0

> <r_epik_Ionization_Penalty_Neutral>
0.000818822

> <r_epik_State_Penalty>
0.000440551

> <r_epik_Charging_Adjusted_Penalty>
0.000440551

> <i_epik_Tot_Q>
0

> <i_epik_Tot_abs_Q>
0

> <r_epik_Metal_State_Penalty>
-0

> <b_epik_Metal_Only>
0

> <s_lp_Force_Field>
OPLS_2005

> <r_lp_Energy>
53.4739

> <b_lp_Chiralities_Consistent>
1

> <s_lp_Variant>
AV-unprocessed.smi:221-7

> <Gold.Version>
5.8.1

> <Gold.Id.Protein>
6NUR|6NUR_protein|mol2

> <Gold.PLP.Fitness>
46.3841

> <Gold.PLP.PLP>
-37.2117

> <Gold.PLP.part.hbond>
-6.0000

> <Gold.PLP.part.metal>
0.0000

> <Gold.PLP.part.buried>
1.1317

> <Gold.PLP.part.nonpolar>
-32.9392

> <Gold.PLP.part.repulsive>
1.2314

> <Gold.PLP.ligand.clash>
0.0000

> <Gold.PLP.ligand.torsion>
1.0574

> <Gold.PLP.Chemscore.Hbond>
3.5254

> <Gold.PLP.Chemscore.CHOScore>
0.0000

> <Gold.PLP.Chemscore.Metal>
0.0000

> <Gold.Chemscore.Hbonds>
donor molecule, donor type, donor heavy atom, donor atom, acceptor molecule, acceptor atom, score
      L1  H     1    30       P1  8028  1.00
      L1  H    22    43       P1  7948  0.80
      P1  H  7954  7966       L1    22  0.60
      P1  H  7989  7998       L1    13  1.00
      P1  H  7997  8008       L1    11  0.05

> <Gold.PLP.Chemscore.Internal.Correction>
0.7109

> <Gold.Rescore>
     Score         DG    S(hbond)    S(metal)    S(lipo)     H(rot)  DE(clash)    DE(int)     intcor
      3.26     -11.28       2.13        0.00      70.22       3.72       1.70       6.33       ----

> <Gold.Chemscore.Fitness>
3.2556

> <Gold.Chemscore.DG>
-11.2797

> <Gold.Chemscore.ZeroCoef>
-5.4800

> <Gold.Chemscore.Hbond>
2.1280

> <Gold.Chemscore.Metal>
0.0000

> <Gold.Chemscore.Lipo>
70.2213

> <Gold.Chemscore.Internal_Hbond>
0.0000

> <Gold.Chemscore.DEClash>
1.6954

> <Gold.Chemscore.DEInternal>
6.3288

> <Gold.Chemscore.Rot>
3.7202

> <Gold.Chemscore.Internal.Correction>
   9.000000E+99

> <Gold.Chemscore.Hbonds>
donor molecule, donor type, donor heavy atom, donor atom, acceptor molecule, acceptor atom, score
      L1  H     1    30       P1  8028  0.90
      L1  H    22    43       P1  7948  0.79
      P1  H  7954  7966       L1    22  0.04
      P1  H  7989  7998       L1    13  0.53

> <Gold.Chemscore.Hbond.Weighted>
-7.1076

> <Gold.Chemscore.Metal.Weighted>
-0.0000

> <Gold.Chemscore.Lipo.Weighted>
-8.2159

> <Gold.Chemscore.Internal_Hbond.Weighted>
0.0000

> <Gold.Chemscore.DEClash.Weighted>
1.6954

> <Gold.Chemscore.DEInternal.Weighted>
6.3288

> <Gold.Chemscore.Rot.Weighted>
9.5237

> <Gold.Chemscore.Internal.Correction.Weighted>
   9.000000E+99

> <Gold.Protein.RotatedTorsions>
[ 6907 6896 6895 6894 ] final  123.59 input  -60.11 | X-H torsion
[ 7974 7965 7964 7962 ] final  149.66 input  175.53 | X-H torsion
[ 8008 7997 7996 7995 ] final -101.01 input   59.86 | X-H torsion
[ 10167 10162 10161 10158 ] final  148.07 input  -65.29 | X-H torsion
[ 10718 10713 10712 10709 ] final -104.80 input   66.30 | X-H torsion
[ 10763 10752 10751 10750 ] final   58.62 input  -60.55 | X-H torsion
[ 11005 11000 10999 10996 ] final -179.77 input  -57.11 | X-H torsion

> <Gold.Protein.ActiveResidues>
 VAL166  LYS551  ARG553  GLY616  TRP617  ASP618  TYR619  PRO620  LYS621  CYS622 
 ASP623  PHE694  ASN695  SER759  ASP760  ASP761  ALA762  ILE779  LEU786  VAL792 
 PHE793  MET794  SER795  GLU796  ALA797  LYS798  CYS799  TRP800  GLU811  SER814 

> <Gold.Protein.RotatedAtoms>
  152.4149  133.7022  159.6430 H   0  0  0  0  0  0  0  0  0  0  0  0  # atno 6907 bound_to 6896
  150.8027  133.8558  159.3226 H   0  0  0  0  0  0  0  0  0  0  0  0  # atno 6908 bound_to 6896
  151.6290  135.1026  160.0169 H   0  0  0  0  0  0  0  0  0  0  0  0  # atno 6909 bound_to 6896
  144.8422  139.6308  143.6011 H   0  0  0  0  0  0  0  0  0  0  0  0  # atno 7974 bound_to 7965
  154.8366  140.0437  157.1513 H   0  0  0  0  0  0  0  0  0  0  0  0  # atno 8008 bound_to 7997
  154.9093  140.3011  155.5254 H   0  0  0  0  0  0  0  0  0  0  0  0  # atno 8009 bound_to 7997
  156.2990  140.2361  156.4131 H   0  0  0  0  0  0  0  0  0  0  0  0  # atno 8010 bound_to 7997
  139.4880  144.5707  151.7060 H   0  0  0  0  0  0  0  0  0  0  0  0  # atno 10167 bound_to 10162
  156.0319  130.5533  150.7448 H   0  0  0  0  0  0  0  0  0  0  0  0  # atno 10718 bound_to 10713
  152.9875  135.5600  154.5582 H   0  0  0  0  0  0  0  0  0  0  0  0  # atno 10763 bound_to 10752
  154.5006  135.2797  155.1426 H   0  0  0  0  0  0  0  0  0  0  0  0  # atno 10764 bound_to 10752
  154.2858  135.6336  153.5418 H   0  0  0  0  0  0  0  0  0  0  0  0  # atno 10765 bound_to 10752
  140.4150  134.6658  157.4634 H   0  0  0  0  0  0  0  0  0  0  0  0  # atno 11005 bound_to 11000
  146.2712  139.6641  142.9294 LP  0  0  0  0  0  0  0  0  0  0  0  0  # atno 17320 bound_to 7965
  145.4671  141.0435  143.2719 LP  0  0  0  0  0  0  0  0  0  0  0  0  # atno 17321 bound_to 7965
  140.5294  144.0754  150.6048 LP  0  0  0  0  0  0  0  0  0  0  0  0  # atno 17342 bound_to 10162
  140.3739  143.2839  152.0247 LP  0  0  0  0  0  0  0  0  0  0  0  0  # atno 17343 bound_to 10162
  157.5008  131.0918  151.0317 LP  0  0  0  0  0  0  0  0  0  0  0  0  # atno 17370 bound_to 10713
  157.0698  130.5859  149.5400 LP  0  0  0  0  0  0  0  0  0  0  0  0  # atno 17371 bound_to 10713
  140.0241  134.6504  155.9198 LP  0  0  0  0  0  0  0  0  0  0  0  0  # atno 17394 bound_to 11000
  141.1806  133.6546  156.5006 LP  0  0  0  0  0  0  0  0  0  0  0  0  # atno 17395 bound_to 11000

$$$$
