AV-unprocessed.smi:1840|AV-procd|sdf|7492|dock1
  -GOLD-   22720 9193D 1   1.00000     0.00000
 Structure written by MMmdl.
 43 44  0  0  0  0  0  0  0  0  1 V2000
  146.5290  140.0206  154.3882 C   0  0  0  0  0  0  0  0  0  0  0  0
  147.7740  139.1325  154.5132 C   0  0  2  0  0  0  0  0  0  0  0  0
  149.0189  139.8145  153.9047 C   0  0  0  0  0  0  0  0  0  0  0  0
  150.2636  139.2778  154.4301 N   0  0  0  0  0  0  0  0  0  0  0  0
  150.7017  137.9703  154.4276 C   0  0  0  0  0  0  0  0  0  0  0  0
  151.9415  137.9564  155.0000 C   0  0  0  0  0  0  0  0  0  0  0  0
  152.1786  139.3206  155.3276 C   0  0  0  0  0  0  0  0  0  0  0  0
  151.1707  140.1085  154.9905 N   0  0  0  0  0  0  0  0  0  0  0  0
  147.5184  137.8511  153.8567 N   0  0  0  0  0  0  0  0  0  0  0  0
  146.7021  136.8933  154.3200 C   0  0  0  0  0  0  0  0  0  0  0  0
  145.9687  137.0216  155.3006 O   0  0  0  0  0  0  0  0  0  0  0  0
  146.8228  135.7598  153.6169 N   0  0  0  0  0  0  0  0  0  0  0  0
  146.1740  134.4893  153.9421 C   0  0  2  0  0  0  0  0  0  0  0  0
  147.2192  133.3685  154.1481 C   0  0  0  0  0  0  0  0  0  0  0  0
  147.9229  132.9860  152.8353 C   0  0  0  0  0  0  0  0  0  0  0  0
  146.9028  132.5907  151.7570 C   0  0  0  0  0  0  0  0  0  0  0  0
  145.8625  133.7008  151.5337 C   0  0  0  0  0  0  0  0  0  0  0  0
  145.1526  134.0906  152.8480 C   0  0  2  0  0  0  0  0  0  0  0  0
  144.0782  135.1664  152.6136 C   0  0  0  0  0  0  0  0  0  0  0  0
  146.6777  140.9754  154.8928 H   0  0  0  0  0  0  0  0  0  0  0  0
  145.6589  139.5428  154.8398 H   0  0  0  0  0  0  0  0  0  0  0  0
  146.2916  140.2293  153.3444 H   0  0  0  0  0  0  0  0  0  0  0  0
  147.9517  138.9752  155.5787 H   0  0  0  0  0  0  0  0  0  0  0  0
  149.0174  139.7147  152.8177 H   0  0  0  0  0  0  0  0  0  0  0  0
  149.0005  140.8839  154.1175 H   0  0  0  0  0  0  0  0  0  0  0  0
  150.1056  137.1701  154.0139 H   0  0  0  0  0  0  0  0  0  0  0  0
  152.5833  137.1022  155.1567 H   0  0  0  0  0  0  0  0  0  0  0  0
  153.0475  139.7589  155.7963 H   0  0  0  0  0  0  0  0  0  0  0  0
  148.0761  137.6423  153.0415 H   0  0  0  0  0  0  0  0  0  0  0  0
  147.4560  135.7547  152.8307 H   0  0  0  0  0  0  0  0  0  0  0  0
  145.6284  134.6241  154.8781 H   0  0  0  0  0  0  0  0  0  0  0  0
  147.9597  133.6609  154.8936 H   0  0  0  0  0  0  0  0  0  0  0  0
  146.7209  132.4872  154.5541 H   0  0  0  0  0  0  0  0  0  0  0  0
  148.5275  133.8224  152.4824 H   0  0  0  0  0  0  0  0  0  0  0  0
  148.6143  132.1617  153.0124 H   0  0  0  0  0  0  0  0  0  0  0  0
  147.4179  132.3701  150.8216 H   0  0  0  0  0  0  0  0  0  0  0  0
  146.3962  131.6717  152.0546 H   0  0  0  0  0  0  0  0  0  0  0  0
  146.3507  134.5743  151.0999 H   0  0  0  0  0  0  0  0  0  0  0  0
  145.1281  133.3659  150.8005 H   0  0  0  0  0  0  0  0  0  0  0  0
  144.6310  133.2019  153.2071 H   0  0  0  0  0  0  0  0  0  0  0  0
  144.5038  136.0807  152.1991 H   0  0  0  0  0  0  0  0  0  0  0  0
  143.5737  135.4255  153.5449 H   0  0  0  0  0  0  0  0  0  0  0  0
  143.3180  134.8132  151.9162 H   0  0  0  0  0  0  0  0  0  0  0  0
  1  2  1  0  0  0  0
  1 20  1  0  0  0  0
  1 21  1  0  0  0  0
  1 22  1  0  0  0  0
  2  3  1  0  0  0  0
  2  9  1  0  0  0  0
  2 23  1  0  0  0  0
  3  4  1  0  0  0  0
  3 24  1  0  0  0  0
  3 25  1  0  0  0  0
  4  8  1  0  0  0  0
  4  5  1  0  0  0  0
  5  6  2  0  0  0  0
  5 26  1  0  0  0  0
  6  7  1  0  0  0  0
  6 27  1  0  0  0  0
  7  8  2  0  0  0  0
  7 28  1  0  0  0  0
  9 10  1  0  0  0  0
  9 29  1  0  0  0  0
 10 11  2  0  0  0  0
 10 12  1  0  0  0  0
 12 13  1  0  0  0  0
 12 30  1  0  0  0  0
 13 18  1  0  0  0  0
 13 14  1  0  0  0  0
 13 31  1  0  0  0  0
 14 15  1  0  0  0  0
 14 32  1  0  0  0  0
 14 33  1  0  0  0  0
 15 16  1  0  0  0  0
 15 34  1  0  0  0  0
 15 35  1  0  0  0  0
 16 17  1  0  0  0  0
 16 36  1  0  0  0  0
 16 37  1  0  0  0  0
 17 18  1  0  0  0  0
 17 38  1  0  0  0  0
 17 39  1  0  0  0  0
 18 19  1  0  0  0  0
 18 40  1  0  0  0  0
 19 41  1  0  0  0  0
 19 42  1  0  0  0  0
 19 43  1  0  0  0  0
M  END
> <s_m_source_file>
AV-unprocessed.smi

> <i_m_source_file_index>
1840

> <i_lp_mmshare_version>
43012

> <i_f3d_flags>
0

> <s_epik_input>
bjFbY0hdW2NIXVtjSF1uMVtDSDJdW0NAQEhdKFtDSDNdKVtOSF1DKD1PKVtOSF1bQ0BASF0yW0NIMl1bQ0gyXVtDSDJdW0NIMl1bQ0BIXTJbQ0gzXQ==

> <s_epik_cmdline>
J2VwaWtfcHl0aG9uJywgJy1waCcsICc3LjAnLCAnLXRuJywgJzgnLCAnLW1hJywgJzIwMCcsICctbWV0YWxfYmluZGluZycsICctaW1hZScsICc8aW5maWxlLm1hZT4nLCAnLW9tYWUnLCAnPG91dGZpbGUubWFlPic=

> <r_lp_tautomer_probability>
1

> <r_epik_Ionization_Penalty>
7.38659e-05

> <r_epik_Ionization_Penalty_Charging>
0

> <r_epik_Ionization_Penalty_Neutral>
7.38659e-05

> <r_epik_State_Penalty>
-0

> <r_epik_Charging_Adjusted_Penalty>
0

> <i_epik_Tot_Q>
0

> <i_epik_Tot_abs_Q>
0

> <r_epik_Metal_State_Penalty>
-0

> <b_epik_Metal_Only>
0

> <s_lp_Force_Field>
OPLS_2005

> <r_lp_Energy>
6.60397

> <b_lp_Chiralities_Consistent>
1

> <s_lp_Variant>
AV-unprocessed.smi:1840-5

> <Gold.Version>
5.8.1

> <Gold.Id.Protein>
6NUR|6NUR_protein|mol2

> <Gold.PLP.Fitness>
39.3338

> <Gold.PLP.PLP>
-28.5716

> <Gold.PLP.part.hbond>
-3.0000

> <Gold.PLP.part.metal>
0.0000

> <Gold.PLP.part.buried>
-0.8923

> <Gold.PLP.part.nonpolar>
-25.3789

> <Gold.PLP.part.repulsive>
0.0719

> <Gold.PLP.ligand.clash>
0.0000

> <Gold.PLP.ligand.torsion>
0.3913

> <Gold.PLP.Chemscore.Hbond>
2.8260

> <Gold.PLP.Chemscore.CHOScore>
1.0000

> <Gold.PLP.Chemscore.Metal>
0.0000

> <Gold.Chemscore.Hbonds>
donor molecule, donor type, donor heavy atom, donor atom, acceptor molecule, acceptor atom, score
      L1  H     9    29       P1  7948  0.98
      L1  H    12    30       P1  7948  1.00
      P1  H  7989  7998       L1     8  0.80
      L1  C     5    26       P1  7948  0.88

> <Gold.PLP.Chemscore.Internal.Correction>
0.0669

> <Gold.Rescore>
     Score         DG    S(hbond)    S(metal)    S(lipo)     H(rot)  DE(clash)    DE(int)     intcor
     16.61     -18.53       2.73        0.00      67.80       1.56       1.39       0.53       ----

> <Gold.Chemscore.Fitness>
16.6115

> <Gold.Chemscore.DG>
-18.5344

> <Gold.Chemscore.ZeroCoef>
-5.4800

> <Gold.Chemscore.Hbond>
2.7274

> <Gold.Chemscore.Metal>
0.0000

> <Gold.Chemscore.Lipo>
67.7976

> <Gold.Chemscore.Internal_Hbond>
0.0000

> <Gold.Chemscore.DEClash>
1.3883

> <Gold.Chemscore.DEInternal>
0.5346

> <Gold.Chemscore.Rot>
1.5576

> <Gold.Chemscore.Internal.Correction>
   9.000000E+99

> <Gold.Chemscore.Hbonds>
donor molecule, donor type, donor heavy atom, donor atom, acceptor molecule, acceptor atom, score
      L1  H     9    29       P1  7948  0.87
      L1  H    12    30       P1  7948  0.99
      P1  H  7989  7998       L1     8  0.06

> <Gold.Chemscore.Hbond.Weighted>
-9.1096

> <Gold.Chemscore.Metal.Weighted>
-0.0000

> <Gold.Chemscore.Lipo.Weighted>
-7.9323

> <Gold.Chemscore.Internal_Hbond.Weighted>
0.0000

> <Gold.Chemscore.DEClash.Weighted>
1.3883

> <Gold.Chemscore.DEInternal.Weighted>
0.5346

> <Gold.Chemscore.Rot.Weighted>
3.9875

> <Gold.Chemscore.Internal.Correction.Weighted>
   9.000000E+99

> <Gold.Protein.RotatedTorsions>
[ 6907 6896 6895 6894 ] final  -14.49 input  -60.11 | X-H torsion
[ 7974 7965 7964 7962 ] final   52.47 input  175.53 | X-H torsion
[ 8008 7997 7996 7995 ] final    0.44 input   59.86 | X-H torsion
[ 10167 10162 10161 10158 ] final   41.02 input  -65.29 | X-H torsion
[ 10718 10713 10712 10709 ] final  163.87 input   66.30 | X-H torsion
[ 10763 10752 10751 10750 ] final  -26.38 input  -60.55 | X-H torsion
[ 11005 11000 10999 10996 ] final    7.86 input  -57.11 | X-H torsion

> <Gold.Protein.ActiveResidues>
 VAL166  LYS551  ARG553  GLY616  TRP617  ASP618  TYR619  PRO620  LYS621  CYS622 
 ASP623  PHE694  ASN695  SER759  ASP760  ASP761  ALA762  ILE779  LEU786  VAL792 
 PHE793  MET794  SER795  GLU796  ALA797  LYS798  CYS799  TRP800  GLU811  SER814 

> <Gold.Protein.RotatedAtoms>
  151.3386  135.0858  159.9362 H   0  0  0  0  0  0  0  0  0  0  0  0  # atno 6907 bound_to 6896
  152.5217  133.9470  159.7664 H   0  0  0  0  0  0  0  0  0  0  0  0  # atno 6908 bound_to 6896
  150.9822  133.6180  159.2750 H   0  0  0  0  0  0  0  0  0  0  0  0  # atno 6909 bound_to 6896
  145.9810  139.4242  143.0132 H   0  0  0  0  0  0  0  0  0  0  0  0  # atno 7974 bound_to 7965
  154.6682  140.2606  155.7036 H   0  0  0  0  0  0  0  0  0  0  0  0  # atno 8008 bound_to 7997
  156.2647  140.2835  156.1102 H   0  0  0  0  0  0  0  0  0  0  0  0  # atno 8009 bound_to 7997
  155.1208  140.0377  157.2739 H   0  0  0  0  0  0  0  0  0  0  0  0  # atno 8010 bound_to 7997
  140.3684  144.2137  150.6134 H   0  0  0  0  0  0  0  0  0  0  0  0  # atno 10167 bound_to 10162
  157.1025  131.0446  151.2492 H   0  0  0  0  0  0  0  0  0  0  0  0  # atno 10718 bound_to 10713
  153.7151  135.6948  153.5027 H   0  0  0  0  0  0  0  0  0  0  0  0  # atno 10763 bound_to 10752
  153.2244  135.4358  155.0525 H   0  0  0  0  0  0  0  0  0  0  0  0  # atno 10764 bound_to 10752
  154.8302  135.3468  154.6686 H   0  0  0  0  0  0  0  0  0  0  0  0  # atno 10765 bound_to 10752
  140.5434  134.0352  155.7912 H   0  0  0  0  0  0  0  0  0  0  0  0  # atno 11005 bound_to 11000
  145.7769  140.9873  143.1120 LP  0  0  0  0  0  0  0  0  0  0  0  0  # atno 17320 bound_to 7965
  144.6861  139.9516  143.7478 LP  0  0  0  0  0  0  0  0  0  0  0  0  # atno 17321 bound_to 7965
  140.5057  143.2305  151.8611 LP  0  0  0  0  0  0  0  0  0  0  0  0  # atno 17342 bound_to 10162
  139.4806  144.5008  151.9063 LP  0  0  0  0  0  0  0  0  0  0  0  0  # atno 17343 bound_to 10162
  157.4629  130.7663  149.7252 LP  0  0  0  0  0  0  0  0  0  0  0  0  # atno 17370 bound_to 10713
  155.9870  130.3970  150.3185 LP  0  0  0  0  0  0  0  0  0  0  0  0  # atno 17371 bound_to 10713
  141.1214  133.9455  157.2722 LP  0  0  0  0  0  0  0  0  0  0  0  0  # atno 17394 bound_to 11000
  139.9492  135.0178  156.8943 LP  0  0  0  0  0  0  0  0  0  0  0  0  # atno 17395 bound_to 11000

$$$$
