AV-unprocessed.smi:2024|AV-procd|sdf|8195|dock10
  -GOLD-   2272010453D 1   1.00000     0.00000
 Structure written by MMmdl.
 43 44  0  0  0  0  0  0  0  0  3 V2000
  144.3725  133.0501  150.8077 C   0  0  0  0  0  0  0  0  0  0  0  0
  145.4911  133.9578  150.5769 N   0  0  0  0  0  0  0  0  0  0  0  0
  145.2830  135.2864  151.1521 C   0  0  0  0  0  0  0  0  0  0  0  0
  145.3671  135.2784  152.6930 C   0  0  0  0  0  0  0  0  0  0  0  0
  146.6826  134.7430  153.1469 N   0  3  0  0  0  0  0  0  0  0  0  0
  146.9783  134.8861  154.6180 C   0  0  0  0  0  0  0  0  0  0  0  0
  146.3890  136.2180  155.1470 C   0  0  0  0  0  0  0  0  0  0  0  0
  146.2534  133.7604  155.3984 C   0  0  0  0  0  0  0  0  0  0  0  0
  148.5121  134.8461  154.8919 C   0  0  0  0  0  0  0  0  0  0  0  0
  149.1947  136.0923  154.5472 N   0  0  0  0  0  0  0  0  0  0  0  0
  149.5817  137.0517  155.4001 C   0  0  0  0  0  0  0  0  0  0  0  0
  149.3751  136.9228  156.6091 O   0  0  0  0  0  0  0  0  0  0  0  0
  150.1740  138.1052  154.7955 N   0  5  0  0  0  0  0  0  0  0  0  0
  150.1778  139.3073  155.3940 C   0  0  0  0  0  0  0  0  0  0  0  0
  150.0431  140.4571  154.7236 N   0  0  0  0  0  0  0  0  0  0  0  0
  150.0728  141.5853  155.5455 C   0  0  0  0  0  0  0  0  0  0  0  0
  150.2241  141.2867  156.8735 C   0  0  0  0  0  0  0  0  0  0  0  0
  150.3327  139.5693  157.1337 S   0  0  0  0  0  0  0  0  0  0  0  0
  146.8793  133.3820  152.5715 C   0  0  0  0  0  0  0  0  0  0  0  0
  146.7725  133.4204  151.0324 C   0  0  0  0  0  0  0  0  0  0  0  0
  143.4553  133.4694  150.3929 H   0  0  0  0  0  0  0  0  0  0  0  0
  144.2034  132.8519  151.8654 H   0  0  0  0  0  0  0  0  0  0  0  0
  144.5525  132.0963  150.3108 H   0  0  0  0  0  0  0  0  0  0  0  0
  146.0402  135.9610  150.7502 H   0  0  0  0  0  0  0  0  0  0  0  0
  144.3185  135.6778  150.8264 H   0  0  0  0  0  0  0  0  0  0  0  0
  145.2240  136.3042  153.0256 H   0  0  0  0  0  0  0  0  0  0  0  0
  144.5461  134.6993  153.1147 H   0  0  0  0  0  0  0  0  0  0  0  0
  146.4045  136.2612  156.2369 H   0  0  0  0  0  0  0  0  0  0  0  0
  145.3509  136.3451  154.8376 H   0  0  0  0  0  0  0  0  0  0  0  0
  146.9523  137.0861  154.8056 H   0  0  0  0  0  0  0  0  0  0  0  0
  146.2583  133.9449  156.4731 H   0  0  0  0  0  0  0  0  0  0  0  0
  146.7247  132.7878  155.2583 H   0  0  0  0  0  0  0  0  0  0  0  0
  145.2086  133.6757  155.0970 H   0  0  0  0  0  0  0  0  0  0  0  0
  148.7215  134.5885  155.9300 H   0  0  0  0  0  0  0  0  0  0  0  0
  148.9849  134.0679  154.2938 H   0  0  0  0  0  0  0  0  0  0  0  0
  149.3914  136.2463  153.5690 H   0  0  0  0  0  0  0  0  0  0  0  0
  149.9788  142.5642  155.0995 H   0  0  0  0  0  0  0  0  0  0  0  0
  150.2764  141.9671  157.7099 H   0  0  0  0  0  0  0  0  0  0  0  0
  147.8664  132.9926  152.8107 H   0  0  0  0  0  0  0  0  0  0  0  0
  146.1586  132.6787  152.9876 H   0  0  0  0  0  0  0  0  0  0  0  0
  146.9185  132.4228  150.6168 H   0  0  0  0  0  0  0  0  0  0  0  0
  147.5723  134.0422  150.6279 H   0  0  0  0  0  0  0  0  0  0  0  0
  147.3732  135.3229  152.6925 H   0  0  0  0  0  0  0  0  0  0  0  0
  1  2  1  0  0  0  0
  1 21  1  0  0  0  0
  1 22  1  0  0  0  0
  1 23  1  0  0  0  0
  2 20  1  0  0  0  0
  2  3  1  0  0  0  0
  3  4  1  0  0  0  0
  3 24  1  0  0  0  0
  3 25  1  0  0  0  0
  4  5  1  0  0  0  0
  4 26  1  0  0  0  0
  4 27  1  0  0  0  0
  5  6  1  0  0  0  0
  5 19  1  0  0  0  0
  5 43  1  0  0  0  0
  6  7  1  0  0  0  0
  6  8  1  0  0  0  0
  6  9  1  0  0  0  0
  7 28  1  0  0  0  0
  7 29  1  0  0  0  0
  7 30  1  0  0  0  0
  8 31  1  0  0  0  0
  8 32  1  0  0  0  0
  8 33  1  0  0  0  0
  9 10  1  0  0  0  0
  9 34  1  0  0  0  0
  9 35  1  0  0  0  0
 10 11  1  0  0  0  0
 10 36  1  0  0  0  0
 11 12  2  0  0  0  0
 11 13  1  0  0  0  0
 13 14  1  0  0  0  0
 14 18  1  0  0  0  0
 14 15  2  0  0  0  0
 15 16  1  0  0  0  0
 16 17  2  0  0  0  0
 16 37  1  0  0  0  0
 17 18  1  0  0  0  0
 17 38  1  0  0  0  0
 19 20  1  0  0  0  0
 19 39  1  0  0  0  0
 19 40  1  0  0  0  0
 20 41  1  0  0  0  0
 20 42  1  0  0  0  0
M  CHG  1   5   1
M  CHG  1  13  -1
M  END
> <s_m_source_file>
AV-unprocessed.smi

> <i_m_source_file_index>
2024

> <i_lp_mmshare_version>
43012

> <i_f3d_flags>
0

> <s_epik_input>
W0NIM11OMVtDSDJdW0NIMl1OKFtDSDJdW0NIMl0xKUMoW0NIM10pKFtDSDNdKVtDSDJdW05IXUMoPU8pW05IXWMybltjSF1bY0hdczI=

> <s_epik_cmdline>
J2VwaWtfcHl0aG9uJywgJy1waCcsICc3LjAnLCAnLXRuJywgJzgnLCAnLW1hJywgJzIwMCcsICctbWV0YWxfYmluZGluZycsICctaW1hZScsICc8aW5maWxlLm1hZT4nLCAnLW9tYWUnLCAnPG91dGZpbGUubWFlPic=

> <r_epik_Ionization_Penalty>
6.29536

> <r_epik_Ionization_Penalty_Charging>
5.46232

> <r_epik_Ionization_Penalty_Neutral>
0.833035

> <r_epik_State_Penalty>
6.42136

> <r_epik_Charging_Adjusted_Penalty>
11.8837

> <i_epik_Tot_Q>
0

> <i_epik_Tot_abs_Q>
2

> <r_epik_Metal_State_Penalty>
2.42657

> <b_epik_Metal_Only>
1

> <s_lp_Force_Field>
OPLS_2005

> <r_lp_Energy>
16.4996

> <b_lp_Chiralities_Consistent>
1

> <s_lp_Variant>
AV-unprocessed.smi:2024-5

> <Gold.Version>
5.8.1

> <Gold.Id.Protein>
6NUR|6NUR_protein|mol2

> <Gold.PLP.Fitness>
37.4415

> <Gold.PLP.PLP>
-24.7776

> <Gold.PLP.part.hbond>
-3.0000

> <Gold.PLP.part.metal>
0.0000

> <Gold.PLP.part.buried>
-4.7990

> <Gold.PLP.part.nonpolar>
-17.2279

> <Gold.PLP.part.repulsive>
0.4757

> <Gold.PLP.ligand.clash>
0.0000

> <Gold.PLP.ligand.torsion>
1.1898

> <Gold.PLP.Chemscore.Hbond>
3.9760

> <Gold.PLP.Chemscore.CHOScore>
1.0000

> <Gold.PLP.Chemscore.Metal>
0.0000

> <Gold.Chemscore.Hbonds>
donor molecule, donor type, donor heavy atom, donor atom, acceptor molecule, acceptor atom, score
      L1  H     5    43       P1  7948  2.00
      L1  H    10    36       P1  7948  1.00
      P1  H  7989  7998       L1    15  0.90
      L1  C    16    37       P1  8028  1.00

> <Gold.PLP.Chemscore.Internal.Correction>
0.1154

> <Gold.Rescore>
     Score         DG    S(hbond)    S(metal)    S(lipo)     H(rot)  DE(clash)    DE(int)     intcor
     13.71     -15.96       2.56        0.00      50.88       1.57       0.00       2.25       ----

> <Gold.Chemscore.Fitness>
13.7139

> <Gold.Chemscore.DG>
-15.9629

> <Gold.Chemscore.ZeroCoef>
-5.4800

> <Gold.Chemscore.Hbond>
2.5581

> <Gold.Chemscore.Metal>
0.0000

> <Gold.Chemscore.Lipo>
50.8757

> <Gold.Chemscore.Internal_Hbond>
0.0000

> <Gold.Chemscore.DEClash>
0.0000

> <Gold.Chemscore.DEInternal>
2.2490

> <Gold.Chemscore.Rot>
1.5678

> <Gold.Chemscore.Internal.Correction>
   9.000000E+99

> <Gold.Chemscore.Hbonds>
donor molecule, donor type, donor heavy atom, donor atom, acceptor molecule, acceptor atom, score
      L1  H     5    43       P1  7948  0.97
      L1  H    10    36       P1  7948  0.73
      P1  H  7989  7998       L1    15  0.19

> <Gold.Chemscore.Hbond.Weighted>
-8.5441

> <Gold.Chemscore.Metal.Weighted>
-0.0000

> <Gold.Chemscore.Lipo.Weighted>
-5.9525

> <Gold.Chemscore.Internal_Hbond.Weighted>
0.0000

> <Gold.Chemscore.DEClash.Weighted>
0.0000

> <Gold.Chemscore.DEInternal.Weighted>
2.2490

> <Gold.Chemscore.Rot.Weighted>
4.0136

> <Gold.Chemscore.Internal.Correction.Weighted>
   9.000000E+99

> <Gold.Protein.RotatedTorsions>
[ 6907 6896 6895 6894 ] final  -76.58 input  -60.11 | X-H torsion
[ 7974 7965 7964 7962 ] final   97.92 input  175.53 | X-H torsion
[ 8008 7997 7996 7995 ] final  143.48 input   59.86 | X-H torsion
[ 10167 10162 10161 10158 ] final -169.80 input  -65.29 | X-H torsion
[ 10718 10713 10712 10709 ] final  143.04 input   66.30 | X-H torsion
[ 10763 10752 10751 10750 ] final -157.95 input  -60.55 | X-H torsion
[ 11005 11000 10999 10996 ] final -139.78 input  -57.11 | X-H torsion

> <Gold.Protein.ActiveResidues>
 VAL166  LYS551  ARG553  GLY616  TRP617  ASP618  TYR619  PRO620  LYS621  CYS622 
 ASP623  PHE694  ASN695  SER759  ASP760  ASP761  ALA762  ILE779  LEU786  VAL792 
 PHE793  MET794  SER795  GLU796  ALA797  LYS798  CYS799  TRP800  GLU811  SER814 

> <Gold.Protein.RotatedAtoms>
  150.7023  134.4551  159.5354 H   0  0  0  0  0  0  0  0  0  0  0  0  # atno 6907 bound_to 6896
  152.2236  134.8386  160.0492 H   0  0  0  0  0  0  0  0  0  0  0  0  # atno 6908 bound_to 6896
  151.9228  133.3555  159.3940 H   0  0  0  0  0  0  0  0  0  0  0  0  # atno 6909 bound_to 6896
  145.4190  139.2324  143.3206 H   0  0  0  0  0  0  0  0  0  0  0  0  # atno 7974 bound_to 7965
  156.2929  140.2261  156.4897 H   0  0  0  0  0  0  0  0  0  0  0  0  # atno 8008 bound_to 7997
  154.7782  140.0462  157.1127 H   0  0  0  0  0  0  0  0  0  0  0  0  # atno 8009 bound_to 7997
  154.9791  140.3076  155.4957 H   0  0  0  0  0  0  0  0  0  0  0  0  # atno 8010 bound_to 7997
  139.5901  144.1233  152.1623 H   0  0  0  0  0  0  0  0  0  0  0  0  # atno 10167 bound_to 10162
  157.3736  131.0982  151.0805 H   0  0  0  0  0  0  0  0  0  0  0  0  # atno 10718 bound_to 10713
  154.7595  135.3114  154.8405 H   0  0  0  0  0  0  0  0  0  0  0  0  # atno 10763 bound_to 10752
  153.9170  135.6799  153.4753 H   0  0  0  0  0  0  0  0  0  0  0  0  # atno 10764 bound_to 10752
  153.1195  135.4829  154.9102 H   0  0  0  0  0  0  0  0  0  0  0  0  # atno 10765 bound_to 10752
  140.8487  134.2313  157.4772 H   0  0  0  0  0  0  0  0  0  0  0  0  # atno 11005 bound_to 11000
  146.2666  140.4912  142.8831 LP  0  0  0  0  0  0  0  0  0  0  0  0  # atno 17320 bound_to 7965
  144.8258  140.6626  143.6323 LP  0  0  0  0  0  0  0  0  0  0  0  0  # atno 17321 bound_to 7965
  140.0805  144.5704  150.7126 LP  0  0  0  0  0  0  0  0  0  0  0  0  # atno 17342 bound_to 10162
  140.7165  143.2549  151.4417 LP  0  0  0  0  0  0  0  0  0  0  0  0  # atno 17343 bound_to 10162
  157.1900  130.6347  149.5701 LP  0  0  0  0  0  0  0  0  0  0  0  0  # atno 17370 bound_to 10713
  155.9760  130.4725  150.6502 LP  0  0  0  0  0  0  0  0  0  0  0  0  # atno 17371 bound_to 10713
  139.8704  134.9672  156.4589 LP  0  0  0  0  0  0  0  0  0  0  0  0  # atno 17394 bound_to 11000
  140.8814  133.7915  155.9471 LP  0  0  0  0  0  0  0  0  0  0  0  0  # atno 17395 bound_to 11000

$$$$
