AV-unprocessed.smi:2430|AV-procd|sdf|9583|dock3
  -GOLD-   2272013213D 1   1.00000     0.00000
 Structure written by MMmdl.
 46 47  0  0  0  0  0  0  0  0  1 V2000
  154.2384  141.7636  159.7240 C   0  0  0  0  0  0  0  0  0  0  0  0
  152.7315  141.7510  160.0368 C   0  0  2  0  0  0  0  0  0  0  0  0
  151.9532  140.6672  159.2643 C   0  0  0  0  0  0  0  0  0  0  0  0
  151.7616  141.0508  157.8685 N   0  0  0  0  0  0  0  0  0  0  0  0
  151.3131  140.0203  157.0153 C   0  0  0  0  0  0  0  0  0  0  0  0
  151.4762  140.1386  155.6151 C   0  0  0  0  0  0  0  0  0  0  0  0
  151.0220  139.1016  154.7780 C   0  0  0  0  0  0  0  0  0  0  0  0
  150.4068  137.9707  155.3623 C   0  0  0  0  0  0  0  0  0  0  0  0
  149.9253  136.8551  154.6269 N   0  0  0  0  0  0  0  0  0  0  0  0
  149.8476  135.5726  155.0203 C   0  0  0  0  0  0  0  0  0  0  0  0
  150.1949  135.1443  156.1208 O   0  0  0  0  0  0  0  0  0  0  0  0
  149.3612  134.7943  154.0434 N   0  0  0  0  0  0  0  0  0  0  0  0
  149.2007  133.3473  154.1287 C   0  0  0  0  0  0  0  0  0  0  0  0
  148.7921  132.7485  152.7731 C   0  0  0  0  0  0  0  0  0  0  0  0
  147.4204  133.2474  152.3015 C   0  0  0  0  0  0  0  0  0  0  0  0
  147.1707  132.7906  150.9901 O   0  0  0  0  0  0  0  0  0  0  0  0
  150.3010  137.9366  156.7666 C   0  0  0  0  0  0  0  0  0  0  0  0
  150.7312  138.9300  157.5721 N   0  0  0  0  0  0  0  0  0  0  0  0
  151.1687  142.3760  157.7132 C   0  0  0  0  0  0  0  0  0  0  0  0
  151.9974  143.4259  158.4740 C   0  0  1  0  0  0  0  0  0  0  0  0
  151.3387  144.8088  158.4402 C   0  0  0  0  0  0  0  0  0  0  0  0
  152.1286  143.0320  159.8392 O   0  0  0  0  0  0  0  0  0  0  0  0
  154.6996  140.8188  160.0121 H   0  0  0  0  0  0  0  0  0  0  0  0
  154.7435  142.5579  160.2742 H   0  0  0  0  0  0  0  0  0  0  0  0
  154.4396  141.9101  158.6632 H   0  0  0  0  0  0  0  0  0  0  0  0
  152.6337  141.5318  161.1004 H   0  0  0  0  0  0  0  0  0  0  0  0
  152.4705  139.7131  159.3584 H   0  0  0  0  0  0  0  0  0  0  0  0
  150.9693  140.5336  159.7158 H   0  0  0  0  0  0  0  0  0  0  0  0
  151.9334  141.0129  155.1761 H   0  0  0  0  0  0  0  0  0  0  0  0
  151.1643  139.1892  153.7121 H   0  0  0  0  0  0  0  0  0  0  0  0
  149.6852  137.0409  153.6642 H   0  0  0  0  0  0  0  0  0  0  0  0
  149.1014  135.2302  153.1707 H   0  0  0  0  0  0  0  0  0  0  0  0
  150.1211  132.8857  154.4904 H   0  0  0  0  0  0  0  0  0  0  0  0
  148.4343  133.1356  154.8746 H   0  0  0  0  0  0  0  0  0  0  0  0
  149.5466  132.9969  152.0250 H   0  0  0  0  0  0  0  0  0  0  0  0
  148.7737  131.6598  152.8435 H   0  0  0  0  0  0  0  0  0  0  0  0
  146.6318  132.8844  152.9612 H   0  0  0  0  0  0  0  0  0  0  0  0
  147.3808  134.3371  152.3117 H   0  0  0  0  0  0  0  0  0  0  0  0
  147.6538  131.9900  150.8532 H   0  0  0  0  0  0  0  0  0  0  0  0
  149.8509  137.0889  157.2627 H   0  0  0  0  0  0  0  0  0  0  0  0
  151.1234  142.6464  156.6572 H   0  0  0  0  0  0  0  0  0  0  0  0
  150.1450  142.3574  158.0901 H   0  0  0  0  0  0  0  0  0  0  0  0
  152.9844  143.5121  158.0194 H   0  0  0  0  0  0  0  0  0  0  0  0
  151.2211  145.1628  157.4157 H   0  0  0  0  0  0  0  0  0  0  0  0
  151.9424  145.5408  158.9772 H   0  0  0  0  0  0  0  0  0  0  0  0
  150.3513  144.7871  158.9024 H   0  0  0  0  0  0  0  0  0  0  0  0
  1  2  1  0  0  0  0
  1 23  1  0  0  0  0
  1 24  1  0  0  0  0
  1 25  1  0  0  0  0
  2 22  1  0  0  0  0
  2  3  1  0  0  0  0
  2 26  1  0  0  0  0
  3  4  1  0  0  0  0
  3 27  1  0  0  0  0
  3 28  1  0  0  0  0
  4  5  1  0  0  0  0
  4 19  1  0  0  0  0
  5 18  1  0  0  0  0
  5  6  2  0  0  0  0
  6  7  1  0  0  0  0
  6 29  1  0  0  0  0
  7  8  2  0  0  0  0
  7 30  1  0  0  0  0
  8  9  1  0  0  0  0
  8 17  1  0  0  0  0
  9 10  1  0  0  0  0
  9 31  1  0  0  0  0
 10 11  2  0  0  0  0
 10 12  1  0  0  0  0
 12 13  1  0  0  0  0
 12 32  1  0  0  0  0
 13 14  1  0  0  0  0
 13 33  1  0  0  0  0
 13 34  1  0  0  0  0
 14 15  1  0  0  0  0
 14 35  1  0  0  0  0
 14 36  1  0  0  0  0
 15 16  1  0  0  0  0
 15 37  1  0  0  0  0
 15 38  1  0  0  0  0
 16 39  1  0  0  0  0
 17 18  2  0  0  0  0
 17 40  1  0  0  0  0
 19 20  1  0  0  0  0
 19 41  1  0  0  0  0
 19 42  1  0  0  0  0
 20 21  1  0  0  0  0
 20 22  1  0  0  0  0
 20 43  1  0  0  0  0
 21 44  1  0  0  0  0
 21 45  1  0  0  0  0
 21 46  1  0  0  0  0
M  END
> <s_m_source_file>
AV-unprocessed.smi

> <i_m_source_file_index>
2430

> <i_lp_mmshare_version>
43012

> <i_f3d_flags>
0

> <s_epik_input>
W0NIM11bQ0BASF0xW0NIMl1OKFtDSDJdW0NASF0oTzEpW0NIM10pYzJbY0hdW2NIXWMoW2NIXW4yKVtOSF1DKD1PKVtOSF1bQ0gyXVtDSDJdW0NIMl1bT0hd

> <s_epik_cmdline>
J2VwaWtfcHl0aG9uJywgJy1waCcsICc3LjAnLCAnLXRuJywgJzgnLCAnLW1hJywgJzIwMCcsICctbWV0YWxfYmluZGluZycsICctaW1hZScsICc8aW5maWxlLm1hZT4nLCAnLW9tYWUnLCAnPG91dGZpbGUubWFlPic=

> <r_lp_tautomer_probability>
1

> <r_epik_Ionization_Penalty>
0.00269907

> <r_epik_Ionization_Penalty_Charging>
0

> <r_epik_Ionization_Penalty_Neutral>
0.00269907

> <r_epik_State_Penalty>
0.00185337

> <r_epik_Charging_Adjusted_Penalty>
0.00185337

> <i_epik_Tot_Q>
0

> <i_epik_Tot_abs_Q>
0

> <r_epik_Metal_State_Penalty>
-0

> <b_epik_Metal_Only>
0

> <s_lp_Force_Field>
OPLS_2005

> <r_lp_Energy>
20.8666

> <b_lp_Chiralities_Consistent>
1

> <s_lp_Variant>
AV-unprocessed.smi:2430-1

> <Gold.Version>
5.8.1

> <Gold.Id.Protein>
6NUR|6NUR_protein|mol2

> <Gold.PLP.Fitness>
49.8839

> <Gold.PLP.PLP>
-41.9267

> <Gold.PLP.part.hbond>
-3.0000

> <Gold.PLP.part.metal>
0.0000

> <Gold.PLP.part.buried>
-4.7559

> <Gold.PLP.part.nonpolar>
-33.1230

> <Gold.PLP.part.repulsive>
0.0748

> <Gold.PLP.ligand.clash>
0.0000

> <Gold.PLP.ligand.torsion>
0.4905

> <Gold.PLP.Chemscore.Hbond>
2.8580

> <Gold.PLP.Chemscore.CHOScore>
0.0000

> <Gold.PLP.Chemscore.Metal>
0.0000

> <Gold.Chemscore.Hbonds>
donor molecule, donor type, donor heavy atom, donor atom, acceptor molecule, acceptor atom, score
      L1  H     9    31       P1  7948  0.83
      L1  H    12    32       P1  7948  0.95
      L1  H    16    39       P1 10747  1.00

> <Gold.PLP.Chemscore.Internal.Correction>
0.3642

> <Gold.Rescore>
     Score         DG    S(hbond)    S(metal)    S(lipo)     H(rot)  DE(clash)    DE(int)     intcor
     17.91     -19.80       2.64        0.00      98.03       2.33       0.01       1.88       ----

> <Gold.Chemscore.Fitness>
17.9096

> <Gold.Chemscore.DG>
-19.7970

> <Gold.Chemscore.ZeroCoef>
-5.4800

> <Gold.Chemscore.Hbond>
2.6419

> <Gold.Chemscore.Metal>
0.0000

> <Gold.Chemscore.Lipo>
98.0313

> <Gold.Chemscore.Internal_Hbond>
0.0000

> <Gold.Chemscore.DEClash>
0.0077

> <Gold.Chemscore.DEInternal>
1.8797

> <Gold.Chemscore.Rot>
2.3346

> <Gold.Chemscore.Internal.Correction>
   9.000000E+99

> <Gold.Chemscore.Hbonds>
donor molecule, donor type, donor heavy atom, donor atom, acceptor molecule, acceptor atom, score
      L1  H     9    31       P1  7948  0.57
      L1  H    12    32       P1  7948  0.21
      L1  H    16    39       P1 10747  0.99

> <Gold.Chemscore.Hbond.Weighted>
-8.8238

> <Gold.Chemscore.Metal.Weighted>
-0.0000

> <Gold.Chemscore.Lipo.Weighted>
-11.4697

> <Gold.Chemscore.Internal_Hbond.Weighted>
0.0000

> <Gold.Chemscore.DEClash.Weighted>
0.0077

> <Gold.Chemscore.DEInternal.Weighted>
1.8797

> <Gold.Chemscore.Rot.Weighted>
5.9766

> <Gold.Chemscore.Internal.Correction.Weighted>
   9.000000E+99

> <Gold.Protein.RotatedTorsions>
[ 6907 6896 6895 6894 ] final   22.88 input  -60.11 | X-H torsion
[ 7974 7965 7964 7962 ] final   25.02 input  175.53 | X-H torsion
[ 8008 7997 7996 7995 ] final   -6.93 input   59.86 | X-H torsion
[ 10167 10162 10161 10158 ] final  173.02 input  -65.29 | X-H torsion
[ 10718 10713 10712 10709 ] final   61.76 input   66.30 | X-H torsion
[ 10763 10752 10751 10750 ] final  109.82 input  -60.55 | X-H torsion
[ 11005 11000 10999 10996 ] final -119.32 input  -57.11 | X-H torsion

> <Gold.Protein.ActiveResidues>
 VAL166  LYS551  ARG553  GLY616  TRP617  ASP618  TYR619  PRO620  LYS621  CYS622 
 ASP623  PHE694  ASN695  SER759  ASP760  ASP761  ALA762  ILE779  LEU786  VAL792 
 PHE793  MET794  SER795  GLU796  ALA797  LYS798  CYS799  TRP800  GLU811  SER814 

> <Gold.Protein.RotatedAtoms>
  151.9338  135.0244  160.0530 H   0  0  0  0  0  0  0  0  0  0  0  0  # atno 6907 bound_to 6896
  152.2095  133.4896  159.5111 H   0  0  0  0  0  0  0  0  0  0  0  0  # atno 6908 bound_to 6896
  150.6973  134.1402  159.4145 H   0  0  0  0  0  0  0  0  0  0  0  0  # atno 6909 bound_to 6896
  146.1909  139.7524  142.8832 H   0  0  0  0  0  0  0  0  0  0  0  0  # atno 7974 bound_to 7965
  154.5888  140.2420  155.7949 H   0  0  0  0  0  0  0  0  0  0  0  0  # atno 8008 bound_to 7997
  156.2232  140.2991  155.9959 H   0  0  0  0  0  0  0  0  0  0  0  0  # atno 8009 bound_to 7997
  155.2410  140.0407  157.2965 H   0  0  0  0  0  0  0  0  0  0  0  0  # atno 8010 bound_to 7997
  139.5095  144.3308  152.0113 H   0  0  0  0  0  0  0  0  0  0  0  0  # atno 10167 bound_to 10162
  157.5852  130.9013  149.9502 H   0  0  0  0  0  0  0  0  0  0  0  0  # atno 10718 bound_to 10713
  153.4402  135.3768  155.2223 H   0  0  0  0  0  0  0  0  0  0  0  0  # atno 10763 bound_to 10752
  154.8753  135.3861  154.4162 H   0  0  0  0  0  0  0  0  0  0  0  0  # atno 10764 bound_to 10752
  153.4706  135.7087  153.6059 H   0  0  0  0  0  0  0  0  0  0  0  0  # atno 10765 bound_to 10752
  141.0224  134.0104  157.3263 H   0  0  0  0  0  0  0  0  0  0  0  0  # atno 11005 bound_to 11000
  145.3795  141.0356  143.3185 LP  0  0  0  0  0  0  0  0  0  0  0  0  # atno 17320 bound_to 7965
  144.8485  139.5359  143.6867 LP  0  0  0  0  0  0  0  0  0  0  0  0  # atno 17321 bound_to 7965
  140.2748  144.3924  150.6139 LP  0  0  0  0  0  0  0  0  0  0  0  0  # atno 17342 bound_to 10162
  140.6062  143.2168  151.6977 LP  0  0  0  0  0  0  0  0  0  0  0  0  # atno 17343 bound_to 10162
  156.0900  130.3664  150.0413 LP  0  0  0  0  0  0  0  0  0  0  0  0  # atno 17370 bound_to 10713
  156.8545  130.9470  151.3623 LP  0  0  0  0  0  0  0  0  0  0  0  0  # atno 17371 bound_to 10713
  139.9154  135.0196  156.7861 LP  0  0  0  0  0  0  0  0  0  0  0  0  # atno 17394 bound_to 11000
  140.6550  133.9697  155.7775 LP  0  0  0  0  0  0  0  0  0  0  0  0  # atno 17395 bound_to 11000

$$$$
