AV-unprocessed.smi:196|AV-procd|sdf|1536|dock3
  -GOLD-   2262019393D 1   1.00000     0.00000
 Structure written by MMmdl.
 47 50  0  0  0  0  0  0  0  0  1 V2000
  152.5076  138.6554  154.4334 C   0  0  0  0  0  0  0  0  0  0  0  0
  150.9992  138.4591  154.2139 C   0  0  2  0  0  0  0  0  0  0  0  0
  150.4007  139.7507  154.1383 O   0  0  0  0  0  0  0  0  0  0  0  0
  149.0747  139.6719  154.6300 C   0  0  0  0  0  0  0  0  0  0  0  0
  149.2240  138.7417  155.8238 C   0  0  0  0  0  0  0  0  0  0  0  0
  150.2205  137.6985  155.3250 C   0  0  1  0  0  0  0  0  0  0  0  0
  149.4851  136.6608  154.6975 O   0  0  0  0  0  0  0  0  0  0  0  0
  151.0723  137.0638  156.4555 C   0  0  0  0  0  0  0  0  0  0  0  0
  150.3072  136.7560  157.6548 N   0  0  0  0  0  0  0  0  0  0  0  0
  150.4676  137.3178  158.8994 C   0  0  0  0  0  0  0  0  0  0  0  0
  149.6544  136.8728  159.8164 N   0  0  0  0  0  0  0  0  0  0  0  0
  148.8584  135.9396  159.1592 C   0  0  0  0  0  0  0  0  0  0  0  0
  147.7766  135.0880  159.5434 C   0  0  0  0  0  0  0  0  0  0  0  0
  147.2332  135.0141  160.7906 N   0  0  0  0  0  0  0  0  0  0  0  0
  146.8730  133.7423  161.4120 C   0  0  0  0  0  0  0  0  0  0  0  0
  146.2361  134.1042  162.7549 C   0  0  2  0  0  0  0  0  0  0  0  0
  144.9107  134.1742  162.6221 F   0  0  0  0  0  0  0  0  0  0  0  0
  146.8060  135.4910  163.0548 C   0  0  0  0  0  0  0  0  0  0  0  0
  146.9865  136.1526  161.6764 C   0  0  2  0  0  0  0  0  0  0  0  0
  145.7465  136.9673  161.2620 C   0  0  0  0  0  0  0  0  0  0  0  0
  144.5777  136.3224  161.2684 N   0  0  0  0  0  0  0  0  0  0  0  0
  145.8346  138.1515  160.9408 O   0  0  0  0  0  0  0  0  0  0  0  0
  147.2530  134.2870  158.5772 N   0  0  0  0  0  0  0  0  0  0  0  0
  147.7310  134.3134  157.3311 C   0  0  0  0  0  0  0  0  0  0  0  0
  148.7213  135.0544  156.8351 N   0  0  0  0  0  0  0  0  0  0  0  0
  149.2628  135.8580  157.7936 C   0  0  0  0  0  0  0  0  0  0  0  0
  146.4444  133.3745  163.5377 H   0  0  0  0  0  0  0  0  0  0  0  0
  147.8582  136.8063  161.7153 H   0  0  0  0  0  0  0  0  0  0  0  0
  153.0302  137.7004  154.4882 H   0  0  0  0  0  0  0  0  0  0  0  0
  152.7106  139.2106  155.3496 H   0  0  0  0  0  0  0  0  0  0  0  0
  152.9449  139.2183  153.6087 H   0  0  0  0  0  0  0  0  0  0  0  0
  150.8544  137.9729  153.2472 H   0  0  0  0  0  0  0  0  0  0  0  0
  148.6869  140.6531  154.9042 H   0  0  0  0  0  0  0  0  0  0  0  0
  148.4224  139.2389  153.8700 H   0  0  0  0  0  0  0  0  0  0  0  0
  149.6546  139.3061  156.6516 H   0  0  0  0  0  0  0  0  0  0  0  0
  148.2767  138.3220  156.1656 H   0  0  0  0  0  0  0  0  0  0  0  0
  149.5948  136.7400  153.7622 H   0  0  0  0  0  0  0  0  0  0  0  0
  151.5408  136.1425  156.1072 H   0  0  0  0  0  0  0  0  0  0  0  0
  151.8838  137.7320  156.7440 H   0  0  0  0  0  0  0  0  0  0  0  0
  151.2158  138.0687  159.1080 H   0  0  0  0  0  0  0  0  0  0  0  0
  146.1918  133.1574  160.7921 H   0  0  0  0  0  0  0  0  0  0  0  0
  147.7800  133.1569  161.5687 H   0  0  0  0  0  0  0  0  0  0  0  0
  146.1790  136.0639  163.7398 H   0  0  0  0  0  0  0  0  0  0  0  0
  147.7821  135.3815  163.5292 H   0  0  0  0  0  0  0  0  0  0  0  0
  143.7328  136.8058  161.0010 H   0  0  0  0  0  0  0  0  0  0  0  0
  144.5450  135.3496  161.5368 H   0  0  0  0  0  0  0  0  0  0  0  0
  147.2497  133.6462  156.6313 H   0  0  0  0  0  0  0  0  0  0  0  0
  1  2  1  0  0  0  0
  1 29  1  0  0  0  0
  1 30  1  0  0  0  0
  1 31  1  0  0  0  0
  2  6  1  0  0  0  0
  2  3  1  0  0  0  0
  2 32  1  0  0  0  0
  3  4  1  0  0  0  0
  4  5  1  0  0  0  0
  4 33  1  0  0  0  0
  4 34  1  0  0  0  0
  5  6  1  0  0  0  0
  5 35  1  0  0  0  0
  5 36  1  0  0  0  0
  6  7  1  0  0  0  0
  6  8  1  0  0  0  0
  7 37  1  0  0  0  0
  8  9  1  0  0  0  0
  8 38  1  0  0  0  0
  8 39  1  0  0  0  0
  9 26  1  0  0  0  0
  9 10  1  0  0  0  0
 10 11  2  0  0  0  0
 10 40  1  0  0  0  0
 11 12  1  0  0  0  0
 12 26  2  0  0  0  0
 12 13  1  0  0  0  0
 13 14  1  0  0  0  0
 13 23  2  0  0  0  0
 14 19  1  0  0  0  0
 14 15  1  0  0  0  0
 15 16  1  0  0  0  0
 15 41  1  0  0  0  0
 15 42  1  0  0  0  0
 16 27  1  0  0  0  0
 16 17  1  0  0  0  0
 16 18  1  0  0  0  0
 18 19  1  0  0  0  0
 18 43  1  0  0  0  0
 18 44  1  0  0  0  0
 19 28  1  0  0  0  0
 19 20  1  0  0  0  0
 20 21  1  0  0  0  0
 20 22  2  0  0  0  0
 21 45  1  0  0  0  0
 21 46  1  0  0  0  0
 23 24  1  0  0  0  0
 24 25  2  0  0  0  0
 24 47  1  0  0  0  0
 25 26  1  0  0  0  0
M  END
> <s_m_source_file>
AV-unprocessed.smi

> <i_m_source_file_index>
196

> <i_lp_mmshare_version>
43012

> <i_f3d_flags>
0

> <s_epik_input>
W0NIMl0xW0NIMl1PW0NAQEhdKFtDSDNdKVtDQEBdMShbT0hdKVtDSDJdbihbY0hdbjIpYyhjMjMpbltjSF1uYzNONFtDSDJdW0NASF0oRilbQ0gyXVtDQEhdNEMoPU8pW05IMl0=

> <s_epik_cmdline>
J2VwaWtfcHl0aG9uJywgJy1waCcsICc3LjAnLCAnLXRuJywgJzgnLCAnLW1hJywgJzIwMCcsICctbWV0YWxfYmluZGluZycsICctaW1hZScsICc8aW5maWxlLm1hZT4nLCAnLW9tYWUnLCAnPG91dGZpbGUubWFlPic=

> <r_lp_tautomer_probability>
1

> <r_epik_Ionization_Penalty>
0.000857933

> <r_epik_Ionization_Penalty_Charging>
0

> <r_epik_Ionization_Penalty_Neutral>
0.000857933

> <r_epik_State_Penalty>
0.000462053

> <r_epik_Charging_Adjusted_Penalty>
0.000462053

> <i_epik_Tot_Q>
0

> <i_epik_Tot_abs_Q>
0

> <r_epik_Metal_State_Penalty>
-0

> <b_epik_Metal_Only>
0

> <s_lp_Force_Field>
OPLS_2005

> <r_lp_Energy>
42.9342

> <b_lp_Chiralities_Consistent>
1

> <s_lp_Variant>
AV-unprocessed.smi:196-9

> <Gold.Version>
5.8.1

> <Gold.Id.Protein>
6NUR|6NUR_protein|mol2

> <Gold.PLP.Fitness>
43.2110

> <Gold.PLP.PLP>
-36.3848

> <Gold.PLP.part.hbond>
-3.3501

> <Gold.PLP.part.metal>
0.0000

> <Gold.PLP.part.buried>
-5.5041

> <Gold.PLP.part.nonpolar>
-27.6106

> <Gold.PLP.part.repulsive>
0.6252

> <Gold.PLP.ligand.clash>
0.0000

> <Gold.PLP.ligand.torsion>
0.9308

> <Gold.PLP.Chemscore.Hbond>
2.8858

> <Gold.PLP.Chemscore.CHOScore>
0.0000

> <Gold.PLP.Chemscore.Metal>
0.0000

> <Gold.Chemscore.Hbonds>
donor molecule, donor type, donor heavy atom, donor atom, acceptor molecule, acceptor atom, score
      L1  H     7    37       P1  7948  0.97
      P1  H  6896  6909       L1    11  0.01
      P1  H  6934  6947       L1    22  0.86
      P1  H  7989  7998       L1     3  1.00

> <Gold.PLP.Chemscore.Internal.Correction>
0.0302

> <Gold.Rescore>
     Score         DG    S(hbond)    S(metal)    S(lipo)     H(rot)  DE(clash)    DE(int)     intcor
     11.74     -15.88       2.57        0.00      72.18       2.60       0.06       4.07       ----

> <Gold.Chemscore.Fitness>
11.7430

> <Gold.Chemscore.DG>
-15.8752

> <Gold.Chemscore.ZeroCoef>
-5.4800

> <Gold.Chemscore.Hbond>
2.5741

> <Gold.Chemscore.Metal>
0.0000

> <Gold.Chemscore.Lipo>
72.1830

> <Gold.Chemscore.Internal_Hbond>
0.0000

> <Gold.Chemscore.DEClash>
0.0639

> <Gold.Chemscore.DEInternal>
4.0683

> <Gold.Chemscore.Rot>
2.5968

> <Gold.Chemscore.Internal.Correction>
   9.000000E+99

> <Gold.Chemscore.Hbonds>
donor molecule, donor type, donor heavy atom, donor atom, acceptor molecule, acceptor atom, score
      L1  H     7    37       P1  7948  0.68
      P1  H  6934  6947       L1    22  0.83
      P1  H  7989  7998       L1     3  0.60

> <Gold.Chemscore.Hbond.Weighted>
-8.5976

> <Gold.Chemscore.Metal.Weighted>
-0.0000

> <Gold.Chemscore.Lipo.Weighted>
-8.4454

> <Gold.Chemscore.Internal_Hbond.Weighted>
0.0000

> <Gold.Chemscore.DEClash.Weighted>
0.0639

> <Gold.Chemscore.DEInternal.Weighted>
4.0683

> <Gold.Chemscore.Rot.Weighted>
6.6477

> <Gold.Chemscore.Internal.Correction.Weighted>
   9.000000E+99

> <Gold.Protein.RotatedTorsions>
[ 6907 6896 6895 6894 ] final   99.66 input  -60.11 | X-H torsion
[ 7974 7965 7964 7962 ] final -165.86 input  175.53 | X-H torsion
[ 8008 7997 7996 7995 ] final   18.78 input   59.86 | X-H torsion
[ 10167 10162 10161 10158 ] final  111.35 input  -65.29 | X-H torsion
[ 10718 10713 10712 10709 ] final  145.99 input   66.30 | X-H torsion
[ 10763 10752 10751 10750 ] final  -76.97 input  -60.55 | X-H torsion
[ 11005 11000 10999 10996 ] final   33.21 input  -57.11 | X-H torsion

> <Gold.Protein.ActiveResidues>
 VAL166  LYS551  ARG553  GLY616  TRP617  ASP618  TYR619  PRO620  LYS621  CYS622 
 ASP623  PHE694  ASN695  SER759  ASP760  ASP761  ALA762  ILE779  LEU786  VAL792 
 PHE793  MET794  SER795  GLU796  ALA797  LYS798  CYS799  TRP800  GLU811  SER814 

> <Gold.Protein.RotatedAtoms>
  152.5387  134.0394  159.8060 H   0  0  0  0  0  0  0  0  0  0  0  0  # atno 6907 bound_to 6896
  151.0552  133.5582  159.2646 H   0  0  0  0  0  0  0  0  0  0  0  0  # atno 6908 bound_to 6896
  151.2502  135.0627  159.9112 H   0  0  0  0  0  0  0  0  0  0  0  0  # atno 6909 bound_to 6896
  144.7259  140.2752  143.6244 H   0  0  0  0  0  0  0  0  0  0  0  0  # atno 7974 bound_to 7965
  154.9111  140.3014  155.5266 H   0  0  0  0  0  0  0  0  0  0  0  0  # atno 8008 bound_to 7997
  156.3015  140.2389  156.4086 H   0  0  0  0  0  0  0  0  0  0  0  0  # atno 8009 bound_to 7997
  154.8425  140.0413  157.1539 H   0  0  0  0  0  0  0  0  0  0  0  0  # atno 8010 bound_to 7997
  139.6618  144.7128  151.1851 H   0  0  0  0  0  0  0  0  0  0  0  0  # atno 10167 bound_to 10162
  157.3386  131.0932  151.1102 H   0  0  0  0  0  0  0  0  0  0  0  0  # atno 10718 bound_to 10713
  154.5068  135.5780  153.6574 H   0  0  0  0  0  0  0  0  0  0  0  0  # atno 10763 bound_to 10752
  152.9889  135.6149  154.2930 H   0  0  0  0  0  0  0  0  0  0  0  0  # atno 10764 bound_to 10752
  154.2842  135.2850  155.2663 H   0  0  0  0  0  0  0  0  0  0  0  0  # atno 10765 bound_to 10752
  140.2655  134.3143  155.7844 H   0  0  0  0  0  0  0  0  0  0  0  0  # atno 11005 bound_to 11000
  145.8004  139.1962  143.2051 LP  0  0  0  0  0  0  0  0  0  0  0  0  # atno 17320 bound_to 7965
  146.0681  140.7898  142.9701 LP  0  0  0  0  0  0  0  0  0  0  0  0  # atno 17321 bound_to 7965
  140.7583  143.5983  150.8726 LP  0  0  0  0  0  0  0  0  0  0  0  0  # atno 17342 bound_to 10162
  139.9641  143.6131  152.2993 LP  0  0  0  0  0  0  0  0  0  0  0  0  # atno 17343 bound_to 10162
  157.2322  130.6530  149.5854 LP  0  0  0  0  0  0  0  0  0  0  0  0  # atno 17370 bound_to 10713
  155.9704  130.4595  150.6038 LP  0  0  0  0  0  0  0  0  0  0  0  0  # atno 17371 bound_to 10713
  141.2185  133.7435  156.9253 LP  0  0  0  0  0  0  0  0  0  0  0  0  # atno 17394 bound_to 11000
  140.1423  134.9285  157.2484 LP  0  0  0  0  0  0  0  0  0  0  0  0  # atno 17395 bound_to 11000

$$$$
