AV-unprocessed.smi:1289|AV-procd|sdf|5385|dock4
  -GOLD-   22720 4533D 1   1.00000     0.00000
 Structure written by MMmdl.
 37 39  0  0  0  0  0  0  0  0  1 V2000
  152.9603  139.7768  154.6845 N   0  0  0  0  0  0  0  0  0  0  0  0
  152.3946  139.2132  155.5219 C   0  0  0  0  0  0  0  0  0  0  0  0
  151.6842  138.5049  156.5736 C   0  0  0  0  0  0  0  0  0  0  0  0
  152.1389  138.5742  157.9051 C   0  0  0  0  0  0  0  0  0  0  0  0
  151.4466  137.8896  158.9224 C   0  0  0  0  0  0  0  0  0  0  0  0
  150.2952  137.1306  158.6290 C   0  0  0  0  0  0  0  0  0  0  0  0
  149.6794  136.4961  159.6863 O   0  0  0  0  0  0  0  0  0  0  0  0
  148.5165  135.7204  159.4237 C   0  0  0  0  0  0  0  0  0  0  0  0
  147.3576  136.1889  160.3187 C   0  0  2  0  0  0  0  0  0  0  0  0
  147.2296  137.5937  160.2201 O   0  0  0  0  0  0  0  0  0  0  0  0
  147.4840  135.7344  161.7859 C   0  0  0  0  0  0  0  0  0  0  0  0
  146.3727  134.8971  162.1995 N   0  0  0  0  0  0  0  0  0  0  0  0
  146.4080  133.5751  162.4545 C   0  0  0  0  0  0  0  0  0  0  0  0
  145.2687  132.9938  162.8191 N   0  0  0  0  0  0  0  0  0  0  0  0
  144.3909  134.0641  162.8011 C   0  0  0  0  0  0  0  0  0  0  0  0
  143.0090  134.1215  163.0918 C   0  0  0  0  0  0  0  0  0  0  0  0
  142.3106  135.3437  163.0040 C   0  0  0  0  0  0  0  0  0  0  0  0
  142.9808  136.5247  162.6233 C   0  0  0  0  0  0  0  0  0  0  0  0
  144.3573  136.4921  162.3274 C   0  0  0  0  0  0  0  0  0  0  0  0
  145.0508  135.2709  162.4178 C   0  0  0  0  0  0  0  0  0  0  0  0
  149.8450  137.0638  157.2860 C   0  0  0  0  0  0  0  0  0  0  0  0
  150.5369  137.7470  156.2666 C   0  0  0  0  0  0  0  0  0  0  0  0
  153.0177  139.1513  158.1543 H   0  0  0  0  0  0  0  0  0  0  0  0
  151.8021  137.9497  159.9407 H   0  0  0  0  0  0  0  0  0  0  0  0
  148.2310  135.7824  158.3719 H   0  0  0  0  0  0  0  0  0  0  0  0
  148.7303  134.6744  159.6484 H   0  0  0  0  0  0  0  0  0  0  0  0
  146.4368  135.7732  159.9076 H   0  0  0  0  0  0  0  0  0  0  0  0
  147.1362  137.8228  159.3079 H   0  0  0  0  0  0  0  0  0  0  0  0
  148.4073  135.1704  161.9251 H   0  0  0  0  0  0  0  0  0  0  0  0
  147.5395  136.5930  162.4562 H   0  0  0  0  0  0  0  0  0  0  0  0
  147.3223  133.0070  162.3640 H   0  0  0  0  0  0  0  0  0  0  0  0
  142.4852  133.2229  163.3826 H   0  0  0  0  0  0  0  0  0  0  0  0
  141.2545  135.3755  163.2289 H   0  0  0  0  0  0  0  0  0  0  0  0
  142.4375  137.4559  162.5578 H   0  0  0  0  0  0  0  0  0  0  0  0
  144.8733  137.3941  162.0330 H   0  0  0  0  0  0  0  0  0  0  0  0
  148.9707  136.4943  157.0105 H   0  0  0  0  0  0  0  0  0  0  0  0
  150.1797  137.6852  155.2485 H   0  0  0  0  0  0  0  0  0  0  0  0
  1  2  3  0  0  0  0
  2  3  1  0  0  0  0
  3 22  1  0  0  0  0
  3  4  2  0  0  0  0
  4  5  1  0  0  0  0
  4 23  1  0  0  0  0
  5  6  2  0  0  0  0
  5 24  1  0  0  0  0
  6  7  1  0  0  0  0
  6 21  1  0  0  0  0
  7  8  1  0  0  0  0
  8  9  1  0  0  0  0
  8 25  1  0  0  0  0
  8 26  1  0  0  0  0
  9 10  1  0  0  0  0
  9 11  1  0  0  0  0
  9 27  1  0  0  0  0
 10 28  1  0  0  0  0
 11 12  1  0  0  0  0
 11 29  1  0  0  0  0
 11 30  1  0  0  0  0
 12 20  1  0  0  0  0
 12 13  1  0  0  0  0
 13 14  2  0  0  0  0
 13 31  1  0  0  0  0
 14 15  1  0  0  0  0
 15 20  2  0  0  0  0
 15 16  1  0  0  0  0
 16 17  2  0  0  0  0
 16 32  1  0  0  0  0
 17 18  1  0  0  0  0
 17 33  1  0  0  0  0
 18 19  2  0  0  0  0
 18 34  1  0  0  0  0
 19 20  1  0  0  0  0
 19 35  1  0  0  0  0
 21 22  2  0  0  0  0
 21 36  1  0  0  0  0
 22 37  1  0  0  0  0
M  END
> <s_m_source_file>
AV-unprocessed.smi

> <i_m_source_file_index>
1289

> <i_lp_mmshare_version>
43012

> <i_f3d_flags>
0

> <s_epik_input>
TiNDYzFbY0hdW2NIXWMoW2NIXVtjSF0xKU9bQ0gyXVtDQEhdKFtPSF0pW0NIMl1uKFtjSF1uMiljKGMyMylbY0hdW2NIXVtjSF1bY0hdMw==

> <s_epik_cmdline>
J2VwaWtfcHl0aG9uJywgJy1waCcsICc3LjAnLCAnLXRuJywgJzgnLCAnLW1hJywgJzIwMCcsICctbWV0YWxfYmluZGluZycsICctaW1hZScsICc8aW5maWxlLm1hZT4nLCAnLW9tYWUnLCAnPG91dGZpbGUubWFlPic=

> <r_epik_Ionization_Penalty>
0.0590811

> <r_epik_Ionization_Penalty_Charging>
0

> <r_epik_Ionization_Penalty_Neutral>
0.0590811

> <r_epik_State_Penalty>
0.0511328

> <r_epik_Charging_Adjusted_Penalty>
0.0511328

> <i_epik_Tot_Q>
0

> <i_epik_Tot_abs_Q>
0

> <r_epik_Metal_State_Penalty>
5.34017e-05

> <b_epik_Metal_Only>
0

> <s_lp_Force_Field>
OPLS_2005

> <r_lp_Energy>
15.8446

> <b_lp_Chiralities_Consistent>
1

> <s_lp_Variant>
AV-unprocessed.smi:1289-1

> <Gold.Version>
5.8.1

> <Gold.Id.Protein>
6NUR|6NUR_protein|mol2

> <Gold.PLP.Fitness>
45.5351

> <Gold.PLP.PLP>
-38.7299

> <Gold.PLP.part.hbond>
-4.6400

> <Gold.PLP.part.metal>
0.0000

> <Gold.PLP.part.buried>
-2.5159

> <Gold.PLP.part.nonpolar>
-31.0452

> <Gold.PLP.part.repulsive>
0.1247

> <Gold.PLP.ligand.clash>
0.0000

> <Gold.PLP.ligand.torsion>
1.3000

> <Gold.PLP.Chemscore.Hbond>
3.1091

> <Gold.PLP.Chemscore.CHOScore>
0.0000

> <Gold.PLP.Chemscore.Metal>
0.0000

> <Gold.Chemscore.Hbonds>
donor molecule, donor type, donor heavy atom, donor atom, acceptor molecule, acceptor atom, score
      P1  H  6896  6908       L1     7  0.75
      P1  H  6934  6947       L1    10  1.00
      P1  H  7989  7998       L1     1  0.35
      P1  H  7997  8008       L1     1  1.00

> <Gold.PLP.Chemscore.Internal.Correction>
0.0778

> <Gold.Rescore>
     Score         DG    S(hbond)    S(metal)    S(lipo)     H(rot)  DE(clash)    DE(int)     intcor
     12.03     -13.27       1.67        0.00      73.50       2.50       0.00       1.24       ----

> <Gold.Chemscore.Fitness>
12.0260

> <Gold.Chemscore.DG>
-13.2702

> <Gold.Chemscore.ZeroCoef>
-5.4800

> <Gold.Chemscore.Hbond>
1.6704

> <Gold.Chemscore.Metal>
0.0000

> <Gold.Chemscore.Lipo>
73.5001

> <Gold.Chemscore.Internal_Hbond>
0.0000

> <Gold.Chemscore.DEClash>
0.0036

> <Gold.Chemscore.DEInternal>
1.2406

> <Gold.Chemscore.Rot>
2.4954

> <Gold.Chemscore.Internal.Correction>
   9.000000E+99

> <Gold.Chemscore.Hbonds>
donor molecule, donor type, donor heavy atom, donor atom, acceptor molecule, acceptor atom, score
      P1  H  6896  6908       L1     7  0.02
      P1  H  6934  6947       L1    10  0.29
      P1  H  7989  7998       L1     1  0.28
      P1  H  7997  8008       L1     1  0.33

> <Gold.Chemscore.Hbond.Weighted>
-5.5790

> <Gold.Chemscore.Metal.Weighted>
-0.0000

> <Gold.Chemscore.Lipo.Weighted>
-8.5995

> <Gold.Chemscore.Internal_Hbond.Weighted>
0.0000

> <Gold.Chemscore.DEClash.Weighted>
0.0036

> <Gold.Chemscore.DEInternal.Weighted>
1.2406

> <Gold.Chemscore.Rot.Weighted>
6.3883

> <Gold.Chemscore.Internal.Correction.Weighted>
   9.000000E+99

> <Gold.Protein.RotatedTorsions>
[ 6907 6896 6895 6894 ] final -152.09 input  -60.11 | X-H torsion
[ 7974 7965 7964 7962 ] final -116.71 input  175.53 | X-H torsion
[ 8008 7997 7996 7995 ] final    6.36 input   59.86 | X-H torsion
[ 10167 10162 10161 10158 ] final   35.32 input  -65.29 | X-H torsion
[ 10718 10713 10712 10709 ] final   72.91 input   66.30 | X-H torsion
[ 10763 10752 10751 10750 ] final   44.23 input  -60.55 | X-H torsion
[ 11005 11000 10999 10996 ] final  178.99 input  -57.11 | X-H torsion

> <Gold.Protein.ActiveResidues>
 VAL166  LYS551  ARG553  GLY616  TRP617  ASP618  TYR619  PRO620  LYS621  CYS622 
 ASP623  PHE694  ASN695  SER759  ASP760  ASP761  ALA762  ILE779  LEU786  VAL792 
 PHE793  MET794  SER795  GLU796  ALA797  LYS798  CYS799  TRP800  GLU811  SER814 

> <Gold.Protein.RotatedAtoms>
  151.2226  133.4494  159.2600 H   0  0  0  0  0  0  0  0  0  0  0  0  # atno 6907 bound_to 6896
  151.0870  134.9893  159.8394 H   0  0  0  0  0  0  0  0  0  0  0  0  # atno 6908 bound_to 6896
  152.5430  134.2162  159.8822 H   0  0  0  0  0  0  0  0  0  0  0  0  # atno 6909 bound_to 6896
  145.0936  140.8506  143.3968 H   0  0  0  0  0  0  0  0  0  0  0  0  # atno 7974 bound_to 7965
  154.7400  140.2747  155.6381 H   0  0  0  0  0  0  0  0  0  0  0  0  # atno 8008 bound_to 7997
  156.2871  140.2699  156.2050 H   0  0  0  0  0  0  0  0  0  0  0  0  # atno 8009 bound_to 7997
  155.0271  140.0371  157.2449 H   0  0  0  0  0  0  0  0  0  0  0  0  # atno 8010 bound_to 7997
  140.4232  144.1429  150.6150 H   0  0  0  0  0  0  0  0  0  0  0  0  # atno 10167 bound_to 10162
  157.6523  130.9602  150.0995 H   0  0  0  0  0  0  0  0  0  0  0  0  # atno 10718 bound_to 10713
  152.9845  135.6077  154.3241 H   0  0  0  0  0  0  0  0  0  0  0  0  # atno 10763 bound_to 10752
  154.2948  135.2774  155.2640 H   0  0  0  0  0  0  0  0  0  0  0  0  # atno 10764 bound_to 10752
  154.4919  135.5890  153.6522 H   0  0  0  0  0  0  0  0  0  0  0  0  # atno 10765 bound_to 10752
  140.4012  134.6775  157.4563 H   0  0  0  0  0  0  0  0  0  0  0  0  # atno 11005 bound_to 11000
  145.1037  139.2804  143.5673 LP  0  0  0  0  0  0  0  0  0  0  0  0  # atno 17320 bound_to 7965
  146.3531  140.0612  142.8629 LP  0  0  0  0  0  0  0  0  0  0  0  0  # atno 17321 bound_to 7965
  140.4510  143.2487  151.9348 LP  0  0  0  0  0  0  0  0  0  0  0  0  # atno 17342 bound_to 10162
  139.4783  144.5562  151.8310 LP  0  0  0  0  0  0  0  0  0  0  0  0  # atno 17343 bound_to 10162
  156.1922  130.3655  149.8896 LP  0  0  0  0  0  0  0  0  0  0  0  0  # atno 17370 bound_to 10713
  156.6821  130.8862  151.3577 LP  0  0  0  0  0  0  0  0  0  0  0  0  # atno 17371 bound_to 10713
  140.0335  134.6372  155.9075 LP  0  0  0  0  0  0  0  0  0  0  0  0  # atno 17394 bound_to 11000
  141.1856  133.6555  156.5204 LP  0  0  0  0  0  0  0  0  0  0  0  0  # atno 17395 bound_to 11000

$$$$
