AV-unprocessed.smi:709|AV-procd|sdf|3458|dock2
  -GOLD-   22720 0443D 1   1.00000     0.00000
 Structure written by MMmdl.
 48 50  0  0  0  0  0  0  0  0  1 V2000
  143.9869  134.8183  155.6985 C   0  0  0  0  0  0  0  0  0  0  0  0
  143.0051  135.1902  154.5857 C   0  0  0  0  0  0  0  0  0  0  0  0
  143.5678  134.8287  153.3357 O   0  0  0  0  0  0  0  0  0  0  0  0
  144.7269  135.5817  153.0143 C   0  0  2  0  0  0  0  0  0  0  0  0
  144.4244  137.0699  152.8291 C   0  0  0  0  0  0  0  0  0  0  0  0
  145.4303  137.0559  151.6732 C   0  0  1  0  0  0  0  0  0  0  0  0
  146.7788  137.3755  152.1462 N   0  0  0  0  0  0  0  0  0  0  0  0
  147.0665  138.3203  153.0514 C   0  0  0  0  0  0  0  0  0  0  0  0
  146.2095  139.0201  153.5903 O   0  0  0  0  0  0  0  0  0  0  0  0
  148.3915  138.3790  153.2784 N   0  0  0  0  0  0  0  0  0  0  0  0
  149.1151  139.2527  154.1085 C   0  0  0  0  0  0  0  0  0  0  0  0
  148.7149  140.5053  154.4437 C   0  0  0  0  0  0  0  0  0  0  0  0
  149.5285  141.3416  155.2930 C   0  0  0  0  0  0  0  0  0  0  0  0
  150.6957  140.8549  155.7368 C   0  0  0  0  0  0  0  0  0  0  0  0
  151.1344  139.5645  155.3947 N   0  0  0  0  0  0  0  0  0  0  0  0
  152.4259  139.1238  155.9281 C   0  0  0  0  0  0  0  0  0  0  0  0
  150.4069  138.7295  154.5943 C   0  0  0  0  0  0  0  0  0  0  0  0
  150.8202  137.6040  154.3037 O   0  0  0  0  0  0  0  0  0  0  0  0
  145.1625  135.5321  151.5249 C   0  0  0  0  0  0  0  0  0  0  0  0
  144.0972  135.1434  150.4956 C   0  0  0  0  0  0  0  0  0  0  0  0
  144.2545  133.6482  150.2214 C   0  0  0  0  0  0  0  0  0  0  0  0
  145.7226  133.3318  150.5136 C   0  0  0  0  0  0  0  0  0  0  0  0
  146.3149  134.5938  151.1525 C   0  0  0  0  0  0  0  0  0  0  0  0
  143.5836  135.0792  156.6771 H   0  0  0  0  0  0  0  0  0  0  0  0
  144.9334  135.3452  155.5753 H   0  0  0  0  0  0  0  0  0  0  0  0
  144.1949  133.7481  155.6963 H   0  0  0  0  0  0  0  0  0  0  0  0
  142.0587  134.6676  154.7309 H   0  0  0  0  0  0  0  0  0  0  0  0
  142.7957  136.2590  154.6192 H   0  0  0  0  0  0  0  0  0  0  0  0
  145.5516  135.4362  153.7162 H   0  0  0  0  0  0  0  0  0  0  0  0
  143.4024  137.2604  152.4971 H   0  0  0  0  0  0  0  0  0  0  0  0
  144.6924  137.7006  153.6776 H   0  0  0  0  0  0  0  0  0  0  0  0
  145.1025  137.6524  150.8201 H   0  0  0  0  0  0  0  0  0  0  0  0
  147.5399  136.8405  151.7542 H   0  0  0  0  0  0  0  0  0  0  0  0
  148.9564  137.6851  152.8104 H   0  0  0  0  0  0  0  0  0  0  0  0
  147.7923  140.9257  154.0779 H   0  0  0  0  0  0  0  0  0  0  0  0
  149.2040  142.3354  155.5642 H   0  0  0  0  0  0  0  0  0  0  0  0
  151.3605  141.4183  156.3753 H   0  0  0  0  0  0  0  0  0  0  0  0
  153.1204  138.9047  155.1157 H   0  0  0  0  0  0  0  0  0  0  0  0
  152.3058  138.2194  156.5262 H   0  0  0  0  0  0  0  0  0  0  0  0
  152.8968  139.8729  156.5654 H   0  0  0  0  0  0  0  0  0  0  0  0
  143.0841  135.3824  150.8205 H   0  0  0  0  0  0  0  0  0  0  0  0
  144.2633  135.6936  149.5684 H   0  0  0  0  0  0  0  0  0  0  0  0
  143.6126  133.0789  150.8941 H   0  0  0  0  0  0  0  0  0  0  0  0
  143.9696  133.3880  149.2017 H   0  0  0  0  0  0  0  0  0  0  0  0
  145.8030  132.4760  151.1844 H   0  0  0  0  0  0  0  0  0  0  0  0
  146.2604  133.0778  149.5996 H   0  0  0  0  0  0  0  0  0  0  0  0
  146.9711  135.0749  150.4266 H   0  0  0  0  0  0  0  0  0  0  0  0
  146.9346  134.3426  152.0138 H   0  0  0  0  0  0  0  0  0  0  0  0
  1  2  1  0  0  0  0
  1 24  1  0  0  0  0
  1 25  1  0  0  0  0
  1 26  1  0  0  0  0
  2  3  1  0  0  0  0
  2 27  1  0  0  0  0
  2 28  1  0  0  0  0
  3  4  1  0  0  0  0
  4 19  1  0  0  0  0
  4  5  1  0  0  0  0
  4 29  1  0  0  0  0
  5  6  1  0  0  0  0
  5 30  1  0  0  0  0
  5 31  1  0  0  0  0
  6  7  1  0  0  0  0
  6 19  1  0  0  0  0
  6 32  1  0  0  0  0
  7  8  1  0  0  0  0
  7 33  1  0  0  0  0
  8  9  2  0  0  0  0
  8 10  1  0  0  0  0
 10 11  1  0  0  0  0
 10 34  1  0  0  0  0
 11 17  1  0  0  0  0
 11 12  2  0  0  0  0
 12 13  1  0  0  0  0
 12 35  1  0  0  0  0
 13 14  2  0  0  0  0
 13 36  1  0  0  0  0
 14 15  1  0  0  0  0
 14 37  1  0  0  0  0
 15 16  1  0  0  0  0
 15 17  1  0  0  0  0
 16 38  1  0  0  0  0
 16 39  1  0  0  0  0
 16 40  1  0  0  0  0
 17 18  2  0  0  0  0
 19 23  1  0  0  0  0
 19 20  1  0  0  0  0
 20 21  1  0  0  0  0
 20 41  1  0  0  0  0
 20 42  1  0  0  0  0
 21 22  1  0  0  0  0
 21 43  1  0  0  0  0
 21 44  1  0  0  0  0
 22 23  1  0  0  0  0
 22 45  1  0  0  0  0
 22 46  1  0  0  0  0
 23 47  1  0  0  0  0
 23 48  1  0  0  0  0
M  END
> <s_m_source_file>
AV-unprocessed.smi

> <i_m_source_file_index>
709

> <i_lp_mmshare_version>
43012

> <i_f3d_flags>
0

> <s_epik_input>
W0NIMl0xW0NIMl1bQ0gyXVtDSDJdQzEyW0NASF0oT1tDSDJdW0NIM10pW0NIMl1bQ0BIXTJbTkhdQyg9TylbTkhdYzNbY0hdW2NIXVtjSF1uKFtDSDNdKWMzPU8=

> <s_epik_cmdline>
J2VwaWtfcHl0aG9uJywgJy1waCcsICc3LjAnLCAnLXRuJywgJzgnLCAnLW1hJywgJzIwMCcsICctbWV0YWxfYmluZGluZycsICctaW1hZScsICc8aW5maWxlLm1hZT4nLCAnLW9tYWUnLCAnPG91dGZpbGUubWFlPic=

> <r_lp_tautomer_probability>
1

> <r_epik_Ionization_Penalty>
2.50859e-05

> <r_epik_Ionization_Penalty_Charging>
5.10493e-06

> <r_epik_Ionization_Penalty_Neutral>
1.9981e-05

> <r_epik_State_Penalty>
-0

> <r_epik_Charging_Adjusted_Penalty>
5.10493e-06

> <i_epik_Tot_Q>
0

> <i_epik_Tot_abs_Q>
0

> <r_epik_Metal_State_Penalty>
-0

> <b_epik_Metal_Only>
0

> <s_lp_Force_Field>
OPLS_2005

> <r_lp_Energy>
50.6908

> <b_lp_Chiralities_Consistent>
1

> <s_lp_Variant>
AV-unprocessed.smi:709-1

> <Gold.Version>
5.8.1

> <Gold.Id.Protein>
6NUR|6NUR_protein|mol2

> <Gold.PLP.Fitness>
42.0325

> <Gold.PLP.PLP>
-36.8529

> <Gold.PLP.part.hbond>
-2.7468

> <Gold.PLP.part.metal>
0.0000

> <Gold.PLP.part.buried>
1.8148

> <Gold.PLP.part.nonpolar>
-36.5094

> <Gold.PLP.part.repulsive>
0.6933

> <Gold.PLP.ligand.clash>
0.0000

> <Gold.PLP.ligand.torsion>
0.4843

> <Gold.PLP.Chemscore.Hbond>
1.9353

> <Gold.PLP.Chemscore.CHOScore>
0.0000

> <Gold.PLP.Chemscore.Metal>
0.0000

> <Gold.Chemscore.Hbonds>
donor molecule, donor type, donor heavy atom, donor atom, acceptor molecule, acceptor atom, score
      L1  H     7    33       P1  7948  0.96
      L1  H    10    34       P1  7948  0.94

> <Gold.PLP.Chemscore.Internal.Correction>
0.3425

> <Gold.Rescore>
     Score         DG    S(hbond)    S(metal)    S(lipo)     H(rot)  DE(clash)    DE(int)     intcor
     15.94     -19.17       2.74        0.00      68.60       1.36       0.17       3.05       ----

> <Gold.Chemscore.Fitness>
15.9415

> <Gold.Chemscore.DG>
-19.1669

> <Gold.Chemscore.ZeroCoef>
-5.4800

> <Gold.Chemscore.Hbond>
2.7371

> <Gold.Chemscore.Metal>
0.0000

> <Gold.Chemscore.Lipo>
68.6007

> <Gold.Chemscore.Internal_Hbond>
0.0000

> <Gold.Chemscore.DEClash>
0.1715

> <Gold.Chemscore.DEInternal>
3.0540

> <Gold.Chemscore.Rot>
1.3599

> <Gold.Chemscore.Internal.Correction>
   9.000000E+99

> <Gold.Chemscore.Hbonds>
donor molecule, donor type, donor heavy atom, donor atom, acceptor molecule, acceptor atom, score
      L1  H     7    33       P1  7948  0.88
      L1  H    10    34       P1  7948  0.91

> <Gold.Chemscore.Hbond.Weighted>
-9.1419

> <Gold.Chemscore.Metal.Weighted>
-0.0000

> <Gold.Chemscore.Lipo.Weighted>
-8.0263

> <Gold.Chemscore.Internal_Hbond.Weighted>
0.0000

> <Gold.Chemscore.DEClash.Weighted>
0.1715

> <Gold.Chemscore.DEInternal.Weighted>
3.0540

> <Gold.Chemscore.Rot.Weighted>
3.4813

> <Gold.Chemscore.Internal.Correction.Weighted>
   9.000000E+99

> <Gold.Protein.RotatedTorsions>
[ 6907 6896 6895 6894 ] final  -10.57 input  -60.11 | X-H torsion
[ 7974 7965 7964 7962 ] final  116.40 input  175.53 | X-H torsion
[ 8008 7997 7996 7995 ] final  122.07 input   59.86 | X-H torsion
[ 10167 10162 10161 10158 ] final   45.13 input  -65.29 | X-H torsion
[ 10718 10713 10712 10709 ] final   -5.35 input   66.30 | X-H torsion
[ 10763 10752 10751 10750 ] final  -68.64 input  -60.55 | X-H torsion
[ 11005 11000 10999 10996 ] final   -4.31 input  -57.11 | X-H torsion

> <Gold.Protein.ActiveResidues>
 VAL166  LYS551  ARG553  GLY616  TRP617  ASP618  TYR619  PRO620  LYS621  CYS622 
 ASP623  PHE694  ASN695  SER759  ASP760  ASP761  ALA762  ILE779  LEU786  VAL792 
 PHE793  MET794  SER795  GLU796  ALA797  LYS798  CYS799  TRP800  GLU811  SER814 

> <Gold.Protein.RotatedAtoms>
  151.3999  135.0969  159.9552 H   0  0  0  0  0  0  0  0  0  0  0  0  # atno 6907 bound_to 6896
  152.5053  133.8898  159.7399 H   0  0  0  0  0  0  0  0  0  0  0  0  # atno 6908 bound_to 6896
  150.9370  133.6644  159.2827 H   0  0  0  0  0  0  0  0  0  0  0  0  # atno 6909 bound_to 6896
  145.1800  139.3055  143.4423 H   0  0  0  0  0  0  0  0  0  0  0  0  # atno 7974 bound_to 7965
  156.2713  140.2794  156.1409 H   0  0  0  0  0  0  0  0  0  0  0  0  # atno 8008 bound_to 7997
  155.0954  140.0389  157.2699 H   0  0  0  0  0  0  0  0  0  0  0  0  # atno 8009 bound_to 7997
  154.6857  140.2618  155.6869 H   0  0  0  0  0  0  0  0  0  0  0  0  # atno 8010 bound_to 7997
  140.3272  144.2633  150.6173 H   0  0  0  0  0  0  0  0  0  0  0  0  # atno 10167 bound_to 10162
  156.7479  130.5230  149.5810 H   0  0  0  0  0  0  0  0  0  0  0  0  # atno 10718 bound_to 10713
  154.3919  135.6051  153.5848 H   0  0  0  0  0  0  0  0  0  0  0  0  # atno 10763 bound_to 10752
  152.9787  135.5885  154.4287 H   0  0  0  0  0  0  0  0  0  0  0  0  # atno 10764 bound_to 10752
  154.4073  135.2843  155.2037 H   0  0  0  0  0  0  0  0  0  0  0  0  # atno 10765 bound_to 10752
  140.6789  133.9171  155.8542 H   0  0  0  0  0  0  0  0  0  0  0  0  # atno 11005 bound_to 11000
  146.3454  140.1977  142.8589 LP  0  0  0  0  0  0  0  0  0  0  0  0  # atno 17320 bound_to 7965
  145.0145  140.8742  143.5204 LP  0  0  0  0  0  0  0  0  0  0  0  0  # atno 17321 bound_to 7965
  140.5430  143.2220  151.8054 LP  0  0  0  0  0  0  0  0  0  0  0  0  # atno 17342 bound_to 10162
  139.4863  144.4576  151.9580 LP  0  0  0  0  0  0  0  0  0  0  0  0  # atno 17343 bound_to 10162
  156.1421  130.6252  151.0481 LP  0  0  0  0  0  0  0  0  0  0  0  0  # atno 17370 bound_to 10713
  157.6790  131.0843  150.7419 LP  0  0  0  0  0  0  0  0  0  0  0  0  # atno 17371 bound_to 10713
  141.0333  134.0725  157.3988 LP  0  0  0  0  0  0  0  0  0  0  0  0  # atno 17394 bound_to 11000
  139.8958  135.0143  156.7019 LP  0  0  0  0  0  0  0  0  0  0  0  0  # atno 17395 bound_to 11000

$$$$
