AV-unprocessed.smi:1681|AV-procd|sdf|6742|dock2
  -GOLD-   22720 7493D 1   1.00000     0.00000
 Structure written by MMmdl.
 40 41  0  0  0  0  0  0  0  0  1 V2000
  154.3336  141.6815  160.0700 C   0  0  0  0  0  0  0  0  0  0  0  0
  153.5158  140.7245  159.1999 C   0  0  0  0  0  0  0  0  0  0  0  0
  154.0429  139.6685  158.8493 O   0  0  0  0  0  0  0  0  0  0  0  0
  152.2545  141.0672  158.8431 N   0  0  0  0  0  0  0  0  0  0  0  0
  151.6000  142.3442  159.1564 C   0  0  0  0  0  0  0  0  0  0  0  0
  151.4808  143.1671  157.8610 C   0  0  0  0  0  0  0  0  0  0  0  0
  150.7280  142.3767  156.7734 C   0  0  0  0  0  0  0  0  0  0  0  0
  151.3206  140.9605  156.5799 C   0  0  2  0  0  0  0  0  0  0  0  0
  150.4815  140.1359  155.5946 C   0  0  0  0  0  0  0  0  0  0  0  0
  150.9829  139.7490  154.5386 O   0  0  0  0  0  0  0  0  0  0  0  0
  149.2129  139.8888  155.9670 N   0  0  0  0  0  0  0  0  0  0  0  0
  148.2306  139.1548  155.2558 C   0  0  0  0  0  0  0  0  0  0  0  0
  148.2314  138.9524  153.8512 C   0  0  0  0  0  0  0  0  0  0  0  0
  147.1856  138.2351  153.4701 N   0  0  0  0  0  0  0  0  0  0  0  0
  146.5035  137.9713  154.6129 N   0  0  0  0  0  0  0  0  0  0  0  0
  145.2722  137.2036  154.5552 C   0  0  0  0  0  0  0  0  0  0  0  0
  144.8600  136.9206  153.1089 C   0  0  0  0  0  0  0  0  0  0  0  0
  144.5291  137.9694  152.3503 N   0  0  0  0  0  0  0  0  0  0  0  0
  144.8351  135.7682  152.6823 O   0  0  0  0  0  0  0  0  0  0  0  0
  147.1176  138.5158  155.7240 C   0  0  0  0  0  0  0  0  0  0  0  0
  151.4341  140.2447  157.9450 C   0  0  0  0  0  0  0  0  0  0  0  0
  154.4400  142.6519  159.5841 H   0  0  0  0  0  0  0  0  0  0  0  0
  155.3349  141.2845  160.2407 H   0  0  0  0  0  0  0  0  0  0  0  0
  153.8596  141.8202  161.0421 H   0  0  0  0  0  0  0  0  0  0  0  0
  150.6074  142.1468  159.5640 H   0  0  0  0  0  0  0  0  0  0  0  0
  152.1157  142.9247  159.9199 H   0  0  0  0  0  0  0  0  0  0  0  0
  150.9682  144.1087  158.0595 H   0  0  0  0  0  0  0  0  0  0  0  0
  152.4776  143.4261  157.5016 H   0  0  0  0  0  0  0  0  0  0  0  0
  149.6775  142.3046  157.0601 H   0  0  0  0  0  0  0  0  0  0  0  0
  150.7522  142.9292  155.8332 H   0  0  0  0  0  0  0  0  0  0  0  0
  152.3273  141.0678  156.1705 H   0  0  0  0  0  0  0  0  0  0  0  0
  148.9209  140.2671  156.8565 H   0  0  0  0  0  0  0  0  0  0  0  0
  148.9388  139.2957  153.1107 H   0  0  0  0  0  0  0  0  0  0  0  0
  145.4059  136.2665  155.0981 H   0  0  0  0  0  0  0  0  0  0  0  0
  144.4836  137.7589  155.0651 H   0  0  0  0  0  0  0  0  0  0  0  0
  144.2449  137.8308  151.3914 H   0  0  0  0  0  0  0  0  0  0  0  0
  144.5593  138.8993  152.7428 H   0  0  0  0  0  0  0  0  0  0  0  0
  146.7085  138.4036  156.7170 H   0  0  0  0  0  0  0  0  0  0  0  0
  151.8397  139.2402  157.8129 H   0  0  0  0  0  0  0  0  0  0  0  0
  150.4477  140.1070  158.3914 H   0  0  0  0  0  0  0  0  0  0  0  0
  1  2  1  0  0  0  0
  1 22  1  0  0  0  0
  1 23  1  0  0  0  0
  1 24  1  0  0  0  0
  2  3  2  0  0  0  0
  2  4  1  0  0  0  0
  4 21  1  0  0  0  0
  4  5  1  0  0  0  0
  5  6  1  0  0  0  0
  5 25  1  0  0  0  0
  5 26  1  0  0  0  0
  6  7  1  0  0  0  0
  6 27  1  0  0  0  0
  6 28  1  0  0  0  0
  7  8  1  0  0  0  0
  7 29  1  0  0  0  0
  7 30  1  0  0  0  0
  8  9  1  0  0  0  0
  8 21  1  0  0  0  0
  8 31  1  0  0  0  0
  9 10  2  0  0  0  0
  9 11  1  0  0  0  0
 11 12  1  0  0  0  0
 11 32  1  0  0  0  0
 12 20  2  0  0  0  0
 12 13  1  0  0  0  0
 13 14  2  0  0  0  0
 13 33  1  0  0  0  0
 14 15  1  0  0  0  0
 15 16  1  0  0  0  0
 15 20  1  0  0  0  0
 16 17  1  0  0  0  0
 16 34  1  0  0  0  0
 16 35  1  0  0  0  0
 17 18  1  0  0  0  0
 17 19  2  0  0  0  0
 18 36  1  0  0  0  0
 18 37  1  0  0  0  0
 20 38  1  0  0  0  0
 21 39  1  0  0  0  0
 21 40  1  0  0  0  0
M  END
> <s_m_source_file>
AV-unprocessed.smi

> <i_m_source_file_index>
1681

> <i_lp_mmshare_version>
43012

> <i_f3d_flags>
0

> <s_epik_input>
W0NIM11DKD1PKU4xW0NIMl1bQ0gyXVtDSDJdW0NASF0oW0NIMl0xKUMoPU8pW05IXWMyW2NIXW5uKFtjSF0yKVtDSDJdQyg9TylbTkgyXQ==

> <s_epik_cmdline>
J2VwaWtfcHl0aG9uJywgJy1waCcsICc3LjAnLCAnLXRuJywgJzgnLCAnLW1hJywgJzIwMCcsICctbWV0YWxfYmluZGluZycsICctaW1hZScsICc8aW5maWxlLm1hZT4nLCAnLW9tYWUnLCAnPG91dGZpbGUubWFlPic=

> <r_lp_tautomer_probability>
1

> <r_epik_Ionization_Penalty>
6.05275e-06

> <r_epik_Ionization_Penalty_Charging>
0

> <r_epik_Ionization_Penalty_Neutral>
6.05275e-06

> <r_epik_State_Penalty>
-0

> <r_epik_Charging_Adjusted_Penalty>
0

> <i_epik_Tot_Q>
0

> <i_epik_Tot_abs_Q>
0

> <r_epik_Metal_State_Penalty>
-0

> <b_epik_Metal_Only>
0

> <s_lp_Force_Field>
OPLS_2005

> <r_lp_Energy>
29.5866

> <b_lp_Chiralities_Consistent>
1

> <s_lp_Variant>
AV-unprocessed.smi:1681-2

> <Gold.Version>
5.8.1

> <Gold.Id.Protein>
6NUR|6NUR_protein|mol2

> <Gold.PLP.Fitness>
42.4544

> <Gold.PLP.PLP>
-28.7253

> <Gold.PLP.part.hbond>
-3.8837

> <Gold.PLP.part.metal>
0.0000

> <Gold.PLP.part.buried>
-4.0731

> <Gold.PLP.part.nonpolar>
-21.3502

> <Gold.PLP.part.repulsive>
0.4652

> <Gold.PLP.ligand.clash>
0.0000

> <Gold.PLP.ligand.torsion>
0.1948

> <Gold.PLP.Chemscore.Hbond>
3.6960

> <Gold.PLP.Chemscore.CHOScore>
1.0000

> <Gold.PLP.Chemscore.Metal>
0.0000

> <Gold.Chemscore.Hbonds>
donor molecule, donor type, donor heavy atom, donor atom, acceptor molecule, acceptor atom, score
      L1  H    18    36       P1 10171  0.93
      L1  H    18    37       P1 10175  0.70
      P1  H  7989  7998       L1    10  1.00
      P1  H  7997  8010       L1     3  1.00
      L1  C    13    33       P1  7957  1.00

> <Gold.PLP.Chemscore.Internal.Correction>
0.0306

> <Gold.Rescore>
     Score         DG    S(hbond)    S(metal)    S(lipo)     H(rot)  DE(clash)    DE(int)     intcor
     17.51     -18.91       3.59        0.00      55.26       1.96       0.01       1.38       ----

> <Gold.Chemscore.Fitness>
17.5122

> <Gold.Chemscore.DG>
-18.9080

> <Gold.Chemscore.ZeroCoef>
-5.4800

> <Gold.Chemscore.Hbond>
3.5881

> <Gold.Chemscore.Metal>
0.0000

> <Gold.Chemscore.Lipo>
55.2625

> <Gold.Chemscore.Internal_Hbond>
0.0000

> <Gold.Chemscore.DEClash>
0.0149

> <Gold.Chemscore.DEInternal>
1.3809

> <Gold.Chemscore.Rot>
1.9617

> <Gold.Chemscore.Internal.Correction>
   9.000000E+99

> <Gold.Chemscore.Hbonds>
donor molecule, donor type, donor heavy atom, donor atom, acceptor molecule, acceptor atom, score
      L1  H    18    36       P1 10171  0.91
      L1  H    18    37       P1 10175  0.70
      P1  H  7989  7998       L1    10  0.97
      P1  H  7997  8010       L1     3  0.55

> <Gold.Chemscore.Hbond.Weighted>
-11.9843

> <Gold.Chemscore.Metal.Weighted>
-0.0000

> <Gold.Chemscore.Lipo.Weighted>
-6.4657

> <Gold.Chemscore.Internal_Hbond.Weighted>
0.0000

> <Gold.Chemscore.DEClash.Weighted>
0.0149

> <Gold.Chemscore.DEInternal.Weighted>
1.3809

> <Gold.Chemscore.Rot.Weighted>
5.0220

> <Gold.Chemscore.Internal.Correction.Weighted>
   9.000000E+99

> <Gold.Protein.RotatedTorsions>
[ 6907 6896 6895 6894 ] final  -13.09 input  -60.11 | X-H torsion
[ 7974 7965 7964 7962 ] final   26.19 input  175.53 | X-H torsion
[ 8008 7997 7996 7995 ] final   10.91 input   59.86 | X-H torsion
[ 10167 10162 10161 10158 ] final  -83.97 input  -65.29 | X-H torsion
[ 10718 10713 10712 10709 ] final  -11.96 input   66.30 | X-H torsion
[ 10763 10752 10751 10750 ] final   79.71 input  -60.55 | X-H torsion
[ 11005 11000 10999 10996 ] final -136.59 input  -57.11 | X-H torsion

> <Gold.Protein.ActiveResidues>
 VAL166  LYS551  ARG553  GLY616  TRP617  ASP618  TYR619  PRO620  LYS621  CYS622 
 ASP623  PHE694  ASN695  SER759  ASP760  ASP761  ALA762  ILE779  LEU786  VAL792 
 PHE793  MET794  SER795  GLU796  ALA797  LYS798  CYS799  TRP800  GLU811  SER814 

> <Gold.Protein.RotatedAtoms>
  151.3603  135.0902  159.9431 H   0  0  0  0  0  0  0  0  0  0  0  0  # atno 6907 bound_to 6896
  152.5164  133.9265  159.7570 H   0  0  0  0  0  0  0  0  0  0  0  0  # atno 6908 bound_to 6896
  150.9658  133.6342  159.2775 H   0  0  0  0  0  0  0  0  0  0  0  0  # atno 6909 bound_to 6896
  146.1850  139.7362  142.8873 H   0  0  0  0  0  0  0  0  0  0  0  0  # atno 7974 bound_to 7965
  154.7998  140.2850  155.5930 H   0  0  0  0  0  0  0  0  0  0  0  0  # atno 8008 bound_to 7997
  156.2975  140.2588  156.2793 H   0  0  0  0  0  0  0  0  0  0  0  0  # atno 8009 bound_to 7997
  154.9571  140.0378  157.2162 H   0  0  0  0  0  0  0  0  0  0  0  0  # atno 8010 bound_to 7997
  140.4177  143.2597  151.8933 H   0  0  0  0  0  0  0  0  0  0  0  0  # atno 10167 bound_to 10162
  156.6515  130.4956  149.6060 H   0  0  0  0  0  0  0  0  0  0  0  0  # atno 10718 bound_to 10713
  153.0975  135.4829  154.8805 H   0  0  0  0  0  0  0  0  0  0  0  0  # atno 10763 bound_to 10752
  154.7341  135.3067  154.8844 H   0  0  0  0  0  0  0  0  0  0  0  0  # atno 10764 bound_to 10752
  153.9471  135.6827  153.4797 H   0  0  0  0  0  0  0  0  0  0  0  0  # atno 10765 bound_to 10752
  140.8790  134.1955  157.4603 H   0  0  0  0  0  0  0  0  0  0  0  0  # atno 11005 bound_to 11000
  145.3965  141.0379  143.3094 LP  0  0  0  0  0  0  0  0  0  0  0  0  # atno 17320 bound_to 7965
  144.8381  139.5517  143.6913 LP  0  0  0  0  0  0  0  0  0  0  0  0  # atno 17321 bound_to 7965
  139.4782  144.5471  151.8442 LP  0  0  0  0  0  0  0  0  0  0  0  0  # atno 17342 bound_to 10162
  140.4568  144.1777  150.5902 LP  0  0  0  0  0  0  0  0  0  0  0  0  # atno 17343 bound_to 10162
  156.2080  130.6661  151.1239 LP  0  0  0  0  0  0  0  0  0  0  0  0  # atno 17370 bound_to 10713
  157.7139  131.0720  150.6399 LP  0  0  0  0  0  0  0  0  0  0  0  0  # atno 17371 bound_to 10713
  139.8718  134.9809  156.5094 LP  0  0  0  0  0  0  0  0  0  0  0  0  # atno 17394 bound_to 11000
  140.8483  133.8151  155.9143 LP  0  0  0  0  0  0  0  0  0  0  0  0  # atno 17395 bound_to 11000

$$$$
