AV-unprocessed.smi:3186|AV-procd|sdf|12173|dock3
  -GOLD-   2272018 13D 1   1.00000     0.00000
 Structure written by MMmdl.
 37 38  0  0  0  0  0  0  0  0  2 V2000
  150.8813  138.1931  154.7269 C   0  0  0  0  0  0  0  0  0  0  0  0
  149.7990  139.2445  154.5571 C   0  0  0  0  0  0  0  0  0  0  0  0
  148.6753  138.9666  153.7480 C   0  0  0  0  0  0  0  0  0  0  0  0
  147.6675  139.8402  153.5434 N   0  0  0  0  0  0  0  0  0  0  0  0
  147.7421  141.0427  154.1496 C   0  0  0  0  0  0  0  0  0  0  0  0
  148.8157  141.4249  154.9773 C   0  0  0  0  0  0  0  0  0  0  0  0
  149.8688  140.5106  155.1902 C   0  0  0  0  0  0  0  0  0  0  0  0
  151.0370  140.9129  156.0766 C   0  0  0  0  0  0  0  0  0  0  0  0
  151.3765  142.4042  155.9449 C   0  0  0  0  0  0  0  0  0  0  0  0
  150.7332  143.1904  157.0184 N   0  3  0  0  0  0  0  0  0  0  0  0
  151.6456  143.6770  158.0776 C   0  0  2  0  0  0  0  0  0  0  0  0
  151.9497  142.5608  159.1018 C   0  0  0  0  0  0  0  0  0  0  0  0
  152.9369  143.0042  160.1943 C   0  0  0  0  0  0  0  0  0  0  0  0
  152.4109  144.1865  161.0190 C   0  0  0  0  0  0  0  0  0  0  0  0
  152.1488  145.6441  159.9744 S   0  0  0  0  0  0  0  0  0  0  0  0
  151.0199  144.9058  158.7624 C   0  0  0  0  0  0  0  0  0  0  0  0
  150.7035  137.3362  154.0759 H   0  0  0  0  0  0  0  0  0  0  0  0
  150.9025  137.8331  155.7557 H   0  0  0  0  0  0  0  0  0  0  0  0
  151.8619  138.5990  154.4799 H   0  0  0  0  0  0  0  0  0  0  0  0
  148.5798  138.0139  153.2477 H   0  0  0  0  0  0  0  0  0  0  0  0
  146.9226  141.7225  153.9688 H   0  0  0  0  0  0  0  0  0  0  0  0
  148.8257  142.4023  155.4370 H   0  0  0  0  0  0  0  0  0  0  0  0
  150.7850  140.6829  157.1129 H   0  0  0  0  0  0  0  0  0  0  0  0
  151.9089  140.3022  155.8417 H   0  0  0  0  0  0  0  0  0  0  0  0
  152.4567  142.5399  155.9805 H   0  0  0  0  0  0  0  0  0  0  0  0
  151.0394  142.7776  154.9768 H   0  0  0  0  0  0  0  0  0  0  0  0
  150.3102  143.9978  156.5830 H   0  0  0  0  0  0  0  0  0  0  0  0
  152.5753  143.9946  157.6024 H   0  0  0  0  0  0  0  0  0  0  0  0
  151.0225  142.2217  159.5659 H   0  0  0  0  0  0  0  0  0  0  0  0
  152.3712  141.6910  158.5986 H   0  0  0  0  0  0  0  0  0  0  0  0
  153.1351  142.1640  160.8607 H   0  0  0  0  0  0  0  0  0  0  0  0
  153.8945  143.2669  159.7431 H   0  0  0  0  0  0  0  0  0  0  0  0
  151.4719  143.9233  161.5073 H   0  0  0  0  0  0  0  0  0  0  0  0
  153.1199  144.4434  161.8064 H   0  0  0  0  0  0  0  0  0  0  0  0
  150.7730  145.6689  158.0232 H   0  0  0  0  0  0  0  0  0  0  0  0
  150.0900  144.6364  159.2649 H   0  0  0  0  0  0  0  0  0  0  0  0
  150.0033  142.6394  157.4469 H   0  0  0  0  0  0  0  0  0  0  0  0
  1  2  1  0  0  0  0
  1 17  1  0  0  0  0
  1 18  1  0  0  0  0
  1 19  1  0  0  0  0
  2  7  1  0  0  0  0
  2  3  2  0  0  0  0
  3  4  1  0  0  0  0
  3 20  1  0  0  0  0
  4  5  2  0  0  0  0
  5  6  1  0  0  0  0
  5 21  1  0  0  0  0
  6  7  2  0  0  0  0
  6 22  1  0  0  0  0
  7  8  1  0  0  0  0
  8  9  1  0  0  0  0
  8 23  1  0  0  0  0
  8 24  1  0  0  0  0
  9 10  1  0  0  0  0
  9 25  1  0  0  0  0
  9 26  1  0  0  0  0
 10 11  1  0  0  0  0
 10 27  1  0  0  0  0
 10 37  1  0  0  0  0
 11 16  1  0  0  0  0
 11 12  1  0  0  0  0
 11 28  1  0  0  0  0
 12 13  1  0  0  0  0
 12 29  1  0  0  0  0
 12 30  1  0  0  0  0
 13 14  1  0  0  0  0
 13 31  1  0  0  0  0
 13 32  1  0  0  0  0
 14 15  1  0  0  0  0
 14 33  1  0  0  0  0
 14 34  1  0  0  0  0
 15 16  1  0  0  0  0
 16 35  1  0  0  0  0
 16 36  1  0  0  0  0
M  CHG  1  10   1
M  END
> <s_m_source_file>
AV-unprocessed.smi

> <i_m_source_file_index>
3186

> <i_lp_mmshare_version>
43012

> <i_f3d_flags>
0

> <s_epik_input>
W0NIM11jMVtjSF1uW2NIXVtjSF1jMVtDSDJdW0NIMl1bTkhdW0NAQEhdMltDSDJdW0NIMl1bQ0gyXVNbQ0gyXTI=

> <s_epik_cmdline>
J2VwaWtfcHl0aG9uJywgJy1waCcsICc3LjAnLCAnLXRuJywgJzgnLCAnLW1hJywgJzIwMCcsICctbWV0YWxfYmluZGluZycsICctaW1hZScsICc8aW5maWxlLm1hZT4nLCAnLW9tYWUnLCAnPG91dGZpbGUubWFlPic=

> <r_epik_Ionization_Penalty>
0.00563987

> <r_epik_Ionization_Penalty_Charging>
0.00306352

> <r_epik_Ionization_Penalty_Neutral>
0.00257635

> <r_epik_State_Penalty>
0.00506628

> <r_epik_Charging_Adjusted_Penalty>
0.0081298

> <i_epik_Tot_Q>
1

> <i_epik_Tot_abs_Q>
1

> <r_epik_Metal_State_Penalty>
-0

> <b_epik_Metal_Only>
0

> <s_lp_Force_Field>
OPLS_2005

> <r_lp_Energy>
10.8163

> <b_lp_Chiralities_Consistent>
1

> <s_lp_Variant>
AV-unprocessed.smi:3186-1

> <Gold.Version>
5.8.1

> <Gold.Id.Protein>
6NUR|6NUR_protein|mol2

> <Gold.PLP.Fitness>
43.5754

> <Gold.PLP.PLP>
-36.8584

> <Gold.PLP.part.hbond>
-1.0000

> <Gold.PLP.part.metal>
0.0000

> <Gold.PLP.part.buried>
-4.5502

> <Gold.PLP.part.nonpolar>
-32.2370

> <Gold.PLP.part.repulsive>
0.4693

> <Gold.PLP.ligand.clash>
0.0000

> <Gold.PLP.ligand.torsion>
1.1498

> <Gold.PLP.Chemscore.Hbond>
2.0000

> <Gold.PLP.Chemscore.CHOScore>
1.0000

> <Gold.PLP.Chemscore.Metal>
0.0000

> <Gold.Chemscore.Hbonds>
donor molecule, donor type, donor heavy atom, donor atom, acceptor molecule, acceptor atom, score
      L1  H    10    27       P1  8028  1.98
      L1  C     3    20       P1  7948  1.00

> <Gold.PLP.Chemscore.Internal.Correction>
0.0166

> <Gold.Rescore>
     Score         DG    S(hbond)    S(metal)    S(lipo)     H(rot)  DE(clash)    DE(int)     intcor
     17.59     -19.74       0.98        0.00     122.55       1.30       1.28       0.87       ----

> <Gold.Chemscore.Fitness>
17.5871

> <Gold.Chemscore.DG>
-19.7429

> <Gold.Chemscore.ZeroCoef>
-5.4800

> <Gold.Chemscore.Hbond>
0.9762

> <Gold.Chemscore.Metal>
0.0000

> <Gold.Chemscore.Lipo>
122.5505

> <Gold.Chemscore.Internal_Hbond>
0.0000

> <Gold.Chemscore.DEClash>
1.2830

> <Gold.Chemscore.DEInternal>
0.8728

> <Gold.Chemscore.Rot>
1.3031

> <Gold.Chemscore.Internal.Correction>
   9.000000E+99

> <Gold.Chemscore.Hbonds>
donor molecule, donor type, donor heavy atom, donor atom, acceptor molecule, acceptor atom, score
      L1  H    10    27       P1  8028  0.94

> <Gold.Chemscore.Hbond.Weighted>
-3.2605

> <Gold.Chemscore.Metal.Weighted>
-0.0000

> <Gold.Chemscore.Lipo.Weighted>
-14.3384

> <Gold.Chemscore.Internal_Hbond.Weighted>
0.0000

> <Gold.Chemscore.DEClash.Weighted>
1.2830

> <Gold.Chemscore.DEInternal.Weighted>
0.8728

> <Gold.Chemscore.Rot.Weighted>
3.3361

> <Gold.Chemscore.Internal.Correction.Weighted>
   9.000000E+99

> <Gold.Protein.RotatedTorsions>
[ 6907 6896 6895 6894 ] final  -54.93 input  -60.11 | X-H torsion
[ 7974 7965 7964 7962 ] final  -77.60 input  175.53 | X-H torsion
[ 8008 7997 7996 7995 ] final  161.71 input   59.86 | X-H torsion
[ 10167 10162 10161 10158 ] final   50.22 input  -65.29 | X-H torsion
[ 10718 10713 10712 10709 ] final  117.49 input   66.30 | X-H torsion
[ 10763 10752 10751 10750 ] final  -27.51 input  -60.55 | X-H torsion
[ 11005 11000 10999 10996 ] final  107.21 input  -57.11 | X-H torsion

> <Gold.Protein.ActiveResidues>
 VAL166  LYS551  ARG553  GLY616  TRP617  ASP618  TYR619  PRO620  LYS621  CYS622 
 ASP623  PHE694  ASN695  SER759  ASP760  ASP761  ALA762  ILE779  LEU786  VAL792 
 PHE793  MET794  SER795  GLU796  ALA797  LYS798  CYS799  TRP800  GLU811  SER814 

> <Gold.Protein.RotatedAtoms>
  150.8295  134.7542  159.6841 H   0  0  0  0  0  0  0  0  0  0  0  0  # atno 6907 bound_to 6896
  152.4402  134.5603  159.9902 H   0  0  0  0  0  0  0  0  0  0  0  0  # atno 6908 bound_to 6896
  151.5767  133.3345  159.3036 H   0  0  0  0  0  0  0  0  0  0  0  0  # atno 6909 bound_to 6896
  145.5975  140.9416  143.1259 H   0  0  0  0  0  0  0  0  0  0  0  0  # atno 7974 bound_to 7965
  156.2084  140.1770  156.7750 H   0  0  0  0  0  0  0  0  0  0  0  0  # atno 8008 bound_to 7997
  154.5687  140.0686  156.8961 H   0  0  0  0  0  0  0  0  0  0  0  0  # atno 8009 bound_to 7997
  155.2713  140.3342  155.4267 H   0  0  0  0  0  0  0  0  0  0  0  0  # atno 8010 bound_to 7997
  140.2747  144.3225  150.6280 H   0  0  0  0  0  0  0  0  0  0  0  0  # atno 10167 bound_to 10162
  157.6093  131.1038  150.7622 H   0  0  0  0  0  0  0  0  0  0  0  0  # atno 10718 bound_to 10713
  153.7332  135.6937  153.4984 H   0  0  0  0  0  0  0  0  0  0  0  0  # atno 10763 bound_to 10752
  153.2121  135.4399  155.0390 H   0  0  0  0  0  0  0  0  0  0  0  0  # atno 10764 bound_to 10752
  154.8246  135.3439  154.6861 H   0  0  0  0  0  0  0  0  0  0  0  0  # atno 10765 bound_to 10752
  139.8825  134.9393  156.5784 H   0  0  0  0  0  0  0  0  0  0  0  0  # atno 11005 bound_to 11000
  144.7324  139.7685  143.7342 LP  0  0  0  0  0  0  0  0  0  0  0  0  # atno 17320 bound_to 7965
  146.1601  139.4712  142.9994 LP  0  0  0  0  0  0  0  0  0  0  0  0  # atno 17321 bound_to 7965
  140.5861  143.2170  151.7340 LP  0  0  0  0  0  0  0  0  0  0  0  0  # atno 17342 bound_to 10162
  139.4979  144.4009  152.0182 LP  0  0  0  0  0  0  0  0  0  0  0  0  # atno 17343 bound_to 10162
  156.8003  130.4919  149.5371 LP  0  0  0  0  0  0  0  0  0  0  0  0  # atno 17370 bound_to 10713
  156.1190  130.6096  151.0164 LP  0  0  0  0  0  0  0  0  0  0  0  0  # atno 17371 bound_to 10713
  140.8045  133.8478  155.8756 LP  0  0  0  0  0  0  0  0  0  0  0  0  # atno 17394 bound_to 11000
  140.9562  134.1715  157.4690 LP  0  0  0  0  0  0  0  0  0  0  0  0  # atno 17395 bound_to 11000

$$$$
