#       Name:                AV-unprocessed.smi:3013
#       Creating user name   scv26
#       Creation time:       Fri Mar 27 16:40:12 2020


#       File generated by GOLD software.
#

@<TRIPOS>MOLECULE
AV-unprocessed.smi:3013
    49    50     1
SMALL
NO_CHARGES


@<TRIPOS>ATOM
      1 ****         0.0781   3.2315   0.8335 C.3            1 S1                 0.0000
      2 ****        -0.3702   2.3355  -0.3362 C.3            1 S1                 0.0000
      3 ****         0.2047   0.9010  -0.2436 C.3            1 S1                 0.0000
      4 ****         1.7359   0.8345  -0.4009 C.3            1 S1                 0.0000
      5 ****         2.2209  -0.5411  -0.3831 N.am           1 S1                 0.0000
      6 ****         2.3634  -1.2907   0.7197 C.2            1 S1                 0.0000
      7 ****         2.0819  -0.8929   1.8506 O.2            1 S1                 0.0000
      8 ****         2.8450  -2.5098   0.4236 N.am           1 S1                 0.0000
      9 ****         3.1215  -3.5773   1.3196 C.2            1 S1                 0.0000
     10 ****         2.9280  -3.5660   2.6347 N.2            1 S1                 0.0000
     11 ****         3.3601  -4.8254   2.9394 C.2            1 S1                 0.0000
     12 ****         3.7845  -5.5624   1.9125 N.2            1 S1                 0.0000
     13 ****         3.6211  -4.7278   0.8592 N.pl3          1 S1                 0.0000
     14 ****         3.9694  -5.1448  -0.4850 C.3            1 S1                 0.0000
     15 ****        -1.8568   2.3635  -0.4696 N.4            1 S1                 1.0000
     16 ****        -2.6030   1.5904   0.5617 C.3            1 S1                 0.0000
     17 ****        -4.1102   1.8842   0.4801 C.3            1 S1                 0.0000
     18 ****        -4.6517   1.5854  -0.9245 C.3            1 S1                 0.0000
     19 ****        -3.8422   2.3561  -1.9763 C.3            1 S1                 0.0000
     20 ****        -2.3386   2.0594  -1.8438 C.3            1 S1                 0.0000
     21 ****         1.1562   3.3899   0.8231 H              1 S1                 0.0000
     22 ****        -0.1777   2.7994   1.8009 H              1 S1                 0.0000
     23 ****        -0.3879   4.2155   0.7741 H              1 S1                 0.0000
     24 ****         0.0330   2.7975  -1.2386 H              1 S1                 0.0000
     25 ****        -0.0790   0.4520   0.7088 H              1 S1                 0.0000
     26 ****        -0.2405   0.2760  -1.0179 H              1 S1                 0.0000
     27 ****         2.0327   1.2834  -1.3491 H              1 S1                 0.0000
     28 ****         2.2372   1.4028   0.3834 H              1 S1                 0.0000
     29 ****         2.4784  -0.9455  -1.2717 H              1 S1                 0.0000
     30 ****         3.0381  -2.6968  -0.5492 H              1 S1                 0.0000
     31 ****         3.3616  -5.2110   3.9482 H              1 S1                 0.0000
     32 ****         4.6652  -4.4283  -0.9231 H              1 S1                 0.0000
     33 ****         3.0694  -5.1890  -1.0987 H              1 S1                 0.0000
     34 ****         4.4388  -6.1295  -0.4718 H              1 S1                 0.0000
     35 ****        -2.4341   0.5216   0.4239 H              1 S1                 0.0000
     36 ****        -2.2453   1.8427   1.5595 H              1 S1                 0.0000
     37 ****        -4.6467   1.2896   1.2201 H              1 S1                 0.0000
     38 ****        -4.2943   2.9298   0.7305 H              1 S1                 0.0000
     39 ****        -4.5901   0.5147  -1.1236 H              1 S1                 0.0000
     40 ****        -5.7063   1.8550  -0.9879 H              1 S1                 0.0000
     41 ****        -4.1873   2.0939  -2.9770 H              1 S1                 0.0000
     42 ****        -4.0157   3.4268  -1.8596 H              1 S1                 0.0000
     43 ****        -1.7933   2.6603  -2.5725 H              1 S1                 0.0000
     44 ****        -2.1445   1.0138  -2.0855 H              1 S1                 0.0000
     45 ****        -2.1088   3.3300  -0.3182 H              1 S1                 0.0000
     46 ****         1.7269   0.0329   1.9811 LP             1 S1                 0.0000
     47 ****         2.2083  -1.4955   2.6385 LP             1 S1                 0.0000
     48 ****         2.5702  -2.8451   3.2283 LP             1 S1                 0.0000
     49 ****         4.1360  -6.4985   1.9188 LP             1 S1                 0.0000
@<TRIPOS>BOND
    1    1    2 1     
    2    1   21 1     
    3    1   22 1     
    4    1   23 1     
    5    2    3 1     
    6    2   15 1     
    7    2   24 1     
    8    3    4 1     
    9    3   25 1     
   10    3   26 1     
   11    4    5 1     
   12    4   27 1     
   13    4   28 1     
   14    5    6 am    
   15    5   29 1     
   16    6    7 2     
   17    6    8 am    
   18    8    9 1     
   19    8   30 1     
   20    9   13 1     
   21    9   10 2     
   22   10   11 1     
   23   11   12 2     
   24   11   31 1     
   25   12   13 1     
   26   13   14 1     
   27   14   32 1     
   28   14   33 1     
   29   14   34 1     
   30   15   20 1     
   31   15   16 1     
   32   15   45 1     
   33   16   17 1     
   34   16   35 1     
   35   16   36 1     
   36   17   18 1     
   37   17   37 1     
   38   17   38 1     
   39   18   19 1     
   40   18   39 1     
   41   18   40 1     
   42   19   20 1     
   43   19   41 1     
   44   19   42 1     
   45   20   43 1     
   46   20   44 1     
   47    7   46 1     
   48    7   47 1     
   49   10   48 1     
   50   12   49 1     
@<TRIPOS>SUBSTRUCTURE
      1 S1             1
@<TRIPOS>SET
LONE_PAIRS      STATIC     ATOMS    <user>   **** ""
4 46 47 48 49
DONOR_HYDROGENS      STATIC     ATOMS    <user>   **** ""
3 29 30 45
ATOM$BLUE        STATIC     ATOMS    COLORGROUP SYSTEM
4 46 47 48 49
ATOM$RED        STATIC     ATOMS    COLORGROUP SYSTEM
3 29 30 45
