#       Name:                AV-unprocessed.smi:3284
#       Creating user name   scv26
#       Creation time:       Fri Mar 27 18:49:22 2020


#       File generated by GOLD software.
#

@<TRIPOS>MOLECULE
AV-unprocessed.smi:3284
    45    46     1
SMALL
NO_CHARGES


@<TRIPOS>ATOM
      1 ****         0.4310   3.0954  -0.4993 C.3            1 S1                 0.0000
      2 ****        -0.9986   2.5834  -0.5700 C.2            1 S1                 0.0000
      3 ****        -1.7940   2.9003  -1.6110 C.2            1 S1                 0.0000
      4 ****        -3.2512   2.4933  -1.7443 C.3            1 S1                 0.0000
      5 ****        -3.7113   1.5192  -0.6469 C.3            1 S1                 0.0000
      6 ****        -3.0548   1.8420   0.7070 C.3            1 S1                 0.0000
      7 ****        -3.6724   1.0284   1.8575 C.3            1 S1                 0.0000
      8 ****        -1.5055   1.7462   0.6121 C.3            1 S1                 0.0000
      9 ****        -0.9945   0.2820   0.5611 C.3            1 S1                 0.0000
     10 ****         0.4746   0.1780   0.6574 N.4            1 S1                 1.0000
     11 ****         0.9853  -1.2052   0.6002 C.3            1 S1                 0.0000
     12 ****         2.5182  -1.2306   0.6511 C.3            1 S1                 0.0000
     13 ****         3.0643  -2.6239   0.6142 C.2            1 S1                 0.0000
     14 ****         3.1914  -3.3904   1.6929 N.2            1 S1                 0.0000
     15 ****         3.7059  -4.5916   1.2163 C.2            1 S1                 0.0000
     16 ****         3.8659  -4.5099  -0.1458 C.2            1 S1                 0.0000
     17 ****         3.4431  -3.2416  -0.5216 N.pl3          1 S1                 0.0000
     18 ****         3.4235  -2.7168  -1.8732 C.3            1 S1                 0.0000
     19 ****         0.6292   3.5440   0.4744 H              1 S1                 0.0000
     20 ****         0.6108   3.8593  -1.2565 H              1 S1                 0.0000
     21 ****         1.1520   2.2978  -0.6698 H              1 S1                 0.0000
     22 ****        -1.4068   3.5147  -2.4110 H              1 S1                 0.0000
     23 ****        -3.8480   3.4049  -1.6976 H              1 S1                 0.0000
     24 ****        -3.4195   2.0574  -2.7294 H              1 S1                 0.0000
     25 ****        -4.7982   1.5581  -0.5641 H              1 S1                 0.0000
     26 ****        -3.4699   0.4972  -0.9396 H              1 S1                 0.0000
     27 ****        -3.2881   2.8852   0.9285 H              1 S1                 0.0000
     28 ****        -3.6333  -0.0440   1.6667 H              1 S1                 0.0000
     29 ****        -4.7218   1.2909   1.9952 H              1 S1                 0.0000
     30 ****        -3.1604   1.2254   2.7998 H              1 S1                 0.0000
     31 ****        -1.1108   2.2044   1.5203 H              1 S1                 0.0000
     32 ****        -1.4057  -0.2974   1.3868 H              1 S1                 0.0000
     33 ****        -1.3219  -0.2002  -0.3605 H              1 S1                 0.0000
     34 ****         0.8799   0.7017  -0.1053 H              1 S1                 0.0000
     35 ****         0.5739  -1.7729   1.4360 H              1 S1                 0.0000
     36 ****         0.6360  -1.6812  -0.3171 H              1 S1                 0.0000
     37 ****         2.9357  -0.6511  -0.1728 H              1 S1                 0.0000
     38 ****         2.8663  -0.7506   1.5667 H              1 S1                 0.0000
     39 ****         3.9176  -5.4144   1.8833 H              1 S1                 0.0000
     40 ****         4.2331  -5.2327  -0.8598 H              1 S1                 0.0000
     41 ****         3.6830  -3.5012  -2.5851 H              1 S1                 0.0000
     42 ****         4.1461  -1.9054  -1.9645 H              1 S1                 0.0000
     43 ****         2.4282  -2.3417  -2.1125 H              1 S1                 0.0000
     44 ****         0.7698   0.5947   1.5290 H              1 S1                 0.0000
     45 ****         2.9667  -3.1553   2.6385 LP             1 S1                 0.0000
@<TRIPOS>BOND
    1    1    2 1     
    2    1   19 1     
    3    1   20 1     
    4    1   21 1     
    5    2    8 1     
    6    2    3 2     
    7    3    4 1     
    8    3   22 1     
    9    4    5 1     
   10    4   23 1     
   11    4   24 1     
   12    5    6 1     
   13    5   25 1     
   14    5   26 1     
   15    6    7 1     
   16    6    8 1     
   17    6   27 1     
   18    7   28 1     
   19    7   29 1     
   20    7   30 1     
   21    8    9 1     
   22    8   31 1     
   23    9   10 1     
   24    9   32 1     
   25    9   33 1     
   26   10   11 1     
   27   10   34 1     
   28   10   44 1     
   29   11   12 1     
   30   11   35 1     
   31   11   36 1     
   32   12   13 1     
   33   12   37 1     
   34   12   38 1     
   35   13   17 1     
   36   13   14 2     
   37   14   15 1     
   38   15   16 2     
   39   15   39 1     
   40   16   17 1     
   41   16   40 1     
   42   17   18 1     
   43   18   41 1     
   44   18   42 1     
   45   18   43 1     
   46   14   45 1     
@<TRIPOS>SUBSTRUCTURE
      1 S1             1
@<TRIPOS>SET
LONE_PAIRS      STATIC     ATOMS    <user>   **** ""
1 45
DONOR_HYDROGENS      STATIC     ATOMS    <user>   **** ""
2 34 44
ATOM$BLUE        STATIC     ATOMS    COLORGROUP SYSTEM
1 45
ATOM$RED        STATIC     ATOMS    COLORGROUP SYSTEM
2 34 44
