#       Name:                AV-unprocessed.smi:696
#       Creating user name   scv26
#       Creation time:       Fri Mar 27 00:36:54 2020


#       File generated by GOLD software.
#

@<TRIPOS>MOLECULE
AV-unprocessed.smi:696
    43    44     1
SMALL
NO_CHARGES


@<TRIPOS>ATOM
      1 ****         0.7377   1.3562   0.4083 O.2            1 S1                 0.0000
      2 ****         0.2362   0.3950  -0.1762 C.2            1 S1                 0.0000
      3 ****         0.9620  -0.5631  -0.7734 N.am           1 S1                 0.0000
      4 ****         2.4191  -0.6103  -0.8144 C.3            1 S1                 0.0000
      5 ****         3.0018  -1.2024   0.4818 C.3            1 S1                 0.0000
      6 ****         4.5028  -1.2821   0.4236 C.2            1 S1                 0.0000
      7 ****         5.3235  -0.3925   0.8424 N.2            1 S1                 0.0000
      8 ****         6.5216  -0.9301   0.5598 N.am           1 S1                 0.0000
      9 ****         6.4044  -2.1267  -0.0207 C.2            1 S1                 0.0000
     10 ****         7.3648  -2.8091  -0.3708 O.2            1 S1                 0.0000
     11 ****         5.0878  -2.3825  -0.1209 N.pl3          1 S1                -1.0000
     12 ****        -1.2911   0.2487  -0.2517 C.3            1 S1                 0.0000
     13 ****        -1.9054   1.4593  -0.9928 C.3            1 S1                 0.0000
     14 ****        -3.3371   1.1961  -1.4903 C.3            1 S1                 0.0000
     15 ****        -4.4567   1.5000  -0.4786 C.3            1 S1                 0.0000
     16 ****        -4.1739   1.1451   0.9922 C.3            1 S1                 0.0000
     17 ****        -3.3942  -0.1600   1.2195 C.3            1 S1                 0.0000
     18 ****        -1.8686   0.0362   1.1637 C.3            1 S1                 0.0000
     19 ****         7.3692  -0.4311   0.7861 H              1 S1                 0.0000
     20 ****         0.4702  -1.3173  -1.2302 H              1 S1                 0.0000
     21 ****         2.7073  -1.2234  -1.6693 H              1 S1                 0.0000
     22 ****         2.8210   0.3877  -0.9994 H              1 S1                 0.0000
     23 ****         2.7053  -0.5923   1.3360 H              1 S1                 0.0000
     24 ****         2.5834  -2.1945   0.6579 H              1 S1                 0.0000
     25 ****        -1.5013  -0.6487  -0.8363 H              1 S1                 0.0000
     26 ****        -1.8715   2.3587  -0.3762 H              1 S1                 0.0000
     27 ****        -1.2924   1.6797  -1.8685 H              1 S1                 0.0000
     28 ****        -3.5186   1.8017  -2.3789 H              1 S1                 0.0000
     29 ****        -3.4213   0.1631  -1.8296 H              1 S1                 0.0000
     30 ****        -4.7028   2.5614  -0.5277 H              1 S1                 0.0000
     31 ****        -5.3573   0.9783  -0.8048 H              1 S1                 0.0000
     32 ****        -3.6461   1.9703   1.4720 H              1 S1                 0.0000
     33 ****        -5.1315   1.0805   1.5102 H              1 S1                 0.0000
     34 ****        -3.6412  -0.5270   2.2163 H              1 S1                 0.0000
     35 ****        -3.7184  -0.9382   0.5276 H              1 S1                 0.0000
     36 ****        -1.4002  -0.8490   1.5973 H              1 S1                 0.0000
     37 ****        -1.5872   0.8640   1.8166 H              1 S1                 0.0000
     38 ****         1.7322   1.4501   0.4541 LP             1 S1                 0.0000
     39 ****         0.1503   2.0426   0.8370 LP             1 S1                 0.0000
     40 ****         5.1218   0.4867   1.2740 LP             1 S1                 0.0000
     41 ****         8.2957  -2.4743  -0.2250 LP             1 S1                 0.0000
     42 ****         7.2152  -3.6992  -0.8014 LP             1 S1                 0.0000
     43 ****         4.6434  -3.1917  -0.5054 LP             1 S1                 0.0000
@<TRIPOS>BOND
    1    1    2 2     
    2    2    3 am    
    3    2   12 1     
    4    3    4 1     
    5    3   20 1     
    6    4    5 1     
    7    4   21 1     
    8    4   22 1     
    9    5    6 1     
   10    5   23 1     
   11    5   24 1     
   12    6   11 1     
   13    6    7 2     
   14    7    8 1     
   15    8   19 1     
   16    8    9 am    
   17    9   10 2     
   18    9   11 1     
   19   12   18 1     
   20   12   13 1     
   21   12   25 1     
   22   13   14 1     
   23   13   26 1     
   24   13   27 1     
   25   14   15 1     
   26   14   28 1     
   27   14   29 1     
   28   15   16 1     
   29   15   30 1     
   30   15   31 1     
   31   16   17 1     
   32   16   32 1     
   33   16   33 1     
   34   17   18 1     
   35   17   34 1     
   36   17   35 1     
   37   18   36 1     
   38   18   37 1     
   39    1   38 1     
   40    1   39 1     
   41    7   40 1     
   42   10   41 1     
   43   10   42 1     
   44   11   43 1     
@<TRIPOS>SUBSTRUCTURE
      1 S1             1
@<TRIPOS>SET
LONE_PAIRS      STATIC     ATOMS    <user>   **** ""
6 38 39 40 41 42 43
DONOR_HYDROGENS      STATIC     ATOMS    <user>   **** ""
2 20 19
ATOM$BLUE        STATIC     ATOMS    COLORGROUP SYSTEM
6 38 39 40 41 42 43
ATOM$RED        STATIC     ATOMS    COLORGROUP SYSTEM
2 20 19
