#       Name:                AV-unprocessed.smi:2812
#       Creating user name   scv26
#       Creation time:       Fri Mar 27 15:27:37 2020


#       File generated by GOLD software.
#

@<TRIPOS>MOLECULE
AV-unprocessed.smi:2812
    59    60     1
SMALL
NO_CHARGES


@<TRIPOS>ATOM
      1 ****        -4.0224   3.8949   0.2668 C.3            1 S1                 0.0000
      2 ****        -2.9958   4.1099  -0.8339 C.2            1 S1                 0.0000
      3 ****        -3.2810   5.0619  -1.8874 C.2            1 S1                 0.0000
      4 ****        -2.3865   5.2489  -2.8672 C.2            1 S1                 0.0000
      5 ****        -1.1675   4.5565  -2.8933 N.am           1 S1                 0.0000
      6 ****        -0.2486   4.8422  -3.9984 C.3            1 S1                 0.0000
      7 ****        -0.8123   3.6685  -1.9208 C.2            1 S1                 0.0000
      8 ****         0.2985   3.1324  -1.9306 O.2            1 S1                 0.0000
      9 ****        -1.8265   3.4181  -0.8673 C.2            1 S1                 0.0000
     10 ****        -1.5442   2.5072   0.1632 N.am           1 S1                 0.0000
     11 ****        -1.2091   1.2143   0.0063 C.2            1 S1                 0.0000
     12 ****        -1.1152   0.6377  -1.0782 O.2            1 S1                 0.0000
     13 ****        -0.9929   0.6132   1.1844 N.am           1 S1                 0.0000
     14 ****        -0.5855  -0.7794   1.3391 C.3            1 S1                 0.0000
     15 ****         0.9122  -1.0009   0.9869 C.3            1 S1                 0.0000
     16 ****         1.8795  -0.1446   1.8370 C.3            1 S1                 0.0000
     17 ****         1.9660  -0.6439   3.2870 C.3            1 S1                 0.0000
     18 ****         2.3378  -2.1320   3.3098 C.3            1 S1                 0.0000
     19 ****         1.3763  -2.9626   2.4439 C.3            1 S1                 0.0000
     20 ****         1.3222  -2.4344   1.0537 N.4            1 S1                 1.0000
     21 ****         0.5917  -3.3151   0.1050 C.3            1 S1                 0.0000
     22 ****         1.4597  -4.4845  -0.4050 C.3            1 S1                 0.0000
     23 ****         2.6593  -3.9872  -1.2295 C.3            1 S1                 0.0000
     24 ****         0.6135  -5.4670  -1.2281 C.3            1 S1                 0.0000
     25 ****        -4.9234   4.4814   0.0860 H              1 S1                 0.0000
     26 ****        -3.6141   4.1941   1.2324 H              1 S1                 0.0000
     27 ****        -4.3130   2.8454   0.3227 H              1 S1                 0.0000
     28 ****        -4.2090   5.6147  -1.8930 H              1 S1                 0.0000
     29 ****        -2.5450   5.9425  -3.6801 H              1 S1                 0.0000
     30 ****         0.0443   3.9216  -4.5058 H              1 S1                 0.0000
     31 ****         0.6544   5.3282  -3.6267 H              1 S1                 0.0000
     32 ****        -0.6875   5.4974  -4.7515 H              1 S1                 0.0000
     33 ****        -1.7122   2.8378   1.1019 H              1 S1                 0.0000
     34 ****        -1.1014   1.1575   2.0280 H              1 S1                 0.0000
     35 ****        -0.7924  -1.0663   2.3693 H              1 S1                 0.0000
     36 ****        -1.2321  -1.4013   0.7186 H              1 S1                 0.0000
     37 ****         1.0574  -0.6915  -0.0492 H              1 S1                 0.0000
     38 ****         2.8741  -0.1866   1.3909 H              1 S1                 0.0000
     39 ****         1.5925   0.9070   1.8180 H              1 S1                 0.0000
     40 ****         2.7076  -0.0655   3.8388 H              1 S1                 0.0000
     41 ****         1.0143  -0.4894   3.7961 H              1 S1                 0.0000
     42 ****         3.3572  -2.2575   2.9422 H              1 S1                 0.0000
     43 ****         2.3321  -2.5024   4.3353 H              1 S1                 0.0000
     44 ****         1.7175  -3.9972   2.4381 H              1 S1                 0.0000
     45 ****         0.3786  -2.9728   2.8835 H              1 S1                 0.0000
     46 ****        -0.3144  -3.6881   0.5853 H              1 S1                 0.0000
     47 ****         0.2608  -2.7359  -0.7587 H              1 S1                 0.0000
     48 ****         1.8482  -5.0398   0.4484 H              1 S1                 0.0000
     49 ****         2.3336  -3.4271  -2.1067 H              1 S1                 0.0000
     50 ****         3.2683  -4.8220  -1.5774 H              1 S1                 0.0000
     51 ****         3.3079  -3.3373  -0.6417 H              1 S1                 0.0000
     52 ****         0.1846  -4.9830  -2.1062 H              1 S1                 0.0000
     53 ****        -0.2084  -5.8708  -0.6362 H              1 S1                 0.0000
     54 ****         1.2132  -6.3099  -1.5729 H              1 S1                 0.0000
     55 ****         2.2773  -2.4379   0.7251 H              1 S1                 0.0000
     56 ****         0.9509   3.3471  -2.6574 LP             1 S1                 0.0000
     57 ****         0.5466   2.4831  -1.2117 LP             1 S1                 0.0000
     58 ****        -1.2941   1.1360  -1.9265 LP             1 S1                 0.0000
     59 ****        -0.8601  -0.3287  -1.1102 LP             1 S1                 0.0000
@<TRIPOS>BOND
    1    1    2 1     
    2    1   25 1     
    3    1   26 1     
    4    1   27 1     
    5    2    9 2     
    6    2    3 1     
    7    3    4 2     
    8    3   28 1     
    9    4    5 1     
   10    4   29 1     
   11    5    6 1     
   12    5    7 am    
   13    6   30 1     
   14    6   31 1     
   15    6   32 1     
   16    7    8 2     
   17    7    9 1     
   18    9   10 1     
   19   10   11 am    
   20   10   33 1     
   21   11   12 2     
   22   11   13 am    
   23   13   14 1     
   24   13   34 1     
   25   14   15 1     
   26   14   35 1     
   27   14   36 1     
   28   15   20 1     
   29   15   16 1     
   30   15   37 1     
   31   16   17 1     
   32   16   38 1     
   33   16   39 1     
   34   17   18 1     
   35   17   40 1     
   36   17   41 1     
   37   18   19 1     
   38   18   42 1     
   39   18   43 1     
   40   19   20 1     
   41   19   44 1     
   42   19   45 1     
   43   20   21 1     
   44   20   55 1     
   45   21   22 1     
   46   21   46 1     
   47   21   47 1     
   48   22   23 1     
   49   22   24 1     
   50   22   48 1     
   51   23   49 1     
   52   23   50 1     
   53   23   51 1     
   54   24   52 1     
   55   24   53 1     
   56   24   54 1     
   57    8   56 1     
   58    8   57 1     
   59   12   58 1     
   60   12   59 1     
@<TRIPOS>SUBSTRUCTURE
      1 S1             1
@<TRIPOS>SET
LONE_PAIRS      STATIC     ATOMS    <user>   **** ""
4 56 57 58 59
DONOR_HYDROGENS      STATIC     ATOMS    <user>   **** ""
3 33 34 55
ATOM$BLUE        STATIC     ATOMS    COLORGROUP SYSTEM
4 56 57 58 59
ATOM$RED        STATIC     ATOMS    COLORGROUP SYSTEM
3 33 34 55
