AV-unprocessed.smi:1255|AV-procd|sdf|5281|dock5
  -GOLD-   22720 4403D 1   1.00000     0.00000
 Structure written by MMmdl.
 40 41  0  0  0  0  0  0  0  0  1 V2000
  146.3151  137.8073  152.3120 C   0  0  0  0  0  0  0  0  0  0  0  0
  146.2273  137.2541  153.7444 C   0  0  2  0  0  0  0  0  0  0  0  0
  144.8132  137.0983  154.0835 N   0  0  0  0  0  0  0  0  0  0  0  0
  144.1847  135.9240  154.2398 C   0  0  0  0  0  0  0  0  0  0  0  0
  142.9039  136.0752  154.5784 N   0  0  0  0  0  0  0  0  0  0  0  0
  144.7147  134.8243  154.0938 O   0  0  0  0  0  0  0  0  0  0  0  0
  146.9023  138.2641  154.6878 C   0  0  0  0  0  0  0  0  0  0  0  0
  146.2392  138.8345  155.5550 O   0  0  0  0  0  0  0  0  0  0  0  0
  148.2190  138.4543  154.4854 N   0  0  0  0  0  0  0  0  0  0  0  0
  149.1093  139.3147  155.1830 C   0  0  0  0  0  0  0  0  0  0  0  0
  150.4507  139.5522  154.8042 C   0  0  0  0  0  0  0  0  0  0  0  0
  151.2396  140.4132  155.5907 C   0  0  0  0  0  0  0  0  0  0  0  0
  150.6766  141.0106  156.7431 C   0  0  0  0  0  0  0  0  0  0  0  0
  151.4507  141.8780  157.5445 N   0  0  0  0  0  0  0  0  0  0  0  0
  152.0074  141.2930  158.7620 C   0  0  0  0  0  0  0  0  0  0  0  0
  153.0707  142.2263  159.3665 C   0  0  0  0  0  0  0  0  0  0  0  0
  152.5157  143.5208  159.5763 O   0  0  0  0  0  0  0  0  0  0  0  0
  152.0828  144.1153  158.3574 C   0  0  0  0  0  0  0  0  0  0  0  0
  150.9806  143.2508  157.7232 C   0  0  0  0  0  0  0  0  0  0  0  0
  149.3924  140.7739  157.1073 N   0  0  0  0  0  0  0  0  0  0  0  0
  148.6400  139.9470  156.3515 C   0  0  0  0  0  0  0  0  0  0  0  0
  147.3524  137.9406  152.0017 H   0  0  0  0  0  0  0  0  0  0  0  0
  145.8123  138.7710  152.2157 H   0  0  0  0  0  0  0  0  0  0  0  0
  145.8510  137.1223  151.6016 H   0  0  0  0  0  0  0  0  0  0  0  0
  146.7322  136.2872  153.7954 H   0  0  0  0  0  0  0  0  0  0  0  0
  144.2866  137.9462  154.2335 H   0  0  0  0  0  0  0  0  0  0  0  0
  142.3161  135.2670  154.7206 H   0  0  0  0  0  0  0  0  0  0  0  0
  142.5249  137.0051  154.6855 H   0  0  0  0  0  0  0  0  0  0  0  0
  148.6474  137.8597  153.7907 H   0  0  0  0  0  0  0  0  0  0  0  0
  150.8941  139.0867  153.9379 H   0  0  0  0  0  0  0  0  0  0  0  0
  152.2588  140.6118  155.2947 H   0  0  0  0  0  0  0  0  0  0  0  0
  151.1989  141.1367  159.4775 H   0  0  0  0  0  0  0  0  0  0  0  0
  152.4567  140.3188  158.5749 H   0  0  0  0  0  0  0  0  0  0  0  0
  153.4173  141.8305  160.3211 H   0  0  0  0  0  0  0  0  0  0  0  0
  153.9433  142.2942  158.7147 H   0  0  0  0  0  0  0  0  0  0  0  0
  151.7022  145.1156  158.5645 H   0  0  0  0  0  0  0  0  0  0  0  0
  152.9272  144.2305  157.6757 H   0  0  0  0  0  0  0  0  0  0  0  0
  150.6934  143.6805  156.7626 H   0  0  0  0  0  0  0  0  0  0  0  0
  150.0944  143.2496  158.3595 H   0  0  0  0  0  0  0  0  0  0  0  0
  147.6265  139.7898  156.6911 H   0  0  0  0  0  0  0  0  0  0  0  0
  1  2  1  0  0  0  0
  1 22  1  0  0  0  0
  1 23  1  0  0  0  0
  1 24  1  0  0  0  0
  2  3  1  0  0  0  0
  2  7  1  0  0  0  0
  2 25  1  0  0  0  0
  3  4  1  0  0  0  0
  3 26  1  0  0  0  0
  4  5  1  0  0  0  0
  4  6  2  0  0  0  0
  5 27  1  0  0  0  0
  5 28  1  0  0  0  0
  7  8  2  0  0  0  0
  7  9  1  0  0  0  0
  9 10  1  0  0  0  0
  9 29  1  0  0  0  0
 10 21  1  0  0  0  0
 10 11  2  0  0  0  0
 11 12  1  0  0  0  0
 11 30  1  0  0  0  0
 12 13  2  0  0  0  0
 12 31  1  0  0  0  0
 13 14  1  0  0  0  0
 13 20  1  0  0  0  0
 14 19  1  0  0  0  0
 14 15  1  0  0  0  0
 15 16  1  0  0  0  0
 15 32  1  0  0  0  0
 15 33  1  0  0  0  0
 16 17  1  0  0  0  0
 16 34  1  0  0  0  0
 16 35  1  0  0  0  0
 17 18  1  0  0  0  0
 18 19  1  0  0  0  0
 18 36  1  0  0  0  0
 18 37  1  0  0  0  0
 19 38  1  0  0  0  0
 19 39  1  0  0  0  0
 20 21  2  0  0  0  0
 21 40  1  0  0  0  0
M  END
> <s_m_source_file>
AV-unprocessed.smi

> <i_m_source_file_index>
1255

> <i_lp_mmshare_version>
43012

> <i_f3d_flags>
0

> <s_epik_input>
W05IMl1DKD1PKVtOSF1bQ0BASF0oW0NIM10pQyg9TylbTkhdYzFbY0hdW2NIXWMobltjSF0xKU4yW0NIMl1bQ0gyXU9bQ0gyXVtDSDJdMg==

> <s_epik_cmdline>
J2VwaWtfcHl0aG9uJywgJy1waCcsICc3LjAnLCAnLXRuJywgJzgnLCAnLW1hJywgJzIwMCcsICctbWV0YWxfYmluZGluZycsICctaW1hZScsICc8aW5maWxlLm1hZT4nLCAnLW9tYWUnLCAnPG91dGZpbGUubWFlPic=

> <r_lp_tautomer_probability>
1

> <r_epik_Ionization_Penalty>
0.00069351

> <r_epik_Ionization_Penalty_Charging>
0

> <r_epik_Ionization_Penalty_Neutral>
0.00069351

> <r_epik_State_Penalty>
0.000408291

> <r_epik_Charging_Adjusted_Penalty>
0.000408291

> <i_epik_Tot_Q>
0

> <i_epik_Tot_abs_Q>
0

> <r_epik_Metal_State_Penalty>
-0

> <b_epik_Metal_Only>
0

> <s_lp_Force_Field>
OPLS_2005

> <r_lp_Energy>
17.9712

> <b_lp_Chiralities_Consistent>
1

> <s_lp_Variant>
AV-unprocessed.smi:1255-1

> <Gold.Version>
5.8.1

> <Gold.Id.Protein>
6NUR|6NUR_protein|mol2

> <Gold.PLP.Fitness>
38.4313

> <Gold.PLP.PLP>
-33.9660

> <Gold.PLP.part.hbond>
-2.5156

> <Gold.PLP.part.metal>
0.0000

> <Gold.PLP.part.buried>
1.4310

> <Gold.PLP.part.nonpolar>
-32.5538

> <Gold.PLP.part.repulsive>
0.3551

> <Gold.PLP.ligand.clash>
0.0000

> <Gold.PLP.ligand.torsion>
0.4109

> <Gold.PLP.Chemscore.Hbond>
1.6392

> <Gold.PLP.Chemscore.CHOScore>
0.0000

> <Gold.PLP.Chemscore.Metal>
0.0000

> <Gold.PLP.Chemscore.Internal.Correction>
0.3696

> <Gold.Rescore>
     Score         DG    S(hbond)    S(metal)    S(lipo)     H(rot)  DE(clash)    DE(int)     intcor
     13.61     -16.09       1.75        0.00      82.55       1.91       0.48       2.00       ----

> <Gold.Chemscore.Fitness>
13.6082

> <Gold.Chemscore.DG>
-16.0922

> <Gold.Chemscore.ZeroCoef>
-5.4800

> <Gold.Chemscore.Hbond>
1.7471

> <Gold.Chemscore.Metal>
0.0000

> <Gold.Chemscore.Lipo>
82.5453

> <Gold.Chemscore.Internal_Hbond>
0.0000

> <Gold.Chemscore.DEClash>
0.4849

> <Gold.Chemscore.DEInternal>
1.9991

> <Gold.Chemscore.Rot>
1.9067

> <Gold.Chemscore.Internal.Correction>
   9.000000E+99

> <Gold.Chemscore.Hbonds>
donor molecule, donor type, donor heavy atom, donor atom, acceptor molecule, acceptor atom, score
      L1  H     9    29       P1  7948  0.01

> <Gold.Chemscore.Hbond.Weighted>
-5.8355

> <Gold.Chemscore.Metal.Weighted>
-0.0000

> <Gold.Chemscore.Lipo.Weighted>
-9.6578

> <Gold.Chemscore.Internal_Hbond.Weighted>
0.0000

> <Gold.Chemscore.DEClash.Weighted>
0.4849

> <Gold.Chemscore.DEInternal.Weighted>
1.9991

> <Gold.Chemscore.Rot.Weighted>
4.8811

> <Gold.Chemscore.Internal.Correction.Weighted>
   9.000000E+99

> <Gold.Protein.RotatedTorsions>
[ 6907 6896 6895 6894 ] final  -55.98 input  -60.11 | X-H torsion
[ 7974 7965 7964 7962 ] final   85.28 input  175.53 | X-H torsion
[ 8008 7997 7996 7995 ] final  121.65 input   59.86 | X-H torsion
[ 10167 10162 10161 10158 ] final  -31.39 input  -65.29 | X-H torsion
[ 10718 10713 10712 10709 ] final -178.29 input   66.30 | X-H torsion
[ 10763 10752 10751 10750 ] final  -80.80 input  -60.55 | X-H torsion
[ 11005 11000 10999 10996 ] final  -43.54 input  -57.11 | X-H torsion

> <Gold.Protein.ActiveResidues>
 VAL166  LYS551  ARG553  GLY616  TRP617  ASP618  TYR619  PRO620  LYS621  CYS622 
 ASP623  PHE694  ASN695  SER759  ASP760  ASP761  ALA762  ILE779  LEU786  VAL792 
 PHE793  MET794  SER795  GLU796  ALA797  LYS798  CYS799  TRP800  GLU811  SER814 

> <Gold.Protein.RotatedAtoms>
  150.8206  134.7411  159.6768 H   0  0  0  0  0  0  0  0  0  0  0  0  # atno 6907 bound_to 6896
  152.4322  134.5753  159.9942 H   0  0  0  0  0  0  0  0  0  0  0  0  # atno 6908 bound_to 6896
  151.5938  133.3326  159.3069 H   0  0  0  0  0  0  0  0  0  0  0  0  # atno 6909 bound_to 6896
  145.5876  139.2333  143.2317 H   0  0  0  0  0  0  0  0  0  0  0  0  # atno 7974 bound_to 7965
  156.2695  140.2803  156.1342 H   0  0  0  0  0  0  0  0  0  0  0  0  # atno 8008 bound_to 7997
  155.1022  140.0390  157.2718 H   0  0  0  0  0  0  0  0  0  0  0  0  # atno 8009 bound_to 7997
  154.6806  140.2608  155.6918 H   0  0  0  0  0  0  0  0  0  0  0  0  # atno 8010 bound_to 7997
  140.7237  143.3775  151.1663 H   0  0  0  0  0  0  0  0  0  0  0  0  # atno 10167 bound_to 10162
  156.8421  130.9690  151.3099 H   0  0  0  0  0  0  0  0  0  0  0  0  # atno 10718 bound_to 10713
  154.5556  135.5648  153.6961 H   0  0  0  0  0  0  0  0  0  0  0  0  # atno 10763 bound_to 10752
  153.0002  135.6261  154.2314 H   0  0  0  0  0  0  0  0  0  0  0  0  # atno 10764 bound_to 10752
  154.2250  135.2868  155.2890 H   0  0  0  0  0  0  0  0  0  0  0  0  # atno 10765 bound_to 10752
  141.0391  133.6787  156.2747 H   0  0  0  0  0  0  0  0  0  0  0  0  # atno 11005 bound_to 11000
  146.1671  140.6702  142.9250 LP  0  0  0  0  0  0  0  0  0  0  0  0  # atno 17320 bound_to 7965
  144.7366  140.4825  143.6899 LP  0  0  0  0  0  0  0  0  0  0  0  0  # atno 17321 bound_to 7965
  139.7357  143.9002  152.3034 LP  0  0  0  0  0  0  0  0  0  0  0  0  # atno 17342 bound_to 10162
  139.8806  144.7019  150.8882 LP  0  0  0  0  0  0  0  0  0  0  0  0  # atno 17343 bound_to 10162
  157.6350  130.8759  149.9342 LP  0  0  0  0  0  0  0  0  0  0  0  0  # atno 17370 bound_to 10713
  156.0874  130.3666  150.0460 LP  0  0  0  0  0  0  0  0  0  0  0  0  # atno 17371 bound_to 10713
  140.6268  134.5305  157.5554 LP  0  0  0  0  0  0  0  0  0  0  0  0  # atno 17394 bound_to 11000
  139.9262  134.8051  156.1062 LP  0  0  0  0  0  0  0  0  0  0  0  0  # atno 17395 bound_to 11000

$$$$
