AV-unprocessed.smi:1570|AV-procd|sdf|6324|dock9
  -GOLD-   22720 6533D 1   1.00000     0.00000
 Structure written by MMmdl.
 52 54  0  0  0  0  0  0  0  0  2 V2000
  146.9023  135.2088  162.0356 C   0  0  0  0  0  0  0  0  0  0  0  0
  147.2103  136.5926  161.4496 C   0  0  0  0  0  0  0  0  0  0  0  0
  146.9608  136.6241  160.0107 N   0  0  0  0  0  0  0  0  0  0  0  0
  147.6237  135.9231  159.0611 C   0  0  0  0  0  0  0  0  0  0  0  0
  148.5705  135.1594  159.2507 O   0  0  0  0  0  0  0  0  0  0  0  0
  147.0662  136.2091  157.8610 N   0  0  0  0  0  0  0  0  0  0  0  0
  147.4727  135.6680  156.5656 C   0  0  0  0  0  0  0  0  0  0  0  0
  147.8791  136.7859  155.5838 C   0  0  2  0  0  0  0  0  0  0  0  0
  147.4305  136.4204  154.2930 O   0  0  0  0  0  0  0  0  0  0  0  0
  149.4112  136.9543  155.5196 C   0  0  0  0  0  0  0  0  0  0  0  0
  149.8687  137.6159  154.2671 N   0  3  1  0  0  0  0  0  0  0  0  0
  149.3071  138.9704  154.0270 C   0  0  0  0  0  0  0  0  0  0  0  0
  150.0149  140.0447  154.8812 C   0  0  2  0  0  0  0  0  0  0  0  0
  149.5367  141.4590  154.5346 C   0  0  0  0  0  0  0  0  0  0  0  0
  151.4183  139.9847  154.6474 O   0  0  0  0  0  0  0  0  0  0  0  0
  151.9840  138.7254  154.9948 C   0  0  2  0  0  0  0  0  0  0  0  0
  153.5012  138.8121  154.7964 C   0  0  0  0  0  0  0  0  0  0  0  0
  151.3438  137.6340  154.1129 C   0  0  0  0  0  0  0  0  0  0  0  0
  146.0220  137.1261  158.0463 C   0  0  0  0  0  0  0  0  0  0  0  0
  145.1498  137.7347  157.1269 C   0  0  0  0  0  0  0  0  0  0  0  0
  144.1850  138.6294  157.6457 C   0  0  0  0  0  0  0  0  0  0  0  0
  144.1116  138.8921  159.0383 C   0  0  0  0  0  0  0  0  0  0  0  0
  145.0030  138.2673  159.9416 C   0  0  0  0  0  0  0  0  0  0  0  0
  145.9535  137.3846  159.3996 C   0  0  0  0  0  0  0  0  0  0  0  0
  147.0885  135.1926  163.1095 H   0  0  0  0  0  0  0  0  0  0  0  0
  147.5253  134.4391  161.5790 H   0  0  0  0  0  0  0  0  0  0  0  0
  145.8590  134.9349  161.8750 H   0  0  0  0  0  0  0  0  0  0  0  0
  146.6032  137.3516  161.9432 H   0  0  0  0  0  0  0  0  0  0  0  0
  148.2488  136.8579  161.6533 H   0  0  0  0  0  0  0  0  0  0  0  0
  148.3232  135.0073  156.7422 H   0  0  0  0  0  0  0  0  0  0  0  0
  146.6950  135.0288  156.1452 H   0  0  0  0  0  0  0  0  0  0  0  0
  147.4078  137.7240  155.8751 H   0  0  0  0  0  0  0  0  0  0  0  0
  148.1337  136.5591  153.6765 H   0  0  0  0  0  0  0  0  0  0  0  0
  149.7642  137.5168  156.3836 H   0  0  0  0  0  0  0  0  0  0  0  0
  149.8686  135.9666  155.5984 H   0  0  0  0  0  0  0  0  0  0  0  0
  149.4444  139.2040  152.9703 H   0  0  0  0  0  0  0  0  0  0  0  0
  148.2321  138.9906  154.2000 H   0  0  0  0  0  0  0  0  0  0  0  0
  149.8212  139.8720  155.9405 H   0  0  0  0  0  0  0  0  0  0  0  0
  148.4644  141.5635  154.7026 H   0  0  0  0  0  0  0  0  0  0  0  0
  149.7369  141.6995  153.4900 H   0  0  0  0  0  0  0  0  0  0  0  0
  150.0429  142.2032  155.1502 H   0  0  0  0  0  0  0  0  0  0  0  0
  151.7887  138.5198  156.0485 H   0  0  0  0  0  0  0  0  0  0  0  0
  153.9858  137.8713  155.0585 H   0  0  0  0  0  0  0  0  0  0  0  0
  153.9317  139.5924  155.4247 H   0  0  0  0  0  0  0  0  0  0  0  0
  153.7529  139.0419  153.7607 H   0  0  0  0  0  0  0  0  0  0  0  0
  151.7639  136.6528  154.3380 H   0  0  0  0  0  0  0  0  0  0  0  0
  151.5749  137.8307  153.0649 H   0  0  0  0  0  0  0  0  0  0  0  0
  145.2097  137.5323  156.0680 H   0  0  0  0  0  0  0  0  0  0  0  0
  143.4954  139.1182  156.9736 H   0  0  0  0  0  0  0  0  0  0  0  0
  143.3664  139.5778  159.4133 H   0  0  0  0  0  0  0  0  0  0  0  0
  144.9512  138.4636  161.0023 H   0  0  0  0  0  0  0  0  0  0  0  0
  149.5207  137.0252  153.5246 H   0  0  0  0  0  0  0  0  0  0  0  0
  1  2  1  0  0  0  0
  1 25  1  0  0  0  0
  1 26  1  0  0  0  0
  1 27  1  0  0  0  0
  2  3  1  0  0  0  0
  2 28  1  0  0  0  0
  2 29  1  0  0  0  0
  3 24  1  0  0  0  0
  3  4  1  0  0  0  0
  4  5  2  0  0  0  0
  4  6  1  0  0  0  0
  6  7  1  0  0  0  0
  6 19  1  0  0  0  0
  7  8  1  0  0  0  0
  7 30  1  0  0  0  0
  7 31  1  0  0  0  0
  8  9  1  0  0  0  0
  8 10  1  0  0  0  0
  8 32  1  0  0  0  0
  9 33  1  0  0  0  0
 10 11  1  0  0  0  0
 10 34  1  0  0  0  0
 10 35  1  0  0  0  0
 11 18  1  0  0  0  0
 11 12  1  0  0  0  0
 11 52  1  0  0  0  0
 12 13  1  0  0  0  0
 12 36  1  0  0  0  0
 12 37  1  0  0  0  0
 13 14  1  0  0  0  0
 13 15  1  0  0  0  0
 13 38  1  0  0  0  0
 14 39  1  0  0  0  0
 14 40  1  0  0  0  0
 14 41  1  0  0  0  0
 15 16  1  0  0  0  0
 16 17  1  0  0  0  0
 16 18  1  0  0  0  0
 16 42  1  0  0  0  0
 17 43  1  0  0  0  0
 17 44  1  0  0  0  0
 17 45  1  0  0  0  0
 18 46  1  0  0  0  0
 18 47  1  0  0  0  0
 19 24  2  0  0  0  0
 19 20  1  0  0  0  0
 20 21  2  0  0  0  0
 20 48  1  0  0  0  0
 21 22  1  0  0  0  0
 21 49  1  0  0  0  0
 22 23  2  0  0  0  0
 22 50  1  0  0  0  0
 23 24  1  0  0  0  0
 23 51  1  0  0  0  0
M  CHG  1  11   1
M  END
> <s_m_source_file>
AV-unprocessed.smi

> <i_m_source_file_index>
1570

> <i_lp_mmshare_version>
43012

> <i_f3d_flags>
0

> <s_epik_input>
W2NIXTFbY0hdW2NIXVtjSF1jKGMxMiluKFtDSDJdW0NIM10pYyg9TyluMltDSDJdW0NASF0oW09IXSlbQ0gyXU4zW0NIMl1bQ0BASF0oW0NIM10pT1tDQEBIXShbQ0gzXSlbQ0gyXTM=

> <s_epik_cmdline>
J2VwaWtfcHl0aG9uJywgJy1waCcsICc3LjAnLCAnLXRuJywgJzgnLCAnLW1hJywgJzIwMCcsICctbWV0YWxfYmluZGluZycsICctaW1hZScsICc8aW5maWxlLm1hZT4nLCAnLW9tYWUnLCAnPG91dGZpbGUubWFlPic=

> <r_epik_Ionization_Penalty>
0.706332

> <r_epik_Ionization_Penalty_Charging>
0.706318

> <r_epik_Ionization_Penalty_Neutral>
1.42224e-05

> <r_epik_State_Penalty>
0.729493

> <r_epik_Charging_Adjusted_Penalty>
1.43581

> <i_epik_Tot_Q>
1

> <i_epik_Tot_abs_Q>
1

> <r_epik_Metal_State_Penalty>
0.729493

> <b_epik_Metal_Only>
0

> <s_lp_Force_Field>
OPLS_2005

> <r_lp_Energy>
54.3222

> <b_lp_Chiralities_Consistent>
1

> <s_lp_Variant>
AV-unprocessed.smi:1570-13

> <Gold.Version>
5.8.1

> <Gold.Id.Protein>
6NUR|6NUR_protein|mol2

> <Gold.PLP.Fitness>
45.0758

> <Gold.PLP.PLP>
-31.5080

> <Gold.PLP.part.hbond>
-4.0000

> <Gold.PLP.part.metal>
0.0000

> <Gold.PLP.part.buried>
-0.1175

> <Gold.PLP.part.nonpolar>
-27.0906

> <Gold.PLP.part.repulsive>
0.1014

> <Gold.PLP.ligand.clash>
0.0000

> <Gold.PLP.ligand.torsion>
0.7883

> <Gold.PLP.Chemscore.Hbond>
5.0000

> <Gold.PLP.Chemscore.CHOScore>
0.0000

> <Gold.PLP.Chemscore.Metal>
0.0000

> <Gold.Chemscore.Hbonds>
donor molecule, donor type, donor heavy atom, donor atom, acceptor molecule, acceptor atom, score
      L1  H     9    33       P1  7948  1.00
      L1  H    11    52       P1  7948  2.00
      P1  H  6896  6909       L1     5  0.55
      P1  H  7989  7998       L1    15  0.83

> <Gold.PLP.Chemscore.Internal.Correction>
0.1444

> <Gold.Rescore>
     Score         DG    S(hbond)    S(metal)    S(lipo)     H(rot)  DE(clash)    DE(int)     intcor
     20.04     -21.22       3.80        0.00      72.59       2.13       0.22       0.95       ----

> <Gold.Chemscore.Fitness>
20.0408

> <Gold.Chemscore.DG>
-21.2163

> <Gold.Chemscore.ZeroCoef>
-5.4800

> <Gold.Chemscore.Hbond>
3.8014

> <Gold.Chemscore.Metal>
0.0000

> <Gold.Chemscore.Lipo>
72.5924

> <Gold.Chemscore.Internal_Hbond>
0.0000

> <Gold.Chemscore.DEClash>
0.2220

> <Gold.Chemscore.DEInternal>
0.9535

> <Gold.Chemscore.Rot>
2.1303

> <Gold.Chemscore.Internal.Correction>
   9.000000E+99

> <Gold.Chemscore.Hbonds>
donor molecule, donor type, donor heavy atom, donor atom, acceptor molecule, acceptor atom, score
      L1  H     9    33       P1  7948  0.89
      L1  H    11    52       P1  7948  0.85
      P1  H  6896  6909       L1     5  0.56
      P1  H  7989  7998       L1    15  0.41

> <Gold.Chemscore.Hbond.Weighted>
-12.6966

> <Gold.Chemscore.Metal.Weighted>
-0.0000

> <Gold.Chemscore.Lipo.Weighted>
-8.4933

> <Gold.Chemscore.Internal_Hbond.Weighted>
0.0000

> <Gold.Chemscore.DEClash.Weighted>
0.2220

> <Gold.Chemscore.DEInternal.Weighted>
0.9535

> <Gold.Chemscore.Rot.Weighted>
5.4535

> <Gold.Chemscore.Internal.Correction.Weighted>
   9.000000E+99

> <Gold.Protein.RotatedTorsions>
[ 6907 6896 6895 6894 ] final   55.13 input  -60.11 | X-H torsion
[ 7974 7965 7964 7962 ] final   95.04 input  175.53 | X-H torsion
[ 8008 7997 7996 7995 ] final   16.51 input   59.86 | X-H torsion
[ 10167 10162 10161 10158 ] final  165.73 input  -65.29 | X-H torsion
[ 10718 10713 10712 10709 ] final -171.64 input   66.30 | X-H torsion
[ 10763 10752 10751 10750 ] final -175.34 input  -60.55 | X-H torsion
[ 11005 11000 10999 10996 ] final  -95.71 input  -57.11 | X-H torsion

> <Gold.Protein.ActiveResidues>
 VAL166  LYS551  ARG553  GLY616  TRP617  ASP618  TYR619  PRO620  LYS621  CYS622 
 ASP623  PHE694  ASN695  SER759  ASP760  ASP761  ALA762  ILE779  LEU786  VAL792 
 PHE793  MET794  SER795  GLU796  ALA797  LYS798  CYS799  TRP800  GLU811  SER814 

> <Gold.Protein.RotatedAtoms>
  152.3508  134.7008  160.0236 H   0  0  0  0  0  0  0  0  0  0  0  0  # atno 6907 bound_to 6896
  151.7363  133.3314  159.3361 H   0  0  0  0  0  0  0  0  0  0  0  0  # atno 6908 bound_to 6896
  150.7539  134.6252  159.6201 H   0  0  0  0  0  0  0  0  0  0  0  0  # atno 6909 bound_to 6896
  145.4575  139.2289  143.3005 H   0  0  0  0  0  0  0  0  0  0  0  0  # atno 7974 bound_to 7965
  154.8780  140.2968  155.5442 H   0  0  0  0  0  0  0  0  0  0  0  0  # atno 8008 bound_to 7997
  156.3022  140.2448  156.3712 H   0  0  0  0  0  0  0  0  0  0  0  0  # atno 8009 bound_to 7997
  154.8747  140.0400  157.1735 H   0  0  0  0  0  0  0  0  0  0  0  0  # atno 8010 bound_to 7997
  139.4911  144.4101  151.9309 H   0  0  0  0  0  0  0  0  0  0  0  0  # atno 10167 bound_to 10162
  156.7439  130.9353  151.3111 H   0  0  0  0  0  0  0  0  0  0  0  0  # atno 10718 bound_to 10713
  154.5856  135.2840  155.0688 H   0  0  0  0  0  0  0  0  0  0  0  0  # atno 10763 bound_to 10752
  154.2008  135.6424  153.5090 H   0  0  0  0  0  0  0  0  0  0  0  0  # atno 10764 bound_to 10752
  153.0103  135.5468  154.6524 H   0  0  0  0  0  0  0  0  0  0  0  0  # atno 10765 bound_to 10752
  141.1434  133.8045  157.0472 H   0  0  0  0  0  0  0  0  0  0  0  0  # atno 11005 bound_to 11000
  146.2470  140.5341  142.8910 LP  0  0  0  0  0  0  0  0  0  0  0  0  # atno 17320 bound_to 7965
  144.8023  140.6236  143.6470 LP  0  0  0  0  0  0  0  0  0  0  0  0  # atno 17321 bound_to 7965
  140.3542  144.3051  150.5944 LP  0  0  0  0  0  0  0  0  0  0  0  0  # atno 17342 bound_to 10162
  140.5459  143.2215  151.8008 LP  0  0  0  0  0  0  0  0  0  0  0  0  # atno 17343 bound_to 10162
  157.6806  130.9137  150.0259 LP  0  0  0  0  0  0  0  0  0  0  0  0  # atno 17370 bound_to 10713
  156.1446  130.3642  149.9530 LP  0  0  0  0  0  0  0  0  0  0  0  0  # atno 17371 bound_to 10713
  140.0655  134.9731  157.1378 LP  0  0  0  0  0  0  0  0  0  0  0  0  # atno 17394 bound_to 11000
  140.3786  134.2311  155.7172 LP  0  0  0  0  0  0  0  0  0  0  0  0  # atno 17395 bound_to 11000

$$$$
