AV-unprocessed.smi:3115|AV-procd|sdf|11861|dock1
  -GOLD-   2272017243D 1   1.00000     0.00000
 Structure written by MMmdl.
 32 33  0  0  0  0  0  0  0  0  1 V2000
  151.9065  145.3265  159.1841 C   0  0  0  0  0  0  0  0  0  0  0  0
  151.8068  143.8095  159.3760 C   0  0  1  0  0  0  0  0  0  0  0  0
  151.6465  143.0657  158.0357 C   0  0  0  0  0  0  0  0  0  0  0  0
  151.6522  141.6254  158.2576 N   0  0  0  0  0  0  0  0  0  0  0  0
  151.3872  140.8858  157.0965 C   0  0  0  0  0  0  0  0  0  0  0  0
  150.1573  141.0754  156.4319 C   0  0  0  0  0  0  0  0  0  0  0  0
  149.8978  140.3373  155.2589 C   0  0  0  0  0  0  0  0  0  0  0  0
  148.5911  140.5099  154.5114 C   0  0  0  0  0  0  0  0  0  0  0  0
  148.7744  141.0929  153.1970 N   0  0  0  0  0  0  0  0  0  0  0  0
  150.8786  139.4374  154.7963 C   0  0  0  0  0  0  0  0  0  0  0  0
  152.0752  139.3167  155.5296 C   0  0  0  0  0  0  0  0  0  0  0  0
  152.3305  140.0200  156.6533 N   0  0  0  0  0  0  0  0  0  0  0  0
  152.8357  141.1792  158.9815 C   0  0  0  0  0  0  0  0  0  0  0  0
  152.9692  141.9624  160.2981 C   0  0  0  0  0  0  0  0  0  0  0  0
  152.9970  143.3598  160.0204 O   0  0  0  0  0  0  0  0  0  0  0  0
  151.0114  145.7205  158.7023 H   0  0  0  0  0  0  0  0  0  0  0  0
  152.7640  145.5900  158.5643 H   0  0  0  0  0  0  0  0  0  0  0  0
  152.0192  145.8341  160.1424 H   0  0  0  0  0  0  0  0  0  0  0  0
  150.9511  143.5955  160.0189 H   0  0  0  0  0  0  0  0  0  0  0  0
  150.7134  143.3584  157.5525 H   0  0  0  0  0  0  0  0  0  0  0  0
  152.4589  143.3360  157.3593 H   0  0  0  0  0  0  0  0  0  0  0  0
  149.4275  141.7757  156.8120 H   0  0  0  0  0  0  0  0  0  0  0  0
  148.0904  139.5470  154.4051 H   0  0  0  0  0  0  0  0  0  0  0  0
  147.9292  141.1505  155.0946 H   0  0  0  0  0  0  0  0  0  0  0  0
  149.0648  140.3737  152.5503 H   0  0  0  0  0  0  0  0  0  0  0  0
  147.8867  141.4333  152.8558 H   0  0  0  0  0  0  0  0  0  0  0  0
  150.7224  138.8530  153.9015 H   0  0  0  0  0  0  0  0  0  0  0  0
  152.8488  138.6371  155.2041 H   0  0  0  0  0  0  0  0  0  0  0  0
  152.7637  140.1102  159.1853 H   0  0  0  0  0  0  0  0  0  0  0  0
  153.7252  141.3329  158.3688 H   0  0  0  0  0  0  0  0  0  0  0  0
  152.1442  141.7312  160.9741 H   0  0  0  0  0  0  0  0  0  0  0  0
  153.8896  141.6827  160.8105 H   0  0  0  0  0  0  0  0  0  0  0  0
  1  2  1  0  0  0  0
  1 16  1  0  0  0  0
  1 17  1  0  0  0  0
  1 18  1  0  0  0  0
  2 15  1  0  0  0  0
  2  3  1  0  0  0  0
  2 19  1  0  0  0  0
  3  4  1  0  0  0  0
  3 20  1  0  0  0  0
  3 21  1  0  0  0  0
  4  5  1  0  0  0  0
  4 13  1  0  0  0  0
  5 12  1  0  0  0  0
  5  6  2  0  0  0  0
  6  7  1  0  0  0  0
  6 22  1  0  0  0  0
  7  8  1  0  0  0  0
  7 10  2  0  0  0  0
  8  9  1  0  0  0  0
  8 23  1  0  0  0  0
  8 24  1  0  0  0  0
  9 25  1  0  0  0  0
  9 26  1  0  0  0  0
 10 11  1  0  0  0  0
 10 27  1  0  0  0  0
 11 12  2  0  0  0  0
 11 28  1  0  0  0  0
 13 14  1  0  0  0  0
 13 29  1  0  0  0  0
 13 30  1  0  0  0  0
 14 15  1  0  0  0  0
 14 31  1  0  0  0  0
 14 32  1  0  0  0  0
M  END
> <s_m_source_file>
AV-unprocessed.smi

> <i_m_source_file_index>
3115

> <i_lp_mmshare_version>
43012

> <i_f3d_flags>
0

> <s_epik_input>
W0NIM11bQ0BASF0xW0NIMl1OKFtDSDJdW0NIMl1PMSljMltjSF1jKFtDSDJdW05IMl0pW2NIXVtjSF1uMg==

> <s_epik_cmdline>
J2VwaWtfcHl0aG9uJywgJy1waCcsICc3LjAnLCAnLXRuJywgJzgnLCAnLW1hJywgJzIwMCcsICctbWV0YWxfYmluZGluZycsICctaW1hZScsICc8aW5maWxlLm1hZT4nLCAnLW9tYWUnLCAnPG91dGZpbGUubWFlPic=

> <r_lp_tautomer_probability>
1

> <r_epik_Ionization_Penalty>
1.27341

> <r_epik_Ionization_Penalty_Charging>
0

> <r_epik_Ionization_Penalty_Neutral>
1.27341

> <r_epik_State_Penalty>
2.46834

> <r_epik_Charging_Adjusted_Penalty>
2.46834

> <i_epik_Tot_Q>
0

> <i_epik_Tot_abs_Q>
0

> <r_epik_Metal_State_Penalty>
2.44319

> <b_epik_Metal_Only>
0

> <s_lp_Force_Field>
OPLS_2005

> <r_lp_Energy>
15.6545

> <b_lp_Chiralities_Consistent>
1

> <s_lp_Variant>
AV-unprocessed.smi:3115-4

> <Gold.Version>
5.8.1

> <Gold.Id.Protein>
6NUR|6NUR_protein|mol2

> <Gold.PLP.Fitness>
42.1200

> <Gold.PLP.PLP>
-35.0219

> <Gold.PLP.part.hbond>
-2.8102

> <Gold.PLP.part.metal>
0.0000

> <Gold.PLP.part.buried>
-3.6735

> <Gold.PLP.part.nonpolar>
-29.4527

> <Gold.PLP.part.repulsive>
0.0024

> <Gold.PLP.ligand.clash>
0.0000

> <Gold.PLP.ligand.torsion>
0.1363

> <Gold.PLP.Chemscore.Hbond>
2.4232

> <Gold.PLP.Chemscore.CHOScore>
0.0000

> <Gold.PLP.Chemscore.Metal>
0.0000

> <Gold.Chemscore.Hbonds>
donor molecule, donor type, donor heavy atom, donor atom, acceptor molecule, acceptor atom, score
      L1  H     9    25       P1  7957  0.92
      P1  H  7997  8008       L1    12  0.95
      P1  H  8011  8017       L1     9  0.46

> <Gold.PLP.Chemscore.Internal.Correction>
0.1009

> <Gold.Rescore>
     Score         DG    S(hbond)    S(metal)    S(lipo)     H(rot)  DE(clash)    DE(int)     intcor
     18.09     -18.34       1.70        0.00      89.37       1.28       0.03       0.23       ----

> <Gold.Chemscore.Fitness>
18.0855

> <Gold.Chemscore.DG>
-18.3391

> <Gold.Chemscore.ZeroCoef>
-5.4800

> <Gold.Chemscore.Hbond>
1.6977

> <Gold.Chemscore.Metal>
0.0000

> <Gold.Chemscore.Lipo>
89.3651

> <Gold.Chemscore.Internal_Hbond>
0.0000

> <Gold.Chemscore.DEClash>
0.0279

> <Gold.Chemscore.DEInternal>
0.2257

> <Gold.Chemscore.Rot>
1.2762

> <Gold.Chemscore.Internal.Correction>
   9.000000E+99

> <Gold.Chemscore.Hbonds>
donor molecule, donor type, donor heavy atom, donor atom, acceptor molecule, acceptor atom, score
      L1  H     9    25       P1  7957  0.84
      P1  H  7997  8008       L1    12  0.20

> <Gold.Chemscore.Hbond.Weighted>
-5.6705

> <Gold.Chemscore.Metal.Weighted>
-0.0000

> <Gold.Chemscore.Lipo.Weighted>
-10.4557

> <Gold.Chemscore.Internal_Hbond.Weighted>
0.0000

> <Gold.Chemscore.DEClash.Weighted>
0.0279

> <Gold.Chemscore.DEInternal.Weighted>
0.2257

> <Gold.Chemscore.Rot.Weighted>
3.2671

> <Gold.Chemscore.Internal.Correction.Weighted>
   9.000000E+99

> <Gold.Protein.RotatedTorsions>
[ 6907 6896 6895 6894 ] final   30.08 input  -60.11 | X-H torsion
[ 7974 7965 7964 7962 ] final    4.85 input  175.53 | X-H torsion
[ 8008 7997 7996 7995 ] final  -54.34 input   59.86 | X-H torsion
[ 10167 10162 10161 10158 ] final  -26.34 input  -65.29 | X-H torsion
[ 10718 10713 10712 10709 ] final   86.69 input   66.30 | X-H torsion
[ 10763 10752 10751 10750 ] final  -47.75 input  -60.55 | X-H torsion
[ 11005 11000 10999 10996 ] final  -54.73 input  -57.11 | X-H torsion

> <Gold.Protein.ActiveResidues>
 VAL166  LYS551  ARG553  GLY616  TRP617  ASP618  TYR619  PRO620  LYS621  CYS622 
 ASP623  PHE694  ASN695  SER759  ASP760  ASP761  ALA762  ILE779  LEU786  VAL792 
 PHE793  MET794  SER795  GLU796  ALA797  LYS798  CYS799  TRP800  GLU811  SER814 

> <Gold.Protein.RotatedAtoms>
  152.0409  134.9712  160.0573 H   0  0  0  0  0  0  0  0  0  0  0  0  # atno 6907 bound_to 6896
  152.1151  133.4317  159.4657 H   0  0  0  0  0  0  0  0  0  0  0  0  # atno 6908 bound_to 6896
  150.6845  134.2520  159.4558 H   0  0  0  0  0  0  0  0  0  0  0  0  # atno 6909 bound_to 6896
  146.2443  140.0473  142.8377 H   0  0  0  0  0  0  0  0  0  0  0  0  # atno 7974 bound_to 7965
  154.4159  140.1179  156.5299 H   0  0  0  0  0  0  0  0  0  0  0  0  # atno 8008 bound_to 7997
  155.6616  140.3496  155.4765 H   0  0  0  0  0  0  0  0  0  0  0  0  # atno 8009 bound_to 7997
  155.9708  140.1141  157.0804 H   0  0  0  0  0  0  0  0  0  0  0  0  # atno 8010 bound_to 7997
  140.7283  143.4186  151.0987 H   0  0  0  0  0  0  0  0  0  0  0  0  # atno 10167 bound_to 10162
  157.6931  131.0225  150.3010 H   0  0  0  0  0  0  0  0  0  0  0  0  # atno 10718 bound_to 10713
  154.0665  135.6610  153.4818 H   0  0  0  0  0  0  0  0  0  0  0  0  # atno 10763 bound_to 10752
  153.0407  135.5147  154.7608 H   0  0  0  0  0  0  0  0  0  0  0  0  # atno 10764 bound_to 10752
  154.6661  135.3022  154.9771 H   0  0  0  0  0  0  0  0  0  0  0  0  # atno 10765 bound_to 10752
  141.1040  133.6615  156.4365 H   0  0  0  0  0  0  0  0  0  0  0  0  # atno 11005 bound_to 11000
  145.1016  140.9349  143.4709 LP  0  0  0  0  0  0  0  0  0  0  0  0  # atno 17320 bound_to 7965
  145.0667  139.3063  143.5853 LP  0  0  0  0  0  0  0  0  0  0  0  0  # atno 17321 bound_to 7965
  139.7829  143.8329  152.3140 LP  0  0  0  0  0  0  0  0  0  0  0  0  # atno 17342 bound_to 10162
  139.8286  144.7264  150.9479 LP  0  0  0  0  0  0  0  0  0  0  0  0  # atno 17343 bound_to 10162
  156.3526  130.3833  149.7317 LP  0  0  0  0  0  0  0  0  0  0  0  0  # atno 17370 bound_to 10713
  156.4789  130.8032  151.3047 LP  0  0  0  0  0  0  0  0  0  0  0  0  # atno 17371 bound_to 10713
  140.4950  134.6540  157.5226 LP  0  0  0  0  0  0  0  0  0  0  0  0  # atno 17394 bound_to 11000
  139.9902  134.6997  155.9702 LP  0  0  0  0  0  0  0  0  0  0  0  0  # atno 17395 bound_to 11000

$$$$
