AV-unprocessed.smi:1795|AV-procd|sdf|7240|dock6
  -GOLD-   22720 8493D 1   1.00000     0.00000
 Structure written by MMmdl.
 47 48  0  0  0  0  0  0  0  0  1 V2000
  152.1858  145.0389  159.0997 C   0  0  0  0  0  0  0  0  0  0  0  0
  152.0428  143.6027  159.6145 C   0  0  1  0  0  0  0  0  0  0  0  0
  151.1021  142.7626  158.7302 C   0  0  0  0  0  0  0  0  0  0  0  0
  151.0128  141.3602  159.1529 N   0  0  0  0  0  0  0  0  0  0  0  0
  150.1364  140.5557  158.2693 C   0  0  1  0  0  0  0  0  0  0  0  0
  150.2177  140.9900  156.7839 C   0  0  0  0  0  0  0  0  0  0  0  0
  150.4074  139.0251  158.3532 C   0  0  0  0  0  0  0  0  0  0  0  0
  149.1961  138.2347  158.5554 N   0  0  0  0  0  0  0  0  0  0  0  0
  149.1729  136.9492  158.9388 C   0  0  0  0  0  0  0  0  0  0  0  0
  150.1922  136.3002  159.1790 O   0  0  0  0  0  0  0  0  0  0  0  0
  147.7826  136.3154  159.0902 C   0  0  0  0  0  0  0  0  0  0  0  0
  147.6515  135.4822  160.2974 N   0  0  0  0  0  0  0  0  0  0  0  0
  147.6032  134.0861  160.1119 C   0  0  0  0  0  0  0  0  0  0  0  0
  147.4831  133.2365  161.1444 C   0  0  0  0  0  0  0  0  0  0  0  0
  147.4029  133.7879  162.4764 C   0  0  0  0  0  0  0  0  0  0  0  0
  147.4436  135.1220  162.6648 C   0  0  0  0  0  0  0  0  0  0  0  0
  147.5719  136.0544  161.5386 C   0  0  0  0  0  0  0  0  0  0  0  0
  147.6063  137.2746  161.7011 O   0  0  0  0  0  0  0  0  0  0  0  0
  152.3770  140.8248  159.2235 C   0  0  0  0  0  0  0  0  0  0  0  0
  153.3110  141.6682  160.1120 C   0  0  1  0  0  0  0  0  0  0  0  0
  154.7477  141.1355  160.1115 C   0  0  0  0  0  0  0  0  0  0  0  0
  153.3324  143.0044  159.6271 O   0  0  0  0  0  0  0  0  0  0  0  0
  151.2220  145.5483  159.0846 H   0  0  0  0  0  0  0  0  0  0  0  0
  152.5895  145.0558  158.0868 H   0  0  0  0  0  0  0  0  0  0  0  0
  152.8572  145.6161  159.7357 H   0  0  0  0  0  0  0  0  0  0  0  0
  151.6558  143.6333  160.6347 H   0  0  0  0  0  0  0  0  0  0  0  0
  150.1261  143.2404  158.7736 H   0  0  0  0  0  0  0  0  0  0  0  0
  151.4352  142.8130  157.6922 H   0  0  0  0  0  0  0  0  0  0  0  0
  149.1063  140.7184  158.5902 H   0  0  0  0  0  0  0  0  0  0  0  0
  149.6195  140.3548  156.1318 H   0  0  0  0  0  0  0  0  0  0  0  0
  151.2449  140.9573  156.4193 H   0  0  0  0  0  0  0  0  0  0  0  0
  149.8353  141.9976  156.6278 H   0  0  0  0  0  0  0  0  0  0  0  0
  150.8892  138.6833  157.4365 H   0  0  0  0  0  0  0  0  0  0  0  0
  151.0832  138.7667  159.1667 H   0  0  0  0  0  0  0  0  0  0  0  0
  148.3147  138.6971  158.3847 H   0  0  0  0  0  0  0  0  0  0  0  0
  147.0440  137.1182  159.0963 H   0  0  0  0  0  0  0  0  0  0  0  0
  147.5534  135.7238  158.2016 H   0  0  0  0  0  0  0  0  0  0  0  0
  147.6616  133.7550  159.0853 H   0  0  0  0  0  0  0  0  0  0  0  0
  147.4432  132.1693  160.9828 H   0  0  0  0  0  0  0  0  0  0  0  0
  147.3086  133.1275  163.3257 H   0  0  0  0  0  0  0  0  0  0  0  0
  147.3808  135.5162  163.6684 H   0  0  0  0  0  0  0  0  0  0  0  0
  152.3698  139.8171  159.6356 H   0  0  0  0  0  0  0  0  0  0  0  0
  152.7968  140.7533  158.2186 H   0  0  0  0  0  0  0  0  0  0  0  0
  152.9387  141.6678  161.1382 H   0  0  0  0  0  0  0  0  0  0  0  0
  154.7875  140.1131  160.4877 H   0  0  0  0  0  0  0  0  0  0  0  0
  155.3897  141.7477  160.7453 H   0  0  0  0  0  0  0  0  0  0  0  0
  155.1701  141.1397  159.1062 H   0  0  0  0  0  0  0  0  0  0  0  0
  1  2  1  0  0  0  0
  1 23  1  0  0  0  0
  1 24  1  0  0  0  0
  1 25  1  0  0  0  0
  2 22  1  0  0  0  0
  2  3  1  0  0  0  0
  2 26  1  0  0  0  0
  3  4  1  0  0  0  0
  3 27  1  0  0  0  0
  3 28  1  0  0  0  0
  4  5  1  0  0  0  0
  4 19  1  0  0  0  0
  5  6  1  0  0  0  0
  5  7  1  0  0  0  0
  5 29  1  0  0  0  0
  6 30  1  0  0  0  0
  6 31  1  0  0  0  0
  6 32  1  0  0  0  0
  7  8  1  0  0  0  0
  7 33  1  0  0  0  0
  7 34  1  0  0  0  0
  8  9  1  0  0  0  0
  8 35  1  0  0  0  0
  9 10  2  0  0  0  0
  9 11  1  0  0  0  0
 11 12  1  0  0  0  0
 11 36  1  0  0  0  0
 11 37  1  0  0  0  0
 12 17  1  0  0  0  0
 12 13  1  0  0  0  0
 13 14  2  0  0  0  0
 13 38  1  0  0  0  0
 14 15  1  0  0  0  0
 14 39  1  0  0  0  0
 15 16  2  0  0  0  0
 15 40  1  0  0  0  0
 16 17  1  0  0  0  0
 16 41  1  0  0  0  0
 17 18  2  0  0  0  0
 19 20  1  0  0  0  0
 19 42  1  0  0  0  0
 19 43  1  0  0  0  0
 20 21  1  0  0  0  0
 20 22  1  0  0  0  0
 20 44  1  0  0  0  0
 21 45  1  0  0  0  0
 21 46  1  0  0  0  0
 21 47  1  0  0  0  0
M  END
> <s_m_source_file>
AV-unprocessed.smi

> <i_m_source_file_index>
1795

> <i_lp_mmshare_version>
43012

> <i_f3d_flags>
0

> <s_epik_input>
W0NIM11bQ0BASF0xW0NIMl1OKFtDSDJdW0NASF0oTzEpW0NIM10pW0NASF0oW0NIM10pW0NIMl1bTkhdQyg9TylbQ0gyXW4yW2NIXVtjSF1bY0hdW2NIXWMyPU8=

> <s_epik_cmdline>
J2VwaWtfcHl0aG9uJywgJy1waCcsICc3LjAnLCAnLXRuJywgJzgnLCAnLW1hJywgJzIwMCcsICctbWV0YWxfYmluZGluZycsICctaW1hZScsICc8aW5maWxlLm1hZT4nLCAnLW9tYWUnLCAnPG91dGZpbGUubWFlPic=

> <r_lp_tautomer_probability>
1

> <r_epik_Ionization_Penalty>
0.237383

> <r_epik_Ionization_Penalty_Charging>
3.58805e-07

> <r_epik_Ionization_Penalty_Neutral>
0.237382

> <r_epik_State_Penalty>
0.228245

> <r_epik_Charging_Adjusted_Penalty>
0.228245

> <i_epik_Tot_Q>
0

> <i_epik_Tot_abs_Q>
0

> <r_epik_Metal_State_Penalty>
0.228221

> <b_epik_Metal_Only>
0

> <s_lp_Force_Field>
OPLS_2005

> <r_lp_Energy>
36.5227

> <b_lp_Chiralities_Consistent>
1

> <s_lp_Variant>
AV-unprocessed.smi:1795-4

> <Gold.Version>
5.8.1

> <Gold.Id.Protein>
6NUR|6NUR_protein|mol2

> <Gold.PLP.Fitness>
52.4088

> <Gold.PLP.PLP>
-47.6320

> <Gold.PLP.part.hbond>
-3.4646

> <Gold.PLP.part.metal>
0.0000

> <Gold.PLP.part.buried>
-6.3061

> <Gold.PLP.part.nonpolar>
-38.4680

> <Gold.PLP.part.repulsive>
0.1828

> <Gold.PLP.ligand.clash>
0.0000

> <Gold.PLP.ligand.torsion>
1.6355

> <Gold.PLP.Chemscore.Hbond>
2.6640

> <Gold.PLP.Chemscore.CHOScore>
0.0000

> <Gold.PLP.Chemscore.Metal>
0.0000

> <Gold.Chemscore.Hbonds>
donor molecule, donor type, donor heavy atom, donor atom, acceptor molecule, acceptor atom, score
      P1  H  6896  6908       L1    10  1.00
      P1  H  6931  6943       L1    18  0.94
      P1  H  6934  6947       L1    18  0.72

> <Gold.PLP.Chemscore.Internal.Correction>
0.0557

> <Gold.Rescore>
     Score         DG    S(hbond)    S(metal)    S(lipo)     H(rot)  DE(clash)    DE(int)     intcor
     20.49     -22.10       2.75        0.00     103.51       1.83       0.01       1.60       ----

> <Gold.Chemscore.Fitness>
20.4861

> <Gold.Chemscore.DG>
-22.0951

> <Gold.Chemscore.ZeroCoef>
-5.4800

> <Gold.Chemscore.Hbond>
2.7474

> <Gold.Chemscore.Metal>
0.0000

> <Gold.Chemscore.Lipo>
103.5136

> <Gold.Chemscore.Internal_Hbond>
0.0000

> <Gold.Chemscore.DEClash>
0.0129

> <Gold.Chemscore.DEInternal>
1.5960

> <Gold.Chemscore.Rot>
1.8251

> <Gold.Chemscore.Internal.Correction>
   9.000000E+99

> <Gold.Chemscore.Hbonds>
donor molecule, donor type, donor heavy atom, donor atom, acceptor molecule, acceptor atom, score
      P1  H  6896  6908       L1    10  1.00
      P1  H  6931  6943       L1    18  0.91
      P1  H  6934  6947       L1    18  0.71

> <Gold.Chemscore.Hbond.Weighted>
-9.1764

> <Gold.Chemscore.Metal.Weighted>
-0.0000

> <Gold.Chemscore.Lipo.Weighted>
-12.1111

> <Gold.Chemscore.Internal_Hbond.Weighted>
0.0000

> <Gold.Chemscore.DEClash.Weighted>
0.0129

> <Gold.Chemscore.DEInternal.Weighted>
1.5960

> <Gold.Chemscore.Rot.Weighted>
4.6724

> <Gold.Chemscore.Internal.Correction.Weighted>
   9.000000E+99

> <Gold.Protein.RotatedTorsions>
[ 6907 6896 6895 6894 ] final -165.66 input  -60.11 | X-H torsion
[ 7974 7965 7964 7962 ] final   85.37 input  175.53 | X-H torsion
[ 8008 7997 7996 7995 ] final  128.35 input   59.86 | X-H torsion
[ 10167 10162 10161 10158 ] final  136.76 input  -65.29 | X-H torsion
[ 10718 10713 10712 10709 ] final  -62.34 input   66.30 | X-H torsion
[ 10763 10752 10751 10750 ] final  -51.63 input  -60.55 | X-H torsion
[ 11005 11000 10999 10996 ] final   13.81 input  -57.11 | X-H torsion

> <Gold.Protein.ActiveResidues>
 VAL166  LYS551  ARG553  GLY616  TRP617  ASP618  TYR619  PRO620  LYS621  CYS622 
 ASP623  PHE694  ASN695  SER759  ASP760  ASP761  ALA762  ILE779  LEU786  VAL792 
 PHE793  MET794  SER795  GLU796  ALA797  LYS798  CYS799  TRP800  GLU811  SER814 

> <Gold.Protein.RotatedAtoms>
  151.4312  133.3670  159.2768 H   0  0  0  0  0  0  0  0  0  0  0  0  # atno 6907 bound_to 6896
  150.9224  134.8643  159.7508 H   0  0  0  0  0  0  0  0  0  0  0  0  # atno 6908 bound_to 6896
  152.4988  134.4250  159.9545 H   0  0  0  0  0  0  0  0  0  0  0  0  # atno 6909 bound_to 6896
  145.5863  139.2332  143.2324 H   0  0  0  0  0  0  0  0  0  0  0  0  # atno 7974 bound_to 7965
  156.2913  140.2647  156.2421 H   0  0  0  0  0  0  0  0  0  0  0  0  # atno 8008 bound_to 7997
  154.9966  140.0388  157.2361 H   0  0  0  0  0  0  0  0  0  0  0  0  # atno 8009 bound_to 7997
  154.7638  140.2765  155.6197 H   0  0  0  0  0  0  0  0  0  0  0  0  # atno 8010 bound_to 7997
  139.5168  144.6447  151.5472 H   0  0  0  0  0  0  0  0  0  0  0  0  # atno 10167 bound_to 10162
  156.0861  130.4208  150.1122 H   0  0  0  0  0  0  0  0  0  0  0  0  # atno 10718 bound_to 10713
  154.1297  135.6522  153.4919 H   0  0  0  0  0  0  0  0  0  0  0  0  # atno 10763 bound_to 10752
  153.0199  135.5290  154.7013 H   0  0  0  0  0  0  0  0  0  0  0  0  # atno 10764 bound_to 10752
  154.6245  135.2968  155.0259 H   0  0  0  0  0  0  0  0  0  0  0  0  # atno 10765 bound_to 10752
  140.4766  134.0977  155.7742 H   0  0  0  0  0  0  0  0  0  0  0  0  # atno 11005 bound_to 11000
  146.1679  140.6690  142.9247 LP  0  0  0  0  0  0  0  0  0  0  0  0  # atno 17320 bound_to 7965
  144.7371  140.4839  143.6896 LP  0  0  0  0  0  0  0  0  0  0  0  0  # atno 17321 bound_to 7965
  140.6227  143.9227  150.6539 LP  0  0  0  0  0  0  0  0  0  0  0  0  # atno 17342 bound_to 10162
  140.2506  143.3596  152.1409 LP  0  0  0  0  0  0  0  0  0  0  0  0  # atno 17343 bound_to 10162
  156.9142  130.9662  151.3558 LP  0  0  0  0  0  0  0  0  0  0  0  0  # atno 17370 bound_to 10713
  157.5996  130.8503  149.8782 LP  0  0  0  0  0  0  0  0  0  0  0  0  # atno 17371 bound_to 10713
  141.1551  133.8897  157.1997 LP  0  0  0  0  0  0  0  0  0  0  0  0  # atno 17394 bound_to 11000
  139.9852  135.0084  156.9845 LP  0  0  0  0  0  0  0  0  0  0  0  0  # atno 17395 bound_to 11000

$$$$
