#       Name:                AV-unprocessed.smi:569
#       Creating user name   scv26
#       Creation time:       Thu Mar 26 23:46:23 2020


#       File generated by GOLD software.
#

@<TRIPOS>MOLECULE
AV-unprocessed.smi:569
    40    41     1
SMALL
NO_CHARGES


@<TRIPOS>ATOM
      1 ****        -3.0251   2.8709  -3.3156 C.3            1 S1                 0.0000
      2 ****        -2.7356   1.7395  -2.3900 C.2            1 S1                 0.0000
      3 ****        -2.2385   0.5671  -2.7916 N.2            1 S1                 0.0000
      4 ****        -2.0543  -0.3317  -1.7359 C.2            1 S1                 0.0000
      5 ****        -1.4847  -1.6962  -2.0022 C.3            1 S1                 0.0000
      6 ****         0.0211  -1.6940  -1.7348 C.2            1 S1                 0.0000
      7 ****         0.8174  -1.7238  -2.6728 O.2            1 S1                 0.0000
      8 ****         0.3934  -1.6415  -0.4467 N.am           1 S1                 0.0000
      9 ****         1.7628  -1.5134   0.0448 C.3            1 S1                 0.0000
     10 ****         1.8407  -1.9847   1.5092 C.3            1 S1                 0.0000
     11 ****         1.0992  -1.0325   2.4661 C.3            1 S1                 0.0000
     12 ****         1.6043   0.4177   2.3352 C.3            1 S1                 0.0000
     13 ****         0.8434   1.3623   3.2763 C.3            1 S1                 0.0000
     14 ****         1.5176   0.8937   0.8721 C.3            1 S1                 0.0000
     15 ****         2.2638  -0.0586  -0.0796 C.3            1 S1                 0.0000
     16 ****        -2.4357   0.1807  -0.5195 C.2            1 S1                 0.0000
     17 ****        -3.0206   1.8155  -0.6558 S.3            1 S1                 0.0000
     18 ****        -2.4453   2.7715  -4.2337 H              1 S1                 0.0000
     19 ****        -2.7670   3.8183  -2.8421 H              1 S1                 0.0000
     20 ****        -4.0851   2.8823  -3.5692 H              1 S1                 0.0000
     21 ****        -1.9617  -2.4440  -1.3677 H              1 S1                 0.0000
     22 ****        -1.6702  -2.0022  -3.0330 H              1 S1                 0.0000
     23 ****        -0.3364  -1.6300   0.2506 H              1 S1                 0.0000
     24 ****         2.4038  -2.1611  -0.5560 H              1 S1                 0.0000
     25 ****         1.4390  -2.9945   1.6021 H              1 S1                 0.0000
     26 ****         2.8875  -2.0469   1.8094 H              1 S1                 0.0000
     27 ****         0.0279  -1.0692   2.2636 H              1 S1                 0.0000
     28 ****         1.2264  -1.3789   3.4922 H              1 S1                 0.0000
     29 ****         2.6542   0.4344   2.6311 H              1 S1                 0.0000
     30 ****        -0.2191   1.3931   3.0326 H              1 S1                 0.0000
     31 ****         1.2303   2.3794   3.2081 H              1 S1                 0.0000
     32 ****         0.9382   1.0430   4.3145 H              1 S1                 0.0000
     33 ****         0.4725   0.9718   0.5686 H              1 S1                 0.0000
     34 ****         1.9362   1.8966   0.7821 H              1 S1                 0.0000
     35 ****         3.3296  -0.0274   0.1495 H              1 S1                 0.0000
     36 ****         2.1682   0.2932  -1.1075 H              1 S1                 0.0000
     37 ****        -2.3967  -0.2992   0.4470 H              1 S1                 0.0000
     38 ****        -2.0214   0.3546  -3.7444 LP             1 S1                 0.0000
     39 ****         0.4805  -1.7496  -3.6140 LP             1 S1                 0.0000
     40 ****         1.8012  -1.7223  -2.4937 LP             1 S1                 0.0000
@<TRIPOS>BOND
    1    1    2 1     
    2    1   18 1     
    3    1   19 1     
    4    1   20 1     
    5    2   17 1     
    6    2    3 2     
    7    3    4 1     
    8    4    5 1     
    9    4   16 2     
   10    5    6 1     
   11    5   21 1     
   12    5   22 1     
   13    6    7 2     
   14    6    8 am    
   15    8    9 1     
   16    8   23 1     
   17    9   15 1     
   18    9   10 1     
   19    9   24 1     
   20   10   11 1     
   21   10   25 1     
   22   10   26 1     
   23   11   12 1     
   24   11   27 1     
   25   11   28 1     
   26   12   13 1     
   27   12   14 1     
   28   12   29 1     
   29   13   30 1     
   30   13   31 1     
   31   13   32 1     
   32   14   15 1     
   33   14   33 1     
   34   14   34 1     
   35   15   35 1     
   36   15   36 1     
   37   16   17 1     
   38   16   37 1     
   39    3   38 1     
   40    7   39 1     
   41    7   40 1     
@<TRIPOS>SUBSTRUCTURE
      1 S1             1
@<TRIPOS>SET
LONE_PAIRS      STATIC     ATOMS    <user>   **** ""
3 38 39 40
DONOR_HYDROGENS      STATIC     ATOMS    <user>   **** ""
1 23
ATOM$BLUE        STATIC     ATOMS    COLORGROUP SYSTEM
3 38 39 40
ATOM$RED        STATIC     ATOMS    COLORGROUP SYSTEM
1 23
