AV-unprocessed.smi:1267|AV-procd|sdf|5322|dock5
  -GOLD-   22720 4443D 1   1.00000     0.00000
 Structure written by MMmdl.
 37 38  0  0  0  0  0  0  0  0  1 V2000
  151.7260  142.1402  158.0820 C   0  0  0  0  0  0  0  0  0  0  0  0
  151.8506  140.3264  157.8018 S   0  0  0  0  0  0  0  0  0  0  0  0
  153.2287  139.9097  158.1025 O   0  0  0  0  0  0  0  0  0  0  0  0
  150.7259  139.6776  158.4931 O   0  0  0  0  0  0  0  0  0  0  0  0
  151.6002  140.1419  156.0893 N   0  0  0  0  0  0  0  0  0  0  0  0
  152.2660  139.0435  155.3605 C   0  0  0  0  0  0  0  0  0  0  0  0
  151.3027  137.8743  155.0898 C   0  0  0  0  0  0  0  0  0  0  0  0
  150.0288  138.3486  154.3757 C   0  0  0  0  0  0  0  0  0  0  0  0
  149.1187  137.2223  154.1936 N   0  0  0  0  0  0  0  0  0  0  0  0
  148.4845  136.5684  155.1793 C   0  0  0  0  0  0  0  0  0  0  0  0
  148.6143  136.8436  156.3719 O   0  0  0  0  0  0  0  0  0  0  0  0
  147.5596  135.4282  154.7530 C   0  0  0  0  0  0  0  0  0  0  0  0
  148.3216  134.2460  154.3946 N   0  0  0  0  0  0  0  0  0  0  0  0
  149.3346  133.6333  155.1024 C   0  0  0  0  0  0  0  0  0  0  0  0
  149.7423  132.5521  154.3751 C   0  0  0  0  0  0  0  0  0  0  0  0
  148.9075  132.5853  153.2232 C   0  0  0  0  0  0  0  0  0  0  0  0
  148.0582  133.6000  153.2371 N   0  0  0  0  0  0  0  0  0  0  0  0
  149.3676  139.4633  155.2043 C   0  0  0  0  0  0  0  0  0  0  0  0
  150.3470  140.6194  155.4714 C   0  0  0  0  0  0  0  0  0  0  0  0
  151.8718  142.3463  159.1420 H   0  0  0  0  0  0  0  0  0  0  0  0
  150.7406  142.4952  157.7861 H   0  0  0  0  0  0  0  0  0  0  0  0
  152.4963  142.6578  157.5132 H   0  0  0  0  0  0  0  0  0  0  0  0
  152.6376  139.4354  154.4131 H   0  0  0  0  0  0  0  0  0  0  0  0
  153.1388  138.6958  155.9123 H   0  0  0  0  0  0  0  0  0  0  0  0
  151.8088  137.1206  154.4853 H   0  0  0  0  0  0  0  0  0  0  0  0
  151.0417  137.3846  156.0274 H   0  0  0  0  0  0  0  0  0  0  0  0
  150.3072  138.7439  153.3968 H   0  0  0  0  0  0  0  0  0  0  0  0
  148.9430  136.9273  153.2439 H   0  0  0  0  0  0  0  0  0  0  0  0
  146.8627  135.1841  155.5565 H   0  0  0  0  0  0  0  0  0  0  0  0
  146.9627  135.7355  153.8932 H   0  0  0  0  0  0  0  0  0  0  0  0
  149.6756  134.0138  156.0541 H   0  0  0  0  0  0  0  0  0  0  0  0
  150.5179  131.8447  154.6277 H   0  0  0  0  0  0  0  0  0  0  0  0
  148.8940  131.9065  152.3833 H   0  0  0  0  0  0  0  0  0  0  0  0
  148.4912  139.8500  154.6832 H   0  0  0  0  0  0  0  0  0  0  0  0
  149.0039  139.0579  156.1480 H   0  0  0  0  0  0  0  0  0  0  0  0
  149.8775  141.3768  156.0985 H   0  0  0  0  0  0  0  0  0  0  0  0
  150.5940  141.1108  154.5297 H   0  0  0  0  0  0  0  0  0  0  0  0
  1  2  1  0  0  0  0
  1 20  1  0  0  0  0
  1 21  1  0  0  0  0
  1 22  1  0  0  0  0
  2  3  2  0  0  0  0
  2  4  2  0  0  0  0
  2  5  1  0  0  0  0
  5 19  1  0  0  0  0
  5  6  1  0  0  0  0
  6  7  1  0  0  0  0
  6 23  1  0  0  0  0
  6 24  1  0  0  0  0
  7  8  1  0  0  0  0
  7 25  1  0  0  0  0
  7 26  1  0  0  0  0
  8  9  1  0  0  0  0
  8 18  1  0  0  0  0
  8 27  1  0  0  0  0
  9 10  1  0  0  0  0
  9 28  1  0  0  0  0
 10 11  2  0  0  0  0
 10 12  1  0  0  0  0
 12 13  1  0  0  0  0
 12 29  1  0  0  0  0
 12 30  1  0  0  0  0
 13 17  1  0  0  0  0
 13 14  1  0  0  0  0
 14 15  2  0  0  0  0
 14 31  1  0  0  0  0
 15 16  1  0  0  0  0
 15 32  1  0  0  0  0
 16 17  2  0  0  0  0
 16 33  1  0  0  0  0
 18 19  1  0  0  0  0
 18 34  1  0  0  0  0
 18 35  1  0  0  0  0
 19 36  1  0  0  0  0
 19 37  1  0  0  0  0
M  END
> <s_m_source_file>
AV-unprocessed.smi

> <i_m_source_file_index>
1267

> <i_lp_mmshare_version>
43012

> <i_f3d_flags>
0

> <s_epik_input>
W0NIM11TKD1PKSg9TylOMVtDSDJdW0NIMl1bQ0hdKFtDSDJdW0NIMl0xKVtOSF1DKD1PKVtDSDJdbjJbY0hdW2NIXVtjSF1uMg==

> <s_epik_cmdline>
J2VwaWtfcHl0aG9uJywgJy1waCcsICc3LjAnLCAnLXRuJywgJzgnLCAnLW1hJywgJzIwMCcsICctbWV0YWxfYmluZGluZycsICctaW1hZScsICc8aW5maWxlLm1hZT4nLCAnLW9tYWUnLCAnPG91dGZpbGUubWFlPic=

> <r_lp_tautomer_probability>
1

> <r_epik_Ionization_Penalty>
1.58465e-05

> <r_epik_Ionization_Penalty_Charging>
0

> <r_epik_Ionization_Penalty_Neutral>
1.58465e-05

> <r_epik_State_Penalty>
-0

> <r_epik_Charging_Adjusted_Penalty>
0

> <i_epik_Tot_Q>
0

> <i_epik_Tot_abs_Q>
0

> <r_epik_Metal_State_Penalty>
-0

> <b_epik_Metal_Only>
0

> <s_lp_Force_Field>
OPLS_2005

> <r_lp_Energy>
-1.31745

> <b_lp_Chiralities_Consistent>
1

> <s_lp_Variant>
AV-unprocessed.smi:1267-1

> <Gold.Version>
5.8.1

> <Gold.Id.Protein>
6NUR|6NUR_protein|mol2

> <Gold.PLP.Fitness>
38.0123

> <Gold.PLP.PLP>
-29.9697

> <Gold.PLP.part.hbond>
-1.9708

> <Gold.PLP.part.metal>
0.0000

> <Gold.PLP.part.buried>
-3.0869

> <Gold.PLP.part.nonpolar>
-25.3502

> <Gold.PLP.part.repulsive>
0.6369

> <Gold.PLP.ligand.clash>
0.0000

> <Gold.PLP.ligand.torsion>
1.5053

> <Gold.PLP.Chemscore.Hbond>
2.0000

> <Gold.PLP.Chemscore.CHOScore>
1.0000

> <Gold.PLP.Chemscore.Metal>
0.0000

> <Gold.Chemscore.Hbonds>
donor molecule, donor type, donor heavy atom, donor atom, acceptor molecule, acceptor atom, score
      L1  H     9    28       P1  7948  1.00
      P1  H  7997  8010       L1     3  1.00
      L1  C    16    33       P1 10747  1.00

> <Gold.PLP.Chemscore.Internal.Correction>
2.0533

> <Gold.Rescore>
     Score         DG    S(hbond)    S(metal)    S(lipo)     H(rot)  DE(clash)    DE(int)     intcor
     12.87     -15.30       1.98        0.00      60.87       1.53       0.07       2.35       ----

> <Gold.Chemscore.Fitness>
12.8735

> <Gold.Chemscore.DG>
-15.2971

> <Gold.Chemscore.ZeroCoef>
-5.4800

> <Gold.Chemscore.Hbond>
1.9815

> <Gold.Chemscore.Metal>
0.0000

> <Gold.Chemscore.Lipo>
60.8699

> <Gold.Chemscore.Internal_Hbond>
0.0000

> <Gold.Chemscore.DEClash>
0.0710

> <Gold.Chemscore.DEInternal>
2.3525

> <Gold.Chemscore.Rot>
1.5324

> <Gold.Chemscore.Internal.Correction>
   9.000000E+99

> <Gold.Chemscore.Hbonds>
donor molecule, donor type, donor heavy atom, donor atom, acceptor molecule, acceptor atom, score
      L1  H     9    28       P1  7948  0.93
      P1  H  7997  8010       L1     3  0.92

> <Gold.Chemscore.Hbond.Weighted>
-6.6182

> <Gold.Chemscore.Metal.Weighted>
-0.0000

> <Gold.Chemscore.Lipo.Weighted>
-7.1218

> <Gold.Chemscore.Internal_Hbond.Weighted>
0.0000

> <Gold.Chemscore.DEClash.Weighted>
0.0710

> <Gold.Chemscore.DEInternal.Weighted>
2.3525

> <Gold.Chemscore.Rot.Weighted>
3.9229

> <Gold.Chemscore.Internal.Correction.Weighted>
   9.000000E+99

> <Gold.Protein.RotatedTorsions>
[ 6907 6896 6895 6894 ] final  162.61 input  -60.11 | X-H torsion
[ 7974 7965 7964 7962 ] final  162.82 input  175.53 | X-H torsion
[ 8008 7997 7996 7995 ] final   48.72 input   59.86 | X-H torsion
[ 10167 10162 10161 10158 ] final -138.53 input  -65.29 | X-H torsion
[ 10718 10713 10712 10709 ] final  155.74 input   66.30 | X-H torsion
[ 10763 10752 10751 10750 ] final   52.73 input  -60.55 | X-H torsion
[ 11005 11000 10999 10996 ] final  125.68 input  -57.11 | X-H torsion

> <Gold.Protein.ActiveResidues>
 VAL166  LYS551  ARG553  GLY616  TRP617  ASP618  TYR619  PRO620  LYS621  CYS622 
 ASP623  PHE694  ASN695  SER759  ASP760  ASP761  ALA762  ILE779  LEU786  VAL792 
 PHE793  MET794  SER795  GLU796  ALA797  LYS798  CYS799  TRP800  GLU811  SER814 

> <Gold.Protein.RotatedAtoms>
  151.9378  133.3629  159.3953 H   0  0  0  0  0  0  0  0  0  0  0  0  # atno 6907 bound_to 6896
  150.7004  134.4470  159.5328 H   0  0  0  0  0  0  0  0  0  0  0  0  # atno 6908 bound_to 6896
  152.2122  134.8491  160.0547 H   0  0  0  0  0  0  0  0  0  0  0  0  # atno 6909 bound_to 6896
  144.7618  139.8094  143.6329 H   0  0  0  0  0  0  0  0  0  0  0  0  # atno 7974 bound_to 7965
  155.3903  140.3433  155.4251 H   0  0  0  0  0  0  0  0  0  0  0  0  # atno 8008 bound_to 7997
  156.1561  140.1586  156.8723 H   0  0  0  0  0  0  0  0  0  0  0  0  # atno 8009 bound_to 7997
  154.5096  140.0793  156.7945 H   0  0  0  0  0  0  0  0  0  0  0  0  # atno 8010 bound_to 7997
  139.8469  143.7249  152.2660 H   0  0  0  0  0  0  0  0  0  0  0  0  # atno 10167 bound_to 10162
  157.2143  131.0704  151.1951 H   0  0  0  0  0  0  0  0  0  0  0  0  # atno 10718 bound_to 10713
  152.9790  135.5802  154.4626 H   0  0  0  0  0  0  0  0  0  0  0  0  # atno 10763 bound_to 10752
  154.4200  135.2771  155.1983 H   0  0  0  0  0  0  0  0  0  0  0  0  # atno 10764 bound_to 10752
  154.3736  135.6162  153.5807 H   0  0  0  0  0  0  0  0  0  0  0  0  # atno 10765 bound_to 10752
  139.9418  134.9634  156.8594 H   0  0  0  0  0  0  0  0  0  0  0  0  # atno 11005 bound_to 11000
  146.1689  139.4832  142.9940 LP  0  0  0  0  0  0  0  0  0  0  0  0  # atno 17320 bound_to 7965
  145.6594  141.0244  143.1717 LP  0  0  0  0  0  0  0  0  0  0  0  0  # atno 17321 bound_to 7965
  139.7503  144.7536  151.0516 LP  0  0  0  0  0  0  0  0  0  0  0  0  # atno 17342 bound_to 10162
  140.7792  143.4868  150.9946 LP  0  0  0  0  0  0  0  0  0  0  0  0  # atno 17343 bound_to 10162
  157.3640  130.7146  149.6521 LP  0  0  0  0  0  0  0  0  0  0  0  0  # atno 17370 bound_to 10713
  155.9688  130.4217  150.4483 LP  0  0  0  0  0  0  0  0  0  0  0  0  # atno 17371 bound_to 10713
  140.5932  134.0242  155.7508 LP  0  0  0  0  0  0  0  0  0  0  0  0  # atno 17394 bound_to 11000
  141.1055  133.9699  157.3003 LP  0  0  0  0  0  0  0  0  0  0  0  0  # atno 17395 bound_to 11000

$$$$
