AV-unprocessed.smi:236|AV-procd|sdf|1809|dock6
  -GOLD-   2262020393D 1   1.00000     0.00000
 Structure written by MMmdl.
 58 62  0  0  0  0  0  0  0  0  1 V2000
  142.2684  135.4544  152.6400 C   0  0  0  0  0  0  0  0  0  0  0  0
  143.5054  135.7359  151.7743 C   0  0  2  0  0  0  0  0  0  0  0  0
  144.0773  134.5196  151.2994 O   0  0  0  0  0  0  0  0  0  0  0  0
  145.4960  134.6349  151.2325 C   0  0  0  0  0  0  0  0  0  0  0  0
  145.8048  136.1004  151.5231 C   0  0  0  0  0  0  0  0  0  0  0  0
  144.6608  136.5021  152.4464 C   0  0  1  0  0  0  0  0  0  0  0  0
  144.4527  137.8981  152.3395 O   0  0  0  0  0  0  0  0  0  0  0  0
  144.8898  136.1258  153.9358 C   0  0  0  0  0  0  0  0  0  0  0  0
  146.2197  136.4525  154.4257 N   0  0  0  0  0  0  0  0  0  0  0  0
  147.0593  135.6349  155.1478 C   0  0  0  0  0  0  0  0  0  0  0  0
  148.2049  136.1661  155.4775 N   0  0  0  0  0  0  0  0  0  0  0  0
  148.1579  137.4430  154.9305 C   0  0  0  0  0  0  0  0  0  0  0  0
  149.0499  138.5528  154.9065 C   0  0  0  0  0  0  0  0  0  0  0  0
  150.2665  138.5830  155.4897 N   0  0  0  0  0  0  0  0  0  0  0  0
  151.3613  138.6157  154.5307 C   0  0  0  0  0  0  0  0  0  0  0  0
  152.7021  138.4614  155.2665 C   0  0  0  0  0  0  0  0  0  0  0  0
  152.8093  139.4627  156.2743 O   0  0  0  0  0  0  0  0  0  0  0  0
  151.7829  139.3578  157.2596 C   0  0  1  0  0  0  0  0  0  0  0  0
  152.0357  140.4274  158.3289 C   0  0  0  0  0  0  0  0  0  0  0  0
  150.9186  141.2990  158.3842 O   0  0  0  0  0  0  0  0  0  0  0  0
  151.1697  142.5468  157.7616 C   0  0  0  0  0  0  0  0  0  0  0  0
  152.2218  143.2930  158.5542 C   0  0  0  0  0  0  0  0  0  0  0  0
  151.8281  144.3396  159.5720 C   0  0  0  0  0  0  0  0  0  0  0  0
  152.4827  144.7569  158.2800 C   0  0  0  0  0  0  0  0  0  0  0  0
  150.4218  139.5550  156.5649 C   0  0  0  0  0  0  0  0  0  0  0  0
  148.6459  139.6807  154.2726 N   0  0  0  0  0  0  0  0  0  0  0  0
  147.4473  139.7228  153.6830 C   0  0  0  0  0  0  0  0  0  0  0  0
  146.5148  138.7701  153.6175 N   0  0  0  0  0  0  0  0  0  0  0  0
  146.9157  137.6377  154.2638 C   0  0  0  0  0  0  0  0  0  0  0  0
  141.8461  136.3790  153.0337 H   0  0  0  0  0  0  0  0  0  0  0  0
  142.5030  134.8033  153.4820 H   0  0  0  0  0  0  0  0  0  0  0  0
  141.4934  134.9603  152.0536 H   0  0  0  0  0  0  0  0  0  0  0  0
  143.1886  136.2861  150.8861 H   0  0  0  0  0  0  0  0  0  0  0  0
  145.9354  133.9907  151.9946 H   0  0  0  0  0  0  0  0  0  0  0  0
  145.8763  134.3171  150.2618 H   0  0  0  0  0  0  0  0  0  0  0  0
  146.8024  136.2566  151.9318 H   0  0  0  0  0  0  0  0  0  0  0  0
  145.7495  136.6629  150.5893 H   0  0  0  0  0  0  0  0  0  0  0  0
  144.0222  138.0746  151.5170 H   0  0  0  0  0  0  0  0  0  0  0  0
  144.1640  136.6321  154.5734 H   0  0  0  0  0  0  0  0  0  0  0  0
  144.7284  135.0574  154.0845 H   0  0  0  0  0  0  0  0  0  0  0  0
  146.7907  134.6274  155.4305 H   0  0  0  0  0  0  0  0  0  0  0  0
  151.2425  137.8161  153.7982 H   0  0  0  0  0  0  0  0  0  0  0  0
  151.3408  139.5601  153.9849 H   0  0  0  0  0  0  0  0  0  0  0  0
  152.7894  137.4699  155.7138 H   0  0  0  0  0  0  0  0  0  0  0  0
  153.5308  138.5703  154.5670 H   0  0  0  0  0  0  0  0  0  0  0  0
  151.8142  138.3708  157.7252 H   0  0  0  0  0  0  0  0  0  0  0  0
  152.2166  139.9617  159.2992 H   0  0  0  0  0  0  0  0  0  0  0  0
  152.9240  141.0064  158.0713 H   0  0  0  0  0  0  0  0  0  0  0  0
  151.5358  142.3945  156.7454 H   0  0  0  0  0  0  0  0  0  0  0  0
  150.2562  143.1411  157.7050 H   0  0  0  0  0  0  0  0  0  0  0  0
  153.1004  142.6954  158.7905 H   0  0  0  0  0  0  0  0  0  0  0  0
  150.7685  144.5565  159.6918 H   0  0  0  0  0  0  0  0  0  0  0  0
  152.4228  144.4036  160.4810 H   0  0  0  0  0  0  0  0  0  0  0  0
  153.5144  145.1000  158.3256 H   0  0  0  0  0  0  0  0  0  0  0  0
  151.8584  145.2543  157.5400 H   0  0  0  0  0  0  0  0  0  0  0  0
  150.3605  140.5679  156.1673 H   0  0  0  0  0  0  0  0  0  0  0  0
  149.6104  139.4387  157.2848 H   0  0  0  0  0  0  0  0  0  0  0  0
  147.1990  140.6540  153.1955 H   0  0  0  0  0  0  0  0  0  0  0  0
  1  2  1  0  0  0  0
  1 30  1  0  0  0  0
  1 31  1  0  0  0  0
  1 32  1  0  0  0  0
  2  6  1  0  0  0  0
  2  3  1  0  0  0  0
  2 33  1  0  0  0  0
  3  4  1  0  0  0  0
  4  5  1  0  0  0  0
  4 34  1  0  0  0  0
  4 35  1  0  0  0  0
  5  6  1  0  0  0  0
  5 36  1  0  0  0  0
  5 37  1  0  0  0  0
  6  7  1  0  0  0  0
  6  8  1  0  0  0  0
  7 38  1  0  0  0  0
  8  9  1  0  0  0  0
  8 39  1  0  0  0  0
  8 40  1  0  0  0  0
  9 29  1  0  0  0  0
  9 10  1  0  0  0  0
 10 11  2  0  0  0  0
 10 41  1  0  0  0  0
 11 12  1  0  0  0  0
 12 29  2  0  0  0  0
 12 13  1  0  0  0  0
 13 14  1  0  0  0  0
 13 26  2  0  0  0  0
 14 25  1  0  0  0  0
 14 15  1  0  0  0  0
 15 16  1  0  0  0  0
 15 42  1  0  0  0  0
 15 43  1  0  0  0  0
 16 17  1  0  0  0  0
 16 44  1  0  0  0  0
 16 45  1  0  0  0  0
 17 18  1  0  0  0  0
 18 19  1  0  0  0  0
 18 25  1  0  0  0  0
 18 46  1  0  0  0  0
 19 20  1  0  0  0  0
 19 47  1  0  0  0  0
 19 48  1  0  0  0  0
 20 21  1  0  0  0  0
 21 22  1  0  0  0  0
 21 49  1  0  0  0  0
 21 50  1  0  0  0  0
 22 24  1  0  0  0  0
 22 23  1  0  0  0  0
 22 51  1  0  0  0  0
 23 24  1  0  0  0  0
 23 52  1  0  0  0  0
 23 53  1  0  0  0  0
 24 54  1  0  0  0  0
 24 55  1  0  0  0  0
 25 56  1  0  0  0  0
 25 57  1  0  0  0  0
 26 27  1  0  0  0  0
 27 28  2  0  0  0  0
 27 58  1  0  0  0  0
 28 29  1  0  0  0  0
M  END
> <s_m_source_file>
AV-unprocessed.smi

> <i_m_source_file_index>
236

> <i_lp_mmshare_version>
43012

> <i_f3d_flags>
0

> <s_epik_input>
W0NIMl0xW0NIMl1PW0NAQEhdKFtDSDNdKVtDQEBdMShbT0hdKVtDSDJdbihbY0hdbjIpYyhjMjMpbltjSF1uYzNONFtDSDJdW0NIMl1PW0NASF0oW0NIMl00KVtDSDJdT1tDSDJdW0NIXTVbQ0gyXVtDSDJdNQ==

> <s_epik_cmdline>
J2VwaWtfcHl0aG9uJywgJy1waCcsICc3LjAnLCAnLXRuJywgJzgnLCAnLW1hJywgJzIwMCcsICctbWV0YWxfYmluZGluZycsICctaW1hZScsICc8aW5maWxlLm1hZT4nLCAnLW9tYWUnLCAnPG91dGZpbGUubWFlPic=

> <r_lp_tautomer_probability>
1

> <r_epik_Ionization_Penalty>
7.21838e-05

> <r_epik_Ionization_Penalty_Charging>
0

> <r_epik_Ionization_Penalty_Neutral>
7.21838e-05

> <r_epik_State_Penalty>
-0

> <r_epik_Charging_Adjusted_Penalty>
0

> <i_epik_Tot_Q>
0

> <i_epik_Tot_abs_Q>
0

> <r_epik_Metal_State_Penalty>
-0

> <b_epik_Metal_Only>
0

> <s_lp_Force_Field>
OPLS_2005

> <r_lp_Energy>
49.116

> <b_lp_Chiralities_Consistent>
1

> <s_lp_Variant>
AV-unprocessed.smi:236-1

> <Gold.Version>
5.8.1

> <Gold.Id.Protein>
6NUR|6NUR_protein|mol2

> <Gold.PLP.Fitness>
46.5838

> <Gold.PLP.PLP>
-43.4168

> <Gold.PLP.part.hbond>
-3.0000

> <Gold.PLP.part.metal>
0.0000

> <Gold.PLP.part.buried>
-7.8492

> <Gold.PLP.part.nonpolar>
-33.6423

> <Gold.PLP.part.repulsive>
0.6076

> <Gold.PLP.ligand.clash>
0.0000

> <Gold.PLP.ligand.torsion>
1.8238

> <Gold.PLP.Chemscore.Hbond>
2.0000

> <Gold.PLP.Chemscore.CHOScore>
0.0000

> <Gold.PLP.Chemscore.Metal>
0.0000

> <Gold.Chemscore.Hbonds>
donor molecule, donor type, donor heavy atom, donor atom, acceptor molecule, acceptor atom, score
      L1  H     7    38       P1 10171  1.00
      P1  H  7997  8010       L1    17  1.00

> <Gold.PLP.Chemscore.Internal.Correction>
0.8147

> <Gold.Rescore>
     Score         DG    S(hbond)    S(metal)    S(lipo)     H(rot)  DE(clash)    DE(int)     intcor
     13.94     -17.02       1.92        0.00     106.51       2.87       0.05       3.02       ----

> <Gold.Chemscore.Fitness>
13.9385

> <Gold.Chemscore.DG>
-17.0154

> <Gold.Chemscore.ZeroCoef>
-5.4800

> <Gold.Chemscore.Hbond>
1.9190

> <Gold.Chemscore.Metal>
0.0000

> <Gold.Chemscore.Lipo>
106.5107

> <Gold.Chemscore.Internal_Hbond>
0.0000

> <Gold.Chemscore.DEClash>
0.0538

> <Gold.Chemscore.DEInternal>
3.0231

> <Gold.Chemscore.Rot>
2.8655

> <Gold.Chemscore.Internal.Correction>
   9.000000E+99

> <Gold.Chemscore.Hbonds>
donor molecule, donor type, donor heavy atom, donor atom, acceptor molecule, acceptor atom, score
      L1  H     7    38       P1 10171  0.99
      P1  H  7997  8010       L1    17  0.74

> <Gold.Chemscore.Hbond.Weighted>
-6.4094

> <Gold.Chemscore.Metal.Weighted>
-0.0000

> <Gold.Chemscore.Lipo.Weighted>
-12.4618

> <Gold.Chemscore.Internal_Hbond.Weighted>
0.0000

> <Gold.Chemscore.DEClash.Weighted>
0.0538

> <Gold.Chemscore.DEInternal.Weighted>
3.0231

> <Gold.Chemscore.Rot.Weighted>
7.3358

> <Gold.Chemscore.Internal.Correction.Weighted>
   9.000000E+99

> <Gold.Protein.RotatedTorsions>
[ 6907 6896 6895 6894 ] final   59.84 input  -60.11 | X-H torsion
[ 7974 7965 7964 7962 ] final    7.72 input  175.53 | X-H torsion
[ 8008 7997 7996 7995 ] final   83.15 input   59.86 | X-H torsion
[ 10167 10162 10161 10158 ] final  165.49 input  -65.29 | X-H torsion
[ 10718 10713 10712 10709 ] final  178.27 input   66.30 | X-H torsion
[ 10763 10752 10751 10750 ] final -108.40 input  -60.55 | X-H torsion
[ 11005 11000 10999 10996 ] final -156.71 input  -57.11 | X-H torsion

> <Gold.Protein.ActiveResidues>
 VAL166  LYS551  ARG553  GLY616  TRP617  ASP618  TYR619  PRO620  LYS621  CYS622 
 ASP623  PHE694  ASN695  SER759  ASP760  ASP761  ALA762  ILE779  LEU786  VAL792 
 PHE793  MET794  SER795  GLU796  ALA797  LYS798  CYS799  TRP800  GLU811  SER814 

> <Gold.Protein.RotatedAtoms>
  152.3950  134.6379  160.0092 H   0  0  0  0  0  0  0  0  0  0  0  0  # atno 6907 bound_to 6896
  151.6602  133.3311  159.3180 H   0  0  0  0  0  0  0  0  0  0  0  0  # atno 6908 bound_to 6896
  150.7859  134.6887  159.6529 H   0  0  0  0  0  0  0  0  0  0  0  0  # atno 6909 bound_to 6896
  146.2424  140.0041  142.8413 H   0  0  0  0  0  0  0  0  0  0  0  0  # atno 7974 bound_to 7965
  155.9201  140.3422  155.6166 H   0  0  0  0  0  0  0  0  0  0  0  0  # atno 8008 bound_to 7997
  155.7283  140.0792  157.2319 H   0  0  0  0  0  0  0  0  0  0  0  0  # atno 8009 bound_to 7997
  154.4068  140.1593  156.2467 H   0  0  0  0  0  0  0  0  0  0  0  0  # atno 8010 bound_to 7997
  139.4907  144.4127  151.9280 H   0  0  0  0  0  0  0  0  0  0  0  0  # atno 10167 bound_to 10162
  156.8930  130.9854  151.3046 H   0  0  0  0  0  0  0  0  0  0  0  0  # atno 10718 bound_to 10713
  154.8133  135.4639  154.0575 H   0  0  0  0  0  0  0  0  0  0  0  0  # atno 10763 bound_to 10752
  153.1988  135.6866  153.8264 H   0  0  0  0  0  0  0  0  0  0  0  0  # atno 10764 bound_to 10752
  153.7757  135.3264  155.3335 H   0  0  0  0  0  0  0  0  0  0  0  0  # atno 10765 bound_to 10752
  140.6726  134.4231  157.5231 H   0  0  0  0  0  0  0  0  0  0  0  0  # atno 11005 bound_to 11000
  145.1388  140.9560  143.4501 LP  0  0  0  0  0  0  0  0  0  0  0  0  # atno 17320 bound_to 7965
  145.0316  139.3336  143.6022 LP  0  0  0  0  0  0  0  0  0  0  0  0  # atno 17321 bound_to 7965
  140.3569  144.3021  150.5940 LP  0  0  0  0  0  0  0  0  0  0  0  0  # atno 17342 bound_to 10162
  140.5437  143.2219  151.8042 LP  0  0  0  0  0  0  0  0  0  0  0  0  # atno 17343 bound_to 10162
  157.6072  130.8556  149.8894 LP  0  0  0  0  0  0  0  0  0  0  0  0  # atno 17370 bound_to 10713
  156.0619  130.3698  150.0962 LP  0  0  0  0  0  0  0  0  0  0  0  0  # atno 17371 bound_to 10713
  139.8977  134.8631  156.2034 LP  0  0  0  0  0  0  0  0  0  0  0  0  # atno 17394 bound_to 11000
  141.0380  133.6953  156.1547 LP  0  0  0  0  0  0  0  0  0  0  0  0  # atno 17395 bound_to 11000

$$$$
