AV-unprocessed.smi:1207|AV-procd|sdf|5052|dock6
  -GOLD-   22720 4 83D 1   1.00000     0.00000
 Structure written by MMmdl.
 52 54  0  0  0  0  0  0  0  0  2 V2000
  152.0865  143.7702  160.0350 C   0  0  0  0  0  0  0  0  0  0  0  0
  151.9017  142.7271  158.9471 C   0  0  0  0  0  0  0  0  0  0  0  0
  150.9907  142.9829  157.8972 C   0  0  0  0  0  0  0  0  0  0  0  0
  150.7896  142.0387  156.8668 C   0  0  0  0  0  0  0  0  0  0  0  0
  149.9602  142.0788  155.7592 N   0  0  0  0  0  0  0  0  0  0  0  0
  150.2218  140.9082  155.1850 C   0  0  0  0  0  0  0  0  0  0  0  0
  151.1213  140.1106  155.7929 N   0  0  0  0  0  0  0  0  0  0  0  0
  151.5659  138.7973  155.3617 C   0  0  0  0  0  0  0  0  0  0  0  0
  150.4048  137.9338  154.8344 C   0  0  1  0  0  0  0  0  0  0  0  0
  150.2271  138.1772  153.4518 O   0  0  0  0  0  0  0  0  0  0  0  0
  150.6504  136.4274  155.0470 C   0  0  0  0  0  0  0  0  0  0  0  0
  149.4864  135.6181  154.6056 N   0  3  1  0  0  0  0  0  0  0  0  0
  149.8143  134.1793  154.4791 C   0  0  0  0  0  0  0  0  0  0  0  0
  148.2656  135.8574  155.4178 C   0  0  0  0  0  0  0  0  0  0  0  0
  148.4537  135.3617  156.8268 C   0  0  0  0  0  0  0  0  0  0  0  0
  148.0474  134.1057  157.3621 C   0  0  0  0  0  0  0  0  0  0  0  0
  147.3438  132.9771  156.6628 C   0  0  0  0  0  0  0  0  0  0  0  0
  148.3686  133.9861  158.6387 N   0  0  0  0  0  0  0  0  0  0  0  0
  148.9992  135.1835  158.9889 O   0  0  0  0  0  0  0  0  0  0  0  0
  149.0361  135.9871  157.8958 C   0  0  0  0  0  0  0  0  0  0  0  0
  149.6766  137.3220  158.0777 C   0  0  0  0  0  0  0  0  0  0  0  0
  151.5319  140.8225  156.9150 C   0  0  0  0  0  0  0  0  0  0  0  0
  152.4431  140.5576  157.9529 C   0  0  0  0  0  0  0  0  0  0  0  0
  152.6292  141.5100  158.9763 C   0  0  0  0  0  0  0  0  0  0  0  0
  153.6111  141.2122  160.0956 C   0  0  0  0  0  0  0  0  0  0  0  0
  151.4803  144.6563  159.8445 H   0  0  0  0  0  0  0  0  0  0  0  0
  153.1288  144.0852  160.0905 H   0  0  0  0  0  0  0  0  0  0  0  0
  151.7936  143.3663  161.0043 H   0  0  0  0  0  0  0  0  0  0  0  0
  150.4361  143.9098  157.8748 H   0  0  0  0  0  0  0  0  0  0  0  0
  149.7275  140.6120  154.2713 H   0  0  0  0  0  0  0  0  0  0  0  0
  152.3345  138.9174  154.5966 H   0  0  0  0  0  0  0  0  0  0  0  0
  152.0432  138.3084  156.2120 H   0  0  0  0  0  0  0  0  0  0  0  0
  149.4904  138.2366  155.3431 H   0  0  0  0  0  0  0  0  0  0  0  0
  149.9531  137.3748  153.0339 H   0  0  0  0  0  0  0  0  0  0  0  0
  151.5474  136.1378  154.4969 H   0  0  0  0  0  0  0  0  0  0  0  0
  150.8571  136.2118  156.0967 H   0  0  0  0  0  0  0  0  0  0  0  0
  150.0751  133.7509  155.4478 H   0  0  0  0  0  0  0  0  0  0  0  0
  150.6569  134.0331  153.8026 H   0  0  0  0  0  0  0  0  0  0  0  0
  148.9724  133.6193  154.0727 H   0  0  0  0  0  0  0  0  0  0  0  0
  148.0093  136.9172  155.3894 H   0  0  0  0  0  0  0  0  0  0  0  0
  147.4116  135.3500  154.9693 H   0  0  0  0  0  0  0  0  0  0  0  0
  146.4309  133.3252  156.1788 H   0  0  0  0  0  0  0  0  0  0  0  0
  147.0660  132.1815  157.3554 H   0  0  0  0  0  0  0  0  0  0  0  0
  147.9804  132.5383  155.8945 H   0  0  0  0  0  0  0  0  0  0  0  0
  149.6409  137.9066  157.1587 H   0  0  0  0  0  0  0  0  0  0  0  0
  150.7222  137.2113  158.3653 H   0  0  0  0  0  0  0  0  0  0  0  0
  149.1699  137.8900  158.8580 H   0  0  0  0  0  0  0  0  0  0  0  0
  152.9931  139.6283  157.9625 H   0  0  0  0  0  0  0  0  0  0  0  0
  154.0510  140.2205  159.9863 H   0  0  0  0  0  0  0  0  0  0  0  0
  153.1115  141.2504  161.0639 H   0  0  0  0  0  0  0  0  0  0  0  0
  154.4224  141.9407  160.0947 H   0  0  0  0  0  0  0  0  0  0  0  0
  149.2785  135.9407  153.6709 H   0  0  0  0  0  0  0  0  0  0  0  0
  1  2  1  0  0  0  0
  1 26  1  0  0  0  0
  1 27  1  0  0  0  0
  1 28  1  0  0  0  0
  2 24  1  0  0  0  0
  2  3  2  0  0  0  0
  3  4  1  0  0  0  0
  3 29  1  0  0  0  0
  4 22  2  0  0  0  0
  4  5  1  0  0  0  0
  5  6  2  0  0  0  0
  6  7  1  0  0  0  0
  6 30  1  0  0  0  0
  7  8  1  0  0  0  0
  7 22  1  0  0  0  0
  8  9  1  0  0  0  0
  8 31  1  0  0  0  0
  8 32  1  0  0  0  0
  9 10  1  0  0  0  0
  9 11  1  0  0  0  0
  9 33  1  0  0  0  0
 10 34  1  0  0  0  0
 11 12  1  0  0  0  0
 11 35  1  0  0  0  0
 11 36  1  0  0  0  0
 12 13  1  0  0  0  0
 12 14  1  0  0  0  0
 12 52  1  0  0  0  0
 13 37  1  0  0  0  0
 13 38  1  0  0  0  0
 13 39  1  0  0  0  0
 14 15  1  0  0  0  0
 14 40  1  0  0  0  0
 14 41  1  0  0  0  0
 15 20  2  0  0  0  0
 15 16  1  0  0  0  0
 16 17  1  0  0  0  0
 16 18  2  0  0  0  0
 17 42  1  0  0  0  0
 17 43  1  0  0  0  0
 17 44  1  0  0  0  0
 18 19  1  0  0  0  0
 19 20  1  0  0  0  0
 20 21  1  0  0  0  0
 21 45  1  0  0  0  0
 21 46  1  0  0  0  0
 21 47  1  0  0  0  0
 22 23  1  0  0  0  0
 23 24  2  0  0  0  0
 23 48  1  0  0  0  0
 24 25  1  0  0  0  0
 25 49  1  0  0  0  0
 25 50  1  0  0  0  0
 25 51  1  0  0  0  0
M  CHG  1  12   1
M  END
> <s_m_source_file>
AV-unprocessed.smi

> <i_m_source_file_index>
1207

> <i_lp_mmshare_version>
43012

> <i_f3d_flags>
0

> <s_epik_input>
W0NIM11jKFtjSF0xKWMoW0NIM10pW2NIXWMoYzEyKW4oW2NIXW4yKVtDSDJdW0NASF0oW09IXSlbQ0gyXU4oW0NIM10pW0NIMl1jM2MoW0NIM10pbm9jM1tDSDNd

> <s_epik_cmdline>
J2VwaWtfcHl0aG9uJywgJy1waCcsICc3LjAnLCAnLXRuJywgJzgnLCAnLW1hJywgJzIwMCcsICctbWV0YWxfYmluZGluZycsICctaW1hZScsICc8aW5maWxlLm1hZT4nLCAnLW9tYWUnLCAnPG91dGZpbGUubWFlPic=

> <r_epik_Ionization_Penalty>
0.646518

> <r_epik_Ionization_Penalty_Charging>
0.559419

> <r_epik_Ionization_Penalty_Neutral>
0.0870981

> <r_epik_State_Penalty>
0.661677

> <r_epik_Charging_Adjusted_Penalty>
1.2211

> <i_epik_Tot_Q>
1

> <i_epik_Tot_abs_Q>
1

> <r_epik_Metal_State_Penalty>
0.649158

> <b_epik_Metal_Only>
0

> <s_lp_Force_Field>
OPLS_2005

> <r_lp_Energy>
8.27883

> <b_lp_Chiralities_Consistent>
1

> <s_lp_Variant>
AV-unprocessed.smi:1207-4

> <Gold.Version>
5.8.1

> <Gold.Id.Protein>
6NUR|6NUR_protein|mol2

> <Gold.PLP.Fitness>
50.2620

> <Gold.PLP.PLP>
-40.1455

> <Gold.PLP.part.hbond>
-4.6349

> <Gold.PLP.part.metal>
0.0000

> <Gold.PLP.part.buried>
-4.3445

> <Gold.PLP.part.nonpolar>
-32.3414

> <Gold.PLP.part.repulsive>
1.6514

> <Gold.PLP.ligand.clash>
0.0000

> <Gold.PLP.ligand.torsion>
1.0249

> <Gold.PLP.Chemscore.Hbond>
4.0000

> <Gold.PLP.Chemscore.CHOScore>
0.0000

> <Gold.PLP.Chemscore.Metal>
0.0000

> <Gold.Chemscore.Hbonds>
donor molecule, donor type, donor heavy atom, donor atom, acceptor molecule, acceptor atom, score
      L1  H    10    34       P1  7948  0.95
      L1  H    12    52       P1  7948  2.00
      P1  H  6896  6908       L1    19  0.95

> <Gold.PLP.Chemscore.Internal.Correction>
0.1663

> <Gold.Rescore>
     Score         DG    S(hbond)    S(metal)    S(lipo)     H(rot)  DE(clash)    DE(int)     intcor
     18.71     -21.01       2.82        0.00     106.05       2.46       1.40       0.90       ----

> <Gold.Chemscore.Fitness>
18.7121

> <Gold.Chemscore.DG>
-21.0117

> <Gold.Chemscore.ZeroCoef>
-5.4800

> <Gold.Chemscore.Hbond>
2.8180

> <Gold.Chemscore.Metal>
0.0000

> <Gold.Chemscore.Lipo>
106.0525

> <Gold.Chemscore.Internal_Hbond>
0.0000

> <Gold.Chemscore.DEClash>
1.3966

> <Gold.Chemscore.DEInternal>
0.9030

> <Gold.Chemscore.Rot>
2.4565

> <Gold.Chemscore.Internal.Correction>
   9.000000E+99

> <Gold.Chemscore.Hbonds>
donor molecule, donor type, donor heavy atom, donor atom, acceptor molecule, acceptor atom, score
      L1  H    10    34       P1  7948  0.21
      L1  H    12    52       P1  7948  0.74
      P1  H  6896  6908       L1    19  0.20

> <Gold.Chemscore.Hbond.Weighted>
-9.4122

> <Gold.Chemscore.Metal.Weighted>
-0.0000

> <Gold.Chemscore.Lipo.Weighted>
-12.4081

> <Gold.Chemscore.Internal_Hbond.Weighted>
0.0000

> <Gold.Chemscore.DEClash.Weighted>
1.3966

> <Gold.Chemscore.DEInternal.Weighted>
0.9030

> <Gold.Chemscore.Rot.Weighted>
6.2887

> <Gold.Chemscore.Internal.Correction.Weighted>
   9.000000E+99

> <Gold.Protein.RotatedTorsions>
[ 6907 6896 6895 6894 ] final  163.43 input  -60.11 | X-H torsion
[ 7974 7965 7964 7962 ] final  121.61 input  175.53 | X-H torsion
[ 8008 7997 7996 7995 ] final  -79.71 input   59.86 | X-H torsion
[ 10167 10162 10161 10158 ] final   73.11 input  -65.29 | X-H torsion
[ 10718 10713 10712 10709 ] final  178.64 input   66.30 | X-H torsion
[ 10763 10752 10751 10750 ] final   42.27 input  -60.55 | X-H torsion
[ 11005 11000 10999 10996 ] final   11.06 input  -57.11 | X-H torsion

> <Gold.Protein.ActiveResidues>
 VAL166  LYS551  ARG553  GLY616  TRP617  ASP618  TYR619  PRO620  LYS621  CYS622 
 ASP623  PHE694  ASN695  SER759  ASP760  ASP761  ALA762  ILE779  LEU786  VAL792 
 PHE793  MET794  SER795  GLU796  ALA797  LYS798  CYS799  TRP800  GLU811  SER814 

> <Gold.Protein.RotatedAtoms>
  151.9254  133.3596  159.3911 H   0  0  0  0  0  0  0  0  0  0  0  0  # atno 6907 bound_to 6896
  150.7028  134.4593  159.5382 H   0  0  0  0  0  0  0  0  0  0  0  0  # atno 6908 bound_to 6896
  152.2223  134.8401  160.0535 H   0  0  0  0  0  0  0  0  0  0  0  0  # atno 6909 bound_to 6896
  145.1172  139.3413  143.4732 H   0  0  0  0  0  0  0  0  0  0  0  0  # atno 7974 bound_to 7965
  154.5811  140.0674  156.9106 H   0  0  0  0  0  0  0  0  0  0  0  0  # atno 8008 bound_to 7997
  155.2460  140.3348  155.4269 H   0  0  0  0  0  0  0  0  0  0  0  0  # atno 8009 bound_to 7997
  156.2190  140.1790  156.7506 H   0  0  0  0  0  0  0  0  0  0  0  0  # atno 8010 bound_to 7997
  140.0280  144.5488  150.7529 H   0  0  0  0  0  0  0  0  0  0  0  0  # atno 10167 bound_to 10162
  156.8876  130.9836  151.3054 H   0  0  0  0  0  0  0  0  0  0  0  0  # atno 10718 bound_to 10713
  152.9887  135.6137  154.2922 H   0  0  0  0  0  0  0  0  0  0  0  0  # atno 10763 bound_to 10752
  154.2647  135.2781  155.2765 H   0  0  0  0  0  0  0  0  0  0  0  0  # atno 10764 bound_to 10752
  154.5175  135.5824  153.6711 H   0  0  0  0  0  0  0  0  0  0  0  0  # atno 10765 bound_to 10752
  140.5075  134.0685  155.7809 H   0  0  0  0  0  0  0  0  0  0  0  0  # atno 11005 bound_to 11000
  146.3523  140.1117  142.8603 LP  0  0  0  0  0  0  0  0  0  0  0  0  # atno 17320 bound_to 7965
  145.0780  140.9201  143.4842 LP  0  0  0  0  0  0  0  0  0  0  0  0  # atno 17321 bound_to 7965
  140.7314  143.2694  151.3937 LP  0  0  0  0  0  0  0  0  0  0  0  0  # atno 17342 bound_to 10162
  139.6095  144.1128  152.2284 LP  0  0  0  0  0  0  0  0  0  0  0  0  # atno 17343 bound_to 10162
  157.6103  130.8578  149.8941 LP  0  0  0  0  0  0  0  0  0  0  0  0  # atno 17370 bound_to 10713
  156.0645  130.3694  150.0908 LP  0  0  0  0  0  0  0  0  0  0  0  0  # atno 17371 bound_to 10713
  141.1403  133.9150  157.2341 LP  0  0  0  0  0  0  0  0  0  0  0  0  # atno 17394 bound_to 11000
  139.9678  135.0137  156.9432 LP  0  0  0  0  0  0  0  0  0  0  0  0  # atno 17395 bound_to 11000

$$$$
