AV-unprocessed.smi:1875|AV-procd|sdf|7616|dock2
  -GOLD-   22720 9343D 1   1.00000     0.00000
 Structure written by MMmdl.
 49 51  0  0  0  0  0  0  0  0  3 V2000
  148.8467  132.3541  153.3442 C   0  0  0  0  0  0  0  0  0  0  0  0
  149.6425  133.0654  154.4186 C   0  0  0  0  0  0  0  0  0  0  0  0
  150.3276  132.2996  155.2731 N   0  0  0  0  0  0  0  0  0  0  0  0
  151.0362  132.9342  156.2321 C   0  0  0  0  0  0  0  0  0  0  0  0
  151.0632  134.3407  156.3246 C   0  0  0  0  0  0  0  0  0  0  0  0
  150.3029  135.0433  155.3665 C   0  0  0  0  0  0  0  0  0  0  0  0
  150.2663  136.5603  155.3478 C   0  0  0  0  0  0  0  0  0  0  0  0
  150.7475  137.1056  154.0608 N   0  3  0  0  0  0  0  0  0  0  0  0
  150.9380  138.5721  154.0401 C   0  0  0  0  0  0  0  0  0  0  0  0
  152.2560  138.9808  154.7231 C   0  0  2  0  0  0  0  0  0  0  0  0
  153.1763  137.9135  154.6253 O   0  0  0  0  0  0  0  0  0  0  0  0
  152.0945  139.3279  156.2179 C   0  0  0  0  0  0  0  0  0  0  0  0
  151.5279  140.6643  156.4455 N   0  0  0  0  0  0  0  0  0  0  0  0
  150.6350  141.3777  155.7051 C   0  0  0  0  0  0  0  0  0  0  0  0
  150.4311  142.5648  156.3405 N   0  3  0  0  0  0  0  0  0  0  0  0
  151.1953  142.6057  157.5087 C   0  0  0  0  0  0  0  0  0  0  0  0
  151.3208  143.5903  158.4814 C   0  0  0  0  0  0  0  0  0  0  0  0
  152.1864  143.3195  159.5653 C   0  0  0  0  0  0  0  0  0  0  0  0
  152.3439  144.3744  160.6471 C   0  0  0  0  0  0  0  0  0  0  0  0
  152.8932  142.0916  159.6468 C   0  0  0  0  0  0  0  0  0  0  0  0
  153.8178  141.8101  160.8192 C   0  0  0  0  0  0  0  0  0  0  0  0
  152.7547  141.1040  158.6450 C   0  0  0  0  0  0  0  0  0  0  0  0
  151.8978  141.3874  157.5845 C   0  0  0  0  0  0  0  0  0  0  0  0
  149.5919  134.4009  154.4125 N   0  0  0  0  0  0  0  0  0  0  0  0
  149.0522  131.2827  153.3376 H   0  0  0  0  0  0  0  0  0  0  0  0
  149.0953  132.7523  152.3601 H   0  0  0  0  0  0  0  0  0  0  0  0
  147.7787  132.4944  153.5125 H   0  0  0  0  0  0  0  0  0  0  0  0
  151.5882  132.3177  156.9258 H   0  0  0  0  0  0  0  0  0  0  0  0
  151.6348  134.8457  157.0896 H   0  0  0  0  0  0  0  0  0  0  0  0
  149.2587  136.9238  155.5556 H   0  0  0  0  0  0  0  0  0  0  0  0
  150.9066  136.9375  156.1455 H   0  0  0  0  0  0  0  0  0  0  0  0
  151.6371  136.6766  153.8497 H   0  0  0  0  0  0  0  0  0  0  0  0
  150.9535  138.8989  153.0013 H   0  0  0  0  0  0  0  0  0  0  0  0
  150.0892  139.0641  154.5172 H   0  0  0  0  0  0  0  0  0  0  0  0
  152.6799  139.8385  154.1997 H   0  0  0  0  0  0  0  0  0  0  0  0
  153.7886  138.1010  153.9297 H   0  0  0  0  0  0  0  0  0  0  0  0
  151.4316  138.6098  156.7030 H   0  0  0  0  0  0  0  0  0  0  0  0
  153.0507  139.2682  156.7400 H   0  0  0  0  0  0  0  0  0  0  0  0
  150.1749  141.0630  154.7792 H   0  0  0  0  0  0  0  0  0  0  0  0
  150.7785  144.5224  158.4144 H   0  0  0  0  0  0  0  0  0  0  0  0
  152.0248  143.9827  161.6132 H   0  0  0  0  0  0  0  0  0  0  0  0
  151.7439  145.2590  160.4313 H   0  0  0  0  0  0  0  0  0  0  0  0
  153.3847  144.6897  160.7265 H   0  0  0  0  0  0  0  0  0  0  0  0
  154.2681  140.8198  160.7444 H   0  0  0  0  0  0  0  0  0  0  0  0
  153.2688  141.8542  161.7601 H   0  0  0  0  0  0  0  0  0  0  0  0
  154.6250  142.5421  160.8541 H   0  0  0  0  0  0  0  0  0  0  0  0
  153.2918  140.1689  158.7074 H   0  0  0  0  0  0  0  0  0  0  0  0
  150.0893  136.8510  153.3384 H   0  0  0  0  0  0  0  0  0  0  0  0
  149.8093  143.2893  156.0042 H   0  0  0  0  0  0  0  0  0  0  0  0
  1  2  1  0  0  0  0
  1 25  1  0  0  0  0
  1 26  1  0  0  0  0
  1 27  1  0  0  0  0
  2 24  1  0  0  0  0
  2  3  2  0  0  0  0
  3  4  1  0  0  0  0
  4  5  2  0  0  0  0
  4 28  1  0  0  0  0
  5  6  1  0  0  0  0
  5 29  1  0  0  0  0
  6  7  1  0  0  0  0
  6 24  2  0  0  0  0
  7  8  1  0  0  0  0
  7 30  1  0  0  0  0
  7 31  1  0  0  0  0
  8  9  1  0  0  0  0
  8 32  1  0  0  0  0
  8 48  1  0  0  0  0
  9 10  1  0  0  0  0
  9 33  1  0  0  0  0
  9 34  1  0  0  0  0
 10 11  1  0  0  0  0
 10 12  1  0  0  0  0
 10 35  1  0  0  0  0
 11 36  1  0  0  0  0
 12 13  1  0  0  0  0
 12 37  1  0  0  0  0
 12 38  1  0  0  0  0
 13 23  1  0  0  0  0
 13 14  1  0  0  0  0
 14 15  2  0  0  0  0
 14 39  1  0  0  0  0
 15 16  1  0  0  0  0
 15 49  1  0  0  0  0
 16 23  2  0  0  0  0
 16 17  1  0  0  0  0
 17 18  2  0  0  0  0
 17 40  1  0  0  0  0
 18 19  1  0  0  0  0
 18 20  1  0  0  0  0
 19 41  1  0  0  0  0
 19 42  1  0  0  0  0
 19 43  1  0  0  0  0
 20 21  1  0  0  0  0
 20 22  2  0  0  0  0
 21 44  1  0  0  0  0
 21 45  1  0  0  0  0
 21 46  1  0  0  0  0
 22 23  1  0  0  0  0
 22 47  1  0  0  0  0
M  CHG  1   8   1
M  CHG  1  15   1
M  END
> <s_m_source_file>
AV-unprocessed.smi

> <i_m_source_file_index>
1875

> <i_lp_mmshare_version>
43012

> <i_f3d_flags>
0

> <s_epik_input>
W0NIM11jMW5bY0hdW2NIXWMobjEpW0NIMl1bTkhdW0NIMl1bQ0BIXShbT0hdKVtDSDJdbihbY0hdbjIpYyhjMjMpW2NIXWMoW0NIM10pYyhbY0hdMylbQ0gzXQ==

> <s_epik_cmdline>
J2VwaWtfcHl0aG9uJywgJy1waCcsICc3LjAnLCAnLXRuJywgJzgnLCAnLW1hJywgJzIwMCcsICctbWV0YWxfYmluZGluZycsICctaW1hZScsICc8aW5maWxlLm1hZT4nLCAnLW9tYWUnLCAnPG91dGZpbGUubWFlPic=

> <r_lp_tautomer_probability>
1

> <r_epik_Ionization_Penalty>
1.27527

> <r_epik_Ionization_Penalty_Charging>
1.27526

> <r_epik_Ionization_Penalty_Neutral>
8.72389e-06

> <r_epik_State_Penalty>
1.28654

> <r_epik_Charging_Adjusted_Penalty>
2.5618

> <i_epik_Tot_Q>
2

> <i_epik_Tot_abs_Q>
2

> <r_epik_Metal_State_Penalty>
1.36882

> <b_epik_Metal_Only>
0

> <s_epik_Chemistry_Notes>
This compound contains an electron-poor aromatic ring that is susceptible to covalent hydrolysis at low pH, typically resulting in measured values for nitrogen ring protonation that are around two units higher than predicted values.

> <s_lp_Force_Field>
OPLS_2005

> <r_lp_Energy>
13.455

> <b_lp_Chiralities_Consistent>
1

> <s_lp_Variant>
AV-unprocessed.smi:1875-5

> <Gold.Version>
5.8.1

> <Gold.Id.Protein>
6NUR|6NUR_protein|mol2

> <Gold.PLP.Fitness>
65.1291

> <Gold.PLP.PLP>
-54.8458

> <Gold.PLP.part.hbond>
-4.0000

> <Gold.PLP.part.metal>
0.0000

> <Gold.PLP.part.buried>
-7.5195

> <Gold.PLP.part.nonpolar>
-43.0287

> <Gold.PLP.part.repulsive>
0.3134

> <Gold.PLP.ligand.clash>
0.0000

> <Gold.PLP.ligand.torsion>
1.0756

> <Gold.PLP.Chemscore.Hbond>
4.0988

> <Gold.PLP.Chemscore.CHOScore>
0.0000

> <Gold.PLP.Chemscore.Metal>
0.0000

> <Gold.Chemscore.Hbonds>
donor molecule, donor type, donor heavy atom, donor atom, acceptor molecule, acceptor atom, score
      L1  H     8    48       P1  7948  1.50
      L1  H    15    49       P1  8028  2.00
      P1  H 10752 10765       L1    11  0.08

> <Gold.PLP.Chemscore.Internal.Correction>
0.1381

> <Gold.Rescore>
     Score         DG    S(hbond)    S(metal)    S(lipo)     H(rot)  DE(clash)    DE(int)     intcor
     17.20     -18.45       1.78        0.00     123.10       2.88       0.03       1.21       ----

> <Gold.Chemscore.Fitness>
17.2035

> <Gold.Chemscore.DG>
-18.4504

> <Gold.Chemscore.ZeroCoef>
-5.4800

> <Gold.Chemscore.Hbond>
1.7814

> <Gold.Chemscore.Metal>
0.0000

> <Gold.Chemscore.Lipo>
123.1011

> <Gold.Chemscore.Internal_Hbond>
0.0000

> <Gold.Chemscore.DEClash>
0.0323

> <Gold.Chemscore.DEInternal>
1.2146

> <Gold.Chemscore.Rot>
2.8838

> <Gold.Chemscore.Internal.Correction>
   9.000000E+99

> <Gold.Chemscore.Hbonds>
donor molecule, donor type, donor heavy atom, donor atom, acceptor molecule, acceptor atom, score
      L1  H     8    48       P1  7948  0.09
      L1  H    15    49       P1  8028  1.00
      P1  H 10752 10765       L1    11  0.03

> <Gold.Chemscore.Hbond.Weighted>
-5.9500

> <Gold.Chemscore.Metal.Weighted>
-0.0000

> <Gold.Chemscore.Lipo.Weighted>
-14.4028

> <Gold.Chemscore.Internal_Hbond.Weighted>
0.0000

> <Gold.Chemscore.DEClash.Weighted>
0.0323

> <Gold.Chemscore.DEInternal.Weighted>
1.2146

> <Gold.Chemscore.Rot.Weighted>
7.3824

> <Gold.Chemscore.Internal.Correction.Weighted>
   9.000000E+99

> <Gold.Protein.RotatedTorsions>
[ 6907 6896 6895 6894 ] final -102.56 input  -60.11 | X-H torsion
[ 7974 7965 7964 7962 ] final   33.14 input  175.53 | X-H torsion
[ 8008 7997 7996 7995 ] final  -26.93 input   59.86 | X-H torsion
[ 10167 10162 10161 10158 ] final   12.66 input  -65.29 | X-H torsion
[ 10718 10713 10712 10709 ] final   25.99 input   66.30 | X-H torsion
[ 10763 10752 10751 10750 ] final  174.04 input  -60.55 | X-H torsion
[ 11005 11000 10999 10996 ] final  -51.87 input  -57.11 | X-H torsion

> <Gold.Protein.ActiveResidues>
 VAL166  LYS551  ARG553  GLY616  TRP617  ASP618  TYR619  PRO620  LYS621  CYS622 
 ASP623  PHE694  ASN695  SER759  ASP760  ASP761  ALA762  ILE779  LEU786  VAL792 
 PHE793  MET794  SER795  GLU796  ALA797  LYS798  CYS799  TRP800  GLU811  SER814 

> <Gold.Protein.RotatedAtoms>
  150.7202  134.0562  159.3815 H   0  0  0  0  0  0  0  0  0  0  0  0  # atno 6907 bound_to 6896
  151.8540  135.0545  160.0471 H   0  0  0  0  0  0  0  0  0  0  0  0  # atno 6908 bound_to 6896
  152.2768  133.5397  159.5509 H   0  0  0  0  0  0  0  0  0  0  0  0  # atno 6909 bound_to 6896
  146.1440  139.6435  142.9144 H   0  0  0  0  0  0  0  0  0  0  0  0  # atno 7974 bound_to 7965
  154.4401  140.1886  156.0853 H   0  0  0  0  0  0  0  0  0  0  0  0  # atno 8008 bound_to 7997
  156.0407  140.3320  155.7215 H   0  0  0  0  0  0  0  0  0  0  0  0  # atno 8009 bound_to 7997
  155.5703  140.0612  157.2799 H   0  0  0  0  0  0  0  0  0  0  0  0  # atno 8010 bound_to 7997
  140.6054  143.8519  150.7008 H   0  0  0  0  0  0  0  0  0  0  0  0  # atno 10167 bound_to 10162
  157.2007  130.6889  149.6187 H   0  0  0  0  0  0  0  0  0  0  0  0  # atno 10718 bound_to 10713
  154.4485  135.2764  155.1798 H   0  0  0  0  0  0  0  0  0  0  0  0  # atno 10763 bound_to 10752
  154.3635  135.6124  153.5706 H   0  0  0  0  0  0  0  0  0  0  0  0  # atno 10764 bound_to 10752
  152.9845  135.5840  154.4825 H   0  0  0  0  0  0  0  0  0  0  0  0  # atno 10765 bound_to 10752
  141.0894  133.6636  156.3940 H   0  0  0  0  0  0  0  0  0  0  0  0  # atno 11005 bound_to 11000
  145.4981  141.0438  143.2556 LP  0  0  0  0  0  0  0  0  0  0  0  0  # atno 17320 bound_to 7965
  144.7825  139.6496  143.7148 LP  0  0  0  0  0  0  0  0  0  0  0  0  # atno 17321 bound_to 7965
  140.2075  143.3910  152.1744 LP  0  0  0  0  0  0  0  0  0  0  0  0  # atno 17342 bound_to 10162
  139.5321  144.7170  151.5020 LP  0  0  0  0  0  0  0  0  0  0  0  0  # atno 17343 bound_to 10162
  155.9701  130.4583  150.5996 LP  0  0  0  0  0  0  0  0  0  0  0  0  # atno 17370 bound_to 10713
  157.3769  131.0774  151.1510 LP  0  0  0  0  0  0  0  0  0  0  0  0  # atno 17371 bound_to 10713
  140.5288  134.6233  157.5343 LP  0  0  0  0  0  0  0  0  0  0  0  0  # atno 17394 bound_to 11000
  139.9717  134.7282  156.0028 LP  0  0  0  0  0  0  0  0  0  0  0  0  # atno 17395 bound_to 11000

$$$$
