#       Name:                AV-unprocessed.smi:3141
#       Creating user name   scv26
#       Creation time:       Fri Mar 27 17:36:34 2020


#       File generated by GOLD software.
#

@<TRIPOS>MOLECULE
AV-unprocessed.smi:3141
    38    40     1
SMALL
NO_CHARGES


@<TRIPOS>ATOM
      1 ****        -0.0869   1.9422   0.8826 O.2            1 S1                 0.0000
      2 ****        -0.5776   1.2916  -0.0401 C.2            1 S1                 0.0000
      3 ****        -1.8890   1.2238  -0.3020 N.am           1 S1                 0.0000
      4 ****        -2.9151   1.8807   0.4406 C.3            1 S1                 0.0000
      5 ****        -4.2513   1.1801   0.5596 C.3            1 S1                 0.0000
      6 ****        -4.1183   2.3906  -0.3225 C.3            1 S1                 0.0000
      7 ****         0.1378   0.5480  -0.8963 N.am           1 S1                 0.0000
      8 ****         1.5974   0.4258  -0.9056 C.3            1 S1                 0.0000
      9 ****         2.0822   0.1610  -2.3454 C.3            1 S1                 0.0000
     10 ****         2.5432  -1.3057  -2.4067 C.3            1 S1                 0.0000
     11 ****         2.0810  -1.9503  -1.0989 C.3            1 S1                 0.0000
     12 ****         2.1150  -0.7867  -0.1030 C.3            1 S1                 0.0000
     13 ****         1.4642  -1.0205   1.2004 N.pl3          1 S1                 0.0000
     14 ****         1.8144  -0.4314   2.3891 C.2            1 S1                 0.0000
     15 ****         0.9316  -0.8871   3.3331 C.2            1 S1                 0.0000
     16 ****         0.0716  -1.7289   2.6826 N.pl3          1 S1                 1.0000
     17 ****         0.3913  -1.8050   1.3869 C.2            1 S1                 0.0000
     18 ****        -2.1882   0.6635  -1.0868 H              1 S1                 0.0000
     19 ****        -2.6085   2.4737   1.3013 H              1 S1                 0.0000
     20 ****        -4.3658   0.2140   0.0716 H              1 S1                 0.0000
     21 ****        -4.7975   1.2970   1.4934 H              1 S1                 0.0000
     22 ****        -4.5757   3.3158   0.0226 H              1 S1                 0.0000
     23 ****        -4.1436   2.2333  -1.3992 H              1 S1                 0.0000
     24 ****        -0.3609   0.0488  -1.6185 H              1 S1                 0.0000
     25 ****         2.0416   1.3489  -0.5281 H              1 S1                 0.0000
     26 ****         1.2994   0.3549  -3.0805 H              1 S1                 0.0000
     27 ****         2.9144   0.8201  -2.5957 H              1 S1                 0.0000
     28 ****         2.1506  -1.8268  -3.2803 H              1 S1                 0.0000
     29 ****         3.6317  -1.3424  -2.4674 H              1 S1                 0.0000
     30 ****         1.0677  -2.3282  -1.2341 H              1 S1                 0.0000
     31 ****         2.7152  -2.7843  -0.7968 H              1 S1                 0.0000
     32 ****         3.1663  -0.5991   0.1239 H              1 S1                 0.0000
     33 ****         2.6430   0.2572   2.4719 H              1 S1                 0.0000
     34 ****         0.8494  -0.6753   4.3893 H              1 S1                 0.0000
     35 ****        -0.1292  -2.3817   0.6444 H              1 S1                 0.0000
     36 ****        -0.7019  -2.2175   3.1159 H              1 S1                 0.0000
     37 ****        -0.6789   2.4658   1.4953 LP             1 S1                 0.0000
     38 ****         0.9037   1.9471   1.0194 LP             1 S1                 0.0000
@<TRIPOS>BOND
    1    1    2 2     
    2    2    3 am    
    3    2    7 am    
    4    3    4 1     
    5    3   18 1     
    6    4    6 1     
    7    4    5 1     
    8    4   19 1     
    9    5    6 1     
   10    5   20 1     
   11    5   21 1     
   12    6   22 1     
   13    6   23 1     
   14    7    8 1     
   15    7   24 1     
   16    8   12 1     
   17    8    9 1     
   18    8   25 1     
   19    9   10 1     
   20    9   26 1     
   21    9   27 1     
   22   10   11 1     
   23   10   28 1     
   24   10   29 1     
   25   11   12 1     
   26   11   30 1     
   27   11   31 1     
   28   12   13 1     
   29   12   32 1     
   30   13   17 1     
   31   13   14 1     
   32   14   15 2     
   33   14   33 1     
   34   15   16 1     
   35   15   34 1     
   36   16   17 2     
   37   16   36 1     
   38   17   35 1     
   39    1   37 1     
   40    1   38 1     
@<TRIPOS>SUBSTRUCTURE
      1 S1             1
@<TRIPOS>SET
LONE_PAIRS      STATIC     ATOMS    <user>   **** ""
2 37 38
DONOR_HYDROGENS      STATIC     ATOMS    <user>   **** ""
3 18 24 36
ATOM$BLUE        STATIC     ATOMS    COLORGROUP SYSTEM
2 37 38
ATOM$RED        STATIC     ATOMS    COLORGROUP SYSTEM
3 18 24 36
