AV-unprocessed.smi:99|AV-procd|sdf|871|dock4
  -GOLD-   2262017333D 1   1.00000     0.00000
 Structure written by MMmdl.
 53 56  0  0  0  0  0  0  0  0  1 V2000
  146.8497  137.7802  160.3865 O   0  0  0  0  0  0  0  0  0  0  0  0
  147.1192  136.6253  160.7236 C   0  0  0  0  0  0  0  0  0  0  0  0
  148.2591  135.9950  160.3781 O   0  0  0  0  0  0  0  0  0  0  0  0
  149.3871  136.7481  159.9649 C   0  0  0  0  0  0  0  0  0  0  0  0
  149.0369  137.5305  158.6954 C   0  0  2  0  0  0  0  0  0  0  0  0
  148.2094  136.7435  157.8544 O   0  0  0  0  0  0  0  0  0  0  0  0
  148.3340  137.1906  156.5419 C   0  0  2  0  0  0  0  0  0  0  0  0
  148.2608  135.9808  155.6358 N   0  0  0  0  0  0  0  0  0  0  0  0
  149.0884  134.8881  155.8553 C   0  0  0  0  0  0  0  0  0  0  0  0
  149.0610  133.7737  155.0869 C   0  0  0  0  0  0  0  0  0  0  0  0
  148.1328  133.6718  153.9653 C   0  0  0  0  0  0  0  0  0  0  0  0
  148.0318  132.7039  153.2145 O   0  0  0  0  0  0  0  0  0  0  0  0
  147.3217  134.7955  153.7793 N   0  0  0  0  0  0  0  0  0  0  0  0
  147.3431  135.9511  154.5625 C   0  0  0  0  0  0  0  0  0  0  0  0
  146.5890  136.8862  154.2964 O   0  0  0  0  0  0  0  0  0  0  0  0
  149.6648  137.9684  156.4247 C   0  0  2  0  0  0  0  0  0  0  0  0
  150.5653  137.4675  155.4529 O   0  0  0  0  0  0  0  0  0  0  0  0
  150.2561  137.8343  157.8240 C   0  0  1  0  0  0  0  0  0  0  0  0
  150.8445  139.0596  158.2434 O   0  0  0  0  0  0  0  0  0  0  0  0
  150.1887  140.2293  158.0844 C   0  0  0  0  0  0  0  0  0  0  0  0
  149.0157  140.3100  157.7149 O   0  0  0  0  0  0  0  0  0  0  0  0
  151.0314  141.4158  158.4093 C   0  0  0  0  0  0  0  0  0  0  0  0
  152.1125  141.2717  159.3099 C   0  0  0  0  0  0  0  0  0  0  0  0
  152.9301  142.3723  159.6314 C   0  0  0  0  0  0  0  0  0  0  0  0
  152.6775  143.6307  159.0551 C   0  0  0  0  0  0  0  0  0  0  0  0
  151.6052  143.7874  158.1576 C   0  0  0  0  0  0  0  0  0  0  0  0
  150.7854  142.6879  157.8358 C   0  0  0  0  0  0  0  0  0  0  0  0
  146.2165  135.7789  161.5565 C   0  0  0  0  0  0  0  0  0  0  0  0
  145.0296  136.3411  162.0819 C   0  0  0  0  0  0  0  0  0  0  0  0
  144.1580  135.5672  162.8727 C   0  0  0  0  0  0  0  0  0  0  0  0
  144.4630  134.2217  163.1485 C   0  0  0  0  0  0  0  0  0  0  0  0
  145.6409  133.6507  162.6323 C   0  0  0  0  0  0  0  0  0  0  0  0
  146.5136  134.4230  161.8411 C   0  0  0  0  0  0  0  0  0  0  0  0
  146.6673  134.7703  153.0109 H   0  0  0  0  0  0  0  0  0  0  0  0
  149.6612  137.4395  160.7630 H   0  0  0  0  0  0  0  0  0  0  0  0
  150.2424  136.0951  159.7852 H   0  0  0  0  0  0  0  0  0  0  0  0
  148.5103  138.4559  158.9373 H   0  0  0  0  0  0  0  0  0  0  0  0
  147.4690  137.8203  156.3289 H   0  0  0  0  0  0  0  0  0  0  0  0
  149.7960  134.9239  156.6716 H   0  0  0  0  0  0  0  0  0  0  0  0
  149.7300  132.9530  155.3026 H   0  0  0  0  0  0  0  0  0  0  0  0
  149.4242  139.0082  156.1983 H   0  0  0  0  0  0  0  0  0  0  0  0
  151.1628  136.8695  155.8759 H   0  0  0  0  0  0  0  0  0  0  0  0
  150.9498  136.9928  157.8732 H   0  0  0  0  0  0  0  0  0  0  0  0
  152.3272  140.3150  159.7645 H   0  0  0  0  0  0  0  0  0  0  0  0
  153.7527  142.2498  160.3206 H   0  0  0  0  0  0  0  0  0  0  0  0
  153.3058  144.4743  159.3007 H   0  0  0  0  0  0  0  0  0  0  0  0
  151.4113  144.7528  157.7137 H   0  0  0  0  0  0  0  0  0  0  0  0
  149.9727  142.8423  157.1412 H   0  0  0  0  0  0  0  0  0  0  0  0
  144.7739  137.3723  161.8840 H   0  0  0  0  0  0  0  0  0  0  0  0
  143.2543  136.0072  163.2681 H   0  0  0  0  0  0  0  0  0  0  0  0
  143.7949  133.6283  163.7551 H   0  0  0  0  0  0  0  0  0  0  0  0
  145.8761  132.6180  162.8438 H   0  0  0  0  0  0  0  0  0  0  0  0
  147.4095  133.9538  161.4615 H   0  0  0  0  0  0  0  0  0  0  0  0
  1  2  2  0  0  0  0
  2  3  1  0  0  0  0
  2 28  1  0  0  0  0
  3  4  1  0  0  0  0
  4  5  1  0  0  0  0
  4 35  1  0  0  0  0
  4 36  1  0  0  0  0
  5 18  1  0  0  0  0
  5  6  1  0  0  0  0
  5 37  1  0  0  0  0
  6  7  1  0  0  0  0
  7  8  1  0  0  0  0
  7 16  1  0  0  0  0
  7 38  1  0  0  0  0
  8 14  1  0  0  0  0
  8  9  1  0  0  0  0
  9 10  2  0  0  0  0
  9 39  1  0  0  0  0
 10 11  1  0  0  0  0
 10 40  1  0  0  0  0
 11 12  2  0  0  0  0
 11 13  1  0  0  0  0
 13 34  1  0  0  0  0
 13 14  1  0  0  0  0
 14 15  2  0  0  0  0
 16 17  1  0  0  0  0
 16 18  1  0  0  0  0
 16 41  1  0  0  0  0
 17 42  1  0  0  0  0
 18 19  1  0  0  0  0
 18 43  1  0  0  0  0
 19 20  1  0  0  0  0
 20 21  2  0  0  0  0
 20 22  1  0  0  0  0
 22 27  1  0  0  0  0
 22 23  2  0  0  0  0
 23 24  1  0  0  0  0
 23 44  1  0  0  0  0
 24 25  2  0  0  0  0
 24 45  1  0  0  0  0
 25 26  1  0  0  0  0
 25 46  1  0  0  0  0
 26 27  2  0  0  0  0
 26 47  1  0  0  0  0
 27 48  1  0  0  0  0
 28 33  1  0  0  0  0
 28 29  2  0  0  0  0
 29 30  1  0  0  0  0
 29 49  1  0  0  0  0
 30 31  2  0  0  0  0
 30 50  1  0  0  0  0
 31 32  1  0  0  0  0
 31 51  1  0  0  0  0
 32 33  2  0  0  0  0
 32 52  1  0  0  0  0
 33 53  1  0  0  0  0
M  END
> <s_m_source_file>
AV-unprocessed.smi

> <i_m_source_file_index>
99

> <i_lp_mmshare_version>
43012

> <i_f3d_flags>
0

> <s_epik_input>
W2NIXTFbY0hdW2NIXVtjSF1bY0hdYzFDKD1PKU9bQ0gyXVtDQEBIXTJPW0NAQEhdKG4zW2NIXVtjSF1jKD1PKVtuSF1jMz1PKVtDQEBIXShbT0hdKVtDQEhdMk9DKD1PKWM0W2NIXVtjSF1bY0hdW2NIXVtjSF00

> <s_epik_cmdline>
J2VwaWtfcHl0aG9uJywgJy1waCcsICc3LjAnLCAnLXRuJywgJzgnLCAnLW1hJywgJzIwMCcsICctbWV0YWxfYmluZGluZycsICctaW1hZScsICc8aW5maWxlLm1hZT4nLCAnLW9tYWUnLCAnPG91dGZpbGUubWFlPic=

> <r_lp_tautomer_probability>
1

> <r_epik_Ionization_Penalty>
0.00454555

> <r_epik_Ionization_Penalty_Charging>
0.0045191

> <r_epik_Ionization_Penalty_Neutral>
2.64449e-05

> <r_epik_State_Penalty>
-0

> <r_epik_Charging_Adjusted_Penalty>
0.0045191

> <i_epik_Tot_Q>
0

> <i_epik_Tot_abs_Q>
0

> <r_epik_Metal_State_Penalty>
1.27877

> <b_epik_Metal_Only>
0

> <s_epik_Chemistry_Notes>
This compound has an ester and may undergo hydrolysis at high or low pH. This compound contains an acetal/aminal-like group ( X-CH(R)-Y where X, Y are N, S, or O) that may be acid/base labile, releasing an aldehyde.

> <s_lp_Force_Field>
OPLS_2005

> <r_lp_Energy>
38.4241

> <b_lp_Chiralities_Consistent>
1

> <s_lp_Variant>
AV-unprocessed.smi:99-7

> <Gold.Version>
5.8.1

> <Gold.Id.Protein>
6NUR|6NUR_protein|mol2

> <Gold.PLP.Fitness>
47.2082

> <Gold.PLP.PLP>
-45.8874

> <Gold.PLP.part.hbond>
-1.8889

> <Gold.PLP.part.metal>
0.0000

> <Gold.PLP.part.buried>
-5.2146

> <Gold.PLP.part.nonpolar>
-40.2115

> <Gold.PLP.part.repulsive>
0.7741

> <Gold.PLP.ligand.clash>
0.0196

> <Gold.PLP.ligand.torsion>
1.0620

> <Gold.PLP.Chemscore.Hbond>
1.0000

> <Gold.PLP.Chemscore.CHOScore>
0.0000

> <Gold.PLP.Chemscore.Metal>
0.0000

> <Gold.Chemscore.Hbonds>
donor molecule, donor type, donor heavy atom, donor atom, acceptor molecule, acceptor atom, score
      P1  H  6934  6947       L1     1  0.65

> <Gold.PLP.Chemscore.Internal.Correction>
0.4644

> <Gold.Rescore>
     Score         DG    S(hbond)    S(metal)    S(lipo)     H(rot)  DE(clash)    DE(int)     intcor
      8.52     -14.72       0.96        0.00     121.34       3.19       0.03       6.16       ----

> <Gold.Chemscore.Fitness>
8.5239

> <Gold.Chemscore.DG>
-14.7152

> <Gold.Chemscore.ZeroCoef>
-5.4800

> <Gold.Chemscore.Hbond>
0.9599

> <Gold.Chemscore.Metal>
0.0000

> <Gold.Chemscore.Lipo>
121.3364

> <Gold.Chemscore.Internal_Hbond>
0.0000

> <Gold.Chemscore.DEClash>
0.0285

> <Gold.Chemscore.DEInternal>
6.1628

> <Gold.Chemscore.Rot>
3.1903

> <Gold.Chemscore.Internal.Correction>
   9.000000E+99

> <Gold.Chemscore.Hbonds>
donor molecule, donor type, donor heavy atom, donor atom, acceptor molecule, acceptor atom, score
      P1  H  6934  6947       L1     1  0.65

> <Gold.Chemscore.Hbond.Weighted>
-3.2059

> <Gold.Chemscore.Metal.Weighted>
-0.0000

> <Gold.Chemscore.Lipo.Weighted>
-14.1964

> <Gold.Chemscore.Internal_Hbond.Weighted>
0.0000

> <Gold.Chemscore.DEClash.Weighted>
0.0285

> <Gold.Chemscore.DEInternal.Weighted>
6.1628

> <Gold.Chemscore.Rot.Weighted>
8.1671

> <Gold.Chemscore.Internal.Correction.Weighted>
   9.000000E+99

> <Gold.Protein.RotatedTorsions>
[ 6907 6896 6895 6894 ] final  -89.36 input  -60.11 | X-H torsion
[ 7974 7965 7964 7962 ] final    2.09 input  175.53 | X-H torsion
[ 8008 7997 7996 7995 ] final -170.98 input   59.86 | X-H torsion
[ 10167 10162 10161 10158 ] final  121.15 input  -65.29 | X-H torsion
[ 10718 10713 10712 10709 ] final   17.78 input   66.30 | X-H torsion
[ 10763 10752 10751 10750 ] final  179.19 input  -60.55 | X-H torsion
[ 11005 11000 10999 10996 ] final  -40.42 input  -57.11 | X-H torsion

> <Gold.Protein.ActiveResidues>
 VAL166  LYS551  ARG553  GLY616  TRP617  ASP618  TYR619  PRO620  LYS621  CYS622 
 ASP623  PHE694  ASN695  SER759  ASP760  ASP761  ALA762  ILE779  LEU786  VAL792 
 PHE793  MET794  SER795  GLU796  ALA797  LYS798  CYS799  TRP800  GLU811  SER814 

> <Gold.Protein.RotatedAtoms>
  150.6873  134.2598  159.4544 H   0  0  0  0  0  0  0  0  0  0  0  0  # atno 6907 bound_to 6896
  152.0529  134.9640  160.0584 H   0  0  0  0  0  0  0  0  0  0  0  0  # atno 6908 bound_to 6896
  152.1097  133.4259  159.4662 H   0  0  0  0  0  0  0  0  0  0  0  0  # atno 6909 bound_to 6896
  146.2443  140.0889  142.8353 H   0  0  0  0  0  0  0  0  0  0  0  0  # atno 7974 bound_to 7965
  155.9256  140.1082  157.1173 H   0  0  0  0  0  0  0  0  0  0  0  0  # atno 8008 bound_to 7997
  154.4061  140.1247  156.4801 H   0  0  0  0  0  0  0  0  0  0  0  0  # atno 8009 bound_to 7997
  155.7143  140.3470  155.4990 H   0  0  0  0  0  0  0  0  0  0  0  0  # atno 8010 bound_to 7997
  139.5938  144.7034  151.3226 H   0  0  0  0  0  0  0  0  0  0  0  0  # atno 10167 bound_to 10162
  157.0869  130.6411  149.5839 H   0  0  0  0  0  0  0  0  0  0  0  0  # atno 10718 bound_to 10713
  154.5175  135.2792  155.1291 H   0  0  0  0  0  0  0  0  0  0  0  0  # atno 10763 bound_to 10752
  154.2861  135.6276  153.5370 H   0  0  0  0  0  0  0  0  0  0  0  0  # atno 10764 bound_to 10752
  152.9930  135.5663  154.5656 H   0  0  0  0  0  0  0  0  0  0  0  0  # atno 10765 bound_to 10752
  141.0173  133.6879  156.2319 H   0  0  0  0  0  0  0  0  0  0  0  0  # atno 11005 bound_to 11000
  145.0668  140.9127  143.4906 LP  0  0  0  0  0  0  0  0  0  0  0  0  # atno 17320 bound_to 7965
  145.1015  139.2819  143.5684 LP  0  0  0  0  0  0  0  0  0  0  0  0  # atno 17321 bound_to 7965
  140.7195  143.7175  150.7721 LP  0  0  0  0  0  0  0  0  0  0  0  0  # atno 17342 bound_to 10162
  140.0737  143.5036  152.2566 LP  0  0  0  0  0  0  0  0  0  0  0  0  # atno 17343 bound_to 10162
  155.9908  130.4961  150.7273 LP  0  0  0  0  0  0  0  0  0  0  0  0  # atno 17370 bound_to 10713
  157.4753  131.0897  151.0597 LP  0  0  0  0  0  0  0  0  0  0  0  0  # atno 17371 bound_to 10713
  140.6632  134.4945  157.5584 LP  0  0  0  0  0  0  0  0  0  0  0  0  # atno 17394 bound_to 11000
  139.9125  134.8315  156.1479 LP  0  0  0  0  0  0  0  0  0  0  0  0  # atno 17395 bound_to 11000

$$$$
