AV-unprocessed.smi:8|AV-procd|sdf|45|dock9
  -GOLD-   2262015163D 1   1.00000     0.00000
 Structure written by MMmdl.
 34 35  0  0  0  0  0  0  0  0  1 V2000
  150.4800  145.1609  160.4496 C   0  0  0  0  0  0  0  0  0  0  0  0
  151.9102  144.6699  160.7200 C   0  0  0  0  0  0  0  0  0  0  0  0
  152.2920  143.5617  159.8796 N   0  0  0  0  0  0  0  0  0  0  0  0
  151.6450  143.2740  158.6877 C   0  0  0  0  0  0  0  0  0  0  0  0
  151.9681  142.2245  157.8899 C   0  0  0  0  0  0  0  0  0  0  0  0
  151.2447  141.9627  156.5780 C   0  0  0  0  0  0  0  0  0  0  0  0
  150.7103  140.6101  156.4843 N   0  0  0  0  0  0  0  0  0  0  0  0
  151.2635  139.6869  155.5839 C   0  0  0  0  0  0  0  0  0  0  0  0
  152.4934  139.9282  155.0702 N   0  0  0  0  0  0  0  0  0  0  0  0
  152.9899  139.0287  154.2174 C   0  0  0  0  0  0  0  0  0  0  0  0
  152.3987  137.9038  153.8102 N   0  0  0  0  0  0  0  0  0  0  0  0
  151.1731  137.6475  154.3143 C   0  0  0  0  0  0  0  0  0  0  0  0
  150.5424  138.5228  155.2249 C   0  0  0  0  0  0  0  0  0  0  0  0
  149.1629  138.2150  155.7781 C   0  0  0  0  0  0  0  0  0  0  0  0
  153.0729  141.3410  158.2800 C   0  0  0  0  0  0  0  0  0  0  0  0
  153.4718  140.3714  157.6372 O   0  0  0  0  0  0  0  0  0  0  0  0
  153.6922  141.6656  159.4908 N   0  0  0  0  0  0  0  0  0  0  0  0
  153.3499  142.7341  160.3179 C   0  0  0  0  0  0  0  0  0  0  0  0
  153.9605  142.9163  161.3713 O   0  0  0  0  0  0  0  0  0  0  0  0
  154.4524  141.0741  159.7937 H   0  0  0  0  0  0  0  0  0  0  0  0
  150.2430  146.0217  161.0752 H   0  0  0  0  0  0  0  0  0  0  0  0
  149.7418  144.3871  160.6613 H   0  0  0  0  0  0  0  0  0  0  0  0
  150.3586  145.4636  159.4092 H   0  0  0  0  0  0  0  0  0  0  0  0
  152.6316  145.4649  160.5259 H   0  0  0  0  0  0  0  0  0  0  0  0
  152.0603  144.3690  161.7590 H   0  0  0  0  0  0  0  0  0  0  0  0
  150.8339  143.9182  158.3785 H   0  0  0  0  0  0  0  0  0  0  0  0
  150.4261  142.6738  156.4611 H   0  0  0  0  0  0  0  0  0  0  0  0
  151.9391  142.1412  155.7556 H   0  0  0  0  0  0  0  0  0  0  0  0
  149.8042  140.4187  156.8862 H   0  0  0  0  0  0  0  0  0  0  0  0
  153.9704  139.2341  153.8140 H   0  0  0  0  0  0  0  0  0  0  0  0
  150.6941  136.7367  153.9867 H   0  0  0  0  0  0  0  0  0  0  0  0
  148.7780  137.2767  155.3781 H   0  0  0  0  0  0  0  0  0  0  0  0
  148.4623  139.0082  155.5158 H   0  0  0  0  0  0  0  0  0  0  0  0
  149.1994  138.1305  156.8645 H   0  0  0  0  0  0  0  0  0  0  0  0
  1  2  1  0  0  0  0
  1 21  1  0  0  0  0
  1 22  1  0  0  0  0
  1 23  1  0  0  0  0
  2  3  1  0  0  0  0
  2 24  1  0  0  0  0
  2 25  1  0  0  0  0
  3 18  1  0  0  0  0
  3  4  1  0  0  0  0
  4  5  2  0  0  0  0
  4 26  1  0  0  0  0
  5  6  1  0  0  0  0
  5 15  1  0  0  0  0
  6  7  1  0  0  0  0
  6 27  1  0  0  0  0
  6 28  1  0  0  0  0
  7  8  1  0  0  0  0
  7 29  1  0  0  0  0
  8 13  1  0  0  0  0
  8  9  2  0  0  0  0
  9 10  1  0  0  0  0
 10 11  2  0  0  0  0
 10 30  1  0  0  0  0
 11 12  1  0  0  0  0
 12 13  2  0  0  0  0
 12 31  1  0  0  0  0
 13 14  1  0  0  0  0
 14 32  1  0  0  0  0
 14 33  1  0  0  0  0
 14 34  1  0  0  0  0
 15 16  2  0  0  0  0
 15 17  1  0  0  0  0
 17 20  1  0  0  0  0
 17 18  1  0  0  0  0
 18 19  2  0  0  0  0
M  END
> <s_m_source_file>
AV-unprocessed.smi

> <i_m_source_file_index>
8

> <i_lp_mmshare_version>
43012

> <i_f3d_flags>
0

> <s_epik_input>
W0NIM11bQ0gyXW4xW2NIXWMoYyg9TylbbkhdYzE9TylbQ0gyXVtOSF1jMm5bY0hdbltjSF1jMltDSDNd

> <s_epik_cmdline>
J2VwaWtfcHl0aG9uJywgJy1waCcsICc3LjAnLCAnLXRuJywgJzgnLCAnLW1hJywgJzIwMCcsICctbWV0YWxfYmluZGluZycsICctaW1hZScsICc8aW5maWxlLm1hZT4nLCAnLW9tYWUnLCAnPG91dGZpbGUubWFlPic=

> <r_lp_tautomer_probability>
0.999537

> <r_epik_Ionization_Penalty>
0.0165471

> <r_epik_Ionization_Penalty_Charging>
0.000694205

> <r_epik_Ionization_Penalty_Neutral>
0.0158529

> <r_epik_State_Penalty>
0.0119799

> <r_epik_Charging_Adjusted_Penalty>
0.0126741

> <i_epik_Tot_Q>
0

> <i_epik_Tot_abs_Q>
0

> <r_epik_Metal_State_Penalty>
0.262409

> <b_epik_Metal_Only>
0

> <s_lp_Force_Field>
OPLS_2005

> <r_lp_Energy>
9.23324

> <b_lp_Chiralities_Consistent>
1

> <s_lp_Variant>
AV-unprocessed.smi:8-1

> <Gold.Version>
5.8.1

> <Gold.Id.Protein>
6NUR|6NUR_protein|mol2

> <Gold.PLP.Fitness>
44.4597

> <Gold.PLP.PLP>
-36.6163

> <Gold.PLP.part.hbond>
-2.8285

> <Gold.PLP.part.metal>
0.0000

> <Gold.PLP.part.buried>
-7.6852

> <Gold.PLP.part.nonpolar>
-27.6547

> <Gold.PLP.part.repulsive>
0.3756

> <Gold.PLP.ligand.clash>
0.0000

> <Gold.PLP.ligand.torsion>
0.4341

> <Gold.PLP.Chemscore.Hbond>
1.8640

> <Gold.PLP.Chemscore.CHOScore>
1.0382

> <Gold.PLP.Chemscore.Metal>
0.0000

> <Gold.Chemscore.Hbonds>
donor molecule, donor type, donor heavy atom, donor atom, acceptor molecule, acceptor atom, score
      P1  H  7989  7998       L1     9  0.13
      P1  H  7997  8010       L1    16  0.33
      P1  H 10752 10764       L1    11  0.14
      L1  C    12    31       P1  7948  0.24
      L1  C    12    31       P1  7949  0.38

> <Gold.PLP.Chemscore.Internal.Correction>
0.0049

> <Gold.Rescore>
     Score         DG    S(hbond)    S(metal)    S(lipo)     H(rot)  DE(clash)    DE(int)     intcor
     11.15     -13.72       1.73        0.00      59.02       1.73       0.18       2.39       ----

> <Gold.Chemscore.Fitness>
11.1527

> <Gold.Chemscore.DG>
-13.7197

> <Gold.Chemscore.ZeroCoef>
-5.4800

> <Gold.Chemscore.Hbond>
1.7261

> <Gold.Chemscore.Metal>
0.0000

> <Gold.Chemscore.Lipo>
59.0168

> <Gold.Chemscore.Internal_Hbond>
0.0000

> <Gold.Chemscore.DEClash>
0.1805

> <Gold.Chemscore.DEInternal>
2.3865

> <Gold.Chemscore.Rot>
1.7307

> <Gold.Chemscore.Internal.Correction>
   9.000000E+99

> <Gold.Chemscore.Hbonds>
donor molecule, donor type, donor heavy atom, donor atom, acceptor molecule, acceptor atom, score
      P1  H  7997  8010       L1    16  0.33
      P1  H 10752 10764       L1    11  0.01

> <Gold.Chemscore.Hbond.Weighted>
-5.7652

> <Gold.Chemscore.Metal.Weighted>
-0.0000

> <Gold.Chemscore.Lipo.Weighted>
-6.9050

> <Gold.Chemscore.Internal_Hbond.Weighted>
0.0000

> <Gold.Chemscore.DEClash.Weighted>
0.1805

> <Gold.Chemscore.DEInternal.Weighted>
2.3865

> <Gold.Chemscore.Rot.Weighted>
4.4305

> <Gold.Chemscore.Internal.Correction.Weighted>
   9.000000E+99

> <Gold.Protein.RotatedTorsions>
[ 6907 6896 6895 6894 ] final   10.82 input  -60.11 | X-H torsion
[ 7974 7965 7964 7962 ] final  165.71 input  175.53 | X-H torsion
[ 8008 7997 7996 7995 ] final   45.37 input   59.86 | X-H torsion
[ 10167 10162 10161 10158 ] final   23.32 input  -65.29 | X-H torsion
[ 10718 10713 10712 10709 ] final  109.64 input   66.30 | X-H torsion
[ 10763 10752 10751 10750 ] final  -90.33 input  -60.55 | X-H torsion
[ 11005 11000 10999 10996 ] final   -6.45 input  -57.11 | X-H torsion

> <Gold.Protein.ActiveResidues>
 VAL166  LYS551  ARG553  GLY616  TRP617  ASP618  TYR619  PRO620  LYS621  CYS622 
 ASP623  PHE694  ASN695  SER759  ASP760  ASP761  ALA762  ILE779  LEU786  VAL792 
 PHE793  MET794  SER795  GLU796  ALA797  LYS798  CYS799  TRP800  GLU811  SER814 

> <Gold.Protein.RotatedAtoms>
  151.7445  135.0847  160.0320 H   0  0  0  0  0  0  0  0  0  0  0  0  # atno 6907 bound_to 6896
  152.3458  133.6116  159.5917 H   0  0  0  0  0  0  0  0  0  0  0  0  # atno 6908 bound_to 6896
  150.7508  133.9568  159.3544 H   0  0  0  0  0  0  0  0  0  0  0  0  # atno 6909 bound_to 6896
  144.7491  139.8510  143.6372 H   0  0  0  0  0  0  0  0  0  0  0  0  # atno 7974 bound_to 7965
  155.3347  140.3404  155.4239 H   0  0  0  0  0  0  0  0  0  0  0  0  # atno 8008 bound_to 7997
  156.1844  140.1675  156.8250 H   0  0  0  0  0  0  0  0  0  0  0  0  # atno 8009 bound_to 7997
  154.5369  140.0733  156.8426 H   0  0  0  0  0  0  0  0  0  0  0  0  # atno 8010 bound_to 7997
  140.5278  143.9893  150.6449 H   0  0  0  0  0  0  0  0  0  0  0  0  # atno 10167 bound_to 10162
  157.6532  131.0917  150.6483 H   0  0  0  0  0  0  0  0  0  0  0  0  # atno 10718 bound_to 10713
  154.6646  135.5308  153.8061 H   0  0  0  0  0  0  0  0  0  0  0  0  # atno 10763 bound_to 10752
  153.0463  135.6514  154.0819 H   0  0  0  0  0  0  0  0  0  0  0  0  # atno 10764 bound_to 10752
  154.0724  135.2953  155.3285 H   0  0  0  0  0  0  0  0  0  0  0  0  # atno 10765 bound_to 10752
  140.7021  133.8980  155.8691 H   0  0  0  0  0  0  0  0  0  0  0  0  # atno 11005 bound_to 11000
  146.1416  139.4474  143.0105 LP  0  0  0  0  0  0  0  0  0  0  0  0  # atno 17320 bound_to 7965
  145.7009  141.0136  143.1504 LP  0  0  0  0  0  0  0  0  0  0  0  0  # atno 17321 bound_to 7965
  140.3260  143.3107  152.0736 LP  0  0  0  0  0  0  0  0  0  0  0  0  # atno 17342 bound_to 10162
  139.4944  144.6542  151.6609 LP  0  0  0  0  0  0  0  0  0  0  0  0  # atno 17343 bound_to 10162
  156.6792  130.4562  149.5633 LP  0  0  0  0  0  0  0  0  0  0  0  0  # atno 17370 bound_to 10713
  156.1941  130.6578  151.1094 LP  0  0  0  0  0  0  0  0  0  0  0  0  # atno 17371 bound_to 10713
  141.0155  134.0962  157.4177 LP  0  0  0  0  0  0  0  0  0  0  0  0  # atno 17394 bound_to 11000
  139.8894  135.0104  156.6676 LP  0  0  0  0  0  0  0  0  0  0  0  0  # atno 17395 bound_to 11000

$$$$
