#       Name:                AV-unprocessed.smi:651
#       Creating user name   scv26
#       Creation time:       Fri Mar 27 00:11:03 2020


#       File generated by GOLD software.
#

@<TRIPOS>MOLECULE
AV-unprocessed.smi:651
    43    44     1
SMALL
NO_CHARGES


@<TRIPOS>ATOM
      1 ****        -3.4747   3.8428   1.3853 C.3            1 S1                 0.0000
      2 ****        -3.0432   2.3915   1.3633 C.ar           1 S1                 0.0000
      3 ****        -3.2354   1.5969   0.2136 C.ar           1 S1                 0.0000
      4 ****        -2.8119   0.2547   0.2479 C.ar           1 S1                 0.0000
      5 ****        -2.2114  -0.2398   1.4242 C.ar           1 S1                 0.0000
      6 ****        -1.7256  -1.6772   1.5091 C.3            1 S1                 0.0000
      7 ****        -0.2103  -1.7581   1.3075 C.2            1 S1                 0.0000
      8 ****         0.4953  -2.2923   2.1626 O.2            1 S1                 0.0000
      9 ****         0.2758  -1.2299   0.1733 N.am           1 S1                 0.0000
     10 ****         1.6870  -1.1789  -0.1972 C.3            1 S1                 0.0000
     11 ****         2.4614  -0.1246   0.6118 C.3            1 S1                 0.0000
     12 ****         3.5119   0.4164  -0.3521 C.3            1 S1                 0.0000
     13 ****         2.8001   0.4283  -1.7026 C.3            1 S1                 0.0000
     14 ****         1.8530  -0.7880  -1.6900 C.3            1 S1                 0.0000
     15 ****         2.3876  -1.9532  -2.5388 C.2            1 S1                 0.0000
     16 ****         1.5885  -2.4244  -3.4994 N.am           1 S1                 0.0000
     17 ****         3.5074  -2.4190  -2.3350 O.2            1 S1                 0.0000
     18 ****        -2.0675   0.6382   2.5198 C.ar           1 S1                 0.0000
     19 ****        -2.4718   1.9264   2.4960 N.ar           1 S1                 0.0000
     20 ****        -4.0758   4.0888   0.5094 H              1 S1                 0.0000
     21 ****        -2.6017   4.4958   1.3944 H              1 S1                 0.0000
     22 ****        -4.0708   4.0516   2.2741 H              1 S1                 0.0000
     23 ****        -3.6948   2.0038  -0.6753 H              1 S1                 0.0000
     24 ****        -2.9410  -0.3800  -0.6165 H              1 S1                 0.0000
     25 ****        -1.9928  -2.0921   2.4821 H              1 S1                 0.0000
     26 ****        -2.2234  -2.2895   0.7563 H              1 S1                 0.0000
     27 ****        -0.3798  -0.8103  -0.4697 H              1 S1                 0.0000
     28 ****         2.1346  -2.1571  -0.0067 H              1 S1                 0.0000
     29 ****         1.7982   0.6902   0.9079 H              1 S1                 0.0000
     30 ****         2.9016  -0.5363   1.5206 H              1 S1                 0.0000
     31 ****         3.8829   1.3999  -0.0626 H              1 S1                 0.0000
     32 ****         4.3629  -0.2650  -0.3887 H              1 S1                 0.0000
     33 ****         2.2113   1.3419  -1.7938 H              1 S1                 0.0000
     34 ****         3.5083   0.4235  -2.5326 H              1 S1                 0.0000
     35 ****         0.8969  -0.4704  -2.1114 H              1 S1                 0.0000
     36 ****         1.8949  -3.1893  -4.0827 H              1 S1                 0.0000
     37 ****         0.6772  -2.0123  -3.6385 H              1 S1                 0.0000
     38 ****        -1.6113   0.2995   3.4384 H              1 S1                 0.0000
     39 ****         0.0787  -2.6729   2.9881 LP             1 S1                 0.0000
     40 ****         1.4853  -2.3456   2.0319 LP             1 S1                 0.0000
     41 ****         4.0823  -2.0398  -1.6100 LP             1 S1                 0.0000
     42 ****         3.8431  -3.1769  -2.8944 LP             1 S1                 0.0000
     43 ****        -2.3519   2.5186   3.2929 LP             1 S1                 0.0000
@<TRIPOS>BOND
    1    1    2 1     
    2    1   20 1     
    3    1   21 1     
    4    1   22 1     
    5    2   19 ar    
    6    2    3 ar    
    7    3    4 ar    
    8    3   23 1     
    9    4    5 ar    
   10    4   24 1     
   11    5    6 1     
   12    5   18 ar    
   13    6    7 1     
   14    6   25 1     
   15    6   26 1     
   16    7    8 2     
   17    7    9 am    
   18    9   10 1     
   19    9   27 1     
   20   10   14 1     
   21   10   11 1     
   22   10   28 1     
   23   11   12 1     
   24   11   29 1     
   25   11   30 1     
   26   12   13 1     
   27   12   31 1     
   28   12   32 1     
   29   13   14 1     
   30   13   33 1     
   31   13   34 1     
   32   14   15 1     
   33   14   35 1     
   34   15   16 am    
   35   15   17 2     
   36   16   36 1     
   37   16   37 1     
   38   18   19 ar    
   39   18   38 1     
   40    8   39 1     
   41    8   40 1     
   42   17   41 1     
   43   17   42 1     
   44   19   43 1     
@<TRIPOS>SUBSTRUCTURE
      1 S1             1
@<TRIPOS>SET
LONE_PAIRS      STATIC     ATOMS    <user>   **** ""
5 39 40 41 42 43
DONOR_HYDROGENS      STATIC     ATOMS    <user>   **** ""
3 27 36 37
ATOM$BLUE        STATIC     ATOMS    COLORGROUP SYSTEM
5 39 40 41 42 43
ATOM$RED        STATIC     ATOMS    COLORGROUP SYSTEM
3 27 36 37
