AV-unprocessed.smi:1734|AV-procd|sdf|6981|dock1
  -GOLD-   22720 8193D 1   1.00000     0.00000
 Structure written by MMmdl.
 50 52  0  0  0  0  0  0  0  0  1 V2000
  147.6789  133.3037  152.6826 C   0  0  0  0  0  0  0  0  0  0  0  0
  146.3423  133.2783  151.9587 C   0  0  0  0  0  0  0  0  0  0  0  0
  145.7201  132.0381  151.7021 C   0  0  0  0  0  0  0  0  0  0  0  0
  144.4848  132.0160  151.0326 C   0  0  0  0  0  0  0  0  0  0  0  0
  143.9207  133.2431  150.6444 C   0  0  0  0  0  0  0  0  0  0  0  0
  144.5081  134.4328  150.8856 N   0  0  0  0  0  0  0  0  0  0  0  0
  145.7002  134.4722  151.5324 C   0  0  0  0  0  0  0  0  0  0  0  0
  146.3777  135.6905  151.8211 N   0  0  0  0  0  0  0  0  0  0  0  0
  145.8512  136.8914  152.1196 C   0  0  0  0  0  0  0  0  0  0  0  0
  144.6485  137.1412  152.2039 O   0  0  0  0  0  0  0  0  0  0  0  0
  146.8139  137.8036  152.3165 N   0  0  0  0  0  0  0  0  0  0  0  0
  146.6005  139.2093  152.6506 C   0  0  0  0  0  0  0  0  0  0  0  0
  147.2927  139.5927  153.9861 C   0  0  1  0  0  0  0  0  0  0  0  0
  148.8319  139.7978  153.8226 C   0  0  2  0  0  0  0  0  0  0  0  0
  149.7211  138.5839  154.1095 C   0  0  0  0  0  0  0  0  0  0  0  0
  150.7511  139.1103  155.1069 C   0  0  0  0  0  0  0  0  0  0  0  0
  150.8181  140.4984  154.8277 O   0  0  0  0  0  0  0  0  0  0  0  0
  149.4880  140.9432  154.6130 C   0  0  0  0  0  0  0  0  0  0  0  0
  146.5965  140.6340  154.7702 N   0  0  0  0  0  0  0  0  0  0  0  0
  145.2564  140.2363  155.1977 C   0  0  0  0  0  0  0  0  0  0  0  0
  144.6213  141.2799  156.1305 C   0  0  0  0  0  0  0  0  0  0  0  0
  144.5845  142.5400  155.4695 O   0  0  0  0  0  0  0  0  0  0  0  0
  145.8781  142.9933  155.0855 C   0  0  0  0  0  0  0  0  0  0  0  0
  146.5464  141.9612  154.1597 C   0  0  0  0  0  0  0  0  0  0  0  0
  148.0117  132.2970  152.9376 H   0  0  0  0  0  0  0  0  0  0  0  0
  147.6015  133.8752  153.6081 H   0  0  0  0  0  0  0  0  0  0  0  0
  148.4442  133.7609  152.0545 H   0  0  0  0  0  0  0  0  0  0  0  0
  146.1815  131.1124  152.0138 H   0  0  0  0  0  0  0  0  0  0  0  0
  143.9828  131.0832  150.8218 H   0  0  0  0  0  0  0  0  0  0  0  0
  142.9731  133.2713  150.1272 H   0  0  0  0  0  0  0  0  0  0  0  0
  147.3851  135.6383  151.7975 H   0  0  0  0  0  0  0  0  0  0  0  0
  147.7736  137.5040  152.2260 H   0  0  0  0  0  0  0  0  0  0  0  0
  146.9417  139.8631  151.8471 H   0  0  0  0  0  0  0  0  0  0  0  0
  145.5224  139.3476  152.7142 H   0  0  0  0  0  0  0  0  0  0  0  0
  147.2289  138.6937  154.6013 H   0  0  0  0  0  0  0  0  0  0  0  0
  149.0005  140.0400  152.7720 H   0  0  0  0  0  0  0  0  0  0  0  0
  149.1957  137.7134  154.5003 H   0  0  0  0  0  0  0  0  0  0  0  0
  150.2201  138.2698  153.1918 H   0  0  0  0  0  0  0  0  0  0  0  0
  150.4086  138.9624  156.1321 H   0  0  0  0  0  0  0  0  0  0  0  0
  151.7241  138.6304  154.9999 H   0  0  0  0  0  0  0  0  0  0  0  0
  149.4846  141.8824  154.0600 H   0  0  0  0  0  0  0  0  0  0  0  0
  149.0099  141.1308  155.5719 H   0  0  0  0  0  0  0  0  0  0  0  0
  144.6044  140.1070  154.3342 H   0  0  0  0  0  0  0  0  0  0  0  0
  145.2980  139.2742  155.7094 H   0  0  0  0  0  0  0  0  0  0  0  0
  143.6055  140.9851  156.3942 H   0  0  0  0  0  0  0  0  0  0  0  0
  145.1842  141.3626  157.0616 H   0  0  0  0  0  0  0  0  0  0  0  0
  145.7838  143.9526  154.5766 H   0  0  0  0  0  0  0  0  0  0  0  0
  146.4878  143.1622  155.9745 H   0  0  0  0  0  0  0  0  0  0  0  0
  147.5495  142.3177  153.9431 H   0  0  0  0  0  0  0  0  0  0  0  0
  146.0043  141.9213  153.2144 H   0  0  0  0  0  0  0  0  0  0  0  0
  1  2  1  0  0  0  0
  1 25  1  0  0  0  0
  1 26  1  0  0  0  0
  1 27  1  0  0  0  0
  2  7  1  0  0  0  0
  2  3  2  0  0  0  0
  3  4  1  0  0  0  0
  3 28  1  0  0  0  0
  4  5  2  0  0  0  0
  4 29  1  0  0  0  0
  5  6  1  0  0  0  0
  5 30  1  0  0  0  0
  6  7  2  0  0  0  0
  7  8  1  0  0  0  0
  8  9  1  0  0  0  0
  8 31  1  0  0  0  0
  9 10  2  0  0  0  0
  9 11  1  0  0  0  0
 11 12  1  0  0  0  0
 11 32  1  0  0  0  0
 12 13  1  0  0  0  0
 12 33  1  0  0  0  0
 12 34  1  0  0  0  0
 13 14  1  0  0  0  0
 13 19  1  0  0  0  0
 13 35  1  0  0  0  0
 14 18  1  0  0  0  0
 14 15  1  0  0  0  0
 14 36  1  0  0  0  0
 15 16  1  0  0  0  0
 15 37  1  0  0  0  0
 15 38  1  0  0  0  0
 16 17  1  0  0  0  0
 16 39  1  0  0  0  0
 16 40  1  0  0  0  0
 17 18  1  0  0  0  0
 18 41  1  0  0  0  0
 18 42  1  0  0  0  0
 19 24  1  0  0  0  0
 19 20  1  0  0  0  0
 20 21  1  0  0  0  0
 20 43  1  0  0  0  0
 20 44  1  0  0  0  0
 21 22  1  0  0  0  0
 21 45  1  0  0  0  0
 21 46  1  0  0  0  0
 22 23  1  0  0  0  0
 23 24  1  0  0  0  0
 23 47  1  0  0  0  0
 23 48  1  0  0  0  0
 24 49  1  0  0  0  0
 24 50  1  0  0  0  0
M  END
> <s_m_source_file>
AV-unprocessed.smi

> <i_m_source_file_index>
1734

> <i_lp_mmshare_version>
43012

> <i_f3d_flags>
0

> <s_epik_input>
W0NIM11jMVtjSF1bY0hdW2NIXW5jMVtOSF1DKD1PKVtOSF1bQ0gyXVtDQEhdKFtDQEBIXTJbQ0gyXVtDSDJdT1tDSDJdMilOM1tDSDJdW0NIMl1PW0NIMl1bQ0gyXTM=

> <s_epik_cmdline>
J2VwaWtfcHl0aG9uJywgJy1waCcsICc3LjAnLCAnLXRuJywgJzgnLCAnLW1hJywgJzIwMCcsICctbWV0YWxfYmluZGluZycsICctaW1hZScsICc8aW5maWxlLm1hZT4nLCAnLW9tYWUnLCAnPG91dGZpbGUubWFlPic=

> <r_epik_Ionization_Penalty>
0.125073

> <r_epik_Ionization_Penalty_Charging>
0

> <r_epik_Ionization_Penalty_Neutral>
0.125073

> <r_epik_State_Penalty>
0.114484

> <r_epik_Charging_Adjusted_Penalty>
0.114484

> <i_epik_Tot_Q>
0

> <i_epik_Tot_abs_Q>
0

> <r_epik_Metal_State_Penalty>
0.114483

> <b_epik_Metal_Only>
0

> <s_lp_Force_Field>
OPLS_2005

> <r_lp_Energy>
56.6734

> <b_lp_Chiralities_Consistent>
1

> <s_lp_Variant>
AV-unprocessed.smi:1734-2

> <Gold.Version>
5.8.1

> <Gold.Id.Protein>
6NUR|6NUR_protein|mol2

> <Gold.PLP.Fitness>
46.5992

> <Gold.PLP.PLP>
-37.8247

> <Gold.PLP.part.hbond>
-2.9317

> <Gold.PLP.part.metal>
0.0000

> <Gold.PLP.part.buried>
-1.6940

> <Gold.PLP.part.nonpolar>
-34.1489

> <Gold.PLP.part.repulsive>
1.8616

> <Gold.PLP.ligand.clash>
0.0000

> <Gold.PLP.ligand.torsion>
1.7961

> <Gold.PLP.Chemscore.Hbond>
2.9600

> <Gold.PLP.Chemscore.CHOScore>
1.0000

> <Gold.PLP.Chemscore.Metal>
0.0000

> <Gold.Chemscore.Hbonds>
donor molecule, donor type, donor heavy atom, donor atom, acceptor molecule, acceptor atom, score
      L1  H     8    31       P1  7948  1.00
      L1  H    11    32       P1  7948  1.00
      P1  H  7989  7998       L1    17  1.00
      L1  C     5    30       P1 10186  1.00

> <Gold.PLP.Chemscore.Internal.Correction>
0.4867

> <Gold.Rescore>
     Score         DG    S(hbond)    S(metal)    S(lipo)     H(rot)  DE(clash)    DE(int)     intcor
     16.45     -20.76       2.68        0.00      90.29       1.65       1.33       2.98       ----

> <Gold.Chemscore.Fitness>
16.4516

> <Gold.Chemscore.DG>
-20.7610

> <Gold.Chemscore.ZeroCoef>
-5.4800

> <Gold.Chemscore.Hbond>
2.6753

> <Gold.Chemscore.Metal>
0.0000

> <Gold.Chemscore.Lipo>
90.2939

> <Gold.Chemscore.Internal_Hbond>
0.0000

> <Gold.Chemscore.DEClash>
1.3277

> <Gold.Chemscore.DEInternal>
2.9816

> <Gold.Chemscore.Rot>
1.6480

> <Gold.Chemscore.Internal.Correction>
   9.000000E+99

> <Gold.Chemscore.Hbonds>
donor molecule, donor type, donor heavy atom, donor atom, acceptor molecule, acceptor atom, score
      L1  H     8    31       P1  7948  0.98
      L1  H    11    32       P1  7948  0.94
      P1  H  7989  7998       L1    17  0.48

> <Gold.Chemscore.Hbond.Weighted>
-8.9354

> <Gold.Chemscore.Metal.Weighted>
-0.0000

> <Gold.Chemscore.Lipo.Weighted>
-10.5644

> <Gold.Chemscore.Internal_Hbond.Weighted>
0.0000

> <Gold.Chemscore.DEClash.Weighted>
1.3277

> <Gold.Chemscore.DEInternal.Weighted>
2.9816

> <Gold.Chemscore.Rot.Weighted>
4.2188

> <Gold.Chemscore.Internal.Correction.Weighted>
   9.000000E+99

> <Gold.Protein.RotatedTorsions>
[ 6907 6896 6895 6894 ] final  -95.26 input  -60.11 | X-H torsion
[ 7974 7965 7964 7962 ] final   33.32 input  175.53 | X-H torsion
[ 8008 7997 7996 7995 ] final  127.75 input   59.86 | X-H torsion
[ 10167 10162 10161 10158 ] final  178.91 input  -65.29 | X-H torsion
[ 10718 10713 10712 10709 ] final   64.09 input   66.30 | X-H torsion
[ 10763 10752 10751 10750 ] final   32.79 input  -60.55 | X-H torsion
[ 11005 11000 10999 10996 ] final -126.71 input  -57.11 | X-H torsion

> <Gold.Protein.ActiveResidues>
 VAL166  LYS551  ARG553  GLY616  TRP617  ASP618  TYR619  PRO620  LYS621  CYS622 
 ASP623  PHE694  ASN695  SER759  ASP760  ASP761  ALA762  ILE779  LEU786  VAL792 
 PHE793  MET794  SER795  GLU796  ALA797  LYS798  CYS799  TRP800  GLU811  SER814 

> <Gold.Protein.RotatedAtoms>
  150.6960  134.1684  159.4202 H   0  0  0  0  0  0  0  0  0  0  0  0  # atno 6907 bound_to 6896
  151.9663  135.0096  160.0559 H   0  0  0  0  0  0  0  0  0  0  0  0  # atno 6908 bound_to 6896
  152.1882  133.4719  159.5030 H   0  0  0  0  0  0  0  0  0  0  0  0  # atno 6909 bound_to 6896
  146.1428  139.6412  142.9151 H   0  0  0  0  0  0  0  0  0  0  0  0  # atno 7974 bound_to 7965
  156.2898  140.2661  156.2324 H   0  0  0  0  0  0  0  0  0  0  0  0  # atno 8008 bound_to 7997
  155.0059  140.0387  157.2397 H   0  0  0  0  0  0  0  0  0  0  0  0  # atno 8009 bound_to 7997
  154.7561  140.2752  155.6257 H   0  0  0  0  0  0  0  0  0  0  0  0  # atno 8010 bound_to 7997
  139.5314  144.2623  152.0696 H   0  0  0  0  0  0  0  0  0  0  0  0  # atno 10167 bound_to 10162
  157.6016  130.9141  149.9800 H   0  0  0  0  0  0  0  0  0  0  0  0  # atno 10718 bound_to 10713
  153.0244  135.6404  154.1410 H   0  0  0  0  0  0  0  0  0  0  0  0  # atno 10763 bound_to 10752
  154.1141  135.2851  155.3225 H   0  0  0  0  0  0  0  0  0  0  0  0  # atno 10764 bound_to 10752
  154.6310  135.5492  153.7743 H   0  0  0  0  0  0  0  0  0  0  0  0  # atno 10765 bound_to 10752
  140.9659  134.0873  157.3921 H   0  0  0  0  0  0  0  0  0  0  0  0  # atno 11005 bound_to 11000
  145.5006  141.0437  143.2542 LP  0  0  0  0  0  0  0  0  0  0  0  0  # atno 17320 bound_to 7965
  144.7812  139.6522  143.7153 LP  0  0  0  0  0  0  0  0  0  0  0  0  # atno 17321 bound_to 7965
  140.2087  144.4584  150.6396 LP  0  0  0  0  0  0  0  0  0  0  0  0  # atno 17342 bound_to 10162
  140.6494  143.2221  151.6112 LP  0  0  0  0  0  0  0  0  0  0  0  0  # atno 17343 bound_to 10162
  156.1090  130.3651  150.0082 LP  0  0  0  0  0  0  0  0  0  0  0  0  # atno 17370 bound_to 10713
  156.8183  130.9349  151.3642 LP  0  0  0  0  0  0  0  0  0  0  0  0  # atno 17371 bound_to 10713
  139.8894  135.0105  156.6678 LP  0  0  0  0  0  0  0  0  0  0  0  0  # atno 17394 bound_to 11000
  140.7400  133.8986  155.8271 LP  0  0  0  0  0  0  0  0  0  0  0  0  # atno 17395 bound_to 11000

$$$$
