AV-unprocessed.smi:3280|AV-procd|sdf|12552|dock10
  -GOLD-   2272018473D 1   1.00000     0.00000
 Structure written by MMmdl.
 39 40  0  0  0  0  0  0  0  0  2 V2000
  146.0678  132.7257  150.2204 C   0  0  0  0  0  0  0  0  0  0  0  0
  144.9708  133.1072  151.2259 C   0  0  0  0  0  0  0  0  0  0  0  0
  143.5614  132.7303  150.7460 C   0  0  0  0  0  0  0  0  0  0  0  0
  145.0531  134.5506  151.6193 C   0  0  0  0  0  0  0  0  0  0  0  0
  144.2507  135.0576  152.5486 N   0  0  0  0  0  0  0  0  0  0  0  0
  144.6231  136.4080  152.6000 O   0  0  0  0  0  0  0  0  0  0  0  0
  145.6242  136.5488  151.6992 C   0  0  0  0  0  0  0  0  0  0  0  0
  146.2096  137.9032  151.4791 C   0  0  0  0  0  0  0  0  0  0  0  0
  146.6631  138.5614  152.7883 C   0  0  0  0  0  0  0  0  0  0  0  0
  148.1380  138.5738  152.8917 N   0  3  0  0  0  0  0  0  0  0  0  0
  148.6870  139.1803  154.1258 C   0  0  2  0  0  0  0  0  0  0  0  0
  148.3663  140.6883  154.1326 C   0  0  0  0  0  0  0  0  0  0  0  0
  148.8175  141.3939  155.4219 C   0  0  0  0  0  0  0  0  0  0  0  0
  150.3335  141.3030  155.6393 C   0  0  0  0  0  0  0  0  0  0  0  0
  150.8637  139.5788  155.8101 S   0  0  0  0  0  0  0  0  0  0  0  0
  150.2055  138.9324  154.2486 C   0  0  0  0  0  0  0  0  0  0  0  0
  145.9194  135.4310  151.0423 N   0  0  0  0  0  0  0  0  0  0  0  0
  147.0592  132.9426  150.6195 H   0  0  0  0  0  0  0  0  0  0  0  0
  145.9574  133.2743  149.2845 H   0  0  0  0  0  0  0  0  0  0  0  0
  146.0315  131.6614  149.9868 H   0  0  0  0  0  0  0  0  0  0  0  0
  145.1594  132.5151  152.1233 H   0  0  0  0  0  0  0  0  0  0  0  0
  142.8160  132.9457  151.5123 H   0  0  0  0  0  0  0  0  0  0  0  0
  143.4976  131.6671  150.5134 H   0  0  0  0  0  0  0  0  0  0  0  0
  143.2864  133.2834  149.8476 H   0  0  0  0  0  0  0  0  0  0  0  0
  147.0521  137.8092  150.7926 H   0  0  0  0  0  0  0  0  0  0  0  0
  145.4658  138.5265  150.9808 H   0  0  0  0  0  0  0  0  0  0  0  0
  146.2875  139.5847  152.8332 H   0  0  0  0  0  0  0  0  0  0  0  0
  146.2371  138.0222  153.6344 H   0  0  0  0  0  0  0  0  0  0  0  0
  148.4865  137.6295  152.8065 H   0  0  0  0  0  0  0  0  0  0  0  0
  148.1803  138.7225  154.9768 H   0  0  0  0  0  0  0  0  0  0  0  0
  148.8328  141.1713  153.2727 H   0  0  0  0  0  0  0  0  0  0  0  0
  147.2914  140.8315  154.0149 H   0  0  0  0  0  0  0  0  0  0  0  0
  148.5248  142.4433  155.3775 H   0  0  0  0  0  0  0  0  0  0  0  0
  148.2957  140.9684  156.2800 H   0  0  0  0  0  0  0  0  0  0  0  0
  150.8675  141.7600  154.8054 H   0  0  0  0  0  0  0  0  0  0  0  0
  150.6199  141.8476  156.5395 H   0  0  0  0  0  0  0  0  0  0  0  0
  150.4367  137.8682  154.2186 H   0  0  0  0  0  0  0  0  0  0  0  0
  150.7396  139.3982  153.4196 H   0  0  0  0  0  0  0  0  0  0  0  0
  148.4860  139.1136  152.1120 H   0  0  0  0  0  0  0  0  0  0  0  0
  1  2  1  0  0  0  0
  1 18  1  0  0  0  0
  1 19  1  0  0  0  0
  1 20  1  0  0  0  0
  2  3  1  0  0  0  0
  2  4  1  0  0  0  0
  2 21  1  0  0  0  0
  3 22  1  0  0  0  0
  3 23  1  0  0  0  0
  3 24  1  0  0  0  0
  4 17  1  0  0  0  0
  4  5  2  0  0  0  0
  5  6  1  0  0  0  0
  6  7  1  0  0  0  0
  7  8  1  0  0  0  0
  7 17  2  0  0  0  0
  8  9  1  0  0  0  0
  8 25  1  0  0  0  0
  8 26  1  0  0  0  0
  9 10  1  0  0  0  0
  9 27  1  0  0  0  0
  9 28  1  0  0  0  0
 10 11  1  0  0  0  0
 10 29  1  0  0  0  0
 10 39  1  0  0  0  0
 11 16  1  0  0  0  0
 11 12  1  0  0  0  0
 11 30  1  0  0  0  0
 12 13  1  0  0  0  0
 12 31  1  0  0  0  0
 12 32  1  0  0  0  0
 13 14  1  0  0  0  0
 13 33  1  0  0  0  0
 13 34  1  0  0  0  0
 14 15  1  0  0  0  0
 14 35  1  0  0  0  0
 14 36  1  0  0  0  0
 15 16  1  0  0  0  0
 16 37  1  0  0  0  0
 16 38  1  0  0  0  0
M  CHG  1  10   1
M  END
> <s_m_source_file>
AV-unprocessed.smi

> <i_m_source_file_index>
3280

> <i_lp_mmshare_version>
43012

> <i_f3d_flags>
0

> <s_epik_input>
W0NIM11bQ0hdKFtDSDNdKWMxbm9jKG4xKVtDSDJdW0NIMl1bTkhdW0NAQEhdMltDSDJdW0NIMl1bQ0gyXVNbQ0gyXTI=

> <s_epik_cmdline>
J2VwaWtfcHl0aG9uJywgJy1waCcsICc3LjAnLCAnLXRuJywgJzgnLCAnLW1hJywgJzIwMCcsICctbWV0YWxfYmluZGluZycsICctaW1hZScsICc8aW5maWxlLm1hZT4nLCAnLW9tYWUnLCAnPG91dGZpbGUubWFlPic=

> <r_lp_tautomer_probability>
1

> <r_epik_Ionization_Penalty>
0.0103043

> <r_epik_Ionization_Penalty_Charging>
0.0103043

> <r_epik_Ionization_Penalty_Neutral>
2.61801e-13

> <r_epik_State_Penalty>
0.0078728

> <r_epik_Charging_Adjusted_Penalty>
0.0181771

> <i_epik_Tot_Q>
1

> <i_epik_Tot_abs_Q>
1

> <r_epik_Metal_State_Penalty>
0.0078728

> <b_epik_Metal_Only>
0

> <s_lp_Force_Field>
OPLS_2005

> <r_lp_Energy>
0.790669

> <b_lp_Chiralities_Consistent>
1

> <s_lp_Variant>
AV-unprocessed.smi:3280-1

> <Gold.Version>
5.8.1

> <Gold.Id.Protein>
6NUR|6NUR_protein|mol2

> <Gold.PLP.Fitness>
41.7495

> <Gold.PLP.PLP>
-33.6374

> <Gold.PLP.part.hbond>
-2.0000

> <Gold.PLP.part.metal>
0.0000

> <Gold.PLP.part.buried>
-1.2748

> <Gold.PLP.part.nonpolar>
-31.2746

> <Gold.PLP.part.repulsive>
0.5305

> <Gold.PLP.ligand.clash>
0.0000

> <Gold.PLP.ligand.torsion>
0.4863

> <Gold.PLP.Chemscore.Hbond>
3.0000

> <Gold.PLP.Chemscore.CHOScore>
0.0000

> <Gold.PLP.Chemscore.Metal>
0.0000

> <Gold.Chemscore.Hbonds>
donor molecule, donor type, donor heavy atom, donor atom, acceptor molecule, acceptor atom, score
      L1  H    10    29       P1  7948  2.00
      L1  H    10    39       P1  7957  1.00

> <Gold.PLP.Chemscore.Internal.Correction>
0.0846

> <Gold.Rescore>
     Score         DG    S(hbond)    S(metal)    S(lipo)     H(rot)  DE(clash)    DE(int)     intcor
     16.09     -16.76       1.94        0.00      79.58       1.76       0.19       0.49       ----

> <Gold.Chemscore.Fitness>
16.0858

> <Gold.Chemscore.DG>
-16.7582

> <Gold.Chemscore.ZeroCoef>
-5.4800

> <Gold.Chemscore.Hbond>
1.9357

> <Gold.Chemscore.Metal>
0.0000

> <Gold.Chemscore.Lipo>
79.5830

> <Gold.Chemscore.Internal_Hbond>
0.0000

> <Gold.Chemscore.DEClash>
0.1864

> <Gold.Chemscore.DEInternal>
0.4860

> <Gold.Chemscore.Rot>
1.7572

> <Gold.Chemscore.Internal.Correction>
   9.000000E+99

> <Gold.Chemscore.Hbonds>
donor molecule, donor type, donor heavy atom, donor atom, acceptor molecule, acceptor atom, score
      L1  H    10    29       P1  7948  0.95
      L1  H    10    39       P1  7957  0.99

> <Gold.Chemscore.Hbond.Weighted>
-6.4653

> <Gold.Chemscore.Metal.Weighted>
-0.0000

> <Gold.Chemscore.Lipo.Weighted>
-9.3112

> <Gold.Chemscore.Internal_Hbond.Weighted>
0.0000

> <Gold.Chemscore.DEClash.Weighted>
0.1864

> <Gold.Chemscore.DEInternal.Weighted>
0.4860

> <Gold.Chemscore.Rot.Weighted>
4.4984

> <Gold.Chemscore.Internal.Correction.Weighted>
   9.000000E+99

> <Gold.Protein.RotatedTorsions>
[ 6907 6896 6895 6894 ] final   41.25 input  -60.11 | X-H torsion
[ 7974 7965 7964 7962 ] final  -94.52 input  175.53 | X-H torsion
[ 8008 7997 7996 7995 ] final  174.13 input   59.86 | X-H torsion
[ 10167 10162 10161 10158 ] final -178.41 input  -65.29 | X-H torsion
[ 10718 10713 10712 10709 ] final  104.79 input   66.30 | X-H torsion
[ 10763 10752 10751 10750 ] final  -39.12 input  -60.55 | X-H torsion
[ 11005 11000 10999 10996 ] final  140.22 input  -57.11 | X-H torsion

> <Gold.Protein.ActiveResidues>
 VAL166  LYS551  ARG553  GLY616  TRP617  ASP618  TYR619  PRO620  LYS621  CYS622 
 ASP623  PHE694  ASN695  SER759  ASP760  ASP761  ALA762  ILE779  LEU786  VAL792 
 PHE793  MET794  SER795  GLU796  ALA797  LYS798  CYS799  TRP800  GLU811  SER814 

> <Gold.Protein.RotatedAtoms>
  152.1929  134.8656  160.0515 H   0  0  0  0  0  0  0  0  0  0  0  0  # atno 6907 bound_to 6896
  151.9538  133.3669  159.4018 H   0  0  0  0  0  0  0  0  0  0  0  0  # atno 6908 bound_to 6896
  150.6939  134.4236  159.5260 H   0  0  0  0  0  0  0  0  0  0  0  0  # atno 6909 bound_to 6896
  145.3721  140.9507  143.2441 H   0  0  0  0  0  0  0  0  0  0  0  0  # atno 7974 bound_to 7965
  156.1005  140.1442  156.9474 H   0  0  0  0  0  0  0  0  0  0  0  0  # atno 8008 bound_to 7997
  154.4699  140.0913  156.7163 H   0  0  0  0  0  0  0  0  0  0  0  0  # atno 8009 bound_to 7997
  155.4768  140.3443  155.4336 H   0  0  0  0  0  0  0  0  0  0  0  0  # atno 8010 bound_to 7997
  139.5434  144.2302  152.0940 H   0  0  0  0  0  0  0  0  0  0  0  0  # atno 10167 bound_to 10162
  157.6728  131.0812  150.5758 H   0  0  0  0  0  0  0  0  0  0  0  0  # atno 10718 bound_to 10713
  153.9241  135.6779  153.4747 H   0  0  0  0  0  0  0  0  0  0  0  0  # atno 10763 bound_to 10752
  153.1013  135.4826  154.8869 H   0  0  0  0  0  0  0  0  0  0  0  0  # atno 10764 bound_to 10752
  154.7462  135.3173  154.8596 H   0  0  0  0  0  0  0  0  0  0  0  0  # atno 10765 bound_to 10752
  140.0311  134.9351  157.0664 H   0  0  0  0  0  0  0  0  0  0  0  0  # atno 11005 bound_to 11000
  144.8568  139.5237  143.6830 LP  0  0  0  0  0  0  0  0  0  0  0  0  # atno 17320 bound_to 7965
  146.2880  139.7059  142.9181 LP  0  0  0  0  0  0  0  0  0  0  0  0  # atno 17321 bound_to 7965
  140.1784  144.4868  150.6541 LP  0  0  0  0  0  0  0  0  0  0  0  0  # atno 17342 bound_to 10162
  140.6673  143.2272  151.5712 LP  0  0  0  0  0  0  0  0  0  0  0  0  # atno 17343 bound_to 10162
  156.6059  130.4367  149.5878 LP  0  0  0  0  0  0  0  0  0  0  0  0  # atno 17370 bound_to 10713
  156.2469  130.6884  151.1608 LP  0  0  0  0  0  0  0  0  0  0  0  0  # atno 17371 bound_to 10713
  140.4224  134.1867  155.7165 LP  0  0  0  0  0  0  0  0  0  0  0  0  # atno 17394 bound_to 11000
  141.1831  133.8370  157.1185 LP  0  0  0  0  0  0  0  0  0  0  0  0  # atno 17395 bound_to 11000

$$$$
