AV-unprocessed.smi:2486|AV-procd|sdf|9790|dock7
  -GOLD-   2272013433D 1   1.00000     0.00000
 Structure written by MMmdl.
 42 43  0  0  0  0  0  0  0  0  1 V2000
  140.1644  137.5516  154.3897 C   0  0  0  0  0  0  0  0  0  0  0  0
  141.2174  136.6353  153.9964 N   0  0  0  0  0  0  0  0  0  0  0  0
  140.9416  135.3445  153.6957 N   0  0  0  0  0  0  0  0  0  0  0  0
  142.1425  134.8508  153.3926 C   0  0  0  0  0  0  0  0  0  0  0  0
  143.1878  135.7262  153.4734 N   0  0  0  0  0  0  0  0  0  0  0  0
  142.5335  136.8184  153.8560 C   0  0  0  0  0  0  0  0  0  0  0  0
  143.1079  138.0921  154.1129 N   0  0  0  0  0  0  0  0  0  0  0  0
  143.8492  138.4627  155.1706 C   0  0  0  0  0  0  0  0  0  0  0  0
  144.1686  137.7301  156.1072 O   0  0  0  0  0  0  0  0  0  0  0  0
  144.2095  139.7496  155.0842 N   0  0  0  0  0  0  0  0  0  0  0  0
  145.0210  140.4481  156.0764 C   0  0  0  0  0  0  0  0  0  0  0  0
  146.0342  141.4363  155.4379 C   0  0  0  0  0  0  0  0  0  0  0  0
  145.2580  142.6342  154.8433 C   0  0  0  0  0  0  0  0  0  0  0  0
  146.9619  141.9841  156.5566 C   0  0  0  0  0  0  0  0  0  0  0  0
  148.1321  141.0776  156.9824 C   0  0  0  0  0  0  0  0  0  0  0  0
  149.4060  141.3212  156.1559 C   0  0  0  0  0  0  0  0  0  0  0  0
  149.3423  140.8002  154.7131 C   0  0  0  0  0  0  0  0  0  0  0  0
  148.1604  141.3377  153.8877 C   0  0  0  0  0  0  0  0  0  0  0  0
  146.8127  140.7166  154.2999 C   0  0  0  0  0  0  0  0  0  0  0  0
  140.1530  138.4074  153.7141 H   0  0  0  0  0  0  0  0  0  0  0  0
  140.3443  137.9012  155.4068 H   0  0  0  0  0  0  0  0  0  0  0  0
  139.1918  137.0586  154.3512 H   0  0  0  0  0  0  0  0  0  0  0  0
  142.2703  133.8184  153.1021 H   0  0  0  0  0  0  0  0  0  0  0  0
  142.9316  138.7988  153.4146 H   0  0  0  0  0  0  0  0  0  0  0  0
  143.9072  140.2831  154.2824 H   0  0  0  0  0  0  0  0  0  0  0  0
  144.3560  140.9812  156.7585 H   0  0  0  0  0  0  0  0  0  0  0  0
  145.5450  139.7032  156.6768 H   0  0  0  0  0  0  0  0  0  0  0  0
  145.9321  143.3697  154.4038 H   0  0  0  0  0  0  0  0  0  0  0  0
  144.6741  143.1454  155.6096 H   0  0  0  0  0  0  0  0  0  0  0  0
  144.5661  142.3272  154.0584 H   0  0  0  0  0  0  0  0  0  0  0  0
  147.3674  142.9541  156.2653 H   0  0  0  0  0  0  0  0  0  0  0  0
  146.3549  142.2002  157.4368 H   0  0  0  0  0  0  0  0  0  0  0  0
  148.3692  141.3042  158.0225 H   0  0  0  0  0  0  0  0  0  0  0  0
  147.8503  140.0247  156.9671 H   0  0  0  0  0  0  0  0  0  0  0  0
  149.6431  142.3858  156.1509 H   0  0  0  0  0  0  0  0  0  0  0  0
  150.2445  140.8360  156.6564 H   0  0  0  0  0  0  0  0  0  0  0  0
  150.2714  141.0731  154.2117 H   0  0  0  0  0  0  0  0  0  0  0  0
  149.3220  139.7098  154.7182 H   0  0  0  0  0  0  0  0  0  0  0  0
  148.1243  142.4269  153.9132 H   0  0  0  0  0  0  0  0  0  0  0  0
  148.3442  141.0741  152.8456 H   0  0  0  0  0  0  0  0  0  0  0  0
  146.9824  139.6731  154.5696 H   0  0  0  0  0  0  0  0  0  0  0  0
  146.1757  140.6689  153.4157 H   0  0  0  0  0  0  0  0  0  0  0  0
  1  2  1  0  0  0  0
  1 20  1  0  0  0  0
  1 21  1  0  0  0  0
  1 22  1  0  0  0  0
  2  6  1  0  0  0  0
  2  3  1  0  0  0  0
  3  4  2  0  0  0  0
  4  5  1  0  0  0  0
  4 23  1  0  0  0  0
  5  6  2  0  0  0  0
  6  7  1  0  0  0  0
  7  8  1  0  0  0  0
  7 24  1  0  0  0  0
  8  9  2  0  0  0  0
  8 10  1  0  0  0  0
 10 11  1  0  0  0  0
 10 25  1  0  0  0  0
 11 12  1  0  0  0  0
 11 26  1  0  0  0  0
 11 27  1  0  0  0  0
 12 19  1  0  0  0  0
 12 13  1  0  0  0  0
 12 14  1  0  0  0  0
 13 28  1  0  0  0  0
 13 29  1  0  0  0  0
 13 30  1  0  0  0  0
 14 15  1  0  0  0  0
 14 31  1  0  0  0  0
 14 32  1  0  0  0  0
 15 16  1  0  0  0  0
 15 33  1  0  0  0  0
 15 34  1  0  0  0  0
 16 17  1  0  0  0  0
 16 35  1  0  0  0  0
 16 36  1  0  0  0  0
 17 18  1  0  0  0  0
 17 37  1  0  0  0  0
 17 38  1  0  0  0  0
 18 19  1  0  0  0  0
 18 39  1  0  0  0  0
 18 40  1  0  0  0  0
 19 41  1  0  0  0  0
 19 42  1  0  0  0  0
M  END
> <s_m_source_file>
AV-unprocessed.smi

> <i_m_source_file_index>
2486

> <i_lp_mmshare_version>
43012

> <i_f3d_flags>
0

> <s_epik_input>
W0NIM11uMW5bY0hdbmMxW05IXUMoPU8pW05IXVtDSDJdQzIoW0NIM10pW0NIMl1bQ0gyXVtDSDJdW0NIMl1bQ0gyXVtDSDJdMg==

> <s_epik_cmdline>
J2VwaWtfcHl0aG9uJywgJy1waCcsICc3LjAnLCAnLXRuJywgJzgnLCAnLW1hJywgJzIwMCcsICctbWV0YWxfYmluZGluZycsICctaW1hZScsICc8aW5maWxlLm1hZT4nLCAnLW9tYWUnLCAnPG91dGZpbGUubWFlPic=

> <r_lp_tautomer_probability>
1

> <r_epik_Ionization_Penalty>
2.33289e-05

> <r_epik_Ionization_Penalty_Charging>
0

> <r_epik_Ionization_Penalty_Neutral>
2.33289e-05

> <r_epik_State_Penalty>
-0

> <r_epik_Charging_Adjusted_Penalty>
0

> <i_epik_Tot_Q>
0

> <i_epik_Tot_abs_Q>
0

> <r_epik_Metal_State_Penalty>
-0

> <b_epik_Metal_Only>
0

> <s_lp_Force_Field>
OPLS_2005

> <r_lp_Energy>
21.4414

> <b_lp_Chiralities_Consistent>
1

> <s_lp_Variant>
AV-unprocessed.smi:2486-1

> <Gold.Version>
5.8.1

> <Gold.Id.Protein>
6NUR|6NUR_protein|mol2

> <Gold.PLP.Fitness>
34.7382

> <Gold.PLP.PLP>
-25.9414

> <Gold.PLP.part.hbond>
-2.8950

> <Gold.PLP.part.metal>
0.0000

> <Gold.PLP.part.buried>
-4.9533

> <Gold.PLP.part.nonpolar>
-19.8582

> <Gold.PLP.part.repulsive>
0.2396

> <Gold.PLP.ligand.clash>
0.0000

> <Gold.PLP.ligand.torsion>
0.9125

> <Gold.PLP.Chemscore.Hbond>
2.5386

> <Gold.PLP.Chemscore.CHOScore>
1.0000

> <Gold.PLP.Chemscore.Metal>
0.0000

> <Gold.Chemscore.Hbonds>
donor molecule, donor type, donor heavy atom, donor atom, acceptor molecule, acceptor atom, score
      L1  H     7    24       P1 10175  0.94
      L1  H    10    25       P1 10175  1.00
      P1  H 11000 11005       L1     3  0.16
      L1  C     4    23       P1 10957  0.60

> <Gold.PLP.Chemscore.Internal.Correction>
0.0062

> <Gold.Rescore>
     Score         DG    S(hbond)    S(metal)    S(lipo)     H(rot)  DE(clash)    DE(int)     intcor
     13.30     -14.05       1.92        0.00      47.85       1.35       0.03       0.72       ----

> <Gold.Chemscore.Fitness>
13.2958

> <Gold.Chemscore.DG>
-14.0466

> <Gold.Chemscore.ZeroCoef>
-5.4800

> <Gold.Chemscore.Hbond>
1.9200

> <Gold.Chemscore.Metal>
0.0000

> <Gold.Chemscore.Lipo>
47.8475

> <Gold.Chemscore.Internal_Hbond>
0.0000

> <Gold.Chemscore.DEClash>
0.0310

> <Gold.Chemscore.DEInternal>
0.7198

> <Gold.Chemscore.Rot>
1.3454

> <Gold.Chemscore.Internal.Correction>
   9.000000E+99

> <Gold.Chemscore.Hbonds>
donor molecule, donor type, donor heavy atom, donor atom, acceptor molecule, acceptor atom, score
      L1  H     7    24       P1 10175  0.87
      L1  H    10    25       P1 10175  0.96
      P1  H 11000 11005       L1     3  0.05

> <Gold.Chemscore.Hbond.Weighted>
-6.4126

> <Gold.Chemscore.Metal.Weighted>
-0.0000

> <Gold.Chemscore.Lipo.Weighted>
-5.5982

> <Gold.Chemscore.Internal_Hbond.Weighted>
0.0000

> <Gold.Chemscore.DEClash.Weighted>
0.0310

> <Gold.Chemscore.DEInternal.Weighted>
0.7198

> <Gold.Chemscore.Rot.Weighted>
3.4442

> <Gold.Chemscore.Internal.Correction.Weighted>
   9.000000E+99

> <Gold.Protein.RotatedTorsions>
[ 6907 6896 6895 6894 ] final  132.24 input  -60.11 | X-H torsion
[ 7974 7965 7964 7962 ] final -115.45 input  175.53 | X-H torsion
[ 8008 7997 7996 7995 ] final  150.80 input   59.86 | X-H torsion
[ 10167 10162 10161 10158 ] final -136.71 input  -65.29 | X-H torsion
[ 10718 10713 10712 10709 ] final  -12.40 input   66.30 | X-H torsion
[ 10763 10752 10751 10750 ] final  -16.63 input  -60.55 | X-H torsion
[ 11005 11000 10999 10996 ] final   38.52 input  -57.11 | X-H torsion

> <Gold.Protein.ActiveResidues>
 VAL166  LYS551  ARG553  GLY616  TRP617  ASP618  TYR619  PRO620  LYS621  CYS622 
 ASP623  PHE694  ASN695  SER759  ASP760  ASP761  ALA762  ILE779  LEU786  VAL792 
 PHE793  MET794  SER795  GLU796  ALA797  LYS798  CYS799  TRP800  GLU811  SER814 

> <Gold.Protein.RotatedAtoms>
  152.3345  133.5995  159.5832 H   0  0  0  0  0  0  0  0  0  0  0  0  # atno 6907 bound_to 6896
  150.7442  133.9818  159.3587 H   0  0  0  0  0  0  0  0  0  0  0  0  # atno 6908 bound_to 6896
  151.7689  135.0792  160.0408 H   0  0  0  0  0  0  0  0  0  0  0  0  # atno 6909 bound_to 6896
  145.1083  140.8595  143.3885 H   0  0  0  0  0  0  0  0  0  0  0  0  # atno 7974 bound_to 7965
  156.2701  140.2065  156.6075 H   0  0  0  0  0  0  0  0  0  0  0  0  # atno 8008 bound_to 7997
  154.6858  140.0535  157.0336 H   0  0  0  0  0  0  0  0  0  0  0  0  # atno 8009 bound_to 7997
  155.0936  140.3199  155.4569 H   0  0  0  0  0  0  0  0  0  0  0  0  # atno 8010 bound_to 7997
  139.8650  143.7029  152.2646 H   0  0  0  0  0  0  0  0  0  0  0  0  # atno 10167 bound_to 10162
  156.6451  130.4939  149.6081 H   0  0  0  0  0  0  0  0  0  0  0  0  # atno 10718 bound_to 10713
  153.5615  135.7009  153.5545 H   0  0  0  0  0  0  0  0  0  0  0  0  # atno 10763 bound_to 10752
  153.3425  135.4017  155.1583 H   0  0  0  0  0  0  0  0  0  0  0  0  # atno 10764 bound_to 10752
  154.8647  135.3745  154.5132 H   0  0  0  0  0  0  0  0  0  0  0  0  # atno 10765 bound_to 10752
  140.2118  134.3746  155.8045 H   0  0  0  0  0  0  0  0  0  0  0  0  # atno 11005 bound_to 11000
  145.0877  139.2913  143.5751 LP  0  0  0  0  0  0  0  0  0  0  0  0  # atno 17320 bound_to 7965
  146.3527  140.0403  142.8643 LP  0  0  0  0  0  0  0  0  0  0  0  0  # atno 17321 bound_to 7965
  139.7337  144.7576  151.0760 LP  0  0  0  0  0  0  0  0  0  0  0  0  # atno 17342 bound_to 10162
  140.7769  143.5056  150.9716 LP  0  0  0  0  0  0  0  0  0  0  0  0  # atno 17343 bound_to 10162
  156.2128  130.6689  151.1287 LP  0  0  0  0  0  0  0  0  0  0  0  0  # atno 17370 bound_to 10713
  157.7159  131.0710  150.6330 LP  0  0  0  0  0  0  0  0  0  0  0  0  # atno 17371 bound_to 10713
  141.2226  133.7147  156.8431 LP  0  0  0  0  0  0  0  0  0  0  0  0  # atno 17394 bound_to 11000
  140.1942  134.8943  157.3096 LP  0  0  0  0  0  0  0  0  0  0  0  0  # atno 17395 bound_to 11000

$$$$
