AV-unprocessed.smi:1913|AV-procd|sdf|7753|dock10
  -GOLD-   22720 9493D 1   1.00000     0.00000
 Structure written by MMmdl.
 40 42  0  0  0  0  0  0  0  0  1 V2000
  148.9881  136.6732  159.2137 C   0  0  0  0  0  0  0  0  0  0  0  0
  147.8937  137.5731  159.1164 O   0  0  0  0  0  0  0  0  0  0  0  0
  147.8893  138.4795  158.0777 C   0  0  0  0  0  0  0  0  0  0  0  0
  146.7187  139.0431  157.5179 C   0  0  0  0  0  0  0  0  0  0  0  0
  146.8062  139.9566  156.4513 C   0  0  0  0  0  0  0  0  0  0  0  0
  148.0643  140.3339  155.9194 C   0  0  0  0  0  0  0  0  0  0  0  0
  148.2097  141.2113  154.8637 O   0  0  0  0  0  0  0  0  0  0  0  0
  147.0470  141.8223  154.3248 C   0  0  0  0  0  0  0  0  0  0  0  0
  149.2387  139.7832  156.4874 C   0  0  0  0  0  0  0  0  0  0  0  0
  150.6077  140.1679  155.9331 C   0  0  1  0  0  0  0  0  0  0  0  0
  150.7178  139.9656  154.5360 O   0  0  0  0  0  0  0  0  0  0  0  0
  150.9534  141.6303  156.2716 C   0  0  0  0  0  0  0  0  0  0  0  0
  151.4477  141.7793  157.6277 N   0  0  0  0  0  0  0  0  0  0  0  0
  151.8663  140.8056  158.4588 C   0  0  0  0  0  0  0  0  0  0  0  0
  152.2783  141.1738  159.6691 N   0  0  0  0  0  0  0  0  0  0  0  0
  152.1067  142.5467  159.6170 C   0  0  0  0  0  0  0  0  0  0  0  0
  152.3592  143.5415  160.5886 C   0  0  0  0  0  0  0  0  0  0  0  0
  152.1029  144.8993  160.3043 C   0  0  0  0  0  0  0  0  0  0  0  0
  151.5898  145.2831  159.0481 C   0  0  0  0  0  0  0  0  0  0  0  0
  151.3300  144.3100  158.0642 C   0  0  0  0  0  0  0  0  0  0  0  0
  151.5886  142.9570  158.3518 C   0  0  0  0  0  0  0  0  0  0  0  0
  149.1387  138.8574  157.5503 C   0  0  0  0  0  0  0  0  0  0  0  0
  148.8476  136.0280  160.0809 H   0  0  0  0  0  0  0  0  0  0  0  0
  149.9311  137.2045  159.3482 H   0  0  0  0  0  0  0  0  0  0  0  0
  149.0564  136.0322  158.3337 H   0  0  0  0  0  0  0  0  0  0  0  0
  145.7369  138.7870  157.8862 H   0  0  0  0  0  0  0  0  0  0  0  0
  145.8841  140.3537  156.0556 H   0  0  0  0  0  0  0  0  0  0  0  0
  147.3344  142.4688  153.4957 H   0  0  0  0  0  0  0  0  0  0  0  0
  146.5419  142.4423  155.0667 H   0  0  0  0  0  0  0  0  0  0  0  0
  146.3492  141.0791  153.9366 H   0  0  0  0  0  0  0  0  0  0  0  0
  151.3566  139.5144  156.3813 H   0  0  0  0  0  0  0  0  0  0  0  0
  150.5816  139.0480  154.3556 H   0  0  0  0  0  0  0  0  0  0  0  0
  151.6960  142.0232  155.5755 H   0  0  0  0  0  0  0  0  0  0  0  0
  150.0677  142.2586  156.1703 H   0  0  0  0  0  0  0  0  0  0  0  0
  151.8650  139.7676  158.1594 H   0  0  0  0  0  0  0  0  0  0  0  0
  152.7513  143.2592  161.5545 H   0  0  0  0  0  0  0  0  0  0  0  0
  152.3005  145.6506  161.0547 H   0  0  0  0  0  0  0  0  0  0  0  0
  151.3955  146.3250  158.8401 H   0  0  0  0  0  0  0  0  0  0  0  0
  150.9364  144.5984  157.1006 H   0  0  0  0  0  0  0  0  0  0  0  0
  150.0325  138.4211  157.9721 H   0  0  0  0  0  0  0  0  0  0  0  0
  1  2  1  0  0  0  0
  1 23  1  0  0  0  0
  1 24  1  0  0  0  0
  1 25  1  0  0  0  0
  2  3  1  0  0  0  0
  3 22  1  0  0  0  0
  3  4  2  0  0  0  0
  4  5  1  0  0  0  0
  4 26  1  0  0  0  0
  5  6  2  0  0  0  0
  5 27  1  0  0  0  0
  6  7  1  0  0  0  0
  6  9  1  0  0  0  0
  7  8  1  0  0  0  0
  8 28  1  0  0  0  0
  8 29  1  0  0  0  0
  8 30  1  0  0  0  0
  9 10  1  0  0  0  0
  9 22  2  0  0  0  0
 10 11  1  0  0  0  0
 10 12  1  0  0  0  0
 10 31  1  0  0  0  0
 11 32  1  0  0  0  0
 12 13  1  0  0  0  0
 12 33  1  0  0  0  0
 12 34  1  0  0  0  0
 13 21  1  0  0  0  0
 13 14  1  0  0  0  0
 14 15  2  0  0  0  0
 14 35  1  0  0  0  0
 15 16  1  0  0  0  0
 16 21  2  0  0  0  0
 16 17  1  0  0  0  0
 17 18  2  0  0  0  0
 17 36  1  0  0  0  0
 18 19  1  0  0  0  0
 18 37  1  0  0  0  0
 19 20  2  0  0  0  0
 19 38  1  0  0  0  0
 20 21  1  0  0  0  0
 20 39  1  0  0  0  0
 22 40  1  0  0  0  0
M  END
> <s_m_source_file>
AV-unprocessed.smi

> <i_m_source_file_index>
1913

> <i_lp_mmshare_version>
43012

> <i_f3d_flags>
0

> <s_epik_input>
W0NIM11PYzFbY0hdW2NIXWMoT1tDSDNdKWMoW2NIXTEpW0NASF0oW09IXSlbQ0gyXW4oW2NIXW4yKWMoYzIzKVtjSF1bY0hdW2NIXVtjSF0z

> <s_epik_cmdline>
J2VwaWtfcHl0aG9uJywgJy1waCcsICc3LjAnLCAnLXRuJywgJzgnLCAnLW1hJywgJzIwMCcsICctbWV0YWxfYmluZGluZycsICctaW1hZScsICc8aW5maWxlLm1hZT4nLCAnLW9tYWUnLCAnPG91dGZpbGUubWFlPic=

> <r_lp_tautomer_probability>
1

> <r_epik_Ionization_Penalty>
0.0696512

> <r_epik_Ionization_Penalty_Charging>
0

> <r_epik_Ionization_Penalty_Neutral>
0.0696512

> <r_epik_State_Penalty>
0.0610247

> <r_epik_Charging_Adjusted_Penalty>
0.0610247

> <i_epik_Tot_Q>
0

> <i_epik_Tot_abs_Q>
0

> <r_epik_Metal_State_Penalty>
6.42746e-05

> <b_epik_Metal_Only>
0

> <s_lp_Force_Field>
OPLS_2005

> <r_lp_Energy>
19.1382

> <b_lp_Chiralities_Consistent>
1

> <s_lp_Variant>
AV-unprocessed.smi:1913-2

> <Gold.Version>
5.8.1

> <Gold.Id.Protein>
6NUR|6NUR_protein|mol2

> <Gold.PLP.Fitness>
42.9661

> <Gold.PLP.PLP>
-40.9891

> <Gold.PLP.part.hbond>
-2.0000

> <Gold.PLP.part.metal>
0.0000

> <Gold.PLP.part.buried>
-7.5727

> <Gold.PLP.part.nonpolar>
-32.3357

> <Gold.PLP.part.repulsive>
0.1306

> <Gold.PLP.ligand.clash>
0.0120

> <Gold.PLP.ligand.torsion>
0.9104

> <Gold.PLP.Chemscore.Hbond>
1.2574

> <Gold.PLP.Chemscore.CHOScore>
0.0000

> <Gold.PLP.Chemscore.Metal>
0.0000

> <Gold.Chemscore.Hbonds>
donor molecule, donor type, donor heavy atom, donor atom, acceptor molecule, acceptor atom, score
      P1  H  6934  6947       L1     2  0.03
      P1  H  7989  7998       L1    11  1.00

> <Gold.PLP.Chemscore.Internal.Correction>
0.0376

> <Gold.Rescore>
     Score         DG    S(hbond)    S(metal)    S(lipo)     H(rot)  DE(clash)    DE(int)     intcor
     14.75     -15.89       1.26        0.00     103.96       2.33       0.07       1.07       ----

> <Gold.Chemscore.Fitness>
14.7499

> <Gold.Chemscore.DG>
-15.8864

> <Gold.Chemscore.ZeroCoef>
-5.4800

> <Gold.Chemscore.Hbond>
1.2615

> <Gold.Chemscore.Metal>
0.0000

> <Gold.Chemscore.Lipo>
103.9632

> <Gold.Chemscore.Internal_Hbond>
0.0000

> <Gold.Chemscore.DEClash>
0.0699

> <Gold.Chemscore.DEInternal>
1.0667

> <Gold.Chemscore.Rot>
2.3323

> <Gold.Chemscore.Internal.Correction>
   9.000000E+99

> <Gold.Chemscore.Hbonds>
donor molecule, donor type, donor heavy atom, donor atom, acceptor molecule, acceptor atom, score
      P1  H  6934  6947       L1     2  0.01
      P1  H  7989  7998       L1    11  0.96

> <Gold.Chemscore.Hbond.Weighted>
-4.2136

> <Gold.Chemscore.Metal.Weighted>
-0.0000

> <Gold.Chemscore.Lipo.Weighted>
-12.1637

> <Gold.Chemscore.Internal_Hbond.Weighted>
0.0000

> <Gold.Chemscore.DEClash.Weighted>
0.0699

> <Gold.Chemscore.DEInternal.Weighted>
1.0667

> <Gold.Chemscore.Rot.Weighted>
5.9708

> <Gold.Chemscore.Internal.Correction.Weighted>
   9.000000E+99

> <Gold.Protein.RotatedTorsions>
[ 6907 6896 6895 6894 ] final    8.28 input  -60.11 | X-H torsion
[ 7974 7965 7964 7962 ] final  123.24 input  175.53 | X-H torsion
[ 8008 7997 7996 7995 ] final   25.66 input   59.86 | X-H torsion
[ 10167 10162 10161 10158 ] final   94.49 input  -65.29 | X-H torsion
[ 10718 10713 10712 10709 ] final  154.46 input   66.30 | X-H torsion
[ 10763 10752 10751 10750 ] final -174.92 input  -60.55 | X-H torsion
[ 11005 11000 10999 10996 ] final    0.06 input  -57.11 | X-H torsion

> <Gold.Protein.ActiveResidues>
 VAL166  LYS551  ARG553  GLY616  TRP617  ASP618  TYR619  PRO620  LYS621  CYS622 
 ASP623  PHE694  ASN695  SER759  ASP760  ASP761  ALA762  ILE779  LEU786  VAL792 
 PHE793  MET794  SER795  GLU796  ALA797  LYS798  CYS799  TRP800  GLU811  SER814 

> <Gold.Protein.RotatedAtoms>
  151.7035  135.0926  160.0254 H   0  0  0  0  0  0  0  0  0  0  0  0  # atno 6907 bound_to 6896
  152.3706  133.6409  159.6092 H   0  0  0  0  0  0  0  0  0  0  0  0  # atno 6908 bound_to 6896
  150.7670  133.9193  159.3434 H   0  0  0  0  0  0  0  0  0  0  0  0  # atno 6909 bound_to 6896
  145.0982  139.3537  143.4825 H   0  0  0  0  0  0  0  0  0  0  0  0  # atno 7974 bound_to 7965
  155.0151  140.3141  155.4814 H   0  0  0  0  0  0  0  0  0  0  0  0  # atno 8008 bound_to 7997
  156.2902  140.2207  156.5209 H   0  0  0  0  0  0  0  0  0  0  0  0  # atno 8009 bound_to 7997
  154.7500  140.0467  157.0873 H   0  0  0  0  0  0  0  0  0  0  0  0  # atno 8010 bound_to 7997
  139.8079  144.6786  150.9679 H   0  0  0  0  0  0  0  0  0  0  0  0  # atno 10167 bound_to 10162
  157.2313  131.0739  151.1851 H   0  0  0  0  0  0  0  0  0  0  0  0  # atno 10718 bound_to 10713
  154.5906  135.2844  155.0639 H   0  0  0  0  0  0  0  0  0  0  0  0  # atno 10763 bound_to 10752
  154.1941  135.6435  153.5072 H   0  0  0  0  0  0  0  0  0  0  0  0  # atno 10764 bound_to 10752
  153.0120  135.5453  154.6590 H   0  0  0  0  0  0  0  0  0  0  0  0  # atno 10765 bound_to 10752
  140.6308  133.9577  155.8273 H   0  0  0  0  0  0  0  0  0  0  0  0  # atno 11005 bound_to 11000
  146.3530  140.0847  142.8616 LP  0  0  0  0  0  0  0  0  0  0  0  0  # atno 17320 bound_to 7965
  145.0986  140.9331  143.4726 LP  0  0  0  0  0  0  0  0  0  0  0  0  # atno 17321 bound_to 7965
  140.7819  143.4215  151.0834 LP  0  0  0  0  0  0  0  0  0  0  0  0  # atno 17342 bound_to 10162
  139.7883  143.8255  152.3148 LP  0  0  0  0  0  0  0  0  0  0  0  0  # atno 17343 bound_to 10162
  157.3475  130.7065  149.6419 LP  0  0  0  0  0  0  0  0  0  0  0  0  # atno 17370 bound_to 10713
  155.9675  130.4262  150.4689 LP  0  0  0  0  0  0  0  0  0  0  0  0  # atno 17371 bound_to 10713
  141.0677  134.0253  157.3571 LP  0  0  0  0  0  0  0  0  0  0  0  0  # atno 17394 bound_to 11000
  139.9117  135.0191  156.7717 LP  0  0  0  0  0  0  0  0  0  0  0  0  # atno 17395 bound_to 11000

$$$$
