#       Name:                AV-unprocessed.smi:1723
#       Creating user name   scv26
#       Creation time:       Fri Mar 27 08:15:34 2020


#       File generated by GOLD software.
#

@<TRIPOS>MOLECULE
AV-unprocessed.smi:1723
    44    44     1
SMALL
NO_CHARGES


@<TRIPOS>ATOM
      1 ****        -5.3659   0.6368   1.6380 C.3            1 S1                 0.0000
      2 ****        -3.8404   0.7836   1.6414 C.3            1 S1                 0.0000
      3 ****        -3.1182  -0.5712   1.6414 C.3            1 S1                 0.0000
      4 ****        -1.5924  -0.4259   1.6256 C.3            1 S1                 0.0000
      5 ****        -1.0134  -1.7258   1.6272 O.3            1 S1                 0.0000
      6 ****         0.4114  -1.7630   1.6498 C.3            1 S1                 0.0000
      7 ****         0.8304  -3.2035   1.9782 C.3            1 S1                 0.0000
      8 ****         0.9763  -1.3131   0.2928 C.2            1 S1                 0.0000
      9 ****         0.7518  -1.9891  -0.7112 O.2            1 S1                 0.0000
     10 ****         1.6980  -0.1752   0.3135 N.am           1 S1                 0.0000
     11 ****         2.2763   0.5243  -0.7581 C.2            1 S1                 0.0000
     12 ****         1.8841   0.4115  -2.0538 C.2            1 S1                 0.0000
     13 ****         2.5104   1.1766  -3.1187 C.2            1 S1                 0.0000
     14 ****         2.0215   1.0841  -4.5559 C.3            1 S1                 0.0000
     15 ****         2.2535   2.2161  -5.2217 F              1 S1                 0.0000
     16 ****         2.6529   0.0949  -5.1861 F              1 S1                 0.0000
     17 ****         0.7126   0.8343  -4.5992 F              1 S1                 0.0000
     18 ****         3.4848   2.0296  -2.7514 C.2            1 S1                 0.0000
     19 ****         3.8941   2.1511  -1.4213 N.am           1 S1                 0.0000
     20 ****         3.3528   1.4597  -0.3933 C.2            1 S1                 0.0000
     21 ****         3.7622   1.6301   0.7545 O.2            1 S1                 0.0000
     22 ****         4.6387   2.8053  -1.2278 H              1 S1                 0.0000
     23 ****        -5.8506   1.6134   1.6394 H              1 S1                 0.0000
     24 ****        -5.7112   0.0927   2.5175 H              1 S1                 0.0000
     25 ****        -5.7072   0.0975   0.7540 H              1 S1                 0.0000
     26 ****        -3.5345   1.3611   0.7683 H              1 S1                 0.0000
     27 ****        -3.5367   1.3608   2.5153 H              1 S1                 0.0000
     28 ****        -3.4179  -1.1450   2.5192 H              1 S1                 0.0000
     29 ****        -3.4316  -1.1505   0.7719 H              1 S1                 0.0000
     30 ****        -1.2902   0.1386   0.7428 H              1 S1                 0.0000
     31 ****        -1.2590   0.1298   2.5034 H              1 S1                 0.0000
     32 ****         0.7790  -1.1091   2.4433 H              1 S1                 0.0000
     33 ****         1.9160  -3.3060   1.9970 H              1 S1                 0.0000
     34 ****         0.4387  -3.9129   1.2480 H              1 S1                 0.0000
     35 ****         0.4552  -3.5004   2.9578 H              1 S1                 0.0000
     36 ****         1.8796   0.2229   1.2238 H              1 S1                 0.0000
     37 ****         1.0742  -0.2436  -2.3310 H              1 S1                 0.0000
     38 ****         4.0140   2.6792  -3.4329 H              1 S1                 0.0000
     39 ****        -1.3209  -2.2011   0.8028 LP             1 S1                 0.0000
     40 ****        -1.3471  -2.2107   2.4356 LP             1 S1                 0.0000
     41 ****         0.2057  -2.8238  -0.6402 LP             1 S1                 0.0000
     42 ****         1.1156  -1.7035  -1.5979 LP             1 S1                 0.0000
     43 ****         3.3586   1.1154   1.5109 LP             1 S1                 0.0000
     44 ****         4.4985   2.2833   0.9309 LP             1 S1                 0.0000
@<TRIPOS>BOND
    1    1    2 1     
    2    1   23 1     
    3    1   24 1     
    4    1   25 1     
    5    2    3 1     
    6    2   26 1     
    7    2   27 1     
    8    3    4 1     
    9    3   28 1     
   10    3   29 1     
   11    4    5 1     
   12    4   30 1     
   13    4   31 1     
   14    5    6 1     
   15    6    7 1     
   16    6    8 1     
   17    6   32 1     
   18    7   33 1     
   19    7   34 1     
   20    7   35 1     
   21    8    9 2     
   22    8   10 am    
   23   10   11 1     
   24   10   36 1     
   25   11   20 1     
   26   11   12 2     
   27   12   13 1     
   28   12   37 1     
   29   13   14 1     
   30   13   18 2     
   31   14   15 1     
   32   14   16 1     
   33   14   17 1     
   34   18   19 1     
   35   18   38 1     
   36   19   22 1     
   37   19   20 am    
   38   20   21 2     
   39    5   39 1     
   40    5   40 1     
   41    9   41 1     
   42    9   42 1     
   43   21   43 1     
   44   21   44 1     
@<TRIPOS>SUBSTRUCTURE
      1 S1             1
@<TRIPOS>SET
LONE_PAIRS      STATIC     ATOMS    <user>   **** ""
6 39 40 41 42 43 44
DONOR_HYDROGENS      STATIC     ATOMS    <user>   **** ""
2 36 22
ATOM$BLUE        STATIC     ATOMS    COLORGROUP SYSTEM
6 39 40 41 42 43 44
ATOM$RED        STATIC     ATOMS    COLORGROUP SYSTEM
2 36 22
