AV-unprocessed.smi:35|AV-procd|sdf|249|dock4
  -GOLD-   2262016 13D 1   1.00000     0.00000
 Structure written by MMmdl.
 29 30  0  0  0  0  0  0  0  0  1 V2000
  152.6464  140.1050  157.9612 O   0  0  0  0  0  0  0  0  0  0  0  0
  151.8216  140.2315  157.0588 C   0  0  0  0  0  0  0  0  0  0  0  0
  151.6887  139.2425  156.0796 N   0  0  0  0  0  0  0  0  0  0  0  0
  150.7913  139.2735  155.0098 C   0  0  0  0  0  0  0  0  0  0  0  0
  150.7535  138.3346  154.2159 O   0  0  0  0  0  0  0  0  0  0  0  0
  149.9528  140.4066  154.9058 N   0  0  0  0  0  0  0  0  0  0  0  0
  148.9580  140.5087  153.7727 C   0  0  2  0  0  0  0  0  0  0  0  0
  148.2662  141.7141  153.9069 O   0  0  0  0  0  0  0  0  0  0  0  0
  146.8692  141.4906  153.7598 C   0  0  2  0  0  0  0  0  0  0  0  0
  146.1041  142.5866  154.5178 C   0  0  0  0  0  0  0  0  0  0  0  0
  144.7180  142.4879  154.2702 O   0  0  0  0  0  0  0  0  0  0  0  0
  146.6767  140.0727  154.3043 C   0  0  1  0  0  0  0  0  0  0  0  0
  145.4855  139.4595  153.8475 O   0  0  0  0  0  0  0  0  0  0  0  0
  147.9415  139.3555  153.8381 C   0  0  1  0  0  0  0  0  0  0  0  0
  147.7856  138.7439  152.5699 O   0  0  0  0  0  0  0  0  0  0  0  0
  150.0434  141.4105  155.8602 C   0  0  0  0  0  0  0  0  0  0  0  0
  150.9161  141.3630  156.8934 C   0  0  0  0  0  0  0  0  0  0  0  0
  150.8869  142.8961  158.1475 Br  0  0  0  0  0  0  0  0  0  0  0  0
  152.2907  138.4353  156.1541 H   0  0  0  0  0  0  0  0  0  0  0  0
  149.5223  140.5443  152.8394 H   0  0  0  0  0  0  0  0  0  0  0  0
  146.6386  141.5236  152.6931 H   0  0  0  0  0  0  0  0  0  0  0  0
  146.2919  142.5262  155.5902 H   0  0  0  0  0  0  0  0  0  0  0  0
  146.4392  143.5703  154.1879 H   0  0  0  0  0  0  0  0  0  0  0  0
  144.5416  141.6450  153.8801 H   0  0  0  0  0  0  0  0  0  0  0  0
  146.6613  140.0974  155.3945 H   0  0  0  0  0  0  0  0  0  0  0  0
  145.0779  140.0326  153.2156 H   0  0  0  0  0  0  0  0  0  0  0  0
  148.2588  138.5922  154.5500 H   0  0  0  0  0  0  0  0  0  0  0  0
  148.3160  139.2129  151.9441 H   0  0  0  0  0  0  0  0  0  0  0  0
  149.3935  142.2697  155.7849 H   0  0  0  0  0  0  0  0  0  0  0  0
  1  2  2  0  0  0  0
  2 17  1  0  0  0  0
  2  3  1  0  0  0  0
  3 19  1  0  0  0  0
  3  4  1  0  0  0  0
  4  5  2  0  0  0  0
  4  6  1  0  0  0  0
  6  7  1  0  0  0  0
  6 16  1  0  0  0  0
  7 14  1  0  0  0  0
  7  8  1  0  0  0  0
  7 20  1  0  0  0  0
  8  9  1  0  0  0  0
  9 10  1  0  0  0  0
  9 12  1  0  0  0  0
  9 21  1  0  0  0  0
 10 11  1  0  0  0  0
 10 22  1  0  0  0  0
 10 23  1  0  0  0  0
 11 24  1  0  0  0  0
 12 13  1  0  0  0  0
 12 14  1  0  0  0  0
 12 25  1  0  0  0  0
 13 26  1  0  0  0  0
 14 15  1  0  0  0  0
 14 27  1  0  0  0  0
 15 28  1  0  0  0  0
 16 17  2  0  0  0  0
 16 29  1  0  0  0  0
 17 18  1  0  0  0  0
M  END
> <s_m_source_file>
AV-unprocessed.smi

> <i_m_source_file_index>
35

> <i_lp_mmshare_version>
43012

> <i_f3d_flags>
0

> <s_epik_input>
Tz1jMVtuSF1jKD1PKW4oW2NIXWMxQnIpW0NAQEhdMk9bQ0BASF0oW0NIMl1bT0hdKVtDQEBIXShbT0hdKVtDQEhdMltPSF0=

> <s_epik_cmdline>
J2VwaWtfcHl0aG9uJywgJy1waCcsICc3LjAnLCAnLXRuJywgJzgnLCAnLW1hJywgJzIwMCcsICctbWV0YWxfYmluZGluZycsICctaW1hZScsICc8aW5maWxlLm1hZT4nLCAnLW9tYWUnLCAnPG91dGZpbGUubWFlPic=

> <r_lp_tautomer_probability>
0.999537

> <r_epik_Ionization_Penalty>
0.10812

> <r_epik_Ionization_Penalty_Charging>
0.108119

> <r_epik_Ionization_Penalty_Neutral>
4.93006e-07

> <r_epik_State_Penalty>
0.0979238

> <r_epik_Charging_Adjusted_Penalty>
0.206043

> <i_epik_Tot_Q>
0

> <i_epik_Tot_abs_Q>
0

> <r_epik_Metal_State_Penalty>
3.07911

> <b_epik_Metal_Only>
0

> <s_epik_Chemistry_Notes>
This compound contains an acetal/aminal-like group ( X-CH(R)-Y where X, Y are N, S, or O) that may be acid/base labile, releasing an aldehyde.

> <s_lp_Force_Field>
OPLS_2005

> <r_lp_Energy>
30.5202

> <b_lp_Chiralities_Consistent>
1

> <s_lp_Variant>
AV-unprocessed.smi:35-3

> <Gold.Version>
5.8.1

> <Gold.Id.Protein>
6NUR|6NUR_protein|mol2

> <Gold.PLP.Fitness>
44.6628

> <Gold.PLP.PLP>
-30.3410

> <Gold.PLP.part.hbond>
-6.9566

> <Gold.PLP.part.metal>
0.0000

> <Gold.PLP.part.buried>
0.7810

> <Gold.PLP.part.nonpolar>
-24.9016

> <Gold.PLP.part.repulsive>
0.5118

> <Gold.PLP.ligand.clash>
0.0000

> <Gold.PLP.ligand.torsion>
0.0467

> <Gold.PLP.Chemscore.Hbond>
3.8024

> <Gold.PLP.Chemscore.CHOScore>
1.0000

> <Gold.PLP.Chemscore.Metal>
0.0000

> <Gold.Chemscore.Hbonds>
donor molecule, donor type, donor heavy atom, donor atom, acceptor molecule, acceptor atom, score
      L1  H    11    24       P1 10175  0.75
      L1  H    13    26       P1 10175  0.93
      L1  H    15    28       P1  7957  1.00
      P1  H  7997  8009       L1     1  0.73
      P1  H  8011  8017       L1     8  0.03
      L1  C    16    29       P1  8028  1.00

> <Gold.PLP.Chemscore.Internal.Correction>
0.0080

> <Gold.Rescore>
     Score         DG    S(hbond)    S(metal)    S(lipo)     H(rot)  DE(clash)    DE(int)     intcor
     10.20     -11.89       3.36        0.00      39.14       3.67       1.59       0.10       ----

> <Gold.Chemscore.Fitness>
10.2037

> <Gold.Chemscore.DG>
-11.8860

> <Gold.Chemscore.ZeroCoef>
-5.4800

> <Gold.Chemscore.Hbond>
3.3601

> <Gold.Chemscore.Metal>
0.0000

> <Gold.Chemscore.Lipo>
39.1354

> <Gold.Chemscore.Internal_Hbond>
0.0000

> <Gold.Chemscore.DEClash>
1.5851

> <Gold.Chemscore.DEInternal>
0.0973

> <Gold.Chemscore.Rot>
3.6701

> <Gold.Chemscore.Internal.Correction>
   9.000000E+99

> <Gold.Chemscore.Hbonds>
donor molecule, donor type, donor heavy atom, donor atom, acceptor molecule, acceptor atom, score
      L1  H    11    24       P1 10175  0.09
      L1  H    13    26       P1 10175  0.91
      L1  H    15    28       P1  7957  0.99
      P1  H  7997  8009       L1     1  0.34

> <Gold.Chemscore.Hbond.Weighted>
-11.2227

> <Gold.Chemscore.Metal.Weighted>
-0.0000

> <Gold.Chemscore.Lipo.Weighted>
-4.5788

> <Gold.Chemscore.Internal_Hbond.Weighted>
0.0000

> <Gold.Chemscore.DEClash.Weighted>
1.5851

> <Gold.Chemscore.DEInternal.Weighted>
0.0973

> <Gold.Chemscore.Rot.Weighted>
9.3955

> <Gold.Chemscore.Internal.Correction.Weighted>
   9.000000E+99

> <Gold.Protein.RotatedTorsions>
[ 6907 6896 6895 6894 ] final    5.63 input  -60.11 | X-H torsion
[ 7974 7965 7964 7962 ] final  -73.32 input  175.53 | X-H torsion
[ 8008 7997 7996 7995 ] final  157.38 input   59.86 | X-H torsion
[ 10167 10162 10161 10158 ] final  -10.36 input  -65.29 | X-H torsion
[ 10718 10713 10712 10709 ] final  177.74 input   66.30 | X-H torsion
[ 10763 10752 10751 10750 ] final   80.14 input  -60.55 | X-H torsion
[ 11005 11000 10999 10996 ] final   85.89 input  -57.11 | X-H torsion

> <Gold.Protein.ActiveResidues>
 VAL166  LYS551  ARG553  GLY616  TRP617  ASP618  TYR619  PRO620  LYS621  CYS622 
 ASP623  PHE694  ASN695  SER759  ASP760  ASP761  ALA762  ILE779  LEU786  VAL792 
 PHE793  MET794  SER795  GLU796  ALA797  LYS798  CYS799  TRP800  GLU811  SER814 

> <Gold.Protein.RotatedAtoms>
  151.6606  135.0990  160.0178 H   0  0  0  0  0  0  0  0  0  0  0  0  # atno 6907 bound_to 6896
  152.3949  133.6727  159.6276 H   0  0  0  0  0  0  0  0  0  0  0  0  # atno 6908 bound_to 6896
  150.7858  133.8808  159.3326 H   0  0  0  0  0  0  0  0  0  0  0  0  # atno 6909 bound_to 6896
  145.6536  140.9275  143.0971 H   0  0  0  0  0  0  0  0  0  0  0  0  # atno 7974 bound_to 7965
  156.2367  140.1887  156.7100 H   0  0  0  0  0  0  0  0  0  0  0  0  # atno 8008 bound_to 7997
  154.6119  140.0620  156.9532 H   0  0  0  0  0  0  0  0  0  0  0  0  # atno 8009 bound_to 7997
  155.2001  140.3291  155.4347 H   0  0  0  0  0  0  0  0  0  0  0  0  # atno 8010 bound_to 7997
  140.7112  143.5756  150.9046 H   0  0  0  0  0  0  0  0  0  0  0  0  # atno 10167 bound_to 10162
  156.9008  130.9878  151.3036 H   0  0  0  0  0  0  0  0  0  0  0  0  # atno 10718 bound_to 10713
  153.1009  135.4813  154.8865 H   0  0  0  0  0  0  0  0  0  0  0  0  # atno 10763 bound_to 10752
  154.7378  135.3075  154.8784 H   0  0  0  0  0  0  0  0  0  0  0  0  # atno 10764 bound_to 10752
  153.9401  135.6835  153.4798 H   0  0  0  0  0  0  0  0  0  0  0  0  # atno 10765 bound_to 10752
  139.8959  134.8318  156.2645 H   0  0  0  0  0  0  0  0  0  0  0  0  # atno 11005 bound_to 11000
  144.7114  139.8358  143.7413 LP  0  0  0  0  0  0  0  0  0  0  0  0  # atno 17320 bound_to 7965
  146.1183  139.4197  143.0244 LP  0  0  0  0  0  0  0  0  0  0  0  0  # atno 17321 bound_to 7965
  139.9482  143.6302  152.3036 LP  0  0  0  0  0  0  0  0  0  0  0  0  # atno 17342 bound_to 10162
  139.6812  144.7655  151.1606 LP  0  0  0  0  0  0  0  0  0  0  0  0  # atno 17343 bound_to 10162
  157.6027  130.8524  149.8827 LP  0  0  0  0  0  0  0  0  0  0  0  0  # atno 17370 bound_to 10713
  156.0583  130.3704  150.1041 LP  0  0  0  0  0  0  0  0  0  0  0  0  # atno 17371 bound_to 10713
  141.0141  133.7079  156.1159 LP  0  0  0  0  0  0  0  0  0  0  0  0  # atno 17394 bound_to 11000
  140.7326  134.4237  157.5564 LP  0  0  0  0  0  0  0  0  0  0  0  0  # atno 17395 bound_to 11000

$$$$
