AV-unprocessed.smi:1047|AV-procd|sdf|4592|dock9
  -GOLD-   22720 3 73D 1   1.00000     0.00000
 Structure written by MMmdl.
 55 57  0  0  0  0  0  0  0  0  1 V2000
  146.5582  133.9654  151.0590 C   0  0  0  0  0  0  0  0  0  0  0  0
  145.8211  134.9254  150.1144 C   0  0  0  0  0  0  0  0  0  0  0  0
  145.3214  136.1461  150.7443 N   0  0  0  0  0  0  0  0  0  0  0  0
  144.2916  135.8416  151.7310 C   0  0  0  0  0  0  0  0  0  0  0  0
  143.7524  137.1127  152.4072 C   0  0  0  0  0  0  0  0  0  0  0  0
  144.8315  137.8267  153.0014 O   0  0  0  0  0  0  0  0  0  0  0  0
  145.8399  138.1963  152.0643 C   0  0  1  0  0  0  0  0  0  0  0  0
  146.9283  138.9669  152.8266 C   0  0  0  0  0  0  0  0  0  0  0  0
  146.4328  140.2517  153.3114 N   0  0  0  0  0  0  0  0  0  0  0  0
  147.4828  141.2517  153.4808 C   0  0  0  0  0  0  0  0  0  0  0  0
  148.1429  141.1415  154.8654 C   0  0  2  0  0  0  0  0  0  0  0  0
  147.5105  142.0613  155.7336 O   0  0  0  0  0  0  0  0  0  0  0  0
  149.6486  141.4627  154.8035 C   0  0  0  0  0  0  0  0  0  0  0  0
  150.4035  140.8179  155.8639 N   0  0  0  0  0  0  0  0  0  0  0  0
  150.7200  139.5119  155.9520 C   0  0  0  0  0  0  0  0  0  0  0  0
  151.4290  139.1263  157.0090 N   0  0  0  0  0  0  0  0  0  0  0  0
  151.5908  140.3227  157.6868 C   0  0  0  0  0  0  0  0  0  0  0  0
  152.2600  140.6064  158.8975 C   0  0  0  0  0  0  0  0  0  0  0  0
  152.2998  141.9215  159.4131 C   0  0  0  0  0  0  0  0  0  0  0  0
  153.0329  142.1819  160.7173 C   0  0  0  0  0  0  0  0  0  0  0  0
  151.6601  142.9775  158.7154 C   0  0  0  0  0  0  0  0  0  0  0  0
  151.6843  144.3975  159.2529 C   0  0  0  0  0  0  0  0  0  0  0  0
  150.9892  142.7119  157.5032 C   0  0  0  0  0  0  0  0  0  0  0  0
  150.9593  141.3998  156.9987 C   0  0  0  0  0  0  0  0  0  0  0  0
  146.3811  136.9178  151.3900 C   0  0  0  0  0  0  0  0  0  0  0  0
  146.9955  133.1387  150.4989 H   0  0  0  0  0  0  0  0  0  0  0  0
  145.8914  133.5334  151.8044 H   0  0  0  0  0  0  0  0  0  0  0  0
  147.3675  134.4745  151.5829 H   0  0  0  0  0  0  0  0  0  0  0  0
  146.5177  135.1997  149.3211 H   0  0  0  0  0  0  0  0  0  0  0  0
  145.0017  134.3975  149.6245 H   0  0  0  0  0  0  0  0  0  0  0  0
  143.4670  135.3104  151.2542 H   0  0  0  0  0  0  0  0  0  0  0  0
  144.6949  135.1724  152.4930 H   0  0  0  0  0  0  0  0  0  0  0  0
  143.2383  137.7482  151.6843 H   0  0  0  0  0  0  0  0  0  0  0  0
  143.0275  136.8540  153.1790 H   0  0  0  0  0  0  0  0  0  0  0  0
  145.3895  138.8519  151.3161 H   0  0  0  0  0  0  0  0  0  0  0  0
  147.2558  138.3657  153.6757 H   0  0  0  0  0  0  0  0  0  0  0  0
  147.8035  139.1080  152.1912 H   0  0  0  0  0  0  0  0  0  0  0  0
  145.9404  140.1188  154.1891 H   0  0  0  0  0  0  0  0  0  0  0  0
  148.2430  141.0930  152.7148 H   0  0  0  0  0  0  0  0  0  0  0  0
  147.0919  142.2576  153.3214 H   0  0  0  0  0  0  0  0  0  0  0  0
  148.0121  140.1336  155.2627 H   0  0  0  0  0  0  0  0  0  0  0  0
  147.9390  142.8988  155.6423 H   0  0  0  0  0  0  0  0  0  0  0  0
  150.0631  141.1369  153.8485 H   0  0  0  0  0  0  0  0  0  0  0  0
  149.8134  142.5395  154.8605 H   0  0  0  0  0  0  0  0  0  0  0  0
  150.4131  138.8045  155.1956 H   0  0  0  0  0  0  0  0  0  0  0  0
  152.7452  139.8013  159.4291 H   0  0  0  0  0  0  0  0  0  0  0  0
  153.8297  142.9108  160.5685 H   0  0  0  0  0  0  0  0  0  0  0  0
  153.4837  141.2699  161.1100 H   0  0  0  0  0  0  0  0  0  0  0  0
  152.3462  142.5676  161.4708 H   0  0  0  0  0  0  0  0  0  0  0  0
  151.1168  145.0741  158.6137 H   0  0  0  0  0  0  0  0  0  0  0  0
  152.7082  144.7678  159.3080 H   0  0  0  0  0  0  0  0  0  0  0  0
  151.2469  144.4367  160.2507 H   0  0  0  0  0  0  0  0  0  0  0  0
  150.4968  143.5064  156.9621 H   0  0  0  0  0  0  0  0  0  0  0  0
  146.8860  136.2995  152.1341 H   0  0  0  0  0  0  0  0  0  0  0  0
  147.1360  137.2015  150.6573 H   0  0  0  0  0  0  0  0  0  0  0  0
  1  2  1  0  0  0  0
  1 26  1  0  0  0  0
  1 27  1  0  0  0  0
  1 28  1  0  0  0  0
  2  3  1  0  0  0  0
  2 29  1  0  0  0  0
  2 30  1  0  0  0  0
  3 25  1  0  0  0  0
  3  4  1  0  0  0  0
  4  5  1  0  0  0  0
  4 31  1  0  0  0  0
  4 32  1  0  0  0  0
  5  6  1  0  0  0  0
  5 33  1  0  0  0  0
  5 34  1  0  0  0  0
  6  7  1  0  0  0  0
  7  8  1  0  0  0  0
  7 25  1  0  0  0  0
  7 35  1  0  0  0  0
  8  9  1  0  0  0  0
  8 36  1  0  0  0  0
  8 37  1  0  0  0  0
  9 10  1  0  0  0  0
  9 38  1  0  0  0  0
 10 11  1  0  0  0  0
 10 39  1  0  0  0  0
 10 40  1  0  0  0  0
 11 12  1  0  0  0  0
 11 13  1  0  0  0  0
 11 41  1  0  0  0  0
 12 42  1  0  0  0  0
 13 14  1  0  0  0  0
 13 43  1  0  0  0  0
 13 44  1  0  0  0  0
 14 24  1  0  0  0  0
 14 15  1  0  0  0  0
 15 16  2  0  0  0  0
 15 45  1  0  0  0  0
 16 17  1  0  0  0  0
 17 24  2  0  0  0  0
 17 18  1  0  0  0  0
 18 19  2  0  0  0  0
 18 46  1  0  0  0  0
 19 20  1  0  0  0  0
 19 21  1  0  0  0  0
 20 47  1  0  0  0  0
 20 48  1  0  0  0  0
 20 49  1  0  0  0  0
 21 22  1  0  0  0  0
 21 23  2  0  0  0  0
 22 50  1  0  0  0  0
 22 51  1  0  0  0  0
 22 52  1  0  0  0  0
 23 24  1  0  0  0  0
 23 53  1  0  0  0  0
 25 54  1  0  0  0  0
 25 55  1  0  0  0  0
M  END
> <s_m_source_file>
AV-unprocessed.smi

> <i_m_source_file_index>
1047

> <i_lp_mmshare_version>
43012

> <i_f3d_flags>
0

> <s_epik_input>
W0NIM11bQ0gyXU4xW0NIMl1bQ0gyXU9bQ0BIXShbQ0gyXTEpW0NIMl1bTkhdW0NIMl1bQ0BIXShbT0hdKVtDSDJdbihbY0hdbjIpYyhjMjMpW2NIXWMoW0NIM10pYyhbY0hdMylbQ0gzXQ==

> <s_epik_cmdline>
J2VwaWtfcHl0aG9uJywgJy1waCcsICc3LjAnLCAnLXRuJywgJzgnLCAnLW1hJywgJzIwMCcsICctbWV0YWxfYmluZGluZycsICctaW1hZScsICc8aW5maWxlLm1hZT4nLCAnLW9tYWUnLCAnPG91dGZpbGUubWFlPic=

> <r_epik_Ionization_Penalty>
2.74124

> <r_epik_Ionization_Penalty_Charging>
0

> <r_epik_Ionization_Penalty_Neutral>
2.74124

> <r_epik_State_Penalty>
2.37482

> <r_epik_Charging_Adjusted_Penalty>
2.37482

> <i_epik_Tot_Q>
0

> <i_epik_Tot_abs_Q>
0

> <r_epik_Metal_State_Penalty>
2.25944

> <b_epik_Metal_Only>
0

> <s_lp_Force_Field>
OPLS_2005

> <r_lp_Energy>
35.4924

> <b_lp_Chiralities_Consistent>
1

> <s_lp_Variant>
AV-unprocessed.smi:1047-33

> <Gold.Version>
5.8.1

> <Gold.Id.Protein>
6NUR|6NUR_protein|mol2

> <Gold.PLP.Fitness>
48.5438

> <Gold.PLP.PLP>
-48.0489

> <Gold.PLP.part.hbond>
-2.0000

> <Gold.PLP.part.metal>
0.0000

> <Gold.PLP.part.buried>
-1.4817

> <Gold.PLP.part.nonpolar>
-45.2506

> <Gold.PLP.part.repulsive>
1.0721

> <Gold.PLP.ligand.clash>
0.0000

> <Gold.PLP.ligand.torsion>
1.2751

> <Gold.PLP.Chemscore.Hbond>
1.0000

> <Gold.PLP.Chemscore.CHOScore>
0.0000

> <Gold.PLP.Chemscore.Metal>
0.0000

> <Gold.Chemscore.Hbonds>
donor molecule, donor type, donor heavy atom, donor atom, acceptor molecule, acceptor atom, score
      L1  H    12    42       P1  8028  1.00

> <Gold.PLP.Chemscore.Internal.Correction>
0.0451

> <Gold.Rescore>
     Score         DG    S(hbond)    S(metal)    S(lipo)     H(rot)  DE(clash)    DE(int)     intcor
     14.94     -16.83       0.84        0.00     128.34       2.52       0.30       1.59       ----

> <Gold.Chemscore.Fitness>
14.9399

> <Gold.Chemscore.DG>
-16.8302

> <Gold.Chemscore.ZeroCoef>
-5.4800

> <Gold.Chemscore.Hbond>
0.8370

> <Gold.Chemscore.Metal>
0.0000

> <Gold.Chemscore.Lipo>
128.3362

> <Gold.Chemscore.Internal_Hbond>
0.0000

> <Gold.Chemscore.DEClash>
0.2971

> <Gold.Chemscore.DEInternal>
1.5932

> <Gold.Chemscore.Rot>
2.5237

> <Gold.Chemscore.Internal.Correction>
   9.000000E+99

> <Gold.Chemscore.Hbonds>
donor molecule, donor type, donor heavy atom, donor atom, acceptor molecule, acceptor atom, score
      L1  H    12    42       P1  8028  0.70

> <Gold.Chemscore.Hbond.Weighted>
-2.7955

> <Gold.Chemscore.Metal.Weighted>
-0.0000

> <Gold.Chemscore.Lipo.Weighted>
-15.0153

> <Gold.Chemscore.Internal_Hbond.Weighted>
0.0000

> <Gold.Chemscore.DEClash.Weighted>
0.2971

> <Gold.Chemscore.DEInternal.Weighted>
1.5932

> <Gold.Chemscore.Rot.Weighted>
6.4607

> <Gold.Chemscore.Internal.Correction.Weighted>
   9.000000E+99

> <Gold.Protein.RotatedTorsions>
[ 6907 6896 6895 6894 ] final  -16.31 input  -60.11 | X-H torsion
[ 7974 7965 7964 7962 ] final  -88.47 input  175.53 | X-H torsion
[ 8008 7997 7996 7995 ] final  -84.66 input   59.86 | X-H torsion
[ 10167 10162 10161 10158 ] final   94.81 input  -65.29 | X-H torsion
[ 10718 10713 10712 10709 ] final  132.68 input   66.30 | X-H torsion
[ 10763 10752 10751 10750 ] final  -38.73 input  -60.55 | X-H torsion
[ 11005 11000 10999 10996 ] final  146.21 input  -57.11 | X-H torsion

> <Gold.Protein.ActiveResidues>
 VAL166  LYS551  ARG553  GLY616  TRP617  ASP618  TYR619  PRO620  LYS621  CYS622 
 ASP623  PHE694  ASN695  SER759  ASP760  ASP761  ALA762  ILE779  LEU786  VAL792 
 PHE793  MET794  SER795  GLU796  ALA797  LYS798  CYS799  TRP800  GLU811  SER814 

> <Gold.Protein.RotatedAtoms>
  151.3106  135.0793  159.9270 H   0  0  0  0  0  0  0  0  0  0  0  0  # atno 6907 bound_to 6896
  152.5278  133.9740  159.7785 H   0  0  0  0  0  0  0  0  0  0  0  0  # atno 6908 bound_to 6896
  151.0043  133.5974  159.2721 H   0  0  0  0  0  0  0  0  0  0  0  0  # atno 6909 bound_to 6896
  145.4527  140.9561  143.2013 H   0  0  0  0  0  0  0  0  0  0  0  0  # atno 7974 bound_to 7965
  154.6322  140.0602  156.9746 H   0  0  0  0  0  0  0  0  0  0  0  0  # atno 8008 bound_to 7997
  155.1647  140.3286  155.4386 H   0  0  0  0  0  0  0  0  0  0  0  0  # atno 8009 bound_to 7997
  156.2489  140.1924  156.6753 H   0  0  0  0  0  0  0  0  0  0  0  0  # atno 8010 bound_to 7997
  139.8048  144.6798  150.9717 H   0  0  0  0  0  0  0  0  0  0  0  0  # atno 10167 bound_to 10162
  157.4848  131.1087  150.9635 H   0  0  0  0  0  0  0  0  0  0  0  0  # atno 10718 bound_to 10713
  153.9177  135.6785  153.4749 H   0  0  0  0  0  0  0  0  0  0  0  0  # atno 10763 bound_to 10752
  153.1045  135.4812  154.8923 H   0  0  0  0  0  0  0  0  0  0  0  0  # atno 10764 bound_to 10752
  154.7494  135.3181  154.8541 H   0  0  0  0  0  0  0  0  0  0  0  0  # atno 10765 bound_to 10752
  140.0775  134.9116  157.1447 H   0  0  0  0  0  0  0  0  0  0  0  0  # atno 11005 bound_to 11000
  144.8052  139.6066  143.7054 LP  0  0  0  0  0  0  0  0  0  0  0  0  # atno 17320 bound_to 7965
  146.2495  139.6170  142.9436 LP  0  0  0  0  0  0  0  0  0  0  0  0  # atno 17321 bound_to 7965
  140.7819  143.4245  151.0790 LP  0  0  0  0  0  0  0  0  0  0  0  0  # atno 17342 bound_to 10162
  139.7915  143.8212  152.3152 LP  0  0  0  0  0  0  0  0  0  0  0  0  # atno 17343 bound_to 10162
  157.0356  130.5729  149.5349 LP  0  0  0  0  0  0  0  0  0  0  0  0  # atno 17370 bound_to 10713
  156.0141  130.5234  150.8079 LP  0  0  0  0  0  0  0  0  0  0  0  0  # atno 17371 bound_to 10713
  140.3536  134.2571  155.7195 LP  0  0  0  0  0  0  0  0  0  0  0  0  # atno 17394 bound_to 11000
  141.2035  133.7911  157.0337 LP  0  0  0  0  0  0  0  0  0  0  0  0  # atno 17395 bound_to 11000

$$$$
