AV-unprocessed.smi:20|AV-procd|sdf|117|dock7
  -GOLD-   2262015283D 1   1.00000     0.00000
 Structure written by MMmdl.
 57 61  0  0  0  0  0  0  0  0  1 V2000
  143.6756  132.9208  147.9629 O   0  0  0  0  0  0  0  0  0  0  0  0
  143.7992  132.6912  149.1636 C   0  0  0  0  0  0  0  0  0  0  0  0
  145.0676  132.1389  149.7913 C   0  0  0  0  0  0  0  0  0  0  0  0
  144.8564  132.3857  151.3049 C   0  0  2  0  0  0  0  0  0  0  0  0
  145.5000  133.7221  151.7628 C   0  0  0  0  0  0  0  0  0  0  0  0
  147.0356  133.6383  151.8159 C   0  0  0  0  0  0  0  0  0  0  0  0
  147.4952  132.4402  152.6584 C   0  0  0  0  0  0  0  0  0  0  0  0
  146.8641  131.2075  152.1924 N   0  0  0  0  0  0  0  0  0  0  0  0
  147.4712  130.0693  152.6141 C   0  0  0  0  0  0  0  0  0  0  0  0
  146.8895  128.8621  152.3802 N   0  0  0  0  0  0  0  0  0  0  0  0
  147.4767  127.7370  152.7984 C   0  0  0  0  0  0  0  0  0  0  0  0
  148.6285  127.5911  153.4557 N   0  0  0  0  0  0  0  0  0  0  0  0
  149.2189  128.7977  153.6890 C   0  0  0  0  0  0  0  0  0  0  0  0
  148.7149  130.0729  153.3066 C   0  0  0  0  0  0  0  0  0  0  0  0
  149.6001  131.0689  153.7039 N   0  0  0  0  0  0  0  0  0  0  0  0
  150.5668  130.4202  154.2943 C   0  0  0  0  0  0  0  0  0  0  0  0
  150.4152  129.0524  154.3348 N   0  0  0  0  0  0  0  0  0  0  0  0
  151.3301  128.0872  154.9177 C   0  0  0  0  0  0  0  0  0  0  0  0
  152.7221  128.0451  154.2327 C   0  0  2  0  0  0  0  0  0  0  0  0
  153.6174  126.9097  154.7918 C   0  0  0  0  0  0  0  0  0  0  0  0
  153.5174  126.7997  156.1966 O   0  0  0  0  0  0  0  0  0  0  0  0
  153.4297  129.4203  154.3544 C   0  0  1  0  0  0  0  0  0  0  0  0
  153.9038  129.7754  155.7628 C   0  0  0  0  0  0  0  0  0  0  0  0
  155.1857  130.5876  155.5535 C   0  0  0  0  0  0  0  0  0  0  0  0
  155.3582  130.6786  154.1473 O   0  0  0  0  0  0  0  0  0  0  0  0
  154.7321  129.5513  153.5612 C   0  0  0  0  0  0  0  0  0  0  0  0
  145.4002  131.2313  152.1770 C   0  0  0  0  0  0  0  0  0  0  0  0
  143.3164  132.4857  151.4177 C   0  0  0  0  0  0  0  0  0  0  0  0
  142.8694  132.8811  150.0963 N   0  0  0  0  0  0  0  0  0  0  0  0
  145.1322  131.0749  149.5604 H   0  0  0  0  0  0  0  0  0  0  0  0
  145.9536  132.6263  149.3861 H   0  0  0  0  0  0  0  0  0  0  0  0
  145.1948  134.5426  151.1120 H   0  0  0  0  0  0  0  0  0  0  0  0
  145.1375  133.9757  152.7601 H   0  0  0  0  0  0  0  0  0  0  0  0
  147.4460  133.5541  150.8098 H   0  0  0  0  0  0  0  0  0  0  0  0
  147.4429  134.5599  152.2320 H   0  0  0  0  0  0  0  0  0  0  0  0
  148.5821  132.3722  152.6270 H   0  0  0  0  0  0  0  0  0  0  0  0
  147.2232  132.5970  153.7031 H   0  0  0  0  0  0  0  0  0  0  0  0
  146.9474  126.8225  152.5747 H   0  0  0  0  0  0  0  0  0  0  0  0
  151.4202  130.9249  154.7234 H   0  0  0  0  0  0  0  0  0  0  0  0
  151.4268  128.3426  155.9725 H   0  0  0  0  0  0  0  0  0  0  0  0
  150.8644  127.1016  154.8821 H   0  0  0  0  0  0  0  0  0  0  0  0
  152.5700  127.8595  153.1682 H   0  0  0  0  0  0  0  0  0  0  0  0
  153.3262  125.9404  154.3896 H   0  0  0  0  0  0  0  0  0  0  0  0
  154.6593  127.0638  154.5100 H   0  0  0  0  0  0  0  0  0  0  0  0
  152.9400  127.4786  156.5115 H   0  0  0  0  0  0  0  0  0  0  0  0
  152.7514  130.2052  154.0152 H   0  0  0  0  0  0  0  0  0  0  0  0
  153.1501  130.3440  156.3084 H   0  0  0  0  0  0  0  0  0  0  0  0
  154.1289  128.8797  156.3433 H   0  0  0  0  0  0  0  0  0  0  0  0
  155.1229  131.5829  155.9941 H   0  0  0  0  0  0  0  0  0  0  0  0
  156.0420  130.0750  155.9932 H   0  0  0  0  0  0  0  0  0  0  0  0
  155.3662  128.6718  153.6871 H   0  0  0  0  0  0  0  0  0  0  0  0
  154.5686  129.7123  152.4954 H   0  0  0  0  0  0  0  0  0  0  0  0
  145.0419  131.3432  153.2015 H   0  0  0  0  0  0  0  0  0  0  0  0
  145.0130  130.2796  151.8091 H   0  0  0  0  0  0  0  0  0  0  0  0
  142.8685  131.5192  151.6537 H   0  0  0  0  0  0  0  0  0  0  0  0
  142.9871  133.1973  152.1754 H   0  0  0  0  0  0  0  0  0  0  0  0
  141.9436  133.2414  149.9150 H   0  0  0  0  0  0  0  0  0  0  0  0
  1  2  2  0  0  0  0
  2 29  1  0  0  0  0
  2  3  1  0  0  0  0
  3  4  1  0  0  0  0
  3 30  1  0  0  0  0
  3 31  1  0  0  0  0
  4 27  1  0  0  0  0
  4  5  1  0  0  0  0
  4 28  1  0  0  0  0
  5  6  1  0  0  0  0
  5 32  1  0  0  0  0
  5 33  1  0  0  0  0
  6  7  1  0  0  0  0
  6 34  1  0  0  0  0
  6 35  1  0  0  0  0
  7  8  1  0  0  0  0
  7 36  1  0  0  0  0
  7 37  1  0  0  0  0
  8  9  1  0  0  0  0
  8 27  1  0  0  0  0
  9 14  1  0  0  0  0
  9 10  2  0  0  0  0
 10 11  1  0  0  0  0
 11 12  2  0  0  0  0
 11 38  1  0  0  0  0
 12 13  1  0  0  0  0
 13 17  1  0  0  0  0
 13 14  2  0  0  0  0
 14 15  1  0  0  0  0
 15 16  2  0  0  0  0
 16 17  1  0  0  0  0
 16 39  1  0  0  0  0
 17 18  1  0  0  0  0
 18 19  1  0  0  0  0
 18 40  1  0  0  0  0
 18 41  1  0  0  0  0
 19 20  1  0  0  0  0
 19 22  1  0  0  0  0
 19 42  1  0  0  0  0
 20 21  1  0  0  0  0
 20 43  1  0  0  0  0
 20 44  1  0  0  0  0
 21 45  1  0  0  0  0
 22 26  1  0  0  0  0
 22 23  1  0  0  0  0
 22 46  1  0  0  0  0
 23 24  1  0  0  0  0
 23 47  1  0  0  0  0
 23 48  1  0  0  0  0
 24 25  1  0  0  0  0
 24 49  1  0  0  0  0
 24 50  1  0  0  0  0
 25 26  1  0  0  0  0
 26 51  1  0  0  0  0
 26 52  1  0  0  0  0
 27 53  1  0  0  0  0
 27 54  1  0  0  0  0
 28 29  1  0  0  0  0
 28 55  1  0  0  0  0
 28 56  1  0  0  0  0
 29 57  1  0  0  0  0
M  END
> <s_m_source_file>
AV-unprocessed.smi

> <i_m_source_file_index>
20

> <i_lp_mmshare_version>
43012

> <i_f3d_flags>
0

> <s_epik_input>
W0NIMl0xW05IXUMoPU8pW0NIMl1bQ0BAXTEyW0NIMl1bQ0gyXVtDSDJdTihbQ0gyXTIpYyhuW2NIXW4zKWMoYzM0KW5bY0hdbjRbQ0gyXVtDQEhdKFtDSDJdW09IXSlbQ0BASF01W0NIMl1bQ0gyXU9bQ0gyXTU=

> <s_epik_cmdline>
J2VwaWtfcHl0aG9uJywgJy1waCcsICc3LjAnLCAnLXRuJywgJzgnLCAnLW1hJywgJzIwMCcsICctbWV0YWxfYmluZGluZycsICctaW1hZScsICc8aW5maWxlLm1hZT4nLCAnLW9tYWUnLCAnPG91dGZpbGUubWFlPic=

> <r_lp_tautomer_probability>
1

> <r_epik_Ionization_Penalty>
0.0019697

> <r_epik_Ionization_Penalty_Charging>
0

> <r_epik_Ionization_Penalty_Neutral>
0.0019697

> <r_epik_State_Penalty>
0.00113613

> <r_epik_Charging_Adjusted_Penalty>
0.00113613

> <i_epik_Tot_Q>
0

> <i_epik_Tot_abs_Q>
0

> <r_epik_Metal_State_Penalty>
-0

> <b_epik_Metal_Only>
0

> <s_lp_Force_Field>
OPLS_2005

> <r_lp_Energy>
58.6133

> <b_lp_Chiralities_Consistent>
1

> <s_lp_Variant>
AV-unprocessed.smi:20-5

> <Gold.Version>
5.8.1

> <Gold.Id.Protein>
6NUR|6NUR_protein|mol2

> <Gold.PLP.Fitness>
45.5139

> <Gold.PLP.PLP>
-43.4262

> <Gold.PLP.part.hbond>
-2.0467

> <Gold.PLP.part.metal>
0.0000

> <Gold.PLP.part.buried>
-4.5440

> <Gold.PLP.part.nonpolar>
-40.0841

> <Gold.PLP.part.repulsive>
4.3459

> <Gold.PLP.ligand.clash>
1.3813

> <Gold.PLP.ligand.torsion>
0.6948

> <Gold.PLP.Chemscore.Hbond>
1.4720

> <Gold.PLP.Chemscore.CHOScore>
0.0000

> <Gold.PLP.Chemscore.Metal>
0.0000

> <Gold.Chemscore.Hbonds>
donor molecule, donor type, donor heavy atom, donor atom, acceptor molecule, acceptor atom, score
      L1  H    29    57       P1 10186  1.00
      P1  H  7918  7932       L1     1  0.01

> <Gold.PLP.Chemscore.Internal.Correction>
0.4425

> <Gold.Rescore>
     Score         DG    S(hbond)    S(metal)    S(lipo)     H(rot)  DE(clash)    DE(int)     intcor
      7.63     -10.62       0.96        0.00      76.59       2.74       0.15       2.84       ----

> <Gold.Chemscore.Fitness>
7.6310

> <Gold.Chemscore.DG>
-10.6152

> <Gold.Chemscore.ZeroCoef>
-5.4800

> <Gold.Chemscore.Hbond>
0.9557

> <Gold.Chemscore.Metal>
0.0000

> <Gold.Chemscore.Lipo>
76.5938

> <Gold.Chemscore.Internal_Hbond>
0.0000

> <Gold.Chemscore.DEClash>
0.1483

> <Gold.Chemscore.DEInternal>
2.8359

> <Gold.Chemscore.Rot>
2.7415

> <Gold.Chemscore.Internal.Correction>
   9.000000E+99

> <Gold.Chemscore.Hbonds>
donor molecule, donor type, donor heavy atom, donor atom, acceptor molecule, acceptor atom, score
      L1  H    29    57       P1 10186  0.90
      P1  H  7918  7932       L1     1  0.04

> <Gold.Chemscore.Hbond.Weighted>
-3.1919

> <Gold.Chemscore.Metal.Weighted>
-0.0000

> <Gold.Chemscore.Lipo.Weighted>
-8.9615

> <Gold.Chemscore.Internal_Hbond.Weighted>
0.0000

> <Gold.Chemscore.DEClash.Weighted>
0.1483

> <Gold.Chemscore.DEInternal.Weighted>
2.8359

> <Gold.Chemscore.Rot.Weighted>
7.0182

> <Gold.Chemscore.Internal.Correction.Weighted>
   9.000000E+99

> <Gold.Protein.RotatedTorsions>
[ 6907 6896 6895 6894 ] final  -39.15 input  -60.11 | X-H torsion
[ 7974 7965 7964 7962 ] final -146.49 input  175.53 | X-H torsion
[ 8008 7997 7996 7995 ] final  105.01 input   59.86 | X-H torsion
[ 10167 10162 10161 10158 ] final   54.01 input  -65.29 | X-H torsion
[ 10718 10713 10712 10709 ] final -115.96 input   66.30 | X-H torsion
[ 10763 10752 10751 10750 ] final  -83.11 input  -60.55 | X-H torsion
[ 11005 11000 10999 10996 ] final -140.75 input  -57.11 | X-H torsion

> <Gold.Protein.ActiveResidues>
 VAL166  LYS551  ARG553  GLY616  TRP617  ASP618  TYR619  PRO620  LYS621  CYS622 
 ASP623  PHE694  ASN695  SER759  ASP760  ASP761  ALA762  ILE779  LEU786  VAL792 
 PHE793  MET794  SER795  GLU796  ALA797  LYS798  CYS799  TRP800  GLU811  SER814 

> <Gold.Protein.RotatedAtoms>
  150.9939  134.9267  159.7914 H   0  0  0  0  0  0  0  0  0  0  0  0  # atno 6907 bound_to 6896
  152.5259  134.3245  159.9170 H   0  0  0  0  0  0  0  0  0  0  0  0  # atno 6908 bound_to 6896
  151.3251  133.3982  159.2692 H   0  0  0  0  0  0  0  0  0  0  0  0  # atno 6909 bound_to 6896
  144.8156  140.5449  143.5613 H   0  0  0  0  0  0  0  0  0  0  0  0  # atno 7974 bound_to 7965
  156.1622  140.3138  155.8827 H   0  0  0  0  0  0  0  0  0  0  0  0  # atno 8008 bound_to 7997
  155.3758  140.0485  157.3061 H   0  0  0  0  0  0  0  0  0  0  0  0  # atno 8009 bound_to 7997
  154.5158  140.2181  155.9080 H   0  0  0  0  0  0  0  0  0  0  0  0  # atno 8010 bound_to 7997
  140.2347  144.3649  150.6401 H   0  0  0  0  0  0  0  0  0  0  0  0  # atno 10167 bound_to 10162
  156.0931  130.6109  150.8973 H   0  0  0  0  0  0  0  0  0  0  0  0  # atno 10718 bound_to 10713
  154.5838  135.5567  153.7211 H   0  0  0  0  0  0  0  0  0  0  0  0  # atno 10763 bound_to 10752
  153.0091  135.6326  154.1945 H   0  0  0  0  0  0  0  0  0  0  0  0  # atno 10764 bound_to 10752
  154.1886  135.2883  155.3009 H   0  0  0  0  0  0  0  0  0  0  0  0  # atno 10765 bound_to 10752
  140.8392  134.2423  157.4819 H   0  0  0  0  0  0  0  0  0  0  0  0  # atno 11005 bound_to 11000
  145.5223  139.1476  143.3545 LP  0  0  0  0  0  0  0  0  0  0  0  0  # atno 17320 bound_to 7965
  146.2458  140.5364  142.8914 LP  0  0  0  0  0  0  0  0  0  0  0  0  # atno 17321 bound_to 7965
  140.6159  143.2172  151.6793 LP  0  0  0  0  0  0  0  0  0  0  0  0  # atno 17342 bound_to 10162
  139.5098  144.3565  152.0602 LP  0  0  0  0  0  0  0  0  0  0  0  0  # atno 17343 bound_to 10162
  157.6085  131.0937  150.8837 LP  0  0  0  0  0  0  0  0  0  0  0  0  # atno 17370 bound_to 10713
  156.8981  130.5237  149.5283 LP  0  0  0  0  0  0  0  0  0  0  0  0  # atno 17371 bound_to 10713
  139.8703  134.9626  156.4436 LP  0  0  0  0  0  0  0  0  0  0  0  0  # atno 17394 bound_to 11000
  140.8914  133.7845  155.9576 LP  0  0  0  0  0  0  0  0  0  0  0  0  # atno 17395 bound_to 11000

$$$$
