#       Name:                AV-unprocessed.smi:2124
#       Creating user name   scv26
#       Creation time:       Fri Mar 27 11:41:27 2020


#       File generated by GOLD software.
#

@<TRIPOS>MOLECULE
AV-unprocessed.smi:2124
    52    54     1
SMALL
NO_CHARGES


@<TRIPOS>ATOM
      1 ****        -2.8570   3.7266   1.0235 C.3            1 S1                 0.0000
      2 ****        -2.7460   2.3978   0.3082 C.2            1 S1                 0.0000
      3 ****        -2.0774   2.4706  -0.9024 N.pl3          1 S1                 0.0000
      4 ****        -1.9091   1.3003  -1.6206 C.2            1 S1                 0.0000
      5 ****        -1.1348   1.4639  -2.9167 C.3            1 S1                 0.0000
      6 ****        -2.3982   0.1190  -1.1643 C.2            1 S1                 0.0000
      7 ****        -2.1968  -1.2019  -1.9083 C.3            1 S1                 0.0000
      8 ****        -0.8117  -1.8242  -1.7288 C.2            1 S1                 0.0000
      9 ****        -0.1301  -2.1164  -2.7106 O.2            1 S1                 0.0000
     10 ****        -0.3973  -1.9740  -0.4621 N.am           1 S1                 0.0000
     11 ****         0.9659  -2.2740  -0.0398 C.3            1 S1                 0.0000
     12 ****         1.1126  -3.7832   0.2099 C.3            1 S1                 0.0000
     13 ****         1.3028  -1.4332   1.2146 C.3            1 S1                 0.0000
     14 ****         2.8003  -1.4073   1.5938 C.3            1 S1                 0.0000
     15 ****         3.0875   0.0968   1.7653 C.3            1 S1                 0.0000
     16 ****         3.1274   0.7654   0.3784 C.3            1 S1                 0.0000
     17 ****         1.6447   0.7750  -0.0355 C.3            1 S1                 0.0000
     18 ****         0.9550   0.0775   1.1546 C.3            1 S1                 0.0000
     19 ****         1.7687   0.6159   2.3261 C.3            1 S1                 0.0000
     20 ****        -3.1198   0.1076   0.1307 C.2            1 S1                 0.0000
     21 ****        -3.5840  -0.9303   0.6002 O.2            1 S1                 0.0000
     22 ****        -3.2504   1.3199   0.8269 N.2            1 S1                 0.0000
     23 ****        -1.6944   3.3267  -1.2770 H              1 S1                 0.0000
     24 ****        -3.1426   3.5838   2.0664 H              1 S1                 0.0000
     25 ****        -3.6108   4.3514   0.5440 H              1 S1                 0.0000
     26 ****        -1.9033   4.2555   1.0031 H              1 S1                 0.0000
     27 ****        -0.2249   0.8641  -2.8965 H              1 S1                 0.0000
     28 ****        -0.8456   2.5021  -3.0838 H              1 S1                 0.0000
     29 ****        -1.7400   1.1455  -3.7656 H              1 S1                 0.0000
     30 ****        -2.3650  -1.0310  -2.9720 H              1 S1                 0.0000
     31 ****        -2.9496  -1.9364  -1.6205 H              1 S1                 0.0000
     32 ****        -1.0475  -1.7287   0.2706 H              1 S1                 0.0000
     33 ****         1.6587  -1.9986  -0.8367 H              1 S1                 0.0000
     34 ****         2.1297  -4.0369   0.5087 H              1 S1                 0.0000
     35 ****         0.8849  -4.3536  -0.6914 H              1 S1                 0.0000
     36 ****         0.4400  -4.1237   0.9978 H              1 S1                 0.0000
     37 ****         0.7472  -1.8544   2.0548 H              1 S1                 0.0000
     38 ****         2.9663  -1.9470   2.5271 H              1 S1                 0.0000
     39 ****         3.4422  -1.8563   0.8348 H              1 S1                 0.0000
     40 ****         3.9652   0.3072   2.3768 H              1 S1                 0.0000
     41 ****         3.5125   1.7836   0.4463 H              1 S1                 0.0000
     42 ****         3.7526   0.2179  -0.3278 H              1 S1                 0.0000
     43 ****         1.2845   1.7999  -0.1344 H              1 S1                 0.0000
     44 ****         1.4698   0.2789  -0.9895 H              1 S1                 0.0000
     45 ****        -0.1137   0.2849   1.2189 H              1 S1                 0.0000
     46 ****         1.4996   0.1692   3.2850 H              1 S1                 0.0000
     47 ****         1.7331   1.7032   2.4159 H              1 S1                 0.0000
     48 ****        -0.4814  -1.9471  -3.6314 LP             1 S1                 0.0000
     49 ****         0.7751  -2.5232  -2.5877 LP             1 S1                 0.0000
     50 ****        -3.4788  -1.7934   0.1063 LP             1 S1                 0.0000
     51 ****        -4.0666  -0.9109   1.4759 LP             1 S1                 0.0000
     52 ****        -3.7238   1.3525   1.7072 LP             1 S1                 0.0000
@<TRIPOS>BOND
    1    1   24 1     
    2    1   25 1     
    3    1   26 1     
    4    1    2 1     
    5    2    3 1     
    6    2   22 2     
    7    3    4 1     
    8    3   23 1     
    9    4    6 2     
   10    4    5 1     
   11    5   27 1     
   12    5   28 1     
   13    5   29 1     
   14    6   20 1     
   15    6    7 1     
   16    7    8 1     
   17    7   30 1     
   18    7   31 1     
   19    8    9 2     
   20    8   10 am    
   21   10   11 1     
   22   10   32 1     
   23   11   12 1     
   24   11   13 1     
   25   11   33 1     
   26   12   34 1     
   27   12   35 1     
   28   12   36 1     
   29   13   18 1     
   30   13   14 1     
   31   13   37 1     
   32   14   15 1     
   33   14   38 1     
   34   14   39 1     
   35   15   19 1     
   36   15   16 1     
   37   15   40 1     
   38   16   17 1     
   39   16   41 1     
   40   16   42 1     
   41   17   18 1     
   42   17   43 1     
   43   17   44 1     
   44   18   19 1     
   45   18   45 1     
   46   19   46 1     
   47   19   47 1     
   48   20   21 2     
   49   20   22 1     
   50    9   48 1     
   51    9   49 1     
   52   21   50 1     
   53   21   51 1     
   54   22   52 1     
@<TRIPOS>SUBSTRUCTURE
      1 S1             1
@<TRIPOS>SET
LONE_PAIRS      STATIC     ATOMS    <user>   **** ""
5 48 49 50 51 52
DONOR_HYDROGENS      STATIC     ATOMS    <user>   **** ""
2 23 32
ATOM$BLUE        STATIC     ATOMS    COLORGROUP SYSTEM
5 48 49 50 51 52
ATOM$RED        STATIC     ATOMS    COLORGROUP SYSTEM
2 23 32
