AV-unprocessed.smi:2448|AV-procd|sdf|9652|dock1
  -GOLD-   2272013283D 1   1.00000     0.00000
 Structure written by MMmdl.
 37 38  0  0  0  0  0  0  0  0  1 V2000
  144.0529  137.7366  152.0800 O   0  0  0  0  0  0  0  0  0  0  0  0
  145.0096  136.8880  152.6903 C   0  0  2  0  0  0  0  0  0  0  0  0
  146.0157  137.7717  153.4559 C   0  0  0  0  0  0  0  0  0  0  0  0
  147.1049  138.2317  152.5910 N   0  0  0  0  0  0  0  0  0  0  0  0
  148.1288  139.0850  153.2130 C   0  0  2  0  0  0  0  0  0  0  0  0
  148.6854  138.3158  154.4347 C   0  0  0  0  0  0  0  0  0  0  0  0
  150.1092  138.6767  154.8209 C   0  0  0  0  0  0  0  0  0  0  0  0
  151.2050  137.9658  154.2880 C   0  0  0  0  0  0  0  0  0  0  0  0
  152.5053  138.3443  154.6778 C   0  0  0  0  0  0  0  0  0  0  0  0
  152.7575  139.3570  155.5348 N   0  0  0  0  0  0  0  0  0  0  0  0
  151.7042  140.0360  156.0375 C   0  0  0  0  0  0  0  0  0  0  0  0
  150.3654  139.7386  155.7130 C   0  0  0  0  0  0  0  0  0  0  0  0
  147.5780  140.4907  153.5849 C   0  0  0  0  0  0  0  0  0  0  0  0
  148.5611  141.3268  153.9141 F   0  0  0  0  0  0  0  0  0  0  0  0
  146.9007  141.0069  152.5587 F   0  0  0  0  0  0  0  0  0  0  0  0
  146.7672  140.4270  154.6398 F   0  0  0  0  0  0  0  0  0  0  0  0
  145.6956  136.0889  151.5700 C   0  0  0  0  0  0  0  0  0  0  0  0
  144.7074  135.0268  151.0769 C   0  0  0  0  0  0  0  0  0  0  0  0
  143.7235  134.4933  152.4998 S   0  0  0  0  0  0  0  0  0  0  0  0
  144.3017  135.8392  153.5682 C   0  0  0  0  0  0  0  0  0  0  0  0
  144.2486  138.6288  152.3211 H   0  0  0  0  0  0  0  0  0  0  0  0
  145.4931  138.6355  153.8688 H   0  0  0  0  0  0  0  0  0  0  0  0
  146.4007  137.2041  154.3017 H   0  0  0  0  0  0  0  0  0  0  0  0
  147.5535  137.4272  152.1642 H   0  0  0  0  0  0  0  0  0  0  0  0
  148.9472  139.2159  152.5039 H   0  0  0  0  0  0  0  0  0  0  0  0
  148.0301  138.4598  155.2949 H   0  0  0  0  0  0  0  0  0  0  0  0
  148.6745  137.2447  154.2274 H   0  0  0  0  0  0  0  0  0  0  0  0
  151.0575  137.1469  153.5995 H   0  0  0  0  0  0  0  0  0  0  0  0
  153.3660  137.8200  154.2897 H   0  0  0  0  0  0  0  0  0  0  0  0
  151.9345  140.8417  156.7187 H   0  0  0  0  0  0  0  0  0  0  0  0
  149.5573  140.3137  156.1410 H   0  0  0  0  0  0  0  0  0  0  0  0
  146.0422  136.7272  150.7560 H   0  0  0  0  0  0  0  0  0  0  0  0
  146.5756  135.5853  151.9722 H   0  0  0  0  0  0  0  0  0  0  0  0
  144.0312  135.4578  150.3379 H   0  0  0  0  0  0  0  0  0  0  0  0
  145.2126  134.1813  150.6102 H   0  0  0  0  0  0  0  0  0  0  0  0
  145.0102  135.4081  154.2766 H   0  0  0  0  0  0  0  0  0  0  0  0
  143.4785  136.2596  154.1470 H   0  0  0  0  0  0  0  0  0  0  0  0
  1  2  1  0  0  0  0
  1 21  1  0  0  0  0
  2 20  1  0  0  0  0
  2  3  1  0  0  0  0
  2 17  1  0  0  0  0
  3  4  1  0  0  0  0
  3 22  1  0  0  0  0
  3 23  1  0  0  0  0
  4  5  1  0  0  0  0
  4 24  1  0  0  0  0
  5  6  1  0  0  0  0
  5 13  1  0  0  0  0
  5 25  1  0  0  0  0
  6  7  1  0  0  0  0
  6 26  1  0  0  0  0
  6 27  1  0  0  0  0
  7 12  1  0  0  0  0
  7  8  2  0  0  0  0
  8  9  1  0  0  0  0
  8 28  1  0  0  0  0
  9 10  2  0  0  0  0
  9 29  1  0  0  0  0
 10 11  1  0  0  0  0
 11 12  2  0  0  0  0
 11 30  1  0  0  0  0
 12 31  1  0  0  0  0
 13 14  1  0  0  0  0
 13 15  1  0  0  0  0
 13 16  1  0  0  0  0
 17 18  1  0  0  0  0
 17 32  1  0  0  0  0
 17 33  1  0  0  0  0
 18 19  1  0  0  0  0
 18 34  1  0  0  0  0
 18 35  1  0  0  0  0
 19 20  1  0  0  0  0
 20 36  1  0  0  0  0
 20 37  1  0  0  0  0
M  END
> <s_m_source_file>
AV-unprocessed.smi

> <i_m_source_file_index>
2448

> <i_lp_mmshare_version>
43012

> <i_f3d_flags>
0

> <s_epik_input>
W0NIMl0xU1tDSDJdW0NIMl1bQ0BAXTEoW09IXSlbQ0gyXVtOSF1bQ0BASF0oQyhGKShGKUYpW0NIMl1jMltjSF1bY0hdbltjSF1bY0hdMg==

> <s_epik_cmdline>
J2VwaWtfcHl0aG9uJywgJy1waCcsICc3LjAnLCAnLXRuJywgJzgnLCAnLW1hJywgJzIwMCcsICctbWV0YWxfYmluZGluZycsICctaW1hZScsICc8aW5maWxlLm1hZT4nLCAnLW9tYWUnLCAnPG91dGZpbGUubWFlPic=

> <r_epik_Ionization_Penalty>
0.187708

> <r_epik_Ionization_Penalty_Charging>
0

> <r_epik_Ionization_Penalty_Neutral>
0.187708

> <r_epik_State_Penalty>
0.22769

> <r_epik_Charging_Adjusted_Penalty>
0.22769

> <i_epik_Tot_Q>
0

> <i_epik_Tot_abs_Q>
0

> <r_epik_Metal_State_Penalty>
0.176206

> <b_epik_Metal_Only>
0

> <s_lp_Force_Field>
OPLS_2005

> <r_lp_Energy>
30.9139

> <b_lp_Chiralities_Consistent>
1

> <s_lp_Variant>
AV-unprocessed.smi:2448-2

> <Gold.Version>
5.8.1

> <Gold.Id.Protein>
6NUR|6NUR_protein|mol2

> <Gold.PLP.Fitness>
42.6228

> <Gold.PLP.PLP>
-36.0054

> <Gold.PLP.part.hbond>
-3.9915

> <Gold.PLP.part.metal>
0.0000

> <Gold.PLP.part.buried>
-3.2222

> <Gold.PLP.part.nonpolar>
-29.6606

> <Gold.PLP.part.repulsive>
0.0000

> <Gold.PLP.ligand.clash>
0.0000

> <Gold.PLP.ligand.torsion>
1.3791

> <Gold.PLP.Chemscore.Hbond>
2.8800

> <Gold.PLP.Chemscore.CHOScore>
0.0000

> <Gold.PLP.Chemscore.Metal>
0.0000

> <Gold.Chemscore.Hbonds>
donor molecule, donor type, donor heavy atom, donor atom, acceptor molecule, acceptor atom, score
      L1  H     1    21       P1 10175  0.96
      L1  H     4    24       P1  7948  1.00
      P1  H  7997  8008       L1    10  1.00

> <Gold.PLP.Chemscore.Internal.Correction>
0.7355

> <Gold.Rescore>
     Score         DG    S(hbond)    S(metal)    S(lipo)     H(rot)  DE(clash)    DE(int)     intcor
     14.95     -18.20       2.88        0.00      77.05       2.31       1.99       1.26       ----

> <Gold.Chemscore.Fitness>
14.9527

> <Gold.Chemscore.DG>
-18.2039

> <Gold.Chemscore.ZeroCoef>
-5.4800

> <Gold.Chemscore.Hbond>
2.8820

> <Gold.Chemscore.Metal>
0.0000

> <Gold.Chemscore.Lipo>
77.0452

> <Gold.Chemscore.Internal_Hbond>
0.0000

> <Gold.Chemscore.DEClash>
1.9914

> <Gold.Chemscore.DEInternal>
1.2598

> <Gold.Chemscore.Rot>
2.3111

> <Gold.Chemscore.Internal.Correction>
   9.000000E+99

> <Gold.Chemscore.Hbonds>
donor molecule, donor type, donor heavy atom, donor atom, acceptor molecule, acceptor atom, score
      L1  H     1    21       P1 10175  0.92
      L1  H     4    24       P1  7948  0.98
      P1  H  7997  8008       L1    10  0.65

> <Gold.Chemscore.Hbond.Weighted>
-9.6260

> <Gold.Chemscore.Metal.Weighted>
-0.0000

> <Gold.Chemscore.Lipo.Weighted>
-9.0143

> <Gold.Chemscore.Internal_Hbond.Weighted>
0.0000

> <Gold.Chemscore.DEClash.Weighted>
1.9914

> <Gold.Chemscore.DEInternal.Weighted>
1.2598

> <Gold.Chemscore.Rot.Weighted>
5.9164

> <Gold.Chemscore.Internal.Correction.Weighted>
   9.000000E+99

> <Gold.Protein.RotatedTorsions>
[ 6907 6896 6895 6894 ] final   36.55 input  -60.11 | X-H torsion
[ 7974 7965 7964 7962 ] final  -66.26 input  175.53 | X-H torsion
[ 8008 7997 7996 7995 ] final  -39.95 input   59.86 | X-H torsion
[ 10167 10162 10161 10158 ] final  109.17 input  -65.29 | X-H torsion
[ 10718 10713 10712 10709 ] final  -18.68 input   66.30 | X-H torsion
[ 10763 10752 10751 10750 ] final -137.24 input  -60.55 | X-H torsion
[ 11005 11000 10999 10996 ] final    6.41 input  -57.11 | X-H torsion

> <Gold.Protein.ActiveResidues>
 VAL166  LYS551  ARG553  GLY616  TRP617  ASP618  TYR619  PRO620  LYS621  CYS622 
 ASP623  PHE694  ASN695  SER759  ASP760  ASP761  ALA762  ILE779  LEU786  VAL792 
 PHE793  MET794  SER795  GLU796  ALA797  LYS798  CYS799  TRP800  GLU811  SER814 

> <Gold.Protein.RotatedAtoms>
  152.1313  134.9133  160.0558 H   0  0  0  0  0  0  0  0  0  0  0  0  # atno 6907 bound_to 6896
  152.0236  133.3903  159.4276 H   0  0  0  0  0  0  0  0  0  0  0  0  # atno 6908 bound_to 6896
  150.6856  134.3520  159.4957 H   0  0  0  0  0  0  0  0  0  0  0  0  # atno 6909 bound_to 6896
  145.7439  140.8940  143.0515 H   0  0  0  0  0  0  0  0  0  0  0  0  # atno 7974 bound_to 7965
  154.4017  140.1538  156.2948 H   0  0  0  0  0  0  0  0  0  0  0  0  # atno 8008 bound_to 7997
  155.8753  140.3446  155.5828 H   0  0  0  0  0  0  0  0  0  0  0  0  # atno 8009 bound_to 7997
  155.7728  140.0832  157.2090 H   0  0  0  0  0  0  0  0  0  0  0  0  # atno 8010 bound_to 7997
  139.6788  144.7120  151.1554 H   0  0  0  0  0  0  0  0  0  0  0  0  # atno 10167 bound_to 10162
  156.5562  130.4714  149.6428 H   0  0  0  0  0  0  0  0  0  0  0  0  # atno 10718 bound_to 10713
  154.8666  135.3648  154.5191 H   0  0  0  0  0  0  0  0  0  0  0  0  # atno 10763 bound_to 10752
  153.5822  135.7018  153.5463 H   0  0  0  0  0  0  0  0  0  0  0  0  # atno 10764 bound_to 10752
  153.3447  135.4088  155.1562 H   0  0  0  0  0  0  0  0  0  0  0  0  # atno 10765 bound_to 10752
  140.5598  134.0203  155.7967 H   0  0  0  0  0  0  0  0  0  0  0  0  # atno 11005 bound_to 11000
  144.6864  139.9499  143.7477 LP  0  0  0  0  0  0  0  0  0  0  0  0  # atno 17320 bound_to 7965
  146.0421  139.3431  143.0691 LP  0  0  0  0  0  0  0  0  0  0  0  0  # atno 17321 bound_to 7965
  140.7645  143.5731  150.8974 LP  0  0  0  0  0  0  0  0  0  0  0  0  # atno 17342 bound_to 10162
  139.9402  143.6391  152.3055 LP  0  0  0  0  0  0  0  0  0  0  0  0  # atno 17343 bound_to 10162
  156.2840  130.7087  151.1918 LP  0  0  0  0  0  0  0  0  0  0  0  0  # atno 17370 bound_to 10713
  157.7378  131.0548  150.5335 LP  0  0  0  0  0  0  0  0  0  0  0  0  # atno 17371 bound_to 10713
  141.1121  133.9599  157.2891 LP  0  0  0  0  0  0  0  0  0  0  0  0  # atno 17394 bound_to 11000
  139.9413  135.0190  156.8717 LP  0  0  0  0  0  0  0  0  0  0  0  0  # atno 17395 bound_to 11000

$$$$
