#       Name:                AV-unprocessed.smi:258
#       Creating user name   scv26
#       Creation time:       Thu Mar 26 21:11:35 2020


#       File generated by GOLD software.
#

@<TRIPOS>MOLECULE
AV-unprocessed.smi:258
    69    72     1
SMALL
NO_CHARGES


@<TRIPOS>ATOM
      1 ****        -7.2373   3.8927  -1.0276 O.3            1 S1                 0.0000
      2 ****        -6.6258   3.5842  -2.2622 C.3            1 S1                 0.0000
      3 ****        -6.2304   2.1031  -2.3013 C.3            1 S1                 0.0000
      4 ****        -4.9750   1.9412  -1.6566 O.3            1 S1                 0.0000
      5 ****        -4.4810   0.6081  -1.6550 C.3            1 S1                 0.0000
      6 ****        -5.1654  -0.2391  -0.5620 C.3            1 S1                 0.0000
      7 ****        -4.5060  -1.6244  -0.4685 C.3            1 S1                 0.0000
      8 ****        -2.9899  -1.4963  -0.2508 C.3            1 S1                 0.0000
      9 ****        -2.3918  -0.6586  -1.2862 N.3            1 S1                 0.0000
     10 ****        -1.0430  -0.6653  -1.2728 C.ar           1 S1                 0.0000
     11 ****        -0.4161  -1.2282  -2.3345 N.ar           1 S1                 0.0000
     12 ****         0.9195  -1.2629  -2.3791 C.ar           1 S1                 0.0000
     13 ****         1.7978  -0.8013  -1.4857 N.ar           1 S1                 0.0000
     14 ****         1.1666  -0.2361  -0.4167 C.ar           1 S1                 0.0000
     15 ****        -0.2395  -0.1259  -0.2291 C.ar           1 S1                 0.0000
     16 ****        -0.5091   0.5085   0.9778 N.2            1 S1                 0.0000
     17 ****         0.6712   0.7592   1.4758 C.2            1 S1                 0.0000
     18 ****         1.7329   0.3421   0.7046 N.pl3          1 S1                 0.0000
     19 ****         3.1449   0.4915   1.0096 C.3            1 S1                 0.0000
     20 ****         3.8286  -0.8380   1.4152 C.3            1 S1                 0.0000
     21 ****         3.0683  -1.5830   2.5392 C.3            1 S1                 0.0000
     22 ****         3.0219  -0.8188   3.7267 O.3            1 S1                 0.0000
     23 ****         5.3256  -0.6273   1.7558 C.3            1 S1                 0.0000
     24 ****         6.1593  -0.0482   0.6261 C.3            1 S1                 0.0000
     25 ****         7.5797  -0.3927   1.0612 C.3            1 S1                 0.0000
     26 ****         7.4762  -1.6111   1.7899 O.3            1 S1                 0.0000
     27 ****         6.1074  -1.9136   2.0413 C.3            1 S1                 0.0000
     28 ****        -2.9654   0.6799  -1.3980 C.3            1 S1                 0.0000
     29 ****        -7.4643   4.8101  -1.0255 H              1 S1                 0.0000
     30 ****        -7.3502   3.7932  -3.0498 H              1 S1                 0.0000
     31 ****        -5.7650   4.2308  -2.4349 H              1 S1                 0.0000
     32 ****        -7.0077   1.4822  -1.8551 H              1 S1                 0.0000
     33 ****        -6.1271   1.7928  -3.3420 H              1 S1                 0.0000
     34 ****        -4.6404   0.1490  -2.6326 H              1 S1                 0.0000
     35 ****        -5.0855   0.2688   0.4000 H              1 S1                 0.0000
     36 ****        -6.2291  -0.3566  -0.7658 H              1 S1                 0.0000
     37 ****        -4.9530  -2.1999   0.3423 H              1 S1                 0.0000
     38 ****        -4.6963  -2.1810  -1.3871 H              1 S1                 0.0000
     39 ****        -2.7956  -1.0618   0.7306 H              1 S1                 0.0000
     40 ****        -2.5283  -2.4848  -0.2614 H              1 S1                 0.0000
     41 ****         1.3457  -1.7280  -3.2557 H              1 S1                 0.0000
     42 ****         0.8010   1.2526   2.4282 H              1 S1                 0.0000
     43 ****         3.6270   0.9185   0.1300 H              1 S1                 0.0000
     44 ****         3.2497   1.2290   1.8063 H              1 S1                 0.0000
     45 ****         3.7905  -1.4900   0.5413 H              1 S1                 0.0000
     46 ****         2.0481  -1.8153   2.2334 H              1 S1                 0.0000
     47 ****         3.5385  -2.5415   2.7582 H              1 S1                 0.0000
     48 ****         3.9062  -0.6827   4.0309 H              1 S1                 0.0000
     49 ****         5.4157   0.0327   2.6201 H              1 S1                 0.0000
     50 ****         5.9264  -0.5478  -0.3155 H              1 S1                 0.0000
     51 ****         6.0158   1.0238   0.4883 H              1 S1                 0.0000
     52 ****         8.2620  -0.4884   0.2164 H              1 S1                 0.0000
     53 ****         7.9708   0.3774   1.7273 H              1 S1                 0.0000
     54 ****         5.9676  -2.2701   3.0622 H              1 S1                 0.0000
     55 ****         5.8036  -2.7107   1.3613 H              1 S1                 0.0000
     56 ****        -2.4780   1.2239  -2.2084 H              1 S1                 0.0000
     57 ****        -2.7738   1.2360  -0.4794 H              1 S1                 0.0000
     58 ****        -6.6020   3.7008  -0.2795 LP             1 S1                 0.0000
     59 ****        -8.0633   3.3407  -0.9133 LP             1 S1                 0.0000
     60 ****        -5.0705   2.2400  -0.7071 LP             1 S1                 0.0000
     61 ****        -4.3072   2.5212  -2.1230 LP             1 S1                 0.0000
     62 ****        -2.6543  -1.1075  -2.1403 LP             1 S1                 0.0000
     63 ****        -0.9521  -1.6172  -3.0837 LP             1 S1                 0.0000
     64 ****         2.7908  -0.8621  -1.5872 LP             1 S1                 0.0000
     65 ****        -1.4019   0.7234   1.3736 LP             1 S1                 0.0000
     66 ****         2.4975  -1.3090   4.4229 LP             1 S1                 0.0000
     67 ****         2.5889   0.0636   3.5431 LP             1 S1                 0.0000
     68 ****         7.9602  -1.5187   2.6601 LP             1 S1                 0.0000
     69 ****         7.8866  -2.3514   1.2573 LP             1 S1                 0.0000
@<TRIPOS>BOND
    1    1    2 1     
    2    1   29 1     
    3    2    3 1     
    4    2   30 1     
    5    2   31 1     
    6    3    4 1     
    7    3   32 1     
    8    3   33 1     
    9    4    5 1     
   10    5   28 1     
   11    5    6 1     
   12    5   34 1     
   13    6    7 1     
   14    6   35 1     
   15    6   36 1     
   16    7    8 1     
   17    7   37 1     
   18    7   38 1     
   19    8    9 1     
   20    8   39 1     
   21    8   40 1     
   22    9   10 1     
   23    9   28 1     
   24   10   15 ar    
   25   10   11 ar    
   26   11   12 ar    
   27   12   13 ar    
   28   12   41 1     
   29   13   14 ar    
   30   14   18 1     
   31   14   15 ar    
   32   15   16 1     
   33   16   17 2     
   34   17   18 1     
   35   17   42 1     
   36   18   19 1     
   37   19   20 1     
   38   19   43 1     
   39   19   44 1     
   40   20   21 1     
   41   20   23 1     
   42   20   45 1     
   43   21   22 1     
   44   21   46 1     
   45   21   47 1     
   46   22   48 1     
   47   23   27 1     
   48   23   24 1     
   49   23   49 1     
   50   24   25 1     
   51   24   50 1     
   52   24   51 1     
   53   25   26 1     
   54   25   52 1     
   55   25   53 1     
   56   26   27 1     
   57   27   54 1     
   58   27   55 1     
   59   28   56 1     
   60   28   57 1     
   61    1   58 1     
   62    1   59 1     
   63    4   60 1     
   64    4   61 1     
   65    9   62 1     
   66   11   63 1     
   67   13   64 1     
   68   16   65 1     
   69   22   66 1     
   70   22   67 1     
   71   26   68 1     
   72   26   69 1     
@<TRIPOS>SUBSTRUCTURE
      1 S1             1
@<TRIPOS>SET
LONE_PAIRS      STATIC     ATOMS    <user>   **** ""
12 58 59 60 61 62 63 64 65 66 67 68 69
DONOR_HYDROGENS      STATIC     ATOMS    <user>   **** ""
2 29 48
ATOM$BLUE        STATIC     ATOMS    COLORGROUP SYSTEM
12 58 59 60 61 62 63 64 65 66 67 68 69
ATOM$RED        STATIC     ATOMS    COLORGROUP SYSTEM
2 29 48
