#       Name:                AV-unprocessed.smi:1575
#       Creating user name   scv26
#       Creation time:       Fri Mar 27 06:55:31 2020


#       File generated by GOLD software.
#

@<TRIPOS>MOLECULE
AV-unprocessed.smi:1575
    49    49     1
SMALL
NO_CHARGES


@<TRIPOS>ATOM
      1 ****        -1.0469  -4.0556   2.9564 C.3            1 S1                 0.0000
      2 ****        -0.4498  -3.2396   1.9108 N.am           1 S1                 0.0000
      3 ****        -0.0728  -1.9631   2.0726 C.2            1 S1                 0.0000
      4 ****        -0.1874  -1.3593   3.1408 O.2            1 S1                 0.0000
      5 ****         0.5424  -1.2745   0.8423 C.3            1 S1                 0.0000
      6 ****         2.0821  -1.3415   0.9808 C.3            1 S1                 0.0000
      7 ****         2.8749  -0.7152  -0.1900 C.3            1 S1                 0.0000
      8 ****         2.6300  -1.4414  -1.5235 C.3            1 S1                 0.0000
      9 ****         4.3765  -0.6810   0.1320 C.3            1 S1                 0.0000
     10 ****         0.1361   0.1300   0.8025 N.am           1 S1                 0.0000
     11 ****        -0.9815   0.5999   0.2278 C.2            1 S1                 0.0000
     12 ****        -1.8037  -0.1218  -0.3384 O.2            1 S1                 0.0000
     13 ****        -1.2094   2.1138   0.3326 C.3            1 S1                 0.0000
     14 ****        -1.9722   2.6539  -0.8016 N.am           1 S1                 0.0000
     15 ****        -3.3350   2.8871  -0.6830 C.2            1 S1                 0.0000
     16 ****        -4.0978   3.3758  -1.6896 C.2            1 S1                 0.0000
     17 ****        -3.5013   3.6885  -2.9838 C.2            1 S1                 0.0000
     18 ****        -4.1073   4.1366  -3.9544 O.2            1 S1                 0.0000
     19 ****        -2.1289   3.4373  -3.0644 N.am           1 S1                 0.0000
     20 ****        -1.3375   2.9311  -2.0321 C.2            1 S1                 0.0000
     21 ****        -0.1349   2.7414  -2.2108 O.2            1 S1                 0.0000
     22 ****        -1.6725   3.6367  -3.9426 H              1 S1                 0.0000
     23 ****        -1.2410  -5.0596   2.5794 H              1 S1                 0.0000
     24 ****        -1.9933  -3.6270   3.2887 H              1 S1                 0.0000
     25 ****        -0.3798  -4.1370   3.8155 H              1 S1                 0.0000
     26 ****        -0.3201  -3.6686   1.0060 H              1 S1                 0.0000
     27 ****         0.2186  -1.7923  -0.0621 H              1 S1                 0.0000
     28 ****         2.3787  -0.8452   1.9069 H              1 S1                 0.0000
     29 ****         2.3924  -2.3820   1.0921 H              1 S1                 0.0000
     30 ****         2.5564   0.3205  -0.3133 H              1 S1                 0.0000
     31 ****         2.8802  -2.5002  -1.4506 H              1 S1                 0.0000
     32 ****         3.2383  -1.0115  -2.3198 H              1 S1                 0.0000
     33 ****         1.5903  -1.3629  -1.8405 H              1 S1                 0.0000
     34 ****         4.7787  -1.6870   0.2568 H              1 S1                 0.0000
     35 ****         4.5703  -0.1283   1.0517 H              1 S1                 0.0000
     36 ****         4.9386  -0.1943  -0.6656 H              1 S1                 0.0000
     37 ****         0.7479   0.7912   1.2584 H              1 S1                 0.0000
     38 ****        -1.7313   2.3115   1.2699 H              1 S1                 0.0000
     39 ****        -0.2524   2.6324   0.4216 H              1 S1                 0.0000
     40 ****        -3.8205   2.6662   0.2570 H              1 S1                 0.0000
     41 ****        -5.1553   3.5355  -1.5364 H              1 S1                 0.0000
     42 ****        -0.5766  -1.8219   3.9374 LP             1 S1                 0.0000
     43 ****         0.1088  -0.4068   3.2110 LP             1 S1                 0.0000
     44 ****        -1.6536  -1.1094  -0.3854 LP             1 S1                 0.0000
     45 ****        -2.6212   0.2799  -0.7510 LP             1 S1                 0.0000
     46 ****        -5.0893   4.3148  -3.8920 LP             1 S1                 0.0000
     47 ****        -3.6184   4.3230  -4.8066 LP             1 S1                 0.0000
     48 ****         0.4296   2.3783  -1.4695 LP             1 S1                 0.0000
     49 ****         0.2779   2.9503  -3.0973 LP             1 S1                 0.0000
@<TRIPOS>BOND
    1    1    2 1     
    2    1   23 1     
    3    1   24 1     
    4    1   25 1     
    5    2    3 am    
    6    2   26 1     
    7    3    4 2     
    8    3    5 1     
    9    5    6 1     
   10    5   10 1     
   11    5   27 1     
   12    6    7 1     
   13    6   28 1     
   14    6   29 1     
   15    7    8 1     
   16    7    9 1     
   17    7   30 1     
   18    8   31 1     
   19    8   32 1     
   20    8   33 1     
   21    9   34 1     
   22    9   35 1     
   23    9   36 1     
   24   10   11 am    
   25   10   37 1     
   26   11   12 2     
   27   11   13 1     
   28   13   14 1     
   29   13   38 1     
   30   13   39 1     
   31   14   20 1     
   32   14   15 1     
   33   15   16 2     
   34   15   40 1     
   35   16   17 1     
   36   16   41 1     
   37   17   18 2     
   38   17   19 1     
   39   19   22 1     
   40   19   20 1     
   41   20   21 2     
   42    4   42 1     
   43    4   43 1     
   44   12   44 1     
   45   12   45 1     
   46   18   46 1     
   47   18   47 1     
   48   21   48 1     
   49   21   49 1     
@<TRIPOS>SUBSTRUCTURE
      1 S1             1
@<TRIPOS>SET
LONE_PAIRS      STATIC     ATOMS    <user>   **** ""
8 42 43 44 45 46 47 48 49
DONOR_HYDROGENS      STATIC     ATOMS    <user>   **** ""
3 26 37 22
ATOM$BLUE        STATIC     ATOMS    COLORGROUP SYSTEM
8 42 43 44 45 46 47 48 49
ATOM$RED        STATIC     ATOMS    COLORGROUP SYSTEM
3 26 37 22
