AV-unprocessed.smi:862|AV-procd|sdf|3982|dock2
  -GOLD-   22720 1463D 1   1.00000     0.00000
 Structure written by MMmdl.
 45 47  0  0  0  0  0  0  0  0  3 V2000
  154.1282  142.4977  160.7126 N   0  0  0  0  0  0  0  0  0  0  0  0
  152.9581  143.0886  160.9733 C   0  0  0  0  0  0  0  0  0  0  0  0
  152.4170  142.9670  162.0705 O   0  0  0  0  0  0  0  0  0  0  0  0
  152.4621  143.8562  159.9704 N   0  0  0  0  0  0  0  0  0  0  0  0
  153.0229  143.9758  158.6148 C   0  0  0  0  0  0  0  0  0  0  0  0
  152.1519  143.1607  157.6402 C   0  0  0  0  0  0  0  0  0  0  0  0
  150.6733  143.6149  157.6930 C   0  0  0  0  0  0  0  0  0  0  0  0
  149.7914  142.7367  156.8893 N   0  3  0  0  0  0  0  0  0  0  0  0
  149.5847  141.3591  157.3994 C   0  0  2  0  0  0  0  0  0  0  0  0
  150.4504  140.2995  156.7081 C   0  0  0  0  0  0  0  0  0  0  0  0
  149.7226  138.9700  156.9505 C   0  0  0  0  0  0  0  0  0  0  0  0
  148.2904  139.3226  157.3903 C   0  0  0  0  0  0  0  0  0  0  0  0
  148.1415  140.8452  157.2324 C   0  0  2  0  0  0  0  0  0  0  0  0
  147.5173  141.2101  155.9420 N   0  0  0  0  0  0  0  0  0  0  0  0
  146.2827  141.7702  155.7122 C   0  0  0  0  0  0  0  0  0  0  0  0
  146.1549  141.9036  154.3540 C   0  0  0  0  0  0  0  0  0  0  0  0
  147.3097  141.4150  153.8070 N   0  3  0  0  0  0  0  0  0  0  0  0
  148.1340  140.9926  154.7710 C   0  0  0  0  0  0  0  0  0  0  0  0
  150.1665  143.6616  159.1494 C   0  0  0  0  0  0  0  0  0  0  0  0
  151.1269  144.4603  160.0478 C   0  0  0  0  0  0  0  0  0  0  0  0
  154.5641  141.9220  161.4187 H   0  0  0  0  0  0  0  0  0  0  0  0
  154.5790  142.6376  159.8206 H   0  0  0  0  0  0  0  0  0  0  0  0
  153.0269  145.0267  158.3214 H   0  0  0  0  0  0  0  0  0  0  0  0
  154.0604  143.6509  158.5378 H   0  0  0  0  0  0  0  0  0  0  0  0
  152.5527  143.2702  156.6327 H   0  0  0  0  0  0  0  0  0  0  0  0
  152.2248  142.1014  157.8913 H   0  0  0  0  0  0  0  0  0  0  0  0
  150.6093  144.6295  157.2983 H   0  0  0  0  0  0  0  0  0  0  0  0
  148.8923  143.1905  156.8121 H   0  0  0  0  0  0  0  0  0  0  0  0
  149.8078  141.3419  158.4664 H   0  0  0  0  0  0  0  0  0  0  0  0
  150.5113  140.4972  155.6373 H   0  0  0  0  0  0  0  0  0  0  0  0
  151.4703  140.2800  157.0939 H   0  0  0  0  0  0  0  0  0  0  0  0
  149.7245  138.3579  156.0481 H   0  0  0  0  0  0  0  0  0  0  0  0
  150.2213  138.3938  157.7308 H   0  0  0  0  0  0  0  0  0  0  0  0
  147.5358  138.7622  156.8367 H   0  0  0  0  0  0  0  0  0  0  0  0
  148.1677  139.0572  158.4414 H   0  0  0  0  0  0  0  0  0  0  0  0
  147.5027  141.2413  158.0239 H   0  0  0  0  0  0  0  0  0  0  0  0
  145.6009  142.0358  156.5068 H   0  0  0  0  0  0  0  0  0  0  0  0
  145.3499  142.2996  153.7517 H   0  0  0  0  0  0  0  0  0  0  0  0
  149.1100  140.5640  154.6276 H   0  0  0  0  0  0  0  0  0  0  0  0
  149.1713  144.1064  159.1863 H   0  0  0  0  0  0  0  0  0  0  0  0
  150.0673  142.6485  159.5432 H   0  0  0  0  0  0  0  0  0  0  0  0
  150.7436  144.4970  161.0687 H   0  0  0  0  0  0  0  0  0  0  0  0
  151.1789  145.4982  159.7160 H   0  0  0  0  0  0  0  0  0  0  0  0
  150.1917  142.6632  155.9650 H   0  0  0  0  0  0  0  0  0  0  0  0
  147.5147  141.3821  152.8159 H   0  0  0  0  0  0  0  0  0  0  0  0
  1  2  1  0  0  0  0
  1 21  1  0  0  0  0
  1 22  1  0  0  0  0
  2  3  2  0  0  0  0
  2  4  1  0  0  0  0
  4 20  1  0  0  0  0
  4  5  1  0  0  0  0
  5  6  1  0  0  0  0
  5 23  1  0  0  0  0
  5 24  1  0  0  0  0
  6  7  1  0  0  0  0
  6 25  1  0  0  0  0
  6 26  1  0  0  0  0
  7  8  1  0  0  0  0
  7 19  1  0  0  0  0
  7 27  1  0  0  0  0
  8  9  1  0  0  0  0
  8 28  1  0  0  0  0
  8 44  1  0  0  0  0
  9 13  1  0  0  0  0
  9 10  1  0  0  0  0
  9 29  1  0  0  0  0
 10 11  1  0  0  0  0
 10 30  1  0  0  0  0
 10 31  1  0  0  0  0
 11 12  1  0  0  0  0
 11 32  1  0  0  0  0
 11 33  1  0  0  0  0
 12 13  1  0  0  0  0
 12 34  1  0  0  0  0
 12 35  1  0  0  0  0
 13 14  1  0  0  0  0
 13 36  1  0  0  0  0
 14 18  1  0  0  0  0
 14 15  1  0  0  0  0
 15 16  2  0  0  0  0
 15 37  1  0  0  0  0
 16 17  1  0  0  0  0
 16 38  1  0  0  0  0
 17 18  2  0  0  0  0
 17 45  1  0  0  0  0
 18 39  1  0  0  0  0
 19 20  1  0  0  0  0
 19 40  1  0  0  0  0
 19 41  1  0  0  0  0
 20 42  1  0  0  0  0
 20 43  1  0  0  0  0
M  CHG  1   8   1
M  CHG  1  17   1
M  END
> <s_m_source_file>
AV-unprocessed.smi

> <i_m_source_file_index>
862

> <i_lp_mmshare_version>
43012

> <i_f3d_flags>
0

> <s_epik_input>
W05IMl1DKD1PKU4xW0NIMl1bQ0gyXVtDSF0oW0NIMl1bQ0gyXTEpW05IXVtDQEBIXTJbQ0gyXVtDSDJdW0NIMl1bQ0BIXTJuM1tjSF1bY0hdbltjSF0z

> <s_epik_cmdline>
J2VwaWtfcHl0aG9uJywgJy1waCcsICc3LjAnLCAnLXRuJywgJzgnLCAnLW1hJywgJzIwMCcsICctbWV0YWxfYmluZGluZycsICctaW1hZScsICc8aW5maWxlLm1hZT4nLCAnLW9tYWUnLCAnPG91dGZpbGUubWFlPic=

> <r_lp_tautomer_probability>
1

> <r_epik_Ionization_Penalty>
1.30217

> <r_epik_Ionization_Penalty_Charging>
0.00439521

> <r_epik_Ionization_Penalty_Neutral>
1.29777

> <r_epik_State_Penalty>
0.977606

> <r_epik_Charging_Adjusted_Penalty>
0.982001

> <i_epik_Tot_Q>
2

> <i_epik_Tot_abs_Q>
2

> <r_epik_Metal_State_Penalty>
1.03289

> <b_epik_Metal_Only>
0

> <s_lp_Force_Field>
OPLS_2005

> <r_lp_Energy>
66.0454

> <b_lp_Chiralities_Consistent>
1

> <s_lp_Variant>
AV-unprocessed.smi:862-7

> <Gold.Version>
5.8.1

> <Gold.Id.Protein>
6NUR|6NUR_protein|mol2

> <Gold.PLP.Fitness>
40.6775

> <Gold.PLP.PLP>
-31.5523

> <Gold.PLP.part.hbond>
-3.1347

> <Gold.PLP.part.metal>
0.0000

> <Gold.PLP.part.buried>
-6.1280

> <Gold.PLP.part.nonpolar>
-27.2054

> <Gold.PLP.part.repulsive>
5.9557

> <Gold.PLP.ligand.clash>
0.0000

> <Gold.PLP.ligand.torsion>
0.7568

> <Gold.PLP.Chemscore.Hbond>
3.5190

> <Gold.PLP.Chemscore.CHOScore>
0.0000

> <Gold.PLP.Chemscore.Metal>
0.0000

> <Gold.Chemscore.Hbonds>
donor molecule, donor type, donor heavy atom, donor atom, acceptor molecule, acceptor atom, score
      L1  H     8    28       P1  8028  0.61

> <Gold.PLP.Chemscore.Internal.Correction>
0.0817

> <Gold.Rescore>
     Score         DG    S(hbond)    S(metal)    S(lipo)     H(rot)  DE(clash)    DE(int)     intcor
     12.12     -15.54       1.59        0.00      77.33       1.68       2.64       0.78       ----

> <Gold.Chemscore.Fitness>
12.1219

> <Gold.Chemscore.DG>
-15.5382

> <Gold.Chemscore.ZeroCoef>
-5.4800

> <Gold.Chemscore.Hbond>
1.5914

> <Gold.Chemscore.Metal>
0.0000

> <Gold.Chemscore.Lipo>
77.3268

> <Gold.Chemscore.Internal_Hbond>
0.0000

> <Gold.Chemscore.DEClash>
2.6355

> <Gold.Chemscore.DEInternal>
0.7808

> <Gold.Chemscore.Rot>
1.6814

> <Gold.Chemscore.Internal.Correction>
   9.000000E+99

> <Gold.Chemscore.Hbonds>
donor molecule, donor type, donor heavy atom, donor atom, acceptor molecule, acceptor atom, score
      L1  H     8    28       P1  8028  0.26

> <Gold.Chemscore.Hbond.Weighted>
-5.3153

> <Gold.Chemscore.Metal.Weighted>
-0.0000

> <Gold.Chemscore.Lipo.Weighted>
-9.0472

> <Gold.Chemscore.Internal_Hbond.Weighted>
0.0000

> <Gold.Chemscore.DEClash.Weighted>
2.6355

> <Gold.Chemscore.DEInternal.Weighted>
0.7808

> <Gold.Chemscore.Rot.Weighted>
4.3043

> <Gold.Chemscore.Internal.Correction.Weighted>
   9.000000E+99

> <Gold.Protein.RotatedTorsions>
[ 6907 6896 6895 6894 ] final  -11.49 input  -60.11 | X-H torsion
[ 7974 7965 7964 7962 ] final  -28.58 input  175.53 | X-H torsion
[ 8008 7997 7996 7995 ] final  -64.51 input   59.86 | X-H torsion
[ 10167 10162 10161 10158 ] final  153.24 input  -65.29 | X-H torsion
[ 10718 10713 10712 10709 ] final  -11.92 input   66.30 | X-H torsion
[ 10763 10752 10751 10750 ] final   27.45 input  -60.55 | X-H torsion
[ 11005 11000 10999 10996 ] final  -39.88 input  -57.11 | X-H torsion

> <Gold.Protein.ActiveResidues>
 VAL166  LYS551  ARG553  GLY616  TRP617  ASP618  TYR619  PRO620  LYS621  CYS622 
 ASP623  PHE694  ASN695  SER759  ASP760  ASP761  ALA762  ILE779  LEU786  VAL792 
 PHE793  MET794  SER795  GLU796  ALA797  LYS798  CYS799  TRP800  GLU811  SER814 

> <Gold.Protein.RotatedAtoms>
  151.3853  135.0947  159.9508 H   0  0  0  0  0  0  0  0  0  0  0  0  # atno 6907 bound_to 6896
  152.5096  133.9032  159.7461 H   0  0  0  0  0  0  0  0  0  0  0  0  # atno 6908 bound_to 6896
  150.9474  133.6532  159.2807 H   0  0  0  0  0  0  0  0  0  0  0  0  # atno 6909 bound_to 6896
  146.1278  140.5301  142.8707 H   0  0  0  0  0  0  0  0  0  0  0  0  # atno 7974 bound_to 7965
  154.4616  140.0952  156.6908 H   0  0  0  0  0  0  0  0  0  0  0  0  # atno 8008 bound_to 7997
  155.4978  140.3472  155.4347 H   0  0  0  0  0  0  0  0  0  0  0  0  # atno 8009 bound_to 7997
  156.0880  140.1390  156.9617 H   0  0  0  0  0  0  0  0  0  0  0  0  # atno 8010 bound_to 7997
  139.4828  144.5290  151.7754 H   0  0  0  0  0  0  0  0  0  0  0  0  # atno 10167 bound_to 10162
  156.6521  130.4958  149.6058 H   0  0  0  0  0  0  0  0  0  0  0  0  # atno 10718 bound_to 10713
  153.0555  135.6537  154.0588 H   0  0  0  0  0  0  0  0  0  0  0  0  # atno 10763 bound_to 10752
  154.0267  135.2915  155.3375 H   0  0  0  0  0  0  0  0  0  0  0  0  # atno 10764 bound_to 10752
  154.6868  135.5298  153.8404 H   0  0  0  0  0  0  0  0  0  0  0  0  # atno 10765 bound_to 10752
  141.0134  133.6897  156.2247 H   0  0  0  0  0  0  0  0  0  0  0  0  # atno 11005 bound_to 11000
  144.7660  140.5530  143.6703 LP  0  0  0  0  0  0  0  0  0  0  0  0  # atno 17320 bound_to 7965
  145.5327  139.1475  143.3490 LP  0  0  0  0  0  0  0  0  0  0  0  0  # atno 17321 bound_to 7965
  140.4813  144.1445  150.5933 LP  0  0  0  0  0  0  0  0  0  0  0  0  # atno 17342 bound_to 10162
  140.4274  143.2583  151.9639 LP  0  0  0  0  0  0  0  0  0  0  0  0  # atno 17343 bound_to 10162
  156.2076  130.6659  151.1235 LP  0  0  0  0  0  0  0  0  0  0  0  0  # atno 17370 bound_to 10713
  157.7137  131.0721  150.6405 LP  0  0  0  0  0  0  0  0  0  0  0  0  # atno 17371 bound_to 10713
  140.6695  134.4883  157.5586 LP  0  0  0  0  0  0  0  0  0  0  0  0  # atno 17394 bound_to 11000
  139.9103  134.8359  156.1553 LP  0  0  0  0  0  0  0  0  0  0  0  0  # atno 17395 bound_to 11000

$$$$
