AV-unprocessed.smi:1174|AV-procd|sdf|4947|dock4
  -GOLD-   22720 3533D 1   1.00000     0.00000
 Structure written by MMmdl.
 41 42  0  0  0  0  0  0  0  0  1 V2000
  145.4169  138.0679  154.4510 C   0  0  0  0  0  0  0  0  0  0  0  0
  146.0625  138.1368  153.0584 C   0  0  1  0  0  0  0  0  0  0  0  0
  147.5123  138.6536  153.1326 C   0  0  0  0  0  0  0  0  0  0  0  0
  147.5915  140.0104  153.6451 N   0  0  0  0  0  0  0  0  0  0  0  0
  146.6151  140.9846  153.6450 C   0  0  0  0  0  0  0  0  0  0  0  0
  147.1468  142.0924  154.2400 C   0  0  0  0  0  0  0  0  0  0  0  0
  148.4714  141.6936  154.5736 C   0  0  0  0  0  0  0  0  0  0  0  0
  148.7351  140.4475  154.2148 N   0  0  0  0  0  0  0  0  0  0  0  0
  146.0367  136.8172  152.4315 N   0  0  0  0  0  0  0  0  0  0  0  0
  144.9581  136.0279  152.3167 C   0  0  0  0  0  0  0  0  0  0  0  0
  143.8521  136.3220  152.7707 O   0  0  0  0  0  0  0  0  0  0  0  0
  145.1635  134.7032  151.5717 C   0  0  2  0  0  0  0  0  0  0  0  0
  144.3208  134.6502  150.2755 C   0  0  0  0  0  0  0  0  0  0  0  0
  144.4135  133.2730  149.5908 C   0  0  0  0  0  0  0  0  0  0  0  0
  144.1223  132.1389  150.5905 C   0  0  0  0  0  0  0  0  0  0  0  0
  145.0518  132.2595  151.7266 N   0  0  0  0  0  0  0  0  0  0  0  0
  146.1400  131.4824  151.9565 C   0  0  0  0  0  0  0  0  0  0  0  0
  146.5561  130.7601  150.9120 N   0  0  0  0  0  0  0  0  0  0  0  0
  146.7033  131.3992  153.0467 O   0  0  0  0  0  0  0  0  0  0  0  0
  144.8162  133.4998  152.4763 C   0  0  0  0  0  0  0  0  0  0  0  0
  145.4150  139.0472  154.9304 H   0  0  0  0  0  0  0  0  0  0  0  0
  145.9532  137.3787  155.1040 H   0  0  0  0  0  0  0  0  0  0  0  0
  144.3813  137.7322  154.3903 H   0  0  0  0  0  0  0  0  0  0  0  0
  145.4847  138.8362  152.4509 H   0  0  0  0  0  0  0  0  0  0  0  0
  148.1097  138.0098  153.7799 H   0  0  0  0  0  0  0  0  0  0  0  0
  147.9805  138.6246  152.1476 H   0  0  0  0  0  0  0  0  0  0  0  0
  145.6337  140.8091  153.2294 H   0  0  0  0  0  0  0  0  0  0  0  0
  146.6633  143.0428  154.4110 H   0  0  0  0  0  0  0  0  0  0  0  0
  149.2440  142.2690  155.0618 H   0  0  0  0  0  0  0  0  0  0  0  0
  146.9041  136.4873  152.0336 H   0  0  0  0  0  0  0  0  0  0  0  0
  146.2167  134.6253  151.2938 H   0  0  0  0  0  0  0  0  0  0  0  0
  143.2737  134.8552  150.5039 H   0  0  0  0  0  0  0  0  0  0  0  0
  144.6423  135.4292  149.5829 H   0  0  0  0  0  0  0  0  0  0  0  0
  143.7154  133.2250  148.7545 H   0  0  0  0  0  0  0  0  0  0  0  0
  145.4112  133.1403  149.1700 H   0  0  0  0  0  0  0  0  0  0  0  0
  143.0978  132.2211  150.9564 H   0  0  0  0  0  0  0  0  0  0  0  0
  144.1695  131.1767  150.0810 H   0  0  0  0  0  0  0  0  0  0  0  0
  147.3611  130.1581  151.0037 H   0  0  0  0  0  0  0  0  0  0  0  0
  146.0624  130.8220  150.0335 H   0  0  0  0  0  0  0  0  0  0  0  0
  145.3925  133.5397  153.4025 H   0  0  0  0  0  0  0  0  0  0  0  0
  143.7694  133.5384  152.7821 H   0  0  0  0  0  0  0  0  0  0  0  0
  1  2  1  0  0  0  0
  1 21  1  0  0  0  0
  1 22  1  0  0  0  0
  1 23  1  0  0  0  0
  2  3  1  0  0  0  0
  2  9  1  0  0  0  0
  2 24  1  0  0  0  0
  3  4  1  0  0  0  0
  3 25  1  0  0  0  0
  3 26  1  0  0  0  0
  4  8  1  0  0  0  0
  4  5  1  0  0  0  0
  5  6  2  0  0  0  0
  5 27  1  0  0  0  0
  6  7  1  0  0  0  0
  6 28  1  0  0  0  0
  7  8  2  0  0  0  0
  7 29  1  0  0  0  0
  9 10  1  0  0  0  0
  9 30  1  0  0  0  0
 10 11  2  0  0  0  0
 10 12  1  0  0  0  0
 12 20  1  0  0  0  0
 12 13  1  0  0  0  0
 12 31  1  0  0  0  0
 13 14  1  0  0  0  0
 13 32  1  0  0  0  0
 13 33  1  0  0  0  0
 14 15  1  0  0  0  0
 14 34  1  0  0  0  0
 14 35  1  0  0  0  0
 15 16  1  0  0  0  0
 15 36  1  0  0  0  0
 15 37  1  0  0  0  0
 16 17  1  0  0  0  0
 16 20  1  0  0  0  0
 17 18  1  0  0  0  0
 17 19  2  0  0  0  0
 18 38  1  0  0  0  0
 18 39  1  0  0  0  0
 20 40  1  0  0  0  0
 20 41  1  0  0  0  0
M  END
> <s_m_source_file>
AV-unprocessed.smi

> <i_m_source_file_index>
1174

> <i_lp_mmshare_version>
43012

> <i_f3d_flags>
0

> <s_epik_input>
bjFbY0hdW2NIXVtjSF1uMVtDSDJdW0NAQEhdKFtDSDNdKVtOSF1DKD1PKVtDQEBIXTJbQ0gyXVtDSDJdW0NIMl1OKFtDSDJdMilDKD1PKVtOSDJd

> <s_epik_cmdline>
J2VwaWtfcHl0aG9uJywgJy1waCcsICc3LjAnLCAnLXRuJywgJzgnLCAnLW1hJywgJzIwMCcsICctbWV0YWxfYmluZGluZycsICctaW1hZScsICc8aW5maWxlLm1hZT4nLCAnLW9tYWUnLCAnPG91dGZpbGUubWFlPic=

> <r_lp_tautomer_probability>
1

> <r_epik_Ionization_Penalty>
0.000372452

> <r_epik_Ionization_Penalty_Charging>
0

> <r_epik_Ionization_Penalty_Neutral>
0.000372452

> <r_epik_State_Penalty>
-0

> <r_epik_Charging_Adjusted_Penalty>
0

> <i_epik_Tot_Q>
0

> <i_epik_Tot_abs_Q>
0

> <r_epik_Metal_State_Penalty>
-0

> <b_epik_Metal_Only>
0

> <s_lp_Force_Field>
OPLS_2005

> <r_lp_Energy>
26.6636

> <b_lp_Chiralities_Consistent>
1

> <s_lp_Variant>
AV-unprocessed.smi:1174-2

> <Gold.Version>
5.8.1

> <Gold.Id.Protein>
6NUR|6NUR_protein|mol2

> <Gold.PLP.Fitness>
39.1995

> <Gold.PLP.PLP>
-31.1417

> <Gold.PLP.part.hbond>
-1.9233

> <Gold.PLP.part.metal>
0.0000

> <Gold.PLP.part.buried>
0.5535

> <Gold.PLP.part.nonpolar>
-29.6803

> <Gold.PLP.part.repulsive>
0.7734

> <Gold.PLP.ligand.clash>
0.0000

> <Gold.PLP.ligand.torsion>
0.6502

> <Gold.PLP.Chemscore.Hbond>
1.3200

> <Gold.PLP.Chemscore.CHOScore>
1.7813

> <Gold.PLP.Chemscore.Metal>
0.0000

> <Gold.Chemscore.Hbonds>
donor molecule, donor type, donor heavy atom, donor atom, acceptor molecule, acceptor atom, score
      L1  H     9    30       P1  7948  0.94
      L1  H    18    38       P1 10747  0.32
      L1  C     5    27       P1 10175  1.00
      L1  C     7    29       P1  8028  0.79

> <Gold.PLP.Chemscore.Internal.Correction>
0.0542

> <Gold.Rescore>
     Score         DG    S(hbond)    S(metal)    S(lipo)     H(rot)  DE(clash)    DE(int)     intcor
     10.64     -13.82       1.58        0.00      66.03       1.82       1.61       1.57       ----

> <Gold.Chemscore.Fitness>
10.6433

> <Gold.Chemscore.DG>
-13.8221

> <Gold.Chemscore.ZeroCoef>
-5.4800

> <Gold.Chemscore.Hbond>
1.5802

> <Gold.Chemscore.Metal>
0.0000

> <Gold.Chemscore.Lipo>
66.0254

> <Gold.Chemscore.Internal_Hbond>
0.0000

> <Gold.Chemscore.DEClash>
1.6067

> <Gold.Chemscore.DEInternal>
1.5721

> <Gold.Chemscore.Rot>
1.8206

> <Gold.Chemscore.Internal.Correction>
   9.000000E+99

> <Gold.Chemscore.Hbonds>
donor molecule, donor type, donor heavy atom, donor atom, acceptor molecule, acceptor atom, score
      L1  H     9    30       P1  7948  0.89
      L1  H    18    38       P1 10747  0.32

> <Gold.Chemscore.Hbond.Weighted>
-5.2778

> <Gold.Chemscore.Metal.Weighted>
-0.0000

> <Gold.Chemscore.Lipo.Weighted>
-7.7250

> <Gold.Chemscore.Internal_Hbond.Weighted>
0.0000

> <Gold.Chemscore.DEClash.Weighted>
1.6067

> <Gold.Chemscore.DEInternal.Weighted>
1.5721

> <Gold.Chemscore.Rot.Weighted>
4.6607

> <Gold.Chemscore.Internal.Correction.Weighted>
   9.000000E+99

> <Gold.Protein.RotatedTorsions>
[ 6907 6896 6895 6894 ] final  -81.76 input  -60.11 | X-H torsion
[ 7974 7965 7964 7962 ] final -175.34 input  175.53 | X-H torsion
[ 8008 7997 7996 7995 ] final  110.82 input   59.86 | X-H torsion
[ 10167 10162 10161 10158 ] final   96.86 input  -65.29 | X-H torsion
[ 10718 10713 10712 10709 ] final  -86.38 input   66.30 | X-H torsion
[ 10763 10752 10751 10750 ] final  -48.17 input  -60.55 | X-H torsion
[ 11005 11000 10999 10996 ] final   25.87 input  -57.11 | X-H torsion

> <Gold.Protein.ActiveResidues>
 VAL166  LYS551  ARG553  GLY616  TRP617  ASP618  TYR619  PRO620  LYS621  CYS622 
 ASP623  PHE694  ASN695  SER759  ASP760  ASP761  ALA762  ILE779  LEU786  VAL792 
 PHE793  MET794  SER795  GLU796  ALA797  LYS798  CYS799  TRP800  GLU811  SER814 

> <Gold.Protein.RotatedAtoms>
  150.6907  134.3768  159.5016 H   0  0  0  0  0  0  0  0  0  0  0  0  # atno 6907 bound_to 6896
  152.1576  134.8935  160.0553 H   0  0  0  0  0  0  0  0  0  0  0  0  # atno 6908 bound_to 6896
  152.0009  133.3790  159.4218 H   0  0  0  0  0  0  0  0  0  0  0  0  # atno 6909 bound_to 6896
  144.7128  140.1335  143.6397 H   0  0  0  0  0  0  0  0  0  0  0  0  # atno 7974 bound_to 7965
  156.2080  140.3031  155.9670 H   0  0  0  0  0  0  0  0  0  0  0  0  # atno 8008 bound_to 7997
  155.2794  140.0437  157.3031 H   0  0  0  0  0  0  0  0  0  0  0  0  # atno 8009 bound_to 7997
  154.5660  140.2334  155.8272 H   0  0  0  0  0  0  0  0  0  0  0  0  # atno 8010 bound_to 7997
  139.7854  144.6872  150.9964 H   0  0  0  0  0  0  0  0  0  0  0  0  # atno 10167 bound_to 10162
  155.9990  130.4763  150.4705 H   0  0  0  0  0  0  0  0  0  0  0  0  # atno 10718 bound_to 10713
  154.0733  135.6601  153.4827 H   0  0  0  0  0  0  0  0  0  0  0  0  # atno 10763 bound_to 10752
  153.0383  135.5162  154.7545 H   0  0  0  0  0  0  0  0  0  0  0  0  # atno 10764 bound_to 10752
  154.6618  135.3016  154.9824 H   0  0  0  0  0  0  0  0  0  0  0  0  # atno 10765 bound_to 10752
  140.3431  134.2311  155.7688 H   0  0  0  0  0  0  0  0  0  0  0  0  # atno 11005 bound_to 11000
  145.9266  139.2579  143.1350 LP  0  0  0  0  0  0  0  0  0  0  0  0  # atno 17320 bound_to 7965
  145.9566  140.8868  143.0232 LP  0  0  0  0  0  0  0  0  0  0  0  0  # atno 17321 bound_to 7965
  140.7819  143.4437  151.0513 LP  0  0  0  0  0  0  0  0  0  0  0  0  # atno 17342 bound_to 10162
  139.8116  143.7943  152.3171 LP  0  0  0  0  0  0  0  0  0  0  0  0  # atno 17343 bound_to 10162
  157.2721  131.0589  151.2253 LP  0  0  0  0  0  0  0  0  0  0  0  0  # atno 17370 bound_to 10713
  157.3330  130.6994  149.6335 LP  0  0  0  0  0  0  0  0  0  0  0  0  # atno 17371 bound_to 10713
  141.2033  133.7916  157.0347 LP  0  0  0  0  0  0  0  0  0  0  0  0  # atno 17394 bound_to 11000
  140.0764  134.9673  157.1553 LP  0  0  0  0  0  0  0  0  0  0  0  0  # atno 17395 bound_to 11000

$$$$
