AV-unprocessed.smi:3211|AV-procd|sdf|12277|dock10
  -GOLD-   2272018113D 1   1.00000     0.00000
 Structure written by MMmdl.
 34 35  0  0  0  0  0  0  0  0  1 V2000
  153.9272  141.3736  160.7565 C   0  0  0  0  0  0  0  0  0  0  0  0
  152.9286  142.5072  161.0125 C   0  0  0  0  0  0  0  0  0  0  0  0
  152.1806  142.8996  159.7825 C   0  0  0  0  0  0  0  0  0  0  0  0
  152.1657  142.1690  158.6643 N   0  0  0  0  0  0  0  0  0  0  0  0
  151.3650  142.7306  157.6646 C   0  0  0  0  0  0  0  0  0  0  0  0
  151.2336  142.0477  156.3374 C   0  0  0  0  0  0  0  0  0  0  0  0
  150.3891  140.7655  156.4245 C   0  0  0  0  0  0  0  0  0  0  0  0
  149.2416  140.8151  155.5254 N   0  0  0  0  0  0  0  0  0  0  0  0
  149.3125  140.8112  154.1855 C   0  0  0  0  0  0  0  0  0  0  0  0
  150.3793  140.7673  153.5706 O   0  0  0  0  0  0  0  0  0  0  0  0
  147.9826  140.8606  153.5067 C   0  0  1  0  0  0  0  0  0  0  0  0
  147.0092  139.7342  153.7899 C   0  0  0  0  0  0  0  0  0  0  0  0
  146.7586  141.1052  154.3697 C   0  0  2  0  0  0  0  0  0  0  0  0
  145.6244  141.9687  153.8613 C   0  0  0  0  0  0  0  0  0  0  0  0
  150.7597  143.9009  158.0499 C   0  0  0  0  0  0  0  0  0  0  0  0
  151.1722  144.3387  159.6847 S   0  0  0  0  0  0  0  0  0  0  0  0
  154.4564  141.1079  161.6715 H   0  0  0  0  0  0  0  0  0  0  0  0
  154.6706  141.6648  160.0139 H   0  0  0  0  0  0  0  0  0  0  0  0
  153.4211  140.4791  160.3917 H   0  0  0  0  0  0  0  0  0  0  0  0
  152.2108  142.2045  161.7753 H   0  0  0  0  0  0  0  0  0  0  0  0
  153.4499  143.3819  161.4033 H   0  0  0  0  0  0  0  0  0  0  0  0
  150.7870  142.7332  155.6160 H   0  0  0  0  0  0  0  0  0  0  0  0
  152.2222  141.8061  155.9449 H   0  0  0  0  0  0  0  0  0  0  0  0
  150.9953  139.9012  156.1514 H   0  0  0  0  0  0  0  0  0  0  0  0
  150.0539  140.5974  157.4495 H   0  0  0  0  0  0  0  0  0  0  0  0
  148.3275  140.8531  155.9530 H   0  0  0  0  0  0  0  0  0  0  0  0
  147.9669  141.2762  152.4998 H   0  0  0  0  0  0  0  0  0  0  0  0
  146.3866  139.4026  152.9613 H   0  0  0  0  0  0  0  0  0  0  0  0
  147.3093  138.9473  154.4799 H   0  0  0  0  0  0  0  0  0  0  0  0
  146.9203  141.2013  155.4425 H   0  0  0  0  0  0  0  0  0  0  0  0
  145.4820  141.8302  152.7891 H   0  0  0  0  0  0  0  0  0  0  0  0
  145.8410  143.0201  154.0508 H   0  0  0  0  0  0  0  0  0  0  0  0
  144.6975  141.7070  154.3718 H   0  0  0  0  0  0  0  0  0  0  0  0
  150.0946  144.5274  157.4739 H   0  0  0  0  0  0  0  0  0  0  0  0
  1  2  1  0  0  0  0
  1 17  1  0  0  0  0
  1 18  1  0  0  0  0
  1 19  1  0  0  0  0
  2  3  1  0  0  0  0
  2 20  1  0  0  0  0
  2 21  1  0  0  0  0
  3 16  1  0  0  0  0
  3  4  2  0  0  0  0
  4  5  1  0  0  0  0
  5  6  1  0  0  0  0
  5 15  2  0  0  0  0
  6  7  1  0  0  0  0
  6 22  1  0  0  0  0
  6 23  1  0  0  0  0
  7  8  1  0  0  0  0
  7 24  1  0  0  0  0
  7 25  1  0  0  0  0
  8  9  1  0  0  0  0
  8 26  1  0  0  0  0
  9 10  2  0  0  0  0
  9 11  1  0  0  0  0
 11 13  1  0  0  0  0
 11 12  1  0  0  0  0
 11 27  1  0  0  0  0
 12 13  1  0  0  0  0
 12 28  1  0  0  0  0
 12 29  1  0  0  0  0
 13 14  1  0  0  0  0
 13 30  1  0  0  0  0
 14 31  1  0  0  0  0
 14 32  1  0  0  0  0
 14 33  1  0  0  0  0
 15 16  1  0  0  0  0
 15 34  1  0  0  0  0
M  END
> <s_m_source_file>
AV-unprocessed.smi

> <i_m_source_file_index>
3211

> <i_lp_mmshare_version>
43012

> <i_f3d_flags>
0

> <s_epik_input>
W0NIM11bQ0gyXWMxbmMoW2NIXXMxKVtDSDJdW0NIMl1bTkhdQyg9TylbQ0BASF0yW0NIMl1bQ0BIXTJbQ0gzXQ==

> <s_epik_cmdline>
J2VwaWtfcHl0aG9uJywgJy1waCcsICc3LjAnLCAnLXRuJywgJzgnLCAnLW1hJywgJzIwMCcsICctbWV0YWxfYmluZGluZycsICctaW1hZScsICc8aW5maWxlLm1hZT4nLCAnLW9tYWUnLCAnPG91dGZpbGUubWFlPic=

> <r_epik_Ionization_Penalty>
0.00109667

> <r_epik_Ionization_Penalty_Charging>
0

> <r_epik_Ionization_Penalty_Neutral>
0.00109667

> <r_epik_State_Penalty>
0.000719322

> <r_epik_Charging_Adjusted_Penalty>
0.000719322

> <i_epik_Tot_Q>
0

> <i_epik_Tot_abs_Q>
0

> <r_epik_Metal_State_Penalty>
-0

> <b_epik_Metal_Only>
0

> <s_lp_Force_Field>
OPLS_2005

> <r_lp_Energy>
-0.564993

> <b_lp_Chiralities_Consistent>
1

> <s_lp_Variant>
AV-unprocessed.smi:3211-4

> <Gold.Version>
5.8.1

> <Gold.Id.Protein>
6NUR|6NUR_protein|mol2

> <Gold.PLP.Fitness>
46.2703

> <Gold.PLP.PLP>
-42.3473

> <Gold.PLP.part.hbond>
-1.3151

> <Gold.PLP.part.metal>
0.0000

> <Gold.PLP.part.buried>
-7.0022

> <Gold.PLP.part.nonpolar>
-35.2526

> <Gold.PLP.part.repulsive>
0.1839

> <Gold.PLP.ligand.clash>
0.0000

> <Gold.PLP.ligand.torsion>
0.7323

> <Gold.PLP.Chemscore.Hbond>
0.7680

> <Gold.PLP.Chemscore.CHOScore>
1.0000

> <Gold.PLP.Chemscore.Metal>
0.0000

> <Gold.Chemscore.Hbonds>
donor molecule, donor type, donor heavy atom, donor atom, acceptor molecule, acceptor atom, score
      P1  H  7989  7998       L1    10  0.11
      P1  H  8011  8017       L1    10  0.39
      L1  C    15    34       P1  8028  1.00

> <Gold.PLP.Chemscore.Internal.Correction>
0.0835

> <Gold.Rescore>
     Score         DG    S(hbond)    S(metal)    S(lipo)     H(rot)  DE(clash)    DE(int)     intcor
     16.72     -17.39       0.92        0.00     108.50       1.51       0.05       0.61       ----

> <Gold.Chemscore.Fitness>
16.7209

> <Gold.Chemscore.DG>
-17.3891

> <Gold.Chemscore.ZeroCoef>
-5.4800

> <Gold.Chemscore.Hbond>
0.9221

> <Gold.Chemscore.Metal>
0.0000

> <Gold.Chemscore.Lipo>
108.4959

> <Gold.Chemscore.Internal_Hbond>
0.0000

> <Gold.Chemscore.DEClash>
0.0544

> <Gold.Chemscore.DEInternal>
0.6138

> <Gold.Chemscore.Rot>
1.5096

> <Gold.Chemscore.Internal.Correction>
   9.000000E+99

> <Gold.Chemscore.Hbonds>
donor molecule, donor type, donor heavy atom, donor atom, acceptor molecule, acceptor atom, score
      P1  H  7989  7998       L1    10  0.11
      P1  H  8011  8017       L1    10  0.03

> <Gold.Chemscore.Hbond.Weighted>
-3.0797

> <Gold.Chemscore.Metal.Weighted>
-0.0000

> <Gold.Chemscore.Lipo.Weighted>
-12.6940

> <Gold.Chemscore.Internal_Hbond.Weighted>
0.0000

> <Gold.Chemscore.DEClash.Weighted>
0.0544

> <Gold.Chemscore.DEInternal.Weighted>
0.6138

> <Gold.Chemscore.Rot.Weighted>
3.8646

> <Gold.Chemscore.Internal.Correction.Weighted>
   9.000000E+99

> <Gold.Protein.RotatedTorsions>
[ 6907 6896 6895 6894 ] final   17.95 input  -60.11 | X-H torsion
[ 7974 7965 7964 7962 ] final  -97.11 input  175.53 | X-H torsion
[ 8008 7997 7996 7995 ] final   26.26 input   59.86 | X-H torsion
[ 10167 10162 10161 10158 ] final   52.58 input  -65.29 | X-H torsion
[ 10718 10713 10712 10709 ] final -167.58 input   66.30 | X-H torsion
[ 10763 10752 10751 10750 ] final  -42.20 input  -60.55 | X-H torsion
[ 11005 11000 10999 10996 ] final  -69.67 input  -57.11 | X-H torsion

> <Gold.Protein.ActiveResidues>
 VAL166  LYS551  ARG553  GLY616  TRP617  ASP618  TYR619  PRO620  LYS621  CYS622 
 ASP623  PHE694  ASN695  SER759  ASP760  ASP761  ALA762  ILE779  LEU786  VAL792 
 PHE793  MET794  SER795  GLU796  ALA797  LYS798  CYS799  TRP800  GLU811  SER814 

> <Gold.Protein.RotatedAtoms>
  151.8577  135.0535  160.0465 H   0  0  0  0  0  0  0  0  0  0  0  0  # atno 6907 bound_to 6896
  152.2687  133.5358  159.5434 H   0  0  0  0  0  0  0  0  0  0  0  0  # atno 6908 bound_to 6896
  150.7143  134.0644  159.3885 H   0  0  0  0  0  0  0  0  0  0  0  0  # atno 6909 bound_to 6896
  145.3381  140.9454  143.2623 H   0  0  0  0  0  0  0  0  0  0  0  0  # atno 7974 bound_to 7965
  155.0244  140.3151  155.4781 H   0  0  0  0  0  0  0  0  0  0  0  0  # atno 8008 bound_to 7997
  156.2886  140.2191  156.5306 H   0  0  0  0  0  0  0  0  0  0  0  0  # atno 8009 bound_to 7997
  154.7424  140.0472  157.0810 H   0  0  0  0  0  0  0  0  0  0  0  0  # atno 8010 bound_to 7997
  140.2499  144.3490  150.6351 H   0  0  0  0  0  0  0  0  0  0  0  0  # atno 10167 bound_to 10162
  156.6845  130.9135  151.3061 H   0  0  0  0  0  0  0  0  0  0  0  0  # atno 10718 bound_to 10713
  153.9752  135.6723  153.4748 H   0  0  0  0  0  0  0  0  0  0  0  0  # atno 10763 bound_to 10752
  153.0774  135.4941  154.8429 H   0  0  0  0  0  0  0  0  0  0  0  0  # atno 10764 bound_to 10752
  154.7196  135.3114  154.9029 H   0  0  0  0  0  0  0  0  0  0  0  0  # atno 10765 bound_to 10752
  141.1559  133.6770  156.6635 H   0  0  0  0  0  0  0  0  0  0  0  0  # atno 11005 bound_to 11000
  144.8812  139.4902  143.6722 LP  0  0  0  0  0  0  0  0  0  0  0  0  # atno 17320 bound_to 7965
  146.3018  139.7452  142.9085 LP  0  0  0  0  0  0  0  0  0  0  0  0  # atno 17321 bound_to 7965
  140.6048  143.2167  151.7001 LP  0  0  0  0  0  0  0  0  0  0  0  0  # atno 17342 bound_to 10162
  139.5049  144.3735  152.0447 LP  0  0  0  0  0  0  0  0  0  0  0  0  # atno 17343 bound_to 10162
  157.7032  130.9355  150.0848 LP  0  0  0  0  0  0  0  0  0  0  0  0  # atno 17370 bound_to 10713
  156.1843  130.3651  149.8993 LP  0  0  0  0  0  0  0  0  0  0  0  0  # atno 17371 bound_to 10713
  140.3229  134.7993  157.4266 LP  0  0  0  0  0  0  0  0  0  0  0  0  # atno 17394 bound_to 11000
  140.1082  134.5381  155.8290 LP  0  0  0  0  0  0  0  0  0  0  0  0  # atno 17395 bound_to 11000

$$$$
