AV-unprocessed.smi:3234|AV-procd|sdf|12352|dock7
  -GOLD-   2272018213D 1   1.00000     0.00000
 Structure written by MMmdl.
 38 40  0  0  0  0  0  0  0  0  3 V2000
  145.3845  138.6488  152.8215 O   0  0  0  0  0  0  0  0  0  0  0  0
  146.4689  138.1278  152.5649 C   0  0  0  0  0  0  0  0  0  0  0  0
  147.6772  138.6455  152.8501 N   0  0  0  0  0  0  0  0  0  0  0  0
  148.0142  139.8691  153.4959 C   0  0  0  0  0  0  0  0  0  0  0  0
  147.1021  140.9392  153.3539 C   0  0  0  0  0  0  0  0  0  0  0  0
  147.3767  142.1788  153.9666 C   0  0  0  0  0  0  0  0  0  0  0  0
  148.5092  142.3373  154.6836 N   0  3  0  0  0  0  0  0  0  0  0  0
  149.4128  141.3478  154.8469 C   0  0  0  0  0  0  0  0  0  0  0  0
  149.1923  140.0859  154.2576 C   0  0  0  0  0  0  0  0  0  0  0  0
  146.5827  136.9427  151.9484 N   0  0  0  0  0  0  0  0  0  0  0  0
  145.4556  136.1242  151.5130 C   0  0  2  0  0  0  0  0  0  0  0  0
  144.2383  136.1801  152.4310 C   0  0  0  0  0  0  0  0  0  0  0  0
  143.4800  134.9013  152.0576 C   0  0  0  0  0  0  0  0  0  0  0  0
  144.4914  133.9308  151.5688 N   0  3  1  0  0  0  0  0  0  0  0  0
  144.1191  133.2824  150.2924 C   0  0  0  0  0  0  0  0  0  0  0  0
  143.8526  131.8017  150.4223 C   0  0  0  0  0  0  0  0  0  0  0  0
  145.1427  132.2882  149.7981 C   0  0  0  0  0  0  0  0  0  0  0  0
  145.7926  134.6338  151.5177 C   0  0  0  0  0  0  0  0  0  0  0  0
  148.4674  138.0895  152.5577 H   0  0  0  0  0  0  0  0  0  0  0  0
  146.1950  140.8157  152.7799 H   0  0  0  0  0  0  0  0  0  0  0  0
  146.7295  143.0414  153.9044 H   0  0  0  0  0  0  0  0  0  0  0  0
  150.2818  141.5930  155.4401 H   0  0  0  0  0  0  0  0  0  0  0  0
  149.9375  139.3213  154.4067 H   0  0  0  0  0  0  0  0  0  0  0  0
  147.5086  136.5824  151.7685 H   0  0  0  0  0  0  0  0  0  0  0  0
  145.1602  136.4138  150.5022 H   0  0  0  0  0  0  0  0  0  0  0  0
  144.5485  136.1379  153.4764 H   0  0  0  0  0  0  0  0  0  0  0  0
  143.6394  137.0810  152.2920 H   0  0  0  0  0  0  0  0  0  0  0  0
  142.9238  134.4941  152.9025 H   0  0  0  0  0  0  0  0  0  0  0  0
  142.7598  135.1249  151.2686 H   0  0  0  0  0  0  0  0  0  0  0  0
  143.5508  133.8878  149.5880 H   0  0  0  0  0  0  0  0  0  0  0  0
  143.9107  131.3521  151.4120 H   0  0  0  0  0  0  0  0  0  0  0  0
  143.1108  131.3652  149.7566 H   0  0  0  0  0  0  0  0  0  0  0  0
  145.2502  132.1718  148.7216 H   0  0  0  0  0  0  0  0  0  0  0  0
  146.0586  132.1622  150.3729 H   0  0  0  0  0  0  0  0  0  0  0  0
  146.4000  134.3410  150.6597 H   0  0  0  0  0  0  0  0  0  0  0  0
  146.3491  134.3719  152.4189 H   0  0  0  0  0  0  0  0  0  0  0  0
  144.5775  133.1989  152.2596 H   0  0  0  0  0  0  0  0  0  0  0  0
  148.6903  143.2421  155.1192 H   0  0  0  0  0  0  0  0  0  0  0  0
  1  2  2  0  0  0  0
  2  3  1  0  0  0  0
  2 10  1  0  0  0  0
  3  4  1  0  0  0  0
  3 19  1  0  0  0  0
  4  9  1  0  0  0  0
  4  5  2  0  0  0  0
  5  6  1  0  0  0  0
  5 20  1  0  0  0  0
  6  7  2  0  0  0  0
  6 21  1  0  0  0  0
  7  8  1  0  0  0  0
  7 38  1  0  0  0  0
  8  9  2  0  0  0  0
  8 22  1  0  0  0  0
  9 23  1  0  0  0  0
 10 11  1  0  0  0  0
 10 24  1  0  0  0  0
 11 18  1  0  0  0  0
 11 12  1  0  0  0  0
 11 25  1  0  0  0  0
 12 13  1  0  0  0  0
 12 26  1  0  0  0  0
 12 27  1  0  0  0  0
 13 14  1  0  0  0  0
 13 28  1  0  0  0  0
 13 29  1  0  0  0  0
 14 15  1  0  0  0  0
 14 18  1  0  0  0  0
 14 37  1  0  0  0  0
 15 17  1  0  0  0  0
 15 16  1  0  0  0  0
 15 30  1  0  0  0  0
 16 17  1  0  0  0  0
 16 31  1  0  0  0  0
 16 32  1  0  0  0  0
 17 33  1  0  0  0  0
 17 34  1  0  0  0  0
 18 35  1  0  0  0  0
 18 36  1  0  0  0  0
M  CHG  1   7   1
M  CHG  1  14   1
M  END
> <s_m_source_file>
AV-unprocessed.smi

> <i_m_source_file_index>
3234

> <i_lp_mmshare_version>
43012

> <i_f3d_flags>
0

> <s_epik_input>
W2NIXTFbY0hdbltjSF1bY0hdYzFbTkhdQyg9TylbTkhdW0NAQEhdMltDSDJdW0NIMl1OKFtDSDJdMilbQ0hdM1tDSDJdW0NIMl0z

> <s_epik_cmdline>
J2VwaWtfcHl0aG9uJywgJy1waCcsICc3LjAnLCAnLXRuJywgJzgnLCAnLW1hJywgJzIwMCcsICctbWV0YWxfYmluZGluZycsICctaW1hZScsICc8aW5maWxlLm1hZT4nLCAnLW9tYWUnLCAnPG91dGZpbGUubWFlPic=

> <r_epik_Ionization_Penalty>
1.14489

> <r_epik_Ionization_Penalty_Charging>
1.14487

> <r_epik_Ionization_Penalty_Neutral>
1.95212e-05

> <r_epik_State_Penalty>
1.205

> <r_epik_Charging_Adjusted_Penalty>
2.34987

> <i_epik_Tot_Q>
2

> <i_epik_Tot_abs_Q>
2

> <r_epik_Metal_State_Penalty>
1.28709

> <b_epik_Metal_Only>
0

> <s_lp_Force_Field>
OPLS_2005

> <r_lp_Energy>
49.761

> <b_lp_Chiralities_Consistent>
1

> <s_lp_Variant>
AV-unprocessed.smi:3234-5

> <Gold.Version>
5.8.1

> <Gold.Id.Protein>
6NUR|6NUR_protein|mol2

> <Gold.PLP.Fitness>
44.3073

> <Gold.PLP.PLP>
-34.3834

> <Gold.PLP.part.hbond>
-3.7901

> <Gold.PLP.part.metal>
0.0000

> <Gold.PLP.part.buried>
-4.1434

> <Gold.PLP.part.nonpolar>
-31.5207

> <Gold.PLP.part.repulsive>
4.1383

> <Gold.PLP.ligand.clash>
0.0121

> <Gold.PLP.ligand.torsion>
1.2765

> <Gold.PLP.Chemscore.Hbond>
3.7415

> <Gold.PLP.Chemscore.CHOScore>
0.0000

> <Gold.PLP.Chemscore.Metal>
0.0000

> <Gold.Chemscore.Hbonds>
donor molecule, donor type, donor heavy atom, donor atom, acceptor molecule, acceptor atom, score
      L1  H     3    19       P1  7948  0.86
      L1  H     7    38       P1  8028  2.00
      L1  H    10    24       P1  7948  0.83

> <Gold.PLP.Chemscore.Internal.Correction>
1.2645

> <Gold.Rescore>
     Score         DG    S(hbond)    S(metal)    S(lipo)     H(rot)  DE(clash)    DE(int)     intcor
     16.18     -21.61       2.95        0.00      80.61       1.22       1.44       4.00       ----

> <Gold.Chemscore.Fitness>
16.1788

> <Gold.Chemscore.DG>
-21.6130

> <Gold.Chemscore.ZeroCoef>
-5.4800

> <Gold.Chemscore.Hbond>
2.9452

> <Gold.Chemscore.Metal>
0.0000

> <Gold.Chemscore.Lipo>
80.6112

> <Gold.Chemscore.Internal_Hbond>
0.0000

> <Gold.Chemscore.DEClash>
1.4390

> <Gold.Chemscore.DEInternal>
3.9952

> <Gold.Chemscore.Rot>
1.2248

> <Gold.Chemscore.Internal.Correction>
   9.000000E+99

> <Gold.Chemscore.Hbonds>
donor molecule, donor type, donor heavy atom, donor atom, acceptor molecule, acceptor atom, score
      L1  H     3    19       P1  7948  0.80
      L1  H     7    38       P1  8028  0.97
      L1  H    10    24       P1  7948  0.82

> <Gold.Chemscore.Hbond.Weighted>
-9.8369

> <Gold.Chemscore.Metal.Weighted>
-0.0000

> <Gold.Chemscore.Lipo.Weighted>
-9.4315

> <Gold.Chemscore.Internal_Hbond.Weighted>
0.0000

> <Gold.Chemscore.DEClash.Weighted>
1.4390

> <Gold.Chemscore.DEInternal.Weighted>
3.9952

> <Gold.Chemscore.Rot.Weighted>
3.1355

> <Gold.Chemscore.Internal.Correction.Weighted>
   9.000000E+99

> <Gold.Protein.RotatedTorsions>
[ 6907 6896 6895 6894 ] final  102.12 input  -60.11 | X-H torsion
[ 7974 7965 7964 7962 ] final  -48.50 input  175.53 | X-H torsion
[ 8008 7997 7996 7995 ] final   14.95 input   59.86 | X-H torsion
[ 10167 10162 10161 10158 ] final  -10.85 input  -65.29 | X-H torsion
[ 10718 10713 10712 10709 ] final   50.11 input   66.30 | X-H torsion
[ 10763 10752 10751 10750 ] final  108.57 input  -60.55 | X-H torsion
[ 11005 11000 10999 10996 ] final  164.27 input  -57.11 | X-H torsion

> <Gold.Protein.ActiveResidues>
 VAL166  LYS551  ARG553  GLY616  TRP617  ASP618  TYR619  PRO620  LYS621  CYS622 
 ASP623  PHE694  ASN695  SER759  ASP760  ASP761  ALA762  ILE779  LEU786  VAL792 
 PHE793  MET794  SER795  GLU796  ALA797  LYS798  CYS799  TRP800  GLU811  SER814 

> <Gold.Protein.RotatedAtoms>
  152.5332  134.0024  159.7900 H   0  0  0  0  0  0  0  0  0  0  0  0  # atno 6907 bound_to 6896
  151.0240  133.5842  159.2675 H   0  0  0  0  0  0  0  0  0  0  0  0  # atno 6908 bound_to 6896
  151.2871  135.0738  159.9244 H   0  0  0  0  0  0  0  0  0  0  0  0  # atno 6909 bound_to 6896
  145.9505  140.7577  142.9507 H   0  0  0  0  0  0  0  0  0  0  0  0  # atno 7974 bound_to 7965
  154.8558  140.2936  155.5570 H   0  0  0  0  0  0  0  0  0  0  0  0  # atno 8008 bound_to 7997
  156.3018  140.2487  156.3456 H   0  0  0  0  0  0  0  0  0  0  0  0  # atno 8009 bound_to 7997
  154.8972  140.0392  157.1862 H   0  0  0  0  0  0  0  0  0  0  0  0  # atno 8010 bound_to 7997
  140.7124  143.5704  150.9099 H   0  0  0  0  0  0  0  0  0  0  0  0  # atno 10167 bound_to 10162
  157.4852  130.8341  149.8139 H   0  0  0  0  0  0  0  0  0  0  0  0  # atno 10718 bound_to 10713
  153.4225  135.3808  155.2120 H   0  0  0  0  0  0  0  0  0  0  0  0  # atno 10763 bound_to 10752
  154.8745  135.3820  154.4367 H   0  0  0  0  0  0  0  0  0  0  0  0  # atno 10764 bound_to 10752
  153.4889  135.7088  153.5958 H   0  0  0  0  0  0  0  0  0  0  0  0  # atno 10765 bound_to 10752
  140.2442  134.8027  157.3440 H   0  0  0  0  0  0  0  0  0  0  0  0  # atno 11005 bound_to 11000
  144.6795  140.2427  143.7341 LP  0  0  0  0  0  0  0  0  0  0  0  0  # atno 17320 bound_to 7965
  145.8177  139.2030  143.1956 LP  0  0  0  0  0  0  0  0  0  0  0  0  # atno 17321 bound_to 7965
  139.9429  143.6360  152.3049 LP  0  0  0  0  0  0  0  0  0  0  0  0  # atno 17342 bound_to 10162
  139.6852  144.7652  151.1537 LP  0  0  0  0  0  0  0  0  0  0  0  0  # atno 17343 bound_to 10162
  156.0143  130.3820  150.2162 LP  0  0  0  0  0  0  0  0  0  0  0  0  # atno 17370 bound_to 10713
  157.0349  131.0018  151.3301 LP  0  0  0  0  0  0  0  0  0  0  0  0  # atno 17371 bound_to 10713
  140.1623  134.4713  155.7886 LP  0  0  0  0  0  0  0  0  0  0  0  0  # atno 17394 bound_to 11000
  141.2208  133.6906  156.7565 LP  0  0  0  0  0  0  0  0  0  0  0  0  # atno 17395 bound_to 11000

$$$$
