#       Name:                AV-unprocessed.smi:3172
#       Creating user name   scv26
#       Creation time:       Fri Mar 27 17:55:23 2020


#       File generated by GOLD software.
#

@<TRIPOS>MOLECULE
AV-unprocessed.smi:3172
    44    45     1
SMALL
NO_CHARGES


@<TRIPOS>ATOM
      1 ****        -3.5411   4.5585  -0.2707 C.3            1 S1                 0.0000
      2 ****        -3.0826   3.2887   0.3648 C.2            1 S1                 0.0000
      3 ****        -3.2327   3.0466   1.7046 N.pl3          1 S1                 1.0000
      4 ****        -2.7469   1.8456   2.0213 C.2            1 S1                 0.0000
      5 ****        -2.2730   1.3088   0.8906 N.pl3          1 S1                 0.0000
      6 ****        -1.6616  -0.0293   0.8655 C.3            1 S1                 0.0000
      7 ****        -0.1201  -0.0042   0.7966 C.3            1 S1                 0.0000
      8 ****         0.5187   0.7940   1.9462 C.3            1 S1                 0.0000
      9 ****         0.3974  -1.3921   0.7973 N.4            1 S1                 1.0000
     10 ****         1.2808  -1.7589  -0.3335 C.3            1 S1                 0.0000
     11 ****         1.4805  -3.2863  -0.3619 C.3            1 S1                 0.0000
     12 ****         2.4064  -3.7140  -1.5119 C.3            1 S1                 0.0000
     13 ****         3.7605  -2.9922  -1.4341 C.3            1 S1                 0.0000
     14 ****         3.5741  -1.4678  -1.4019 C.3            1 S1                 0.0000
     15 ****         2.6462  -1.0418  -0.2525 C.3            1 S1                 0.0000
     16 ****        -2.4688   2.1755  -0.1626 C.2            1 S1                 0.0000
     17 ****        -2.0575   1.8699  -1.5668 C.3            1 S1                 0.0000
     18 ****        -4.0102   4.3518  -1.2328 H              1 S1                 0.0000
     19 ****        -2.6932   5.2240  -0.4326 H              1 S1                 0.0000
     20 ****        -4.2676   5.0676   0.3635 H              1 S1                 0.0000
     21 ****        -2.7371   1.4007   3.0006 H              1 S1                 0.0000
     22 ****        -1.9919  -0.5697   1.7546 H              1 S1                 0.0000
     23 ****        -2.0735  -0.5653   0.0098 H              1 S1                 0.0000
     24 ****         0.1616   0.4780  -0.1396 H              1 S1                 0.0000
     25 ****         0.2268   1.8439   1.9150 H              1 S1                 0.0000
     26 ****         1.6072   0.7634   1.8936 H              1 S1                 0.0000
     27 ****         0.2240   0.3943   2.9170 H              1 S1                 0.0000
     28 ****         0.8855  -1.5638   1.6650 H              1 S1                 0.0000
     29 ****         0.7797  -1.4698  -1.2591 H              1 S1                 0.0000
     30 ****         1.9032  -3.6227   0.5862 H              1 S1                 0.0000
     31 ****         0.5174  -3.7877  -0.4651 H              1 S1                 0.0000
     32 ****         2.5597  -4.7933  -1.4840 H              1 S1                 0.0000
     33 ****         1.9287  -3.4944  -2.4675 H              1 S1                 0.0000
     34 ****         4.2965  -3.3137  -0.5401 H              1 S1                 0.0000
     35 ****         4.3820  -3.2736  -2.2847 H              1 S1                 0.0000
     36 ****         4.5429  -0.9780  -1.2990 H              1 S1                 0.0000
     37 ****         3.1574  -1.1306  -2.3518 H              1 S1                 0.0000
     38 ****         2.5157   0.0399  -0.2869 H              1 S1                 0.0000
     39 ****         3.1257  -1.2654   0.7016 H              1 S1                 0.0000
     40 ****        -2.4687   2.6107  -2.2528 H              1 S1                 0.0000
     41 ****        -2.4210   0.8878  -1.8694 H              1 S1                 0.0000
     42 ****        -0.9718   1.8890  -1.6574 H              1 S1                 0.0000
     43 ****        -0.4014  -2.0092   0.7591 H              1 S1                 0.0000
     44 ****        -3.6567   3.6868   2.3645 H              1 S1                 0.0000
@<TRIPOS>BOND
    1    1    2 1     
    2    1   18 1     
    3    1   19 1     
    4    1   20 1     
    5    2   16 2     
    6    2    3 1     
    7    3    4 2     
    8    3   44 1     
    9    4    5 1     
   10    4   21 1     
   11    5    6 1     
   12    5   16 1     
   13    6    7 1     
   14    6   22 1     
   15    6   23 1     
   16    7    8 1     
   17    7    9 1     
   18    7   24 1     
   19    8   25 1     
   20    8   26 1     
   21    8   27 1     
   22    9   10 1     
   23    9   28 1     
   24    9   43 1     
   25   10   15 1     
   26   10   11 1     
   27   10   29 1     
   28   11   12 1     
   29   11   30 1     
   30   11   31 1     
   31   12   13 1     
   32   12   32 1     
   33   12   33 1     
   34   13   14 1     
   35   13   34 1     
   36   13   35 1     
   37   14   15 1     
   38   14   36 1     
   39   14   37 1     
   40   15   38 1     
   41   15   39 1     
   42   16   17 1     
   43   17   40 1     
   44   17   41 1     
   45   17   42 1     
@<TRIPOS>SUBSTRUCTURE
      1 S1             1
@<TRIPOS>SET
DONOR_HYDROGENS      STATIC     ATOMS    <user>   **** ""
3 44 28 43
ATOM$RED        STATIC     ATOMS    COLORGROUP SYSTEM
3 44 28 43
