AV-unprocessed.smi:1666|AV-procd|sdf|6672|dock6
  -GOLD-   22720 7383D 1   1.00000     0.00000
 Structure written by MMmdl.
 40 41  0  0  0  0  0  0  0  0  2 V2000
  145.4450  135.8334  151.0185 C   0  0  0  0  0  0  0  0  0  0  0  0
  145.2438  134.3339  150.8698 C   0  0  0  0  0  0  0  0  0  0  0  0
  144.1390  133.8555  150.1338 C   0  0  0  0  0  0  0  0  0  0  0  0
  143.9546  132.4691  149.9966 C   0  0  0  0  0  0  0  0  0  0  0  0
  144.8887  131.6140  150.6057 C   0  0  0  0  0  0  0  0  0  0  0  0
  145.9473  132.0622  151.3106 N   0  0  0  0  0  0  0  0  0  0  0  0
  146.1403  133.3978  151.4517 C   0  0  0  0  0  0  0  0  0  0  0  0
  147.2346  133.9418  152.1816 N   0  0  0  0  0  0  0  0  0  0  0  0
  147.7398  133.5331  153.3588 C   0  0  0  0  0  0  0  0  0  0  0  0
  147.3287  132.5804  154.0223 O   0  0  0  0  0  0  0  0  0  0  0  0
  148.7686  134.3038  153.7404 N   0  0  0  0  0  0  0  0  0  0  0  0
  149.5298  134.1220  154.9706 C   0  0  0  0  0  0  0  0  0  0  0  0
  150.6287  135.1921  155.1164 C   0  0  0  0  0  0  0  0  0  0  0  0
  150.2078  136.5118  154.5848 N   0  3  0  0  0  0  0  0  0  0  0  0
  148.9514  136.9951  155.2062 C   0  0  0  0  0  0  0  0  0  0  0  0
  148.5288  138.3412  154.5939 C   0  0  0  0  0  0  0  0  0  0  0  0
  149.5778  139.2877  154.7538 O   0  0  0  0  0  0  0  0  0  0  0  0
  150.7663  138.8808  154.0873 C   0  0  0  0  0  0  0  0  0  0  0  0
  151.2633  137.5513  154.6800 C   0  0  0  0  0  0  0  0  0  0  0  0
  144.6506  136.3916  150.5220 H   0  0  0  0  0  0  0  0  0  0  0  0
  146.3942  136.1367  150.5764 H   0  0  0  0  0  0  0  0  0  0  0  0
  145.4455  136.1171  152.0713 H   0  0  0  0  0  0  0  0  0  0  0  0
  143.4391  134.5406  149.6781 H   0  0  0  0  0  0  0  0  0  0  0  0
  143.1194  132.0717  149.4393 H   0  0  0  0  0  0  0  0  0  0  0  0
  144.7843  130.5421  150.5256 H   0  0  0  0  0  0  0  0  0  0  0  0
  147.6831  134.7382  151.7541 H   0  0  0  0  0  0  0  0  0  0  0  0
  149.0447  135.0657  153.1379 H   0  0  0  0  0  0  0  0  0  0  0  0
  148.8440  134.1331  155.8182 H   0  0  0  0  0  0  0  0  0  0  0  0
  149.9790  133.1288  154.9481 H   0  0  0  0  0  0  0  0  0  0  0  0
  150.8629  135.2920  156.1775 H   0  0  0  0  0  0  0  0  0  0  0  0
  151.5524  134.8800  154.6265 H   0  0  0  0  0  0  0  0  0  0  0  0
  148.1579  136.2614  155.0589 H   0  0  0  0  0  0  0  0  0  0  0  0
  149.0937  137.1026  156.2827 H   0  0  0  0  0  0  0  0  0  0  0  0
  148.2812  138.2290  153.5370 H   0  0  0  0  0  0  0  0  0  0  0  0
  147.6351  138.7171  155.0923 H   0  0  0  0  0  0  0  0  0  0  0  0
  150.5832  138.7859  153.0157 H   0  0  0  0  0  0  0  0  0  0  0  0
  151.5236  139.6548  154.2135 H   0  0  0  0  0  0  0  0  0  0  0  0
  151.5438  137.6938  155.7249 H   0  0  0  0  0  0  0  0  0  0  0  0
  152.1611  137.2358  154.1498 H   0  0  0  0  0  0  0  0  0  0  0  0
  150.0071  136.3795  153.6036 H   0  0  0  0  0  0  0  0  0  0  0  0
  1  2  1  0  0  0  0
  1 20  1  0  0  0  0
  1 21  1  0  0  0  0
  1 22  1  0  0  0  0
  2  7  1  0  0  0  0
  2  3  2  0  0  0  0
  3  4  1  0  0  0  0
  3 23  1  0  0  0  0
  4  5  2  0  0  0  0
  4 24  1  0  0  0  0
  5  6  1  0  0  0  0
  5 25  1  0  0  0  0
  6  7  2  0  0  0  0
  7  8  1  0  0  0  0
  8  9  1  0  0  0  0
  8 26  1  0  0  0  0
  9 10  2  0  0  0  0
  9 11  1  0  0  0  0
 11 12  1  0  0  0  0
 11 27  1  0  0  0  0
 12 13  1  0  0  0  0
 12 28  1  0  0  0  0
 12 29  1  0  0  0  0
 13 14  1  0  0  0  0
 13 30  1  0  0  0  0
 13 31  1  0  0  0  0
 14 19  1  0  0  0  0
 14 15  1  0  0  0  0
 14 40  1  0  0  0  0
 15 16  1  0  0  0  0
 15 32  1  0  0  0  0
 15 33  1  0  0  0  0
 16 17  1  0  0  0  0
 16 34  1  0  0  0  0
 16 35  1  0  0  0  0
 17 18  1  0  0  0  0
 18 19  1  0  0  0  0
 18 36  1  0  0  0  0
 18 37  1  0  0  0  0
 19 38  1  0  0  0  0
 19 39  1  0  0  0  0
M  CHG  1  14   1
M  END
> <s_m_source_file>
AV-unprocessed.smi

> <i_m_source_file_index>
1666

> <i_lp_mmshare_version>
43012

> <i_f3d_flags>
0

> <s_epik_input>
W0NIM11jMVtjSF1bY0hdW2NIXW5jMVtOSF1DKD1PKVtOSF1bQ0gyXVtDSDJdTjJbQ0gyXVtDSDJdT1tDSDJdW0NIMl0y

> <s_epik_cmdline>
J2VwaWtfcHl0aG9uJywgJy1waCcsICc3LjAnLCAnLXRuJywgJzgnLCAnLW1hJywgJzIwMCcsICctbWV0YWxfYmluZGluZycsICctaW1hZScsICc8aW5maWxlLm1hZT4nLCAnLW9tYWUnLCAnPG91dGZpbGUubWFlPic=

> <r_epik_Ionization_Penalty>
0.602573

> <r_epik_Ionization_Penalty_Charging>
0.602531

> <r_epik_Ionization_Penalty_Neutral>
4.20806e-05

> <r_epik_State_Penalty>
0.617039

> <r_epik_Charging_Adjusted_Penalty>
1.21957

> <i_epik_Tot_Q>
1

> <i_epik_Tot_abs_Q>
1

> <r_epik_Metal_State_Penalty>
0.617042

> <b_epik_Metal_Only>
0

> <s_lp_Force_Field>
OPLS_2005

> <r_lp_Energy>
16.3818

> <b_lp_Chiralities_Consistent>
1

> <s_lp_Variant>
AV-unprocessed.smi:1666-2

> <Gold.Version>
5.8.1

> <Gold.Id.Protein>
6NUR|6NUR_protein|mol2

> <Gold.PLP.Fitness>
44.5255

> <Gold.PLP.PLP>
-33.4629

> <Gold.PLP.part.hbond>
-3.0000

> <Gold.PLP.part.metal>
0.0000

> <Gold.PLP.part.buried>
-5.2019

> <Gold.PLP.part.nonpolar>
-26.3368

> <Gold.PLP.part.repulsive>
0.3558

> <Gold.PLP.ligand.clash>
0.0000

> <Gold.PLP.ligand.torsion>
0.4790

> <Gold.PLP.Chemscore.Hbond>
4.0000

> <Gold.PLP.Chemscore.CHOScore>
0.0000

> <Gold.PLP.Chemscore.Metal>
0.0000

> <Gold.Chemscore.Hbonds>
donor molecule, donor type, donor heavy atom, donor atom, acceptor molecule, acceptor atom, score
      L1  H     8    26       P1  7948  1.00
      L1  H    11    27       P1  7948  0.90
      L1  H    14    40       P1  7948  1.60

> <Gold.PLP.Chemscore.Internal.Correction>
0.0205

> <Gold.Rescore>
     Score         DG    S(hbond)    S(metal)    S(lipo)     H(rot)  DE(clash)    DE(int)     intcor
     16.90     -17.52       2.33        0.00      69.93       1.54       0.10       0.52       ----

> <Gold.Chemscore.Fitness>
16.8986

> <Gold.Chemscore.DG>
-17.5222

> <Gold.Chemscore.ZeroCoef>
-5.4800

> <Gold.Chemscore.Hbond>
2.3347

> <Gold.Chemscore.Metal>
0.0000

> <Gold.Chemscore.Lipo>
69.9296

> <Gold.Chemscore.Internal_Hbond>
0.0000

> <Gold.Chemscore.DEClash>
0.0987

> <Gold.Chemscore.DEInternal>
0.5249

> <Gold.Chemscore.Rot>
1.5381

> <Gold.Chemscore.Internal.Correction>
   9.000000E+99

> <Gold.Chemscore.Hbonds>
donor molecule, donor type, donor heavy atom, donor atom, acceptor molecule, acceptor atom, score
      L1  H     8    26       P1  7948  0.38
      L1  H    11    27       P1  7948  0.18
      L1  H    14    40       P1  7948  0.11

> <Gold.Chemscore.Hbond.Weighted>
-7.7979

> <Gold.Chemscore.Metal.Weighted>
-0.0000

> <Gold.Chemscore.Lipo.Weighted>
-8.1818

> <Gold.Chemscore.Internal_Hbond.Weighted>
0.0000

> <Gold.Chemscore.DEClash.Weighted>
0.0987

> <Gold.Chemscore.DEInternal.Weighted>
0.5249

> <Gold.Chemscore.Rot.Weighted>
3.9375

> <Gold.Chemscore.Internal.Correction.Weighted>
   9.000000E+99

> <Gold.Protein.RotatedTorsions>
[ 6907 6896 6895 6894 ] final  -35.60 input  -60.11 | X-H torsion
[ 7974 7965 7964 7962 ] final   30.91 input  175.53 | X-H torsion
[ 8008 7997 7996 7995 ] final -169.05 input   59.86 | X-H torsion
[ 10167 10162 10161 10158 ] final   52.14 input  -65.29 | X-H torsion
[ 10718 10713 10712 10709 ] final   19.92 input   66.30 | X-H torsion
[ 10763 10752 10751 10750 ] final -173.73 input  -60.55 | X-H torsion
[ 11005 11000 10999 10996 ] final  179.64 input  -57.11 | X-H torsion

> <Gold.Protein.ActiveResidues>
 VAL166  LYS551  ARG553  GLY616  TRP617  ASP618  TYR619  PRO620  LYS621  CYS622 
 ASP623  PHE694  ASN695  SER759  ASP760  ASP761  ALA762  ILE779  LEU786  VAL792 
 PHE793  MET794  SER795  GLU796  ALA797  LYS798  CYS799  TRP800  GLU811  SER814 

> <Gold.Protein.RotatedAtoms>
  151.0378  134.9585  159.8145 H   0  0  0  0  0  0  0  0  0  0  0  0  # atno 6907 bound_to 6896
  152.5358  134.2697  159.8977 H   0  0  0  0  0  0  0  0  0  0  0  0  # atno 6908 bound_to 6896
  151.2708  133.4213  159.2655 H   0  0  0  0  0  0  0  0  0  0  0  0  # atno 6909 bound_to 6896
  146.1582  139.6725  142.9051 H   0  0  0  0  0  0  0  0  0  0  0  0  # atno 7974 bound_to 7965
  155.8997  140.1039  157.1359 H   0  0  0  0  0  0  0  0  0  0  0  0  # atno 8008 bound_to 7997
  154.4025  140.1295  156.4484 H   0  0  0  0  0  0  0  0  0  0  0  0  # atno 8009 bound_to 7997
  155.7437  140.3466  155.5119 H   0  0  0  0  0  0  0  0  0  0  0  0  # atno 8010 bound_to 7997
  140.2545  144.3442  150.6337 H   0  0  0  0  0  0  0  0  0  0  0  0  # atno 10167 bound_to 10162
  157.1172  130.6534  149.5913 H   0  0  0  0  0  0  0  0  0  0  0  0  # atno 10718 bound_to 10713
  154.6045  135.2858  155.0500 H   0  0  0  0  0  0  0  0  0  0  0  0  # atno 10763 bound_to 10752
  154.1752  135.6466  153.5023 H   0  0  0  0  0  0  0  0  0  0  0  0  # atno 10764 bound_to 10752
  153.0170  135.5410  154.6776 H   0  0  0  0  0  0  0  0  0  0  0  0  # atno 10765 bound_to 10752
  140.4084  134.6714  157.4600 H   0  0  0  0  0  0  0  0  0  0  0  0  # atno 11005 bound_to 11000
  145.4654  141.0434  143.2728 LP  0  0  0  0  0  0  0  0  0  0  0  0  # atno 17320 bound_to 7965
  144.7992  139.6174  143.7079 LP  0  0  0  0  0  0  0  0  0  0  0  0  # atno 17321 bound_to 7965
  140.6014  143.2167  151.7064 LP  0  0  0  0  0  0  0  0  0  0  0  0  # atno 17342 bound_to 10162
  139.5036  144.3786  152.0399 LP  0  0  0  0  0  0  0  0  0  0  0  0  # atno 17343 bound_to 10162
  155.9837  130.4857  150.6945 LP  0  0  0  0  0  0  0  0  0  0  0  0  # atno 17370 bound_to 10713
  157.4508  131.0872  151.0848 LP  0  0  0  0  0  0  0  0  0  0  0  0  # atno 17371 bound_to 10713
  140.0285  134.6441  155.9139 LP  0  0  0  0  0  0  0  0  0  0  0  0  # atno 17394 bound_to 11000
  141.1830  133.6550  156.5100 LP  0  0  0  0  0  0  0  0  0  0  0  0  # atno 17395 bound_to 11000

$$$$
