#       Name:                AV-unprocessed.smi:937
#       Creating user name   scv26
#       Creation time:       Fri Mar 27 02:11:42 2020


#       File generated by GOLD software.
#

@<TRIPOS>MOLECULE
AV-unprocessed.smi:937
    48    49     1
SMALL
NO_CHARGES


@<TRIPOS>ATOM
      1 ****        -3.2963   7.3595  -0.2190 C.3            1 S1                 0.0000
      2 ****        -2.7397   5.9581  -0.0792 C.ar           1 S1                 0.0000
      3 ****        -2.0246   5.5803   1.0765 C.ar           1 S1                 0.0000
      4 ****        -1.5246   4.2665   1.1560 C.ar           1 S1                 0.0000
      5 ****        -1.7573   3.3845   0.0811 C.ar           1 S1                 0.0000
      6 ****        -1.2348   1.9624   0.1183 C.3            1 S1                 0.0000
      7 ****         0.1724   1.8490  -0.4891 C.3            1 S1                 0.0000
      8 ****         0.6668   0.4792  -0.4327 N.am           1 S1                 0.0000
      9 ****         1.2286  -0.0920   0.6460 C.2            1 S1                 0.0000
     10 ****         1.4015   0.4973   1.7113 O.2            1 S1                 0.0000
     11 ****         1.5940  -1.3757   0.4805 N.am           1 S1                 0.0000
     12 ****         2.2264  -2.2803   1.4461 C.3            1 S1                 0.0000
     13 ****         3.7424  -2.0136   1.5669 C.3            1 S1                 0.0000
     14 ****         4.5045  -2.4277   0.2979 C.3            1 S1                 0.0000
     15 ****         4.2314  -3.8961  -0.0628 C.3            1 S1                 0.0000
     16 ****         2.7220  -4.1723  -0.2275 C.3            1 S1                 0.0000
     17 ****         2.4402  -5.6416  -0.6040 C.3            1 S1                 0.0000
     18 ****         2.8530  -6.4666   0.3587 F              1 S1                 0.0000
     19 ****         1.1329  -5.8206  -0.7935 F              1 S1                 0.0000
     20 ****         3.0702  -5.9519  -1.7370 F              1 S1                 0.0000
     21 ****         1.9601  -3.7464   1.0490 C.3            1 S1                 0.0000
     22 ****        -2.4822   3.8624  -1.0309 C.ar           1 S1                 0.0000
     23 ****        -2.9648   5.1209  -1.1161 N.ar           1 S1                 0.0000
     24 ****        -3.4746   7.8059   0.7597 H              1 S1                 0.0000
     25 ****        -4.2416   7.3515  -0.7627 H              1 S1                 0.0000
     26 ****        -2.5923   7.9911  -0.7611 H              1 S1                 0.0000
     27 ****        -1.8614   6.2791   1.8839 H              1 S1                 0.0000
     28 ****        -0.9710   3.9440   2.0259 H              1 S1                 0.0000
     29 ****        -1.2304   1.6178   1.1534 H              1 S1                 0.0000
     30 ****        -1.9282   1.3134  -0.4184 H              1 S1                 0.0000
     31 ****         0.1542   2.1617  -1.5335 H              1 S1                 0.0000
     32 ****         0.8664   2.5177   0.0236 H              1 S1                 0.0000
     33 ****         0.5665  -0.0783  -1.2683 H              1 S1                 0.0000
     34 ****         1.4241  -1.7691  -0.4339 H              1 S1                 0.0000
     35 ****         1.7638  -2.1218   2.4216 H              1 S1                 0.0000
     36 ****         3.9342  -0.9635   1.7900 H              1 S1                 0.0000
     37 ****         4.1359  -2.5759   2.4146 H              1 S1                 0.0000
     38 ****         4.2144  -1.7848  -0.5341 H              1 S1                 0.0000
     39 ****         5.5742  -2.2757   0.4437 H              1 S1                 0.0000
     40 ****         4.7610  -4.1455  -0.9826 H              1 S1                 0.0000
     41 ****         4.6428  -4.5424   0.7134 H              1 S1                 0.0000
     42 ****         2.3629  -3.5566  -1.0537 H              1 S1                 0.0000
     43 ****         2.2567  -4.3939   1.8752 H              1 S1                 0.0000
     44 ****         0.8885  -3.9011   0.9176 H              1 S1                 0.0000
     45 ****        -2.6784   3.2197  -1.8766 H              1 S1                 0.0000
     46 ****         1.1183   1.4516   1.8065 LP             1 S1                 0.0000
     47 ****         1.8252   0.0222   2.4825 LP             1 S1                 0.0000
     48 ****        -3.4733   5.4241  -1.9220 LP             1 S1                 0.0000
@<TRIPOS>BOND
    1    1    2 1     
    2    1   24 1     
    3    1   25 1     
    4    1   26 1     
    5    2   23 ar    
    6    2    3 ar    
    7    3    4 ar    
    8    3   27 1     
    9    4    5 ar    
   10    4   28 1     
   11    5    6 1     
   12    5   22 ar    
   13    6    7 1     
   14    6   29 1     
   15    6   30 1     
   16    7    8 1     
   17    7   31 1     
   18    7   32 1     
   19    8    9 am    
   20    8   33 1     
   21    9   10 2     
   22    9   11 am    
   23   11   12 1     
   24   11   34 1     
   25   12   21 1     
   26   12   13 1     
   27   12   35 1     
   28   13   14 1     
   29   13   36 1     
   30   13   37 1     
   31   14   15 1     
   32   14   38 1     
   33   14   39 1     
   34   15   16 1     
   35   15   40 1     
   36   15   41 1     
   37   16   17 1     
   38   16   21 1     
   39   16   42 1     
   40   17   18 1     
   41   17   19 1     
   42   17   20 1     
   43   21   43 1     
   44   21   44 1     
   45   22   23 ar    
   46   22   45 1     
   47   10   46 1     
   48   10   47 1     
   49   23   48 1     
@<TRIPOS>SUBSTRUCTURE
      1 S1             1
@<TRIPOS>SET
LONE_PAIRS      STATIC     ATOMS    <user>   **** ""
3 46 47 48
DONOR_HYDROGENS      STATIC     ATOMS    <user>   **** ""
2 33 34
ATOM$BLUE        STATIC     ATOMS    COLORGROUP SYSTEM
3 46 47 48
ATOM$RED        STATIC     ATOMS    COLORGROUP SYSTEM
2 33 34
