AV-unprocessed.smi:2108|AV-procd|sdf|8605|dock4
  -GOLD-   2272011343D 1   1.00000     0.00000
 Structure written by MMmdl.
 34 35  0  0  0  0  0  0  0  0  2 V2000
  152.3207  135.7711  157.0181 O   0  0  0  0  0  0  0  0  0  0  0  0
  150.8965  136.1274  157.1277 S   0  0  0  0  0  0  0  0  0  0  0  0
  149.9172  135.2504  156.4647 O   0  0  0  0  0  0  0  0  0  0  0  0
  150.4746  136.5651  158.6301 N   0  5  0  0  0  0  0  0  0  0  0  0
  149.5080  137.6347  158.8044 C   0  0  0  0  0  0  0  0  0  0  0  0
  148.0829  137.0456  158.8778 C   0  0  0  0  0  0  0  0  0  0  0  0
  147.7358  136.4155  160.2230 C   0  0  0  0  0  0  0  0  0  0  0  0
  147.5880  135.0147  160.3456 C   0  0  0  0  0  0  0  0  0  0  0  0
  147.2755  134.4767  161.6088 C   0  0  0  0  0  0  0  0  0  0  0  0
  147.1280  135.3517  162.7018 C   0  0  0  0  0  0  0  0  0  0  0  0
  147.3012  136.7324  162.4819 C   0  0  0  0  0  0  0  0  0  0  0  0
  147.6014  137.2591  161.2758 N   0  0  0  0  0  0  0  0  0  0  0  0
  150.7197  137.6862  156.3820 N   0  0  0  0  0  0  0  0  0  0  0  0
  149.8014  137.7968  155.2302 C   0  0  0  0  0  0  0  0  0  0  0  0
  149.5720  139.2659  154.8413 C   0  0  0  0  0  0  0  0  0  0  0  0
  150.8149  139.9113  154.6121 O   0  0  0  0  0  0  0  0  0  0  0  0
  151.6107  139.9276  155.7867 C   0  0  0  0  0  0  0  0  0  0  0  0
  151.9428  138.4915  156.2234 C   0  0  0  0  0  0  0  0  0  0  0  0
  149.7039  138.2039  159.7137 H   0  0  0  0  0  0  0  0  0  0  0  0
  149.5557  138.3525  157.9847 H   0  0  0  0  0  0  0  0  0  0  0  0
  147.3505  137.8247  158.6607 H   0  0  0  0  0  0  0  0  0  0  0  0
  147.9565  136.2905  158.1001 H   0  0  0  0  0  0  0  0  0  0  0  0
  147.7069  134.3681  159.4884 H   0  0  0  0  0  0  0  0  0  0  0  0
  147.1516  133.4116  161.7372 H   0  0  0  0  0  0  0  0  0  0  0  0
  146.8891  134.9741  163.6850 H   0  0  0  0  0  0  0  0  0  0  0  0
  147.1976  137.4325  163.2974 H   0  0  0  0  0  0  0  0  0  0  0  0
  150.2278  137.2507  154.3880 H   0  0  0  0  0  0  0  0  0  0  0  0
  148.8442  137.3291  155.4579 H   0  0  0  0  0  0  0  0  0  0  0  0
  148.9739  139.3215  153.9316 H   0  0  0  0  0  0  0  0  0  0  0  0
  149.0132  139.7890  155.6190 H   0  0  0  0  0  0  0  0  0  0  0  0
  152.5298  140.4768  155.5823 H   0  0  0  0  0  0  0  0  0  0  0  0
  151.0928  140.4644  156.5832 H   0  0  0  0  0  0  0  0  0  0  0  0
  152.4954  138.5179  157.1622 H   0  0  0  0  0  0  0  0  0  0  0  0
  152.5862  138.0117  155.4849 H   0  0  0  0  0  0  0  0  0  0  0  0
  1  2  2  0  0  0  0
  2  3  2  0  0  0  0
  2  4  1  0  0  0  0
  2 13  1  0  0  0  0
  4  5  1  0  0  0  0
  5  6  1  0  0  0  0
  5 19  1  0  0  0  0
  5 20  1  0  0  0  0
  6  7  1  0  0  0  0
  6 21  1  0  0  0  0
  6 22  1  0  0  0  0
  7 12  1  0  0  0  0
  7  8  2  0  0  0  0
  8  9  1  0  0  0  0
  8 23  1  0  0  0  0
  9 10  2  0  0  0  0
  9 24  1  0  0  0  0
 10 11  1  0  0  0  0
 10 25  1  0  0  0  0
 11 12  2  0  0  0  0
 11 26  1  0  0  0  0
 13 18  1  0  0  0  0
 13 14  1  0  0  0  0
 14 15  1  0  0  0  0
 14 27  1  0  0  0  0
 14 28  1  0  0  0  0
 15 16  1  0  0  0  0
 15 29  1  0  0  0  0
 15 30  1  0  0  0  0
 16 17  1  0  0  0  0
 17 18  1  0  0  0  0
 17 31  1  0  0  0  0
 17 32  1  0  0  0  0
 18 33  1  0  0  0  0
 18 34  1  0  0  0  0
M  CHG  1   4  -1
M  END
> <s_m_source_file>
AV-unprocessed.smi

> <i_m_source_file_index>
2108

> <i_lp_mmshare_version>
43012

> <i_f3d_flags>
0

> <s_epik_input>
W0NIMl0xW0NIMl1PW0NIMl1bQ0gyXU4xUyg9TykoPU8pW05IXVtDSDJdW0NIMl1jMltjSF1bY0hdW2NIXVtjSF1uMg==

> <s_epik_cmdline>
J2VwaWtfcHl0aG9uJywgJy1waCcsICc3LjAnLCAnLXRuJywgJzgnLCAnLW1hJywgJzIwMCcsICctbWV0YWxfYmluZGluZycsICctaW1hZScsICc8aW5maWxlLm1hZT4nLCAnLW9tYWUnLCAnPG91dGZpbGUubWFlPic=

> <r_epik_Ionization_Penalty>
1.27779

> <r_epik_Ionization_Penalty_Charging>
1.20871

> <r_epik_Ionization_Penalty_Neutral>
0.0690773

> <r_epik_State_Penalty>
1.64557

> <r_epik_Charging_Adjusted_Penalty>
2.85428

> <i_epik_Tot_Q>
-1

> <i_epik_Tot_abs_Q>
1

> <r_epik_Metal_State_Penalty>
0.643506

> <b_epik_Metal_Only>
0

> <s_lp_Force_Field>
OPLS_2005

> <r_lp_Energy>
7.47044

> <b_lp_Chiralities_Consistent>
1

> <s_lp_Variant>
AV-unprocessed.smi:2108-2

> <Gold.Version>
5.8.1

> <Gold.Id.Protein>
6NUR|6NUR_protein|mol2

> <Gold.PLP.Fitness>
47.7277

> <Gold.PLP.PLP>
-32.2302

> <Gold.PLP.part.hbond>
-5.0000

> <Gold.PLP.part.metal>
0.0000

> <Gold.PLP.part.buried>
-4.6641

> <Gold.PLP.part.nonpolar>
-23.1577

> <Gold.PLP.part.repulsive>
0.0859

> <Gold.PLP.ligand.clash>
0.0000

> <Gold.PLP.ligand.torsion>
1.4408

> <Gold.PLP.Chemscore.Hbond>
5.6180

> <Gold.PLP.Chemscore.CHOScore>
0.0000

> <Gold.PLP.Chemscore.Metal>
0.0000

> <Gold.Chemscore.Hbonds>
donor molecule, donor type, donor heavy atom, donor atom, acceptor molecule, acceptor atom, score
      P1  H  6896  6909       L1     4  2.00
      P1  H  6931  6943       L1    12  0.68
      P1  H  6934  6947       L1    12  0.86
      P1  H  7989  7998       L1    16  1.00
      P1  H 10752 10764       L1     1  0.80

> <Gold.PLP.Chemscore.Internal.Correction>
1.5250

> <Gold.Rescore>
     Score         DG    S(hbond)    S(metal)    S(lipo)     H(rot)  DE(clash)    DE(int)     intcor
     20.24     -21.57       3.99        0.00      57.95       1.56       0.00       1.34       ----

> <Gold.Chemscore.Fitness>
20.2350

> <Gold.Chemscore.DG>
-21.5740

> <Gold.Chemscore.ZeroCoef>
-5.4800

> <Gold.Chemscore.Hbond>
3.9865

> <Gold.Chemscore.Metal>
0.0000

> <Gold.Chemscore.Lipo>
57.9519

> <Gold.Chemscore.Internal_Hbond>
0.0000

> <Gold.Chemscore.DEClash>
0.0000

> <Gold.Chemscore.DEInternal>
1.3390

> <Gold.Chemscore.Rot>
1.5630

> <Gold.Chemscore.Internal.Correction>
   9.000000E+99

> <Gold.Chemscore.Hbonds>
donor molecule, donor type, donor heavy atom, donor atom, acceptor molecule, acceptor atom, score
      P1  H  6896  6909       L1     4  0.45
      P1  H  6931  6943       L1    12  0.08
      P1  H  6934  6947       L1    12  0.80
      P1  H  7989  7998       L1    16  0.55
      P1  H 10752 10764       L1     1  0.78

> <Gold.Chemscore.Hbond.Weighted>
-13.3149

> <Gold.Chemscore.Metal.Weighted>
-0.0000

> <Gold.Chemscore.Lipo.Weighted>
-6.7804

> <Gold.Chemscore.Internal_Hbond.Weighted>
0.0000

> <Gold.Chemscore.DEClash.Weighted>
0.0000

> <Gold.Chemscore.DEInternal.Weighted>
1.3390

> <Gold.Chemscore.Rot.Weighted>
4.0013

> <Gold.Chemscore.Internal.Correction.Weighted>
   9.000000E+99

> <Gold.Protein.RotatedTorsions>
[ 6907 6896 6895 6894 ] final   86.54 input  -60.11 | X-H torsion
[ 7974 7965 7964 7962 ] final -164.31 input  175.53 | X-H torsion
[ 8008 7997 7996 7995 ] final   40.59 input   59.86 | X-H torsion
[ 10167 10162 10161 10158 ] final   31.91 input  -65.29 | X-H torsion
[ 10718 10713 10712 10709 ] final  -17.05 input   66.30 | X-H torsion
[ 10763 10752 10751 10750 ] final   -0.55 input  -60.55 | X-H torsion
[ 11005 11000 10999 10996 ] final -160.54 input  -57.11 | X-H torsion

> <Gold.Protein.ActiveResidues>
 VAL166  LYS551  ARG553  GLY616  TRP617  ASP618  TYR619  PRO620  LYS621  CYS622 
 ASP623  PHE694  ASN695  SER759  ASP760  ASP761  ALA762  ILE779  LEU786  VAL792 
 PHE793  MET794  SER795  GLU796  ALA797  LYS798  CYS799  TRP800  GLU811  SER814 

> <Gold.Protein.RotatedAtoms>
  152.5396  134.2416  159.8863 H   0  0  0  0  0  0  0  0  0  0  0  0  # atno 6907 bound_to 6896
  151.2383  133.4406  159.2614 H   0  0  0  0  0  0  0  0  0  0  0  0  # atno 6908 bound_to 6896
  151.0651  134.9775  159.8336 H   0  0  0  0  0  0  0  0  0  0  0  0  # atno 6909 bound_to 6896
  144.7300  140.2979  143.6209 H   0  0  0  0  0  0  0  0  0  0  0  0  # atno 7974 bound_to 7965
  155.2556  140.3355  155.4278 H   0  0  0  0  0  0  0  0  0  0  0  0  # atno 8008 bound_to 7997
  156.2197  140.1804  156.7550 H   0  0  0  0  0  0  0  0  0  0  0  0  # atno 8009 bound_to 7997
  154.5806  140.0654  156.9083 H   0  0  0  0  0  0  0  0  0  0  0  0  # atno 8010 bound_to 7997
  140.4546  144.0998  150.6199 H   0  0  0  0  0  0  0  0  0  0  0  0  # atno 10167 bound_to 10162
  156.5790  130.4769  149.6329 H   0  0  0  0  0  0  0  0  0  0  0  0  # atno 10718 bound_to 10713
  153.3333  135.6976  153.6929 H   0  0  0  0  0  0  0  0  0  0  0  0  # atno 10763 bound_to 10752
  153.5723  135.3514  155.2843 H   0  0  0  0  0  0  0  0  0  0  0  0  # atno 10764 bound_to 10752
  154.8622  135.4275  154.2528 H   0  0  0  0  0  0  0  0  0  0  0  0  # atno 10765 bound_to 10752
  140.6303  134.4658  157.5229 H   0  0  0  0  0  0  0  0  0  0  0  0  # atno 11005 bound_to 11000
  145.7790  139.1884  143.2169 LP  0  0  0  0  0  0  0  0  0  0  0  0  # atno 17320 bound_to 7965
  146.0849  140.7722  142.9623 LP  0  0  0  0  0  0  0  0  0  0  0  0  # atno 17321 bound_to 7965
  140.4167  143.2631  151.9766 LP  0  0  0  0  0  0  0  0  0  0  0  0  # atno 17342 bound_to 10162
  139.4800  144.5868  151.7840 LP  0  0  0  0  0  0  0  0  0  0  0  0  # atno 17343 bound_to 10162
  156.2648  130.6983  151.1763 LP  0  0  0  0  0  0  0  0  0  0  0  0  # atno 17370 bound_to 10713
  157.7331  131.0594  150.5595 LP  0  0  0  0  0  0  0  0  0  0  0  0  # atno 17371 bound_to 10713
  139.9118  134.8328  156.1500 LP  0  0  0  0  0  0  0  0  0  0  0  0  # atno 17394 bound_to 11000
  141.0680  133.6810  156.2083 LP  0  0  0  0  0  0  0  0  0  0  0  0  # atno 17395 bound_to 11000

$$$$
