#       Name:                AV-unprocessed.smi:1803
#       Creating user name   scv26
#       Creation time:       Fri Mar 27 08:54:27 2020


#       File generated by GOLD software.
#

@<TRIPOS>MOLECULE
AV-unprocessed.smi:1803
    40    42     1
SMALL
NO_CHARGES


@<TRIPOS>ATOM
      1 ****        -1.7009  -2.4506  -0.1111 O.2            1 S1                 0.0000
      2 ****        -0.5615  -2.4532   0.3513 C.2            1 S1                 0.0000
      3 ****         0.1623  -3.5917   0.4104 N.am           1 S1                 0.0000
      4 ****        -0.1353  -4.9270   0.0092 C.2            1 S1                 0.0000
      5 ****        -1.3292  -5.3369  -0.4495 N.2            1 S1                 0.0000
      6 ****        -1.3360  -6.6910  -0.7544 N.2            1 S1                 0.0000
      7 ****        -0.1503  -7.2544  -0.5080 C.2            1 S1                 0.0000
      8 ****         1.0891  -6.1841   0.1217 S.3            1 S1                 0.0000
      9 ****         0.0299  -1.3444   0.8258 N.am           1 S1                 0.0000
     10 ****        -0.5600  -0.0102   0.8541 C.3            1 S1                 0.0000
     11 ****        -0.0333   0.8503   1.9965 C.3            1 S1                 0.0000
     12 ****        -0.3808   2.2626   1.5235 C.3            1 S1                 0.0000
     13 ****        -0.2523   2.2411   0.0483 N.4            1 S1                 1.0000
     14 ****        -1.2248   3.1021  -0.6684 C.3            1 S1                 0.0000
     15 ****        -1.0042   3.0244  -2.1905 C.3            1 S1                 0.0000
     16 ****        -0.9193   1.5763  -2.7171 C.3            1 S1                 0.0000
     17 ****        -1.1231   0.5351  -1.6058 C.3            1 S1                 0.0000
     18 ****        -0.2073   0.8180  -0.3932 C.3            1 S1                 0.0000
     19 ****         1.0727  -3.4822   0.8336 H              1 S1                 0.0000
     20 ****        -0.0049  -8.3078  -0.6963 H              1 S1                 0.0000
     21 ****         0.9674  -1.4360   1.1917 H              1 S1                 0.0000
     22 ****        -1.6449  -0.0769   0.9600 H              1 S1                 0.0000
     23 ****        -0.4834   0.6037   2.9586 H              1 S1                 0.0000
     24 ****         1.0488   0.7430   2.0898 H              1 S1                 0.0000
     25 ****        -1.4105   2.4905   1.8040 H              1 S1                 0.0000
     26 ****         0.2614   3.0228   1.9686 H              1 S1                 0.0000
     27 ****        -2.2420   2.7940  -0.4206 H              1 S1                 0.0000
     28 ****        -1.1178   4.1326  -0.3279 H              1 S1                 0.0000
     29 ****        -1.8065   3.5586  -2.7006 H              1 S1                 0.0000
     30 ****        -0.0840   3.5505  -2.4479 H              1 S1                 0.0000
     31 ****        -1.6527   1.4206  -3.5092 H              1 S1                 0.0000
     32 ****         0.0576   1.4203  -3.1763 H              1 S1                 0.0000
     33 ****        -2.1689   0.5409  -1.2953 H              1 S1                 0.0000
     34 ****        -0.9316  -0.4644  -1.9968 H              1 S1                 0.0000
     35 ****         0.8288   0.6244  -0.6766 H              1 S1                 0.0000
     36 ****         0.6619   2.6142  -0.1641 H              1 S1                 0.0000
     37 ****        -2.1047  -3.3002  -0.4505 LP             1 S1                 0.0000
     38 ****        -2.2237  -1.5990  -0.1477 LP             1 S1                 0.0000
     39 ****        -2.1213  -4.7362  -0.5586 LP             1 S1                 0.0000
     40 ****        -2.1291  -7.1830  -1.1136 LP             1 S1                 0.0000
@<TRIPOS>BOND
    1    1    2 2     
    2    2    3 am    
    3    2    9 am    
    4    3    4 1     
    5    3   19 1     
    6    4    8 1     
    7    4    5 2     
    8    5    6 1     
    9    6    7 2     
   10    7    8 1     
   11    7   20 1     
   12    9   10 1     
   13    9   21 1     
   14   10   18 1     
   15   10   11 1     
   16   10   22 1     
   17   11   12 1     
   18   11   23 1     
   19   11   24 1     
   20   12   13 1     
   21   12   25 1     
   22   12   26 1     
   23   13   18 1     
   24   13   14 1     
   25   13   36 1     
   26   14   15 1     
   27   14   27 1     
   28   14   28 1     
   29   15   16 1     
   30   15   29 1     
   31   15   30 1     
   32   16   17 1     
   33   16   31 1     
   34   16   32 1     
   35   17   18 1     
   36   17   33 1     
   37   17   34 1     
   38   18   35 1     
   39    1   37 1     
   40    1   38 1     
   41    5   39 1     
   42    6   40 1     
@<TRIPOS>SUBSTRUCTURE
      1 S1             1
@<TRIPOS>SET
LONE_PAIRS      STATIC     ATOMS    <user>   **** ""
4 37 38 39 40
DONOR_HYDROGENS      STATIC     ATOMS    <user>   **** ""
3 19 21 36
ATOM$BLUE        STATIC     ATOMS    COLORGROUP SYSTEM
4 37 38 39 40
ATOM$RED        STATIC     ATOMS    COLORGROUP SYSTEM
3 19 21 36
