#       Name:                AV-unprocessed.smi:1602
#       Creating user name   scv26
#       Creation time:       Fri Mar 27 07:08:59 2020


#       File generated by GOLD software.
#

@<TRIPOS>MOLECULE
AV-unprocessed.smi:1602
    40    41     1
SMALL
NO_CHARGES


@<TRIPOS>ATOM
      1 ****        -2.5320  -0.6892   2.0449 C.3            1 S1                 0.0000
      2 ****        -2.2681   0.1908   0.8131 C.3            1 S1                 0.0000
      3 ****        -2.7099  -0.4790  -0.5187 C.3            1 S1                 0.0000
      4 ****        -2.0534  -1.7469  -0.8332 N.pl3          1 S1                 0.0000
      5 ****        -2.3879  -3.0214  -0.4160 C.2            1 S1                 0.0000
      6 ****        -1.4982  -3.8875  -0.9842 C.2            1 S1                 0.0000
      7 ****        -0.6538  -3.0440  -1.7581 C.2            1 S1                 0.0000
      8 ****        -0.9947  -1.7690  -1.6776 N.2            1 S1                 0.0000
      9 ****        -0.8524   0.5299   0.7757 N.pl3          1 S1                -1.0000
     10 ****        -0.3604   1.9023   0.0654 S.o2           1 S1                 0.0000
     11 ****        -0.6458   1.9753  -1.3770 O.2            1 S1                 0.0000
     12 ****        -0.6455   3.0938   0.8814 O.2            1 S1                 0.0000
     13 ****         1.3474   1.6125   0.1902 N.3            1 S1                 0.0000
     14 ****         2.2251   2.7943   0.1440 C.3            1 S1                 0.0000
     15 ****         3.6767   2.4254   0.4908 C.3            1 S1                 0.0000
     16 ****         4.1322   1.3765  -0.3492 O.3            1 S1                 0.0000
     17 ****         3.3647   0.1980  -0.1609 C.3            1 S1                 0.0000
     18 ****         1.8986   0.4540  -0.5432 C.3            1 S1                 0.0000
     19 ****        -3.5799  -0.9854   2.0945 H              1 S1                 0.0000
     20 ****        -2.2999  -0.1531   2.9658 H              1 S1                 0.0000
     21 ****        -1.9286  -1.5974   2.0334 H              1 S1                 0.0000
     22 ****        -2.8736   1.0895   0.9369 H              1 S1                 0.0000
     23 ****        -3.7832  -0.6679  -0.4813 H              1 S1                 0.0000
     24 ****        -2.5663   0.2044  -1.3562 H              1 S1                 0.0000
     25 ****        -3.2193  -3.2008   0.2495 H              1 S1                 0.0000
     26 ****        -1.4585  -4.9599  -0.8675 H              1 S1                 0.0000
     27 ****         0.1878  -3.3183  -2.3767 H              1 S1                 0.0000
     28 ****         2.1750   3.2299  -0.8546 H              1 S1                 0.0000
     29 ****         1.8662   3.5503   0.8421 H              1 S1                 0.0000
     30 ****         4.3237   3.2919   0.3541 H              1 S1                 0.0000
     31 ****         3.7610   2.1311   1.5382 H              1 S1                 0.0000
     32 ****         3.7783  -0.5955  -0.7834 H              1 S1                 0.0000
     33 ****         3.4411  -0.1406   0.8737 H              1 S1                 0.0000
     34 ****         1.3127  -0.4417  -0.3411 H              1 S1                 0.0000
     35 ****         1.8209   0.6464  -1.6137 H              1 S1                 0.0000
     36 ****        -0.5655  -0.9922  -2.1386 LP             1 S1                 0.0000
     37 ****        -0.1814  -0.0854   1.1893 LP             1 S1                 0.0000
     38 ****         1.3704   1.3173   1.1453 LP             1 S1                 0.0000
     39 ****         5.0892   1.1801  -0.1359 LP             1 S1                 0.0000
     40 ****         4.0561   1.6663  -1.3033 LP             1 S1                 0.0000
@<TRIPOS>BOND
    1    1    2 1     
    2    1   19 1     
    3    1   20 1     
    4    1   21 1     
    5    2    3 1     
    6    2    9 1     
    7    2   22 1     
    8    3    4 1     
    9    3   23 1     
   10    3   24 1     
   11    4    8 1     
   12    4    5 1     
   13    5    6 2     
   14    5   25 1     
   15    6    7 1     
   16    6   26 1     
   17    7    8 2     
   18    7   27 1     
   19    9   10 1     
   20   10   11 2     
   21   10   12 2     
   22   10   13 1     
   23   13   18 1     
   24   13   14 1     
   25   14   15 1     
   26   14   28 1     
   27   14   29 1     
   28   15   16 1     
   29   15   30 1     
   30   15   31 1     
   31   16   17 1     
   32   17   18 1     
   33   17   32 1     
   34   17   33 1     
   35   18   34 1     
   36   18   35 1     
   37    8   36 1     
   38    9   37 1     
   39   13   38 1     
   40   16   39 1     
   41   16   40 1     
@<TRIPOS>SUBSTRUCTURE
      1 S1             1
@<TRIPOS>SET
LONE_PAIRS      STATIC     ATOMS    <user>   **** ""
7 36 37 11 12 38 39 40
ATOM$BLUE        STATIC     ATOMS    COLORGROUP SYSTEM
7 36 37 11 12 38 39 40
