#       Name:                AV-unprocessed.smi:157
#       Creating user name   scv26
#       Creation time:       Thu Mar 26 19:00:34 2020


#       File generated by GOLD software.
#

@<TRIPOS>MOLECULE
AV-unprocessed.smi:157
    45    47     1
SMALL
NO_CHARGES


@<TRIPOS>ATOM
      1 ****        -4.5041   1.6196  -1.6020 O.3            1 S1                 0.0000
      2 ****        -4.2607   0.2308  -1.6690 C.3            1 S1                 0.0000
      3 ****        -2.7596  -0.0421  -1.4941 C.3            1 S1                 0.0000
      4 ****        -2.4265  -0.0463  -0.1095 O.3            1 S1                 0.0000
      5 ****        -1.2636  -0.7924   0.0976 C.3            1 S1                 0.0000
      6 ****        -0.1209   0.1471   0.3328 N.pl3          1 S1                 0.0000
      7 ****        -0.0850   1.4705   0.0640 C.2            1 S1                 0.0000
      8 ****         1.0561   2.0600   0.3781 N.pl3          1 S1                 1.0000
      9 ****         1.8715   1.0798   0.9026 C.2            1 S1                 0.0000
     10 ****         1.1202  -0.0979   0.8735 C.2            1 S1                 0.0000
     11 ****         1.4628  -1.3934   1.2900 N.2            1 S1                 0.0000
     12 ****         2.4647  -1.6362   2.0710 C.2            1 S1                 0.0000
     13 ****         3.4180  -0.7609   2.5637 N.pl3          1 S1                 0.0000
     14 ****         4.1140   0.2007   1.7270 C.3            1 S1                 0.0000
     15 ****         3.2615   1.4181   1.3443 C.3            1 S1                 0.0000
     16 ****         3.2806   2.3361   2.4181 O.3            1 S1                 0.0000
     17 ****        -1.0169  -1.6092  -1.1773 C.3            1 S1                 0.0000
     18 ****        -2.3301  -1.4466  -1.9198 C.3            1 S1                 0.0000
     19 ****        -2.1380  -1.5502  -3.3156 O.3            1 S1                 0.0000
     20 ****        -2.1575   0.7028  -2.0188 H              1 S1                 0.0000
     21 ****        -1.3385  -1.3877   1.0083 H              1 S1                 0.0000
     22 ****         3.7582   1.9201   0.5132 H              1 S1                 0.0000
     23 ****        -3.0521  -2.1905  -1.5793 H              1 S1                 0.0000
     24 ****        -5.4289   1.7689  -1.7281 H              1 S1                 0.0000
     25 ****        -4.8524  -0.2967  -0.9201 H              1 S1                 0.0000
     26 ****        -4.5939  -0.1140  -2.6482 H              1 S1                 0.0000
     27 ****        -0.9147   2.0008  -0.3684 H              1 S1                 0.0000
     28 ****         2.6319  -2.6584   2.4137 H              1 S1                 0.0000
     29 ****         3.9932  -1.0596   3.3386 H              1 S1                 0.0000
     30 ****         5.0379   0.5121   2.2157 H              1 S1                 0.0000
     31 ****         4.4150  -0.3195   0.8163 H              1 S1                 0.0000
     32 ****         2.8948   3.1488   2.1296 H              1 S1                 0.0000
     33 ****        -0.1886  -1.1766  -1.7424 H              1 S1                 0.0000
     34 ****        -0.7786  -2.6463  -0.9398 H              1 S1                 0.0000
     35 ****        -1.8529  -2.4286  -3.5168 H              1 S1                 0.0000
     36 ****         1.2814   3.0386   0.2511 H              1 S1                 0.0000
     37 ****        -3.9862   2.0876  -2.3181 LP             1 S1                 0.0000
     38 ****        -4.2252   1.9680  -0.7071 LP             1 S1                 0.0000
     39 ****        -3.1778  -0.4520   0.4110 LP             1 S1                 0.0000
     40 ****        -2.2768   0.8932   0.1984 LP             1 S1                 0.0000
     41 ****         0.9087  -2.1616   0.9693 LP             1 S1                 0.0000
     42 ****         4.2245   2.4958   2.7073 LP             1 S1                 0.0000
     43 ****         2.7549   1.9677   3.1849 LP             1 S1                 0.0000
     44 ****        -1.4422  -0.8948  -3.6094 LP             1 S1                 0.0000
     45 ****        -2.9977  -1.3585  -3.7890 LP             1 S1                 0.0000
@<TRIPOS>BOND
    1    1    2 1     
    2    1   24 1     
    3    2    3 1     
    4    2   25 1     
    5    2   26 1     
    6    3   20 1     
    7    3   18 1     
    8    3    4 1     
    9    4    5 1     
   10    5   21 1     
   11    5    6 1     
   12    5   17 1     
   13    6   10 1     
   14    6    7 1     
   15    7    8 2     
   16    7   27 1     
   17    8    9 1     
   18    8   36 1     
   19    9   15 1     
   20    9   10 2     
   21   10   11 1     
   22   11   12 2     
   23   12   13 1     
   24   12   28 1     
   25   13   14 1     
   26   13   29 1     
   27   14   15 1     
   28   14   30 1     
   29   14   31 1     
   30   15   22 1     
   31   15   16 1     
   32   16   32 1     
   33   17   18 1     
   34   17   33 1     
   35   17   34 1     
   36   18   23 1     
   37   18   19 1     
   38   19   35 1     
   39    1   37 1     
   40    1   38 1     
   41    4   39 1     
   42    4   40 1     
   43   11   41 1     
   44   16   42 1     
   45   16   43 1     
   46   19   44 1     
   47   19   45 1     
@<TRIPOS>SUBSTRUCTURE
      1 S1             1
@<TRIPOS>SET
LONE_PAIRS      STATIC     ATOMS    <user>   **** ""
9 37 38 39 40 41 42 43 44 45
DONOR_HYDROGENS      STATIC     ATOMS    <user>   **** ""
5 24 36 29 32 35
ATOM$BLUE        STATIC     ATOMS    COLORGROUP SYSTEM
9 37 38 39 40 41 42 43 44 45
ATOM$RED        STATIC     ATOMS    COLORGROUP SYSTEM
5 24 36 29 32 35
