AV-unprocessed.smi:1056|AV-procd|sdf|4638|dock5
  -GOLD-   22720 3143D 1   1.00000     0.00000
 Structure written by MMmdl.
 44 46  0  0  0  0  0  0  0  0  1 V2000
  153.3639  142.5671  161.3951 C   0  0  0  0  0  0  0  0  0  0  0  0
  152.6605  142.2864  160.0789 C   0  0  0  0  0  0  0  0  0  0  0  0
  152.7272  140.9867  159.5283 C   0  0  0  0  0  0  0  0  0  0  0  0
  152.0867  140.6837  158.3068 C   0  0  0  0  0  0  0  0  0  0  0  0
  152.0232  139.4982  157.5946 N   0  0  0  0  0  0  0  0  0  0  0  0
  151.2840  139.8541  156.5476 C   0  0  0  0  0  0  0  0  0  0  0  0
  150.8601  141.1317  156.4982 N   0  0  0  0  0  0  0  0  0  0  0  0
  150.0483  141.7487  155.4642 C   0  0  0  0  0  0  0  0  0  0  0  0
  149.2213  140.7187  154.6679 C   0  0  2  0  0  0  0  0  0  0  0  0
  150.0938  140.0335  153.7883 O   0  0  0  0  0  0  0  0  0  0  0  0
  148.0928  141.3863  153.8490 C   0  0  0  0  0  0  0  0  0  0  0  0
  147.1038  142.1371  154.6302 N   0  0  0  0  0  0  0  0  0  0  0  0
  146.2821  141.2928  155.4983 C   0  0  0  0  0  0  0  0  0  0  0  0
  145.3481  142.1261  156.3899 C   0  0  0  0  0  0  0  0  0  0  0  0
  144.6570  143.1682  155.6383 N   0  0  0  0  0  0  0  0  0  0  0  0
  145.0536  143.6352  154.4433 C   0  0  0  0  0  0  0  0  0  0  0  0
  144.4614  144.5523  153.8792 O   0  0  0  0  0  0  0  0  0  0  0  0
  146.2647  142.9739  153.7577 C   0  0  0  0  0  0  0  0  0  0  0  0
  151.3706  141.7248  157.6471 C   0  0  0  0  0  0  0  0  0  0  0  0
  151.2958  143.0217  158.1851 C   0  0  0  0  0  0  0  0  0  0  0  0
  151.9422  143.3075  159.4059 C   0  0  0  0  0  0  0  0  0  0  0  0
  151.8553  144.7108  159.9791 C   0  0  0  0  0  0  0  0  0  0  0  0
  153.9086  141.6917  161.7501 H   0  0  0  0  0  0  0  0  0  0  0  0
  152.6399  142.8452  162.1616 H   0  0  0  0  0  0  0  0  0  0  0  0
  154.0795  143.3817  161.2824 H   0  0  0  0  0  0  0  0  0  0  0  0
  153.2728  140.2084  160.0411 H   0  0  0  0  0  0  0  0  0  0  0  0
  151.0329  139.1446  155.7727 H   0  0  0  0  0  0  0  0  0  0  0  0
  149.3890  142.4730  155.9441 H   0  0  0  0  0  0  0  0  0  0  0  0
  150.7001  142.3147  154.7967 H   0  0  0  0  0  0  0  0  0  0  0  0
  148.7928  139.9999  155.3681 H   0  0  0  0  0  0  0  0  0  0  0  0
  149.6729  139.9607  152.9456 H   0  0  0  0  0  0  0  0  0  0  0  0
  148.5654  142.0907  153.1623 H   0  0  0  0  0  0  0  0  0  0  0  0
  147.6005  140.6539  153.2060 H   0  0  0  0  0  0  0  0  0  0  0  0
  145.6935  140.6024  154.8912 H   0  0  0  0  0  0  0  0  0  0  0  0
  146.9062  140.6807  156.1480 H   0  0  0  0  0  0  0  0  0  0  0  0
  144.6142  141.4843  156.8780 H   0  0  0  0  0  0  0  0  0  0  0  0
  145.9237  142.6084  157.1809 H   0  0  0  0  0  0  0  0  0  0  0  0
  143.8493  143.5922  156.0714 H   0  0  0  0  0  0  0  0  0  0  0  0
  146.8739  143.7545  153.2997 H   0  0  0  0  0  0  0  0  0  0  0  0
  145.8678  142.3708  152.9392 H   0  0  0  0  0  0  0  0  0  0  0  0
  150.7443  143.7889  157.6621 H   0  0  0  0  0  0  0  0  0  0  0  0
  151.2481  145.3611  159.3489 H   0  0  0  0  0  0  0  0  0  0  0  0
  152.8487  145.1534  160.0572 H   0  0  0  0  0  0  0  0  0  0  0  0
  151.4043  144.6913  160.9715 H   0  0  0  0  0  0  0  0  0  0  0  0
  1  2  1  0  0  0  0
  1 23  1  0  0  0  0
  1 24  1  0  0  0  0
  1 25  1  0  0  0  0
  2 21  1  0  0  0  0
  2  3  2  0  0  0  0
  3  4  1  0  0  0  0
  3 26  1  0  0  0  0
  4 19  2  0  0  0  0
  4  5  1  0  0  0  0
  5  6  2  0  0  0  0
  6  7  1  0  0  0  0
  6 27  1  0  0  0  0
  7  8  1  0  0  0  0
  7 19  1  0  0  0  0
  8  9  1  0  0  0  0
  8 28  1  0  0  0  0
  8 29  1  0  0  0  0
  9 10  1  0  0  0  0
  9 11  1  0  0  0  0
  9 30  1  0  0  0  0
 10 31  1  0  0  0  0
 11 12  1  0  0  0  0
 11 32  1  0  0  0  0
 11 33  1  0  0  0  0
 12 18  1  0  0  0  0
 12 13  1  0  0  0  0
 13 14  1  0  0  0  0
 13 34  1  0  0  0  0
 13 35  1  0  0  0  0
 14 15  1  0  0  0  0
 14 36  1  0  0  0  0
 14 37  1  0  0  0  0
 15 16  1  0  0  0  0
 15 38  1  0  0  0  0
 16 17  2  0  0  0  0
 16 18  1  0  0  0  0
 18 39  1  0  0  0  0
 18 40  1  0  0  0  0
 19 20  1  0  0  0  0
 20 21  2  0  0  0  0
 20 41  1  0  0  0  0
 21 22  1  0  0  0  0
 22 42  1  0  0  0  0
 22 43  1  0  0  0  0
 22 44  1  0  0  0  0
M  END
> <s_m_source_file>
AV-unprocessed.smi

> <i_m_source_file_index>
1056

> <i_lp_mmshare_version>
43012

> <i_f3d_flags>
0

> <s_epik_input>
W0NIM11jKFtjSF0xKWMoW0NIM10pW2NIXWMoYzEyKW4oW2NIXW4yKVtDSDJdW0NASF0oW09IXSlbQ0gyXU4zW0NIMl1bQ0gyXVtOSF1DKD1PKVtDSDJdMw==

> <s_epik_cmdline>
J2VwaWtfcHl0aG9uJywgJy1waCcsICc3LjAnLCAnLXRuJywgJzgnLCAnLW1hJywgJzIwMCcsICctbWV0YWxfYmluZGluZycsICctaW1hZScsICc8aW5maWxlLm1hZT4nLCAnLW9tYWUnLCAnPG91dGZpbGUubWFlPic=

> <r_epik_Ionization_Penalty>
1.40166

> <r_epik_Ionization_Penalty_Charging>
0

> <r_epik_Ionization_Penalty_Neutral>
1.40166

> <r_epik_State_Penalty>
1.44226

> <r_epik_Charging_Adjusted_Penalty>
1.44226

> <i_epik_Tot_Q>
0

> <i_epik_Tot_abs_Q>
0

> <r_epik_Metal_State_Penalty>
1.50267

> <b_epik_Metal_Only>
0

> <s_lp_Force_Field>
OPLS_2005

> <r_lp_Energy>
30.6142

> <b_lp_Chiralities_Consistent>
1

> <s_lp_Variant>
AV-unprocessed.smi:1056-9

> <Gold.Version>
5.8.1

> <Gold.Id.Protein>
6NUR|6NUR_protein|mol2

> <Gold.PLP.Fitness>
52.7578

> <Gold.PLP.PLP>
-48.1074

> <Gold.PLP.part.hbond>
-2.0000

> <Gold.PLP.part.metal>
0.0000

> <Gold.PLP.part.buried>
-7.0991

> <Gold.PLP.part.nonpolar>
-38.2179

> <Gold.PLP.part.repulsive>
0.2939

> <Gold.PLP.ligand.clash>
0.0000

> <Gold.PLP.ligand.torsion>
0.4886

> <Gold.PLP.Chemscore.Hbond>
1.8480

> <Gold.PLP.Chemscore.CHOScore>
0.0000

> <Gold.PLP.Chemscore.Metal>
0.0000

> <Gold.Chemscore.Hbonds>
donor molecule, donor type, donor heavy atom, donor atom, acceptor molecule, acceptor atom, score
      L1  H    10    31       P1  7957  1.00
      P1  H  7989  7998       L1    10  0.83

> <Gold.PLP.Chemscore.Internal.Correction>
0.0836

> <Gold.Rescore>
     Score         DG    S(hbond)    S(metal)    S(lipo)     H(rot)  DE(clash)    DE(int)     intcor
     17.25     -17.98       1.47        0.00     115.49       2.31       0.28       0.45       ----

> <Gold.Chemscore.Fitness>
17.2542

> <Gold.Chemscore.DG>
-17.9834

> <Gold.Chemscore.ZeroCoef>
-5.4800

> <Gold.Chemscore.Hbond>
1.4722

> <Gold.Chemscore.Metal>
0.0000

> <Gold.Chemscore.Lipo>
115.4856

> <Gold.Chemscore.Internal_Hbond>
0.0000

> <Gold.Chemscore.DEClash>
0.2787

> <Gold.Chemscore.DEInternal>
0.4506

> <Gold.Chemscore.Rot>
2.3147

> <Gold.Chemscore.Internal.Correction>
   9.000000E+99

> <Gold.Chemscore.Hbonds>
donor molecule, donor type, donor heavy atom, donor atom, acceptor molecule, acceptor atom, score
      L1  H    10    31       P1  7957  0.98
      P1  H  7989  7998       L1    10  0.37

> <Gold.Chemscore.Hbond.Weighted>
-4.9172

> <Gold.Chemscore.Metal.Weighted>
-0.0000

> <Gold.Chemscore.Lipo.Weighted>
-13.5118

> <Gold.Chemscore.Internal_Hbond.Weighted>
0.0000

> <Gold.Chemscore.DEClash.Weighted>
0.2787

> <Gold.Chemscore.DEInternal.Weighted>
0.4506

> <Gold.Chemscore.Rot.Weighted>
5.9256

> <Gold.Chemscore.Internal.Correction.Weighted>
   9.000000E+99

> <Gold.Protein.RotatedTorsions>
[ 6907 6896 6895 6894 ] final  -82.47 input  -60.11 | X-H torsion
[ 7974 7965 7964 7962 ] final    5.41 input  175.53 | X-H torsion
[ 8008 7997 7996 7995 ] final -159.51 input   59.86 | X-H torsion
[ 10167 10162 10161 10158 ] final   84.55 input  -65.29 | X-H torsion
[ 10718 10713 10712 10709 ] final  161.18 input   66.30 | X-H torsion
[ 10763 10752 10751 10750 ] final -175.32 input  -60.55 | X-H torsion
[ 11005 11000 10999 10996 ] final  -99.24 input  -57.11 | X-H torsion

> <Gold.Protein.ActiveResidues>
 VAL166  LYS551  ARG553  GLY616  TRP617  ASP618  TYR619  PRO620  LYS621  CYS622 
 ASP623  PHE694  ASN695  SER759  ASP760  ASP761  ALA762  ILE779  LEU786  VAL792 
 PHE793  MET794  SER795  GLU796  ALA797  LYS798  CYS799  TRP800  GLU811  SER814 

> <Gold.Protein.RotatedAtoms>
  150.6897  134.3659  159.4970 H   0  0  0  0  0  0  0  0  0  0  0  0  # atno 6907 bound_to 6896
  152.1482  134.9007  160.0559 H   0  0  0  0  0  0  0  0  0  0  0  0  # atno 6908 bound_to 6896
  152.0114  133.3828  159.4258 H   0  0  0  0  0  0  0  0  0  0  0  0  # atno 6909 bound_to 6896
  146.2440  140.0388  142.8384 H   0  0  0  0  0  0  0  0  0  0  0  0  # atno 7974 bound_to 7965
  155.7636  140.0842  157.2143 H   0  0  0  0  0  0  0  0  0  0  0  0  # atno 8008 bound_to 7997
  154.4001  140.1538  156.2917 H   0  0  0  0  0  0  0  0  0  0  0  0  # atno 8009 bound_to 7997
  155.8815  140.3420  155.5894 H   0  0  0  0  0  0  0  0  0  0  0  0  # atno 8010 bound_to 7997
  139.9068  144.6296  150.8578 H   0  0  0  0  0  0  0  0  0  0  0  0  # atno 10167 bound_to 10162
  157.1401  131.0538  151.2330 H   0  0  0  0  0  0  0  0  0  0  0  0  # atno 10718 bound_to 10713
  154.5857  135.2840  155.0687 H   0  0  0  0  0  0  0  0  0  0  0  0  # atno 10763 bound_to 10752
  154.2006  135.6425  153.5090 H   0  0  0  0  0  0  0  0  0  0  0  0  # atno 10764 bound_to 10752
  153.0103  135.5468  154.6526 H   0  0  0  0  0  0  0  0  0  0  0  0  # atno 10765 bound_to 10752
  141.1316  133.8306  157.0946 H   0  0  0  0  0  0  0  0  0  0  0  0  # atno 11005 bound_to 11000
  145.1088  140.9392  143.4669 LP  0  0  0  0  0  0  0  0  0  0  0  0  # atno 17320 bound_to 7965
  145.0597  139.3115  143.5886 LP  0  0  0  0  0  0  0  0  0  0  0  0  # atno 17321 bound_to 7965
  140.7694  143.3395  151.2238 LP  0  0  0  0  0  0  0  0  0  0  0  0  # atno 17342 bound_to 10162
  139.6977  143.9586  152.2890 LP  0  0  0  0  0  0  0  0  0  0  0  0  # atno 17343 bound_to 10162
  157.4314  130.7493  149.6993 LP  0  0  0  0  0  0  0  0  0  0  0  0  # atno 17370 bound_to 10713
  155.9790  130.4045  150.3613 LP  0  0  0  0  0  0  0  0  0  0  0  0  # atno 17371 bound_to 10713
  140.0371  134.9873  157.0892 LP  0  0  0  0  0  0  0  0  0  0  0  0  # atno 17394 bound_to 11000
  140.4193  134.1897  155.7164 LP  0  0  0  0  0  0  0  0  0  0  0  0  # atno 17395 bound_to 11000

$$$$
