AV-unprocessed.smi:560|AV-procd|sdf|2928|dock10
  -GOLD-   2262023423D 1   1.00000     0.00000
 Structure written by MMmdl.
 42 43  0  0  0  0  0  0  0  0  2 V2000
  147.5552  142.0024  155.0029 C   0  0  0  0  0  0  0  0  0  0  0  0
  148.6423  141.1525  154.3140 C   0  0  2  0  0  0  0  0  0  0  0  0
  148.1186  139.7965  153.8085 C   0  0  0  0  0  0  0  0  0  0  0  0
  148.8403  138.7982  153.8110 O   0  0  0  0  0  0  0  0  0  0  0  0
  146.8470  139.7742  153.3762 N   0  0  0  0  0  0  0  0  0  0  0  0
  146.1634  138.6061  152.8312 C   0  0  2  0  0  0  0  0  0  0  0  0
  146.4776  137.3488  153.6642 C   0  0  0  0  0  0  0  0  0  0  0  0
  145.8509  136.0953  153.0330 C   0  0  0  0  0  0  0  0  0  0  0  0
  146.3121  135.9158  151.6304 N   0  3  1  0  0  0  0  0  0  0  0  0
  145.8436  134.6421  151.0235 C   0  0  0  0  0  0  0  0  0  0  0  0
  144.3308  134.5706  150.7633 C   0  0  0  0  0  0  0  0  0  0  0  0
  143.8883  134.4918  149.5032 N   0  0  0  0  0  0  0  0  0  0  0  0
  143.5551  134.5856  151.7152 O   0  0  0  0  0  0  0  0  0  0  0  0
  145.9767  137.0983  150.7963 C   0  0  0  0  0  0  0  0  0  0  0  0
  146.6003  138.3799  151.3747 C   0  0  0  0  0  0  0  0  0  0  0  0
  149.8075  140.9709  155.1735 N   0  0  0  0  0  0  0  0  0  0  0  0
  150.1178  141.6443  156.3377 C   0  0  0  0  0  0  0  0  0  0  0  0
  151.3123  141.1591  156.7871 C   0  0  0  0  0  0  0  0  0  0  0  0
  151.6663  140.1812  155.8168 C   0  0  0  0  0  0  0  0  0  0  0  0
  150.7697  140.0756  154.8499 N   0  0  0  0  0  0  0  0  0  0  0  0
  146.7185  142.1938  154.3302 H   0  0  0  0  0  0  0  0  0  0  0  0
  147.9544  142.9701  155.3078 H   0  0  0  0  0  0  0  0  0  0  0  0
  147.1590  141.5136  155.8940 H   0  0  0  0  0  0  0  0  0  0  0  0
  148.9750  141.7055  153.4340 H   0  0  0  0  0  0  0  0  0  0  0  0
  146.3225  140.6364  153.4124 H   0  0  0  0  0  0  0  0  0  0  0  0
  145.0865  138.7851  152.8441 H   0  0  0  0  0  0  0  0  0  0  0  0
  147.5577  137.2147  153.7428 H   0  0  0  0  0  0  0  0  0  0  0  0
  146.1072  137.4670  154.6832 H   0  0  0  0  0  0  0  0  0  0  0  0
  146.1135  135.2233  153.6324 H   0  0  0  0  0  0  0  0  0  0  0  0
  144.7625  136.1718  153.0524 H   0  0  0  0  0  0  0  0  0  0  0  0
  146.3883  134.4460  150.0985 H   0  0  0  0  0  0  0  0  0  0  0  0
  146.0735  133.8138  151.6951 H   0  0  0  0  0  0  0  0  0  0  0  0
  142.9011  134.4409  149.3023 H   0  0  0  0  0  0  0  0  0  0  0  0
  144.5567  134.4807  148.7452 H   0  0  0  0  0  0  0  0  0  0  0  0
  146.3459  136.9506  149.7806 H   0  0  0  0  0  0  0  0  0  0  0  0
  144.8924  137.2023  150.7284 H   0  0  0  0  0  0  0  0  0  0  0  0
  146.3160  139.2361  150.7617 H   0  0  0  0  0  0  0  0  0  0  0  0
  147.6878  138.3078  151.3200 H   0  0  0  0  0  0  0  0  0  0  0  0
  149.4688  142.4049  156.7464 H   0  0  0  0  0  0  0  0  0  0  0  0
  151.8514  141.4572  157.6740 H   0  0  0  0  0  0  0  0  0  0  0  0
  152.5431  139.5512  155.7848 H   0  0  0  0  0  0  0  0  0  0  0  0
  147.3203  135.8655  151.6510 H   0  0  0  0  0  0  0  0  0  0  0  0
  1  2  1  0  0  0  0
  1 21  1  0  0  0  0
  1 22  1  0  0  0  0
  1 23  1  0  0  0  0
  2  3  1  0  0  0  0
  2 16  1  0  0  0  0
  2 24  1  0  0  0  0
  3  4  2  0  0  0  0
  3  5  1  0  0  0  0
  5  6  1  0  0  0  0
  5 25  1  0  0  0  0
  6 15  1  0  0  0  0
  6  7  1  0  0  0  0
  6 26  1  0  0  0  0
  7  8  1  0  0  0  0
  7 27  1  0  0  0  0
  7 28  1  0  0  0  0
  8  9  1  0  0  0  0
  8 29  1  0  0  0  0
  8 30  1  0  0  0  0
  9 10  1  0  0  0  0
  9 14  1  0  0  0  0
  9 42  1  0  0  0  0
 10 11  1  0  0  0  0
 10 31  1  0  0  0  0
 10 32  1  0  0  0  0
 11 12  1  0  0  0  0
 11 13  2  0  0  0  0
 12 33  1  0  0  0  0
 12 34  1  0  0  0  0
 14 15  1  0  0  0  0
 14 35  1  0  0  0  0
 14 36  1  0  0  0  0
 15 37  1  0  0  0  0
 15 38  1  0  0  0  0
 16 20  1  0  0  0  0
 16 17  1  0  0  0  0
 17 18  2  0  0  0  0
 17 39  1  0  0  0  0
 18 19  1  0  0  0  0
 18 40  1  0  0  0  0
 19 20  2  0  0  0  0
 19 41  1  0  0  0  0
M  CHG  1   9   1
M  END
> <s_m_source_file>
AV-unprocessed.smi

> <i_m_source_file_index>
560

> <i_lp_mmshare_version>
43012

> <i_f3d_flags>
0

> <s_epik_input>
bjFbY0hdW2NIXVtjSF1uMVtDQEhdKFtDSDNdKUMoPU8pW05IXVtDSF0yW0NIMl1bQ0gyXU4oW0NIMl1bQ0gyXTIpW0NIMl1DKD1PKVtOSDJd

> <s_epik_cmdline>
J2VwaWtfcHl0aG9uJywgJy1waCcsICc3LjAnLCAnLXRuJywgJzgnLCAnLW1hJywgJzIwMCcsICctbWV0YWxfYmluZGluZycsICctaW1hZScsICc8aW5maWxlLm1hZT4nLCAnLW9tYWUnLCAnPG91dGZpbGUubWFlPic=

> <r_lp_tautomer_probability>
1

> <r_epik_Ionization_Penalty>
1.02943

> <r_epik_Ionization_Penalty_Charging>
1.02936

> <r_epik_Ionization_Penalty_Neutral>
7.4537e-05

> <r_epik_State_Penalty>
1.08036

> <r_epik_Charging_Adjusted_Penalty>
2.10972

> <i_epik_Tot_Q>
1

> <i_epik_Tot_abs_Q>
1

> <r_epik_Metal_State_Penalty>
1.09347

> <b_epik_Metal_Only>
0

> <s_lp_Force_Field>
OPLS_2005

> <r_lp_Energy>
17.0208

> <b_lp_Chiralities_Consistent>
1

> <s_lp_Variant>
AV-unprocessed.smi:560-3

> <Gold.Version>
5.8.1

> <Gold.Id.Protein>
6NUR|6NUR_protein|mol2

> <Gold.PLP.Fitness>
48.1236

> <Gold.PLP.PLP>
-32.7165

> <Gold.PLP.part.hbond>
-4.0000

> <Gold.PLP.part.metal>
0.0000

> <Gold.PLP.part.buried>
4.8560

> <Gold.PLP.part.nonpolar>
-33.9056

> <Gold.PLP.part.repulsive>
1.2613

> <Gold.PLP.ligand.clash>
0.0000

> <Gold.PLP.ligand.torsion>
1.3298

> <Gold.PLP.Chemscore.Hbond>
5.0000

> <Gold.PLP.Chemscore.CHOScore>
0.9790

> <Gold.PLP.Chemscore.Metal>
0.0000

> <Gold.Chemscore.Hbonds>
donor molecule, donor type, donor heavy atom, donor atom, acceptor molecule, acceptor atom, score
      L1  H     9    42       P1  7948  2.00
      L1  H    12    33       P1 10186  1.00
      L1  H    12    34       P1  7921  1.00
      P1  H  7989  7998       L1    20  1.00
      L1  C    17    39       P1  8028  0.73

> <Gold.PLP.Chemscore.Internal.Correction>
0.1298

> <Gold.Rescore>
     Score         DG    S(hbond)    S(metal)    S(lipo)     H(rot)  DE(clash)    DE(int)     intcor
     13.94     -19.24       3.75        0.00      65.78       2.52       1.33       3.97       ----

> <Gold.Chemscore.Fitness>
13.9370

> <Gold.Chemscore.DG>
-19.2405

> <Gold.Chemscore.ZeroCoef>
-5.4800

> <Gold.Chemscore.Hbond>
3.7504

> <Gold.Chemscore.Metal>
0.0000

> <Gold.Chemscore.Lipo>
65.7804

> <Gold.Chemscore.Internal_Hbond>
0.0000

> <Gold.Chemscore.DEClash>
1.3290

> <Gold.Chemscore.DEInternal>
3.9745

> <Gold.Chemscore.Rot>
2.5243

> <Gold.Chemscore.Internal.Correction>
   9.000000E+99

> <Gold.Chemscore.Hbonds>
donor molecule, donor type, donor heavy atom, donor atom, acceptor molecule, acceptor atom, score
      L1  H     9    42       P1  7948  1.00
      L1  H    12    33       P1 10186  0.99
      L1  H    12    34       P1  7921  0.99
      P1  H  7989  7998       L1    20  0.12

> <Gold.Chemscore.Hbond.Weighted>
-12.5264

> <Gold.Chemscore.Metal.Weighted>
-0.0000

> <Gold.Chemscore.Lipo.Weighted>
-7.6963

> <Gold.Chemscore.Internal_Hbond.Weighted>
0.0000

> <Gold.Chemscore.DEClash.Weighted>
1.3290

> <Gold.Chemscore.DEInternal.Weighted>
3.9745

> <Gold.Chemscore.Rot.Weighted>
6.4622

> <Gold.Chemscore.Internal.Correction.Weighted>
   9.000000E+99

> <Gold.Protein.RotatedTorsions>
[ 6907 6896 6895 6894 ] final  -54.02 input  -60.11 | X-H torsion
[ 7974 7965 7964 7962 ] final   25.09 input  175.53 | X-H torsion
[ 8008 7997 7996 7995 ] final  -98.34 input   59.86 | X-H torsion
[ 10167 10162 10161 10158 ] final   61.87 input  -65.29 | X-H torsion
[ 10718 10713 10712 10709 ] final -165.03 input   66.30 | X-H torsion
[ 10763 10752 10751 10750 ] final  129.93 input  -60.55 | X-H torsion
[ 11005 11000 10999 10996 ] final   63.29 input  -57.11 | X-H torsion

> <Gold.Protein.ActiveResidues>
 VAL166  LYS551  ARG553  GLY616  TRP617  ASP618  TYR619  PRO620  LYS621  CYS622 
 ASP623  PHE694  ASN695  SER759  ASP760  ASP761  ALA762  ILE779  LEU786  VAL792 
 PHE793  MET794  SER795  GLU796  ALA797  LYS798  CYS799  TRP800  GLU811  SER814 

> <Gold.Protein.RotatedAtoms>
  150.8375  134.7654  159.6904 H   0  0  0  0  0  0  0  0  0  0  0  0  # atno 6907 bound_to 6896
  152.4469  134.5472  159.9866 H   0  0  0  0  0  0  0  0  0  0  0  0  # atno 6908 bound_to 6896
  151.5619  133.3364  159.3008 H   0  0  0  0  0  0  0  0  0  0  0  0  # atno 6909 bound_to 6896
  146.1906  139.7515  142.8835 H   0  0  0  0  0  0  0  0  0  0  0  0  # atno 7974 bound_to 7965
  154.7999  140.0456  157.1265 H   0  0  0  0  0  0  0  0  0  0  0  0  # atno 8008 bound_to 7997
  154.9491  140.3063  155.5064 H   0  0  0  0  0  0  0  0  0  0  0  0  # atno 8009 bound_to 7997
  156.2960  140.2291  156.4567 H   0  0  0  0  0  0  0  0  0  0  0  0  # atno 8010 bound_to 7997
  140.1500  144.4471  150.6764 H   0  0  0  0  0  0  0  0  0  0  0  0  # atno 10167 bound_to 10162
  156.6475  130.8994  151.3007 H   0  0  0  0  0  0  0  0  0  0  0  0  # atno 10718 bound_to 10713
  153.7498  135.3211  155.3319 H   0  0  0  0  0  0  0  0  0  0  0  0  # atno 10763 bound_to 10752
  154.8267  135.4564  154.0943 H   0  0  0  0  0  0  0  0  0  0  0  0  # atno 10764 bound_to 10752
  153.2142  135.6940  153.8159 H   0  0  0  0  0  0  0  0  0  0  0  0  # atno 10765 bound_to 10752
  140.0034  134.6406  155.9893 H   0  0  0  0  0  0  0  0  0  0  0  0  # atno 11005 bound_to 11000
  145.3804  141.0357  143.3180 LP  0  0  0  0  0  0  0  0  0  0  0  0  # atno 17320 bound_to 7965
  144.8479  139.5367  143.6870 LP  0  0  0  0  0  0  0  0  0  0  0  0  # atno 17321 bound_to 7965
  140.6708  143.2285  151.5630 LP  0  0  0  0  0  0  0  0  0  0  0  0  # atno 17342 bound_to 10162
  139.5430  144.2596  152.1388 LP  0  0  0  0  0  0  0  0  0  0  0  0  # atno 17343 bound_to 10162
  157.7151  130.9488  150.1227 LP  0  0  0  0  0  0  0  0  0  0  0  0  # atno 17370 bound_to 10713
  156.2110  130.3666  149.8670 LP  0  0  0  0  0  0  0  0  0  0  0  0  # atno 17371 bound_to 10713
  141.1659  133.6537  156.4479 LP  0  0  0  0  0  0  0  0  0  0  0  0  # atno 17394 bound_to 11000
  140.4685  134.6775  157.5118 LP  0  0  0  0  0  0  0  0  0  0  0  0  # atno 17395 bound_to 11000

$$$$
