#       Name:                AV-unprocessed.smi:1777
#       Creating user name   scv26
#       Creation time:       Fri Mar 27 08:41:47 2020


#       File generated by GOLD software.
#

@<TRIPOS>MOLECULE
AV-unprocessed.smi:1777
    42    43     1
SMALL
NO_CHARGES


@<TRIPOS>ATOM
      1 ****        -0.3115   1.7441   1.0642 O.2            1 S1                 0.0000
      2 ****        -0.8641   0.6644   1.2740 C.2            1 S1                 0.0000
      3 ****        -0.1994  -0.4905   1.4239 N.am           1 S1                 0.0000
      4 ****         1.2524  -0.6550   1.3643 C.3            1 S1                 0.0000
      5 ****         1.7470  -1.2393   0.0170 C.3            1 S1                 0.0000
      6 ****         1.3286  -2.5921  -0.0171 O.3            1 S1                 0.0000
      7 ****         1.1796  -0.4973  -1.2205 C.3            1 S1                 0.0000
      8 ****         1.7808  -0.9905  -2.5489 C.3            1 S1                 0.0000
      9 ****         3.3138  -0.9277  -2.5304 C.3            1 S1                 0.0000
     10 ****         3.8787  -1.7260  -1.3479 C.3            1 S1                 0.0000
     11 ****         3.2946  -1.2318  -0.0123 C.3            1 S1                 0.0000
     12 ****        -2.1920   0.4720   1.3557 N.am           1 S1                 0.0000
     13 ****        -3.2376   1.4288   1.2470 C.ar           1 S1                 0.0000
     14 ****        -4.5298   0.9566   0.9365 C.ar           1 S1                 0.0000
     15 ****        -5.5866   1.8835   0.8382 C.ar           1 S1                 0.0000
     16 ****        -5.4311   3.2093   1.0360 N.ar           1 S1                 0.0000
     17 ****        -4.1969   3.6581   1.3478 C.ar           1 S1                 0.0000
     18 ****        -3.0725   2.8173   1.4699 C.ar           1 S1                 0.0000
     19 ****        -0.7380  -1.3300   1.5794 H              1 S1                 0.0000
     20 ****         1.7407   0.3029   1.5514 H              1 S1                 0.0000
     21 ****         1.5551  -1.3016   2.1889 H              1 S1                 0.0000
     22 ****         1.6512  -2.9833  -0.8145 H              1 S1                 0.0000
     23 ****         0.0948  -0.5976  -1.2672 H              1 S1                 0.0000
     24 ****         1.3817   0.5699  -1.1195 H              1 S1                 0.0000
     25 ****         1.4587  -2.0144  -2.7422 H              1 S1                 0.0000
     26 ****         1.3963  -0.3885  -3.3727 H              1 S1                 0.0000
     27 ****         3.7144  -1.3153  -3.4676 H              1 S1                 0.0000
     28 ****         3.6379   0.1115  -2.4607 H              1 S1                 0.0000
     29 ****         3.6588  -2.7859  -1.4811 H              1 S1                 0.0000
     30 ****         4.9654  -1.6396  -1.3298 H              1 S1                 0.0000
     31 ****         3.6509  -0.2158   0.1629 H              1 S1                 0.0000
     32 ****         3.6913  -1.8338   0.8065 H              1 S1                 0.0000
     33 ****        -2.4938  -0.4865   1.4500 H              1 S1                 0.0000
     34 ****        -4.7120  -0.0952   0.7696 H              1 S1                 0.0000
     35 ****        -6.5844   1.5496   0.5954 H              1 S1                 0.0000
     36 ****        -4.1028   4.7215   1.5115 H              1 S1                 0.0000
     37 ****        -2.1217   3.2494   1.7406 H              1 S1                 0.0000
     38 ****         0.6852   1.7910   0.9974 LP             1 S1                 0.0000
     39 ****        -0.8592   2.5743   0.9606 LP             1 S1                 0.0000
     40 ****         0.3298  -2.6375   0.0016 LP             1 S1                 0.0000
     41 ****         1.6993  -3.0805   0.7730 LP             1 S1                 0.0000
     42 ****        -6.2043   3.8381   0.9544 LP             1 S1                 0.0000
@<TRIPOS>BOND
    1    1    2 2     
    2    2    3 am    
    3    2   12 am    
    4    3    4 1     
    5    3   19 1     
    6    4    5 1     
    7    4   20 1     
    8    4   21 1     
    9    5   11 1     
   10    5    6 1     
   11    5    7 1     
   12    6   22 1     
   13    7    8 1     
   14    7   23 1     
   15    7   24 1     
   16    8    9 1     
   17    8   25 1     
   18    8   26 1     
   19    9   10 1     
   20    9   27 1     
   21    9   28 1     
   22   10   11 1     
   23   10   29 1     
   24   10   30 1     
   25   11   31 1     
   26   11   32 1     
   27   12   13 1     
   28   12   33 1     
   29   13   18 ar    
   30   13   14 ar    
   31   14   15 ar    
   32   14   34 1     
   33   15   16 ar    
   34   15   35 1     
   35   16   17 ar    
   36   17   18 ar    
   37   17   36 1     
   38   18   37 1     
   39    1   38 1     
   40    1   39 1     
   41    6   40 1     
   42    6   41 1     
   43   16   42 1     
@<TRIPOS>SUBSTRUCTURE
      1 S1             1
@<TRIPOS>SET
LONE_PAIRS      STATIC     ATOMS    <user>   **** ""
5 38 39 40 41 42
DONOR_HYDROGENS      STATIC     ATOMS    <user>   **** ""
3 19 22 33
ATOM$BLUE        STATIC     ATOMS    COLORGROUP SYSTEM
5 38 39 40 41 42
ATOM$RED        STATIC     ATOMS    COLORGROUP SYSTEM
3 19 22 33
