#       Name:                AV-unprocessed.smi:902
#       Creating user name   scv26
#       Creation time:       Fri Mar 27 01:58:32 2020


#       File generated by GOLD software.
#

@<TRIPOS>MOLECULE
AV-unprocessed.smi:902
    47    49     1
SMALL
NO_CHARGES


@<TRIPOS>ATOM
      1 ****        -2.9461  -1.7331  -1.0429 C.3            1 S1                 0.0000
      2 ****        -2.3819  -0.4168  -0.8167 N.pl3          1 S1                 0.0000
      3 ****        -3.1937   0.6561  -0.7068 N.2            1 S1                 0.0000
      4 ****        -2.3829   1.6902  -0.5038 C.2            1 S1                 0.0000
      5 ****        -2.9577   3.0706  -0.3327 C.3            1 S1                 0.0000
      6 ****        -4.0392   3.3373   0.7241 C.3            1 S1                 0.0000
      7 ****        -4.6789   4.3371  -0.2449 C.3            1 S1                 0.0000
      8 ****        -3.9164   3.6500  -1.3827 C.3            1 S1                 0.0000
      9 ****        -1.0092   1.3105  -0.4756 C.2            1 S1                 0.0000
     10 ****        -1.0646  -0.0411  -0.6788 C.2            1 S1                 0.0000
     11 ****        -0.0459  -0.9388  -0.7439 N.am           1 S1                 0.0000
     12 ****         1.2764  -0.7196  -0.6419 C.2            1 S1                 0.0000
     13 ****         1.8088   0.3789  -0.4810 O.2            1 S1                 0.0000
     14 ****         1.9628  -1.8669  -0.7380 N.am           1 S1                 0.0000
     15 ****         3.4122  -1.9877  -0.6263 C.3            1 S1                 0.0000
     16 ****         3.9934  -1.9668   0.7868 C.3            1 S1                 0.0000
     17 ****         3.4110  -3.0610   1.6766 C.3            1 S1                 0.0000
     18 ****         2.1374  -2.7063   2.1744 O.3            1 S1                 0.0000
     19 ****         5.4715  -1.6574   0.9261 C.3            1 S1                 0.0000
     20 ****         4.4496  -0.6609   1.4053 C.3            1 S1                 0.0000
     21 ****        -2.4173  -2.2251  -1.8597 H              1 S1                 0.0000
     22 ****        -4.0026  -1.6578  -1.3037 H              1 S1                 0.0000
     23 ****        -2.8449  -2.3330  -0.1385 H              1 S1                 0.0000
     24 ****        -2.1422   3.7802  -0.1795 H              1 S1                 0.0000
     25 ****        -4.6771   2.4723   0.9130 H              1 S1                 0.0000
     26 ****        -3.6694   3.7733   1.6526 H              1 S1                 0.0000
     27 ****        -5.7646   4.2690  -0.3187 H              1 S1                 0.0000
     28 ****        -4.3470   5.3623  -0.0742 H              1 S1                 0.0000
     29 ****        -3.4516   4.3301  -2.0968 H              1 S1                 0.0000
     30 ****        -4.5140   2.8874  -1.8846 H              1 S1                 0.0000
     31 ****        -0.1454   1.9407  -0.3276 H              1 S1                 0.0000
     32 ****        -0.3271  -1.8984  -0.8805 H              1 S1                 0.0000
     33 ****         1.4443  -2.7230  -0.8691 H              1 S1                 0.0000
     34 ****         3.6985  -2.9283  -1.0975 H              1 S1                 0.0000
     35 ****         3.8838  -1.2048  -1.2229 H              1 S1                 0.0000
     36 ****         3.3440  -3.9979   1.1227 H              1 S1                 0.0000
     37 ****         4.0701  -3.2364   2.5274 H              1 S1                 0.0000
     38 ****         1.8365  -3.3938   2.7489 H              1 S1                 0.0000
     39 ****         6.0402  -2.1919   1.6845 H              1 S1                 0.0000
     40 ****         6.0273  -1.4061   0.0247 H              1 S1                 0.0000
     41 ****         4.3245   0.2489   0.8218 H              1 S1                 0.0000
     42 ****         4.3279  -0.5425   2.4802 H              1 S1                 0.0000
     43 ****        -4.1919   0.6702  -0.7655 LP             1 S1                 0.0000
     44 ****         1.2457   1.2027  -0.4156 LP             1 S1                 0.0000
     45 ****         2.8043   0.4473  -0.4157 LP             1 S1                 0.0000
     46 ****         1.4967  -2.5978   1.4143 LP             1 S1                 0.0000
     47 ****         2.2012  -1.8469   2.6818 LP             1 S1                 0.0000
@<TRIPOS>BOND
    1    1    2 1     
    2    1   21 1     
    3    1   22 1     
    4    1   23 1     
    5    2   10 1     
    6    2    3 1     
    7    3    4 2     
    8    4    5 1     
    9    4    9 1     
   10    5    8 1     
   11    5    6 1     
   12    5   24 1     
   13    6    7 1     
   14    6   25 1     
   15    6   26 1     
   16    7    8 1     
   17    7   27 1     
   18    7   28 1     
   19    8   29 1     
   20    8   30 1     
   21    9   10 2     
   22    9   31 1     
   23   10   11 1     
   24   11   12 am    
   25   11   32 1     
   26   12   13 2     
   27   12   14 am    
   28   14   15 1     
   29   14   33 1     
   30   15   16 1     
   31   15   34 1     
   32   15   35 1     
   33   16   20 1     
   34   16   17 1     
   35   16   19 1     
   36   17   18 1     
   37   17   36 1     
   38   17   37 1     
   39   18   38 1     
   40   19   20 1     
   41   19   39 1     
   42   19   40 1     
   43   20   41 1     
   44   20   42 1     
   45    3   43 1     
   46   13   44 1     
   47   13   45 1     
   48   18   46 1     
   49   18   47 1     
@<TRIPOS>SUBSTRUCTURE
      1 S1             1
@<TRIPOS>SET
LONE_PAIRS      STATIC     ATOMS    <user>   **** ""
5 43 44 45 46 47
DONOR_HYDROGENS      STATIC     ATOMS    <user>   **** ""
3 32 33 38
ATOM$BLUE        STATIC     ATOMS    COLORGROUP SYSTEM
5 43 44 45 46 47
ATOM$RED        STATIC     ATOMS    COLORGROUP SYSTEM
3 32 33 38
