AV-unprocessed.smi:1865|AV-procd|sdf|7555|dock8
  -GOLD-   22720 9273D 1   1.00000     0.00000
 Structure written by MMmdl.
 41 42  0  0  0  0  0  0  0  0  2 V2000
  149.1275  142.2928  159.3269 O   0  0  0  0  0  0  0  0  0  0  0  0
  149.9363  142.8245  158.5659 C   0  0  0  0  0  0  0  0  0  0  0  0
  150.4258  144.2528  158.8237 C   0  0  0  0  0  0  0  0  0  0  0  0
  151.9243  144.4408  158.5191 C   0  0  0  0  0  0  0  0  0  0  0  0
  152.8393  143.7575  159.5511 C   0  0  0  0  0  0  0  0  0  0  0  0
  153.1480  142.2961  159.2194 C   0  0  0  0  0  0  0  0  0  0  0  0
  153.6494  141.6980  160.5363 C   0  0  0  0  0  0  0  0  0  0  0  0
  152.9905  142.5204  161.6534 C   0  0  0  0  0  0  0  0  0  0  0  0
  152.2501  143.6743  160.9640 C   0  0  0  0  0  0  0  0  0  0  0  0
  150.4290  142.2141  157.4770 N   0  0  0  0  0  0  0  0  0  0  0  0
  150.0689  140.8718  157.0356 C   0  0  0  0  0  0  0  0  0  0  0  0
  150.3950  140.6513  155.5490 C   0  0  0  0  0  0  0  0  0  0  0  0
  149.1891  140.1666  154.7681 C   0  0  0  0  0  0  0  0  0  0  0  0
  147.9959  140.9219  154.7423 C   0  0  0  0  0  0  0  0  0  0  0  0
  146.8892  140.4411  154.0116 C   0  0  0  0  0  0  0  0  0  0  0  0
  147.0009  139.2154  153.3234 C   0  0  0  0  0  0  0  0  0  0  0  0
  148.1585  138.5201  153.3718 N   0  3  0  0  0  0  0  0  0  0  0  0
  149.2405  138.9462  154.0598 C   0  0  0  0  0  0  0  0  0  0  0  0
  149.8413  144.9501  158.2213 H   0  0  0  0  0  0  0  0  0  0  0  0
  150.2216  144.4941  159.8671 H   0  0  0  0  0  0  0  0  0  0  0  0
  152.1553  144.0615  157.5223 H   0  0  0  0  0  0  0  0  0  0  0  0
  152.1523  145.5076  158.4991 H   0  0  0  0  0  0  0  0  0  0  0  0
  153.7866  144.2969  159.6022 H   0  0  0  0  0  0  0  0  0  0  0  0
  152.2360  141.7831  158.9105 H   0  0  0  0  0  0  0  0  0  0  0  0
  153.8745  142.1935  158.4128 H   0  0  0  0  0  0  0  0  0  0  0  0
  153.4174  140.6354  160.6135 H   0  0  0  0  0  0  0  0  0  0  0  0
  154.7333  141.8011  160.5986 H   0  0  0  0  0  0  0  0  0  0  0  0
  152.3008  141.9151  162.2428 H   0  0  0  0  0  0  0  0  0  0  0  0
  153.7511  142.9031  162.3349 H   0  0  0  0  0  0  0  0  0  0  0  0
  152.3477  144.6121  161.5118 H   0  0  0  0  0  0  0  0  0  0  0  0
  151.1868  143.4366  160.9088 H   0  0  0  0  0  0  0  0  0  0  0  0
  151.0872  142.7234  156.9049 H   0  0  0  0  0  0  0  0  0  0  0  0
  150.5788  140.1311  157.6542 H   0  0  0  0  0  0  0  0  0  0  0  0
  149.0005  140.7354  157.2056 H   0  0  0  0  0  0  0  0  0  0  0  0
  150.7623  141.5775  155.1041 H   0  0  0  0  0  0  0  0  0  0  0  0
  151.1971  139.9201  155.4399 H   0  0  0  0  0  0  0  0  0  0  0  0
  147.9264  141.8578  155.2774 H   0  0  0  0  0  0  0  0  0  0  0  0
  145.9679  141.0042  153.9805 H   0  0  0  0  0  0  0  0  0  0  0  0
  146.2054  138.7733  152.7414 H   0  0  0  0  0  0  0  0  0  0  0  0
  150.1069  138.3017  154.0251 H   0  0  0  0  0  0  0  0  0  0  0  0
  148.2178  137.6348  152.8677 H   0  0  0  0  0  0  0  0  0  0  0  0
  1  2  2  0  0  0  0
  2  3  1  0  0  0  0
  2 10  1  0  0  0  0
  3  4  1  0  0  0  0
  3 19  1  0  0  0  0
  3 20  1  0  0  0  0
  4  5  1  0  0  0  0
  4 21  1  0  0  0  0
  4 22  1  0  0  0  0
  5  9  1  0  0  0  0
  5  6  1  0  0  0  0
  5 23  1  0  0  0  0
  6  7  1  0  0  0  0
  6 24  1  0  0  0  0
  6 25  1  0  0  0  0
  7  8  1  0  0  0  0
  7 26  1  0  0  0  0
  7 27  1  0  0  0  0
  8  9  1  0  0  0  0
  8 28  1  0  0  0  0
  8 29  1  0  0  0  0
  9 30  1  0  0  0  0
  9 31  1  0  0  0  0
 10 11  1  0  0  0  0
 10 32  1  0  0  0  0
 11 12  1  0  0  0  0
 11 33  1  0  0  0  0
 11 34  1  0  0  0  0
 12 13  1  0  0  0  0
 12 35  1  0  0  0  0
 12 36  1  0  0  0  0
 13 18  1  0  0  0  0
 13 14  2  0  0  0  0
 14 15  1  0  0  0  0
 14 37  1  0  0  0  0
 15 16  2  0  0  0  0
 15 38  1  0  0  0  0
 16 17  1  0  0  0  0
 16 39  1  0  0  0  0
 17 18  2  0  0  0  0
 17 41  1  0  0  0  0
 18 40  1  0  0  0  0
M  CHG  1  17   1
M  END
> <s_m_source_file>
AV-unprocessed.smi

> <i_m_source_file_index>
1865

> <i_lp_mmshare_version>
43012

> <i_f3d_flags>
0

> <s_epik_input>
W0NIMl0xW0NIMl1bQ0gyXVtDSDJdW0NIXTFbQ0gyXVtDSDJdQyg9TylbTkhdW0NIMl1bQ0gyXWMyW2NIXVtjSF1bY0hdbltjSF0y

> <s_epik_cmdline>
J2VwaWtfcHl0aG9uJywgJy1waCcsICc3LjAnLCAnLXRuJywgJzgnLCAnLW1hJywgJzIwMCcsICctbWV0YWxfYmluZGluZycsICctaW1hZScsICc8aW5maWxlLm1hZT4nLCAnLW9tYWUnLCAnPG91dGZpbGUubWFlPic=

> <r_epik_Ionization_Penalty>
2.25234

> <r_epik_Ionization_Penalty_Charging>
2.25234

> <r_epik_Ionization_Penalty_Neutral>
2.26352e-08

> <r_epik_State_Penalty>
2.39956

> <r_epik_Charging_Adjusted_Penalty>
4.6519

> <i_epik_Tot_Q>
1

> <i_epik_Tot_abs_Q>
1

> <r_epik_Metal_State_Penalty>
2.41271

> <b_epik_Metal_Only>
0

> <s_lp_Force_Field>
OPLS_2005

> <r_lp_Energy>
27.3415

> <b_lp_Chiralities_Consistent>
1

> <s_lp_Variant>
AV-unprocessed.smi:1865-2

> <Gold.Version>
5.8.1

> <Gold.Id.Protein>
6NUR|6NUR_protein|mol2

> <Gold.PLP.Fitness>
52.5017

> <Gold.PLP.PLP>
-48.8264

> <Gold.PLP.part.hbond>
-2.6047

> <Gold.PLP.part.metal>
0.0000

> <Gold.PLP.part.buried>
-1.9287

> <Gold.PLP.part.nonpolar>
-43.9712

> <Gold.PLP.part.repulsive>
0.2178

> <Gold.PLP.ligand.clash>
0.0000

> <Gold.PLP.ligand.torsion>
1.1905

> <Gold.PLP.Chemscore.Hbond>
2.0000

> <Gold.PLP.Chemscore.CHOScore>
0.0000

> <Gold.PLP.Chemscore.Metal>
0.0000

> <Gold.Chemscore.Hbonds>
donor molecule, donor type, donor heavy atom, donor atom, acceptor molecule, acceptor atom, score
      L1  H    17    41       P1  7948  2.00

> <Gold.PLP.Chemscore.Internal.Correction>
0.0563

> <Gold.Rescore>
     Score         DG    S(hbond)    S(metal)    S(lipo)     H(rot)  DE(clash)    DE(int)     intcor
     18.63     -19.76       0.99        0.00     130.60       1.69       0.04       1.09       ----

> <Gold.Chemscore.Fitness>
18.6339

> <Gold.Chemscore.DG>
-19.7613

> <Gold.Chemscore.ZeroCoef>
-5.4800

> <Gold.Chemscore.Hbond>
0.9937

> <Gold.Chemscore.Metal>
0.0000

> <Gold.Chemscore.Lipo>
130.6032

> <Gold.Chemscore.Internal_Hbond>
0.0000

> <Gold.Chemscore.DEClash>
0.0381

> <Gold.Chemscore.DEInternal>
1.0893

> <Gold.Chemscore.Rot>
1.6868

> <Gold.Chemscore.Internal.Correction>
   9.000000E+99

> <Gold.Chemscore.Hbonds>
donor molecule, donor type, donor heavy atom, donor atom, acceptor molecule, acceptor atom, score
      L1  H    17    41       P1  7948  0.99
      P1  H  6933  6944       L1     1  0.03

> <Gold.Chemscore.Hbond.Weighted>
-3.3190

> <Gold.Chemscore.Metal.Weighted>
-0.0000

> <Gold.Chemscore.Lipo.Weighted>
-15.2806

> <Gold.Chemscore.Internal_Hbond.Weighted>
0.0000

> <Gold.Chemscore.DEClash.Weighted>
0.0381

> <Gold.Chemscore.DEInternal.Weighted>
1.0893

> <Gold.Chemscore.Rot.Weighted>
4.3183

> <Gold.Chemscore.Internal.Correction.Weighted>
   9.000000E+99

> <Gold.Protein.RotatedTorsions>
[ 6907 6896 6895 6894 ] final   37.61 input  -60.11 | X-H torsion
[ 7974 7965 7964 7962 ] final  -97.82 input  175.53 | X-H torsion
[ 8008 7997 7996 7995 ] final -106.71 input   59.86 | X-H torsion
[ 10167 10162 10161 10158 ] final   32.93 input  -65.29 | X-H torsion
[ 10718 10713 10712 10709 ] final -145.13 input   66.30 | X-H torsion
[ 10763 10752 10751 10750 ] final   42.87 input  -60.55 | X-H torsion
[ 11005 11000 10999 10996 ] final  -50.36 input  -57.11 | X-H torsion

> <Gold.Protein.ActiveResidues>
 VAL166  LYS551  ARG553  GLY616  TRP617  ASP618  TYR619  PRO620  LYS621  CYS622 
 ASP623  PHE694  ASN695  SER759  ASP760  ASP761  ALA762  ILE779  LEU786  VAL792 
 PHE793  MET794  SER795  GLU796  ALA797  LYS798  CYS799  TRP800  GLU811  SER814 

> <Gold.Protein.RotatedAtoms>
  152.1454  134.9030  160.0551 H   0  0  0  0  0  0  0  0  0  0  0  0  # atno 6907 bound_to 6896
  152.0082  133.3846  159.4217 H   0  0  0  0  0  0  0  0  0  0  0  0  # atno 6908 bound_to 6896
  150.6869  134.3681  159.5024 H   0  0  0  0  0  0  0  0  0  0  0  0  # atno 6909 bound_to 6896
  145.3287  140.9437  143.2674 H   0  0  0  0  0  0  0  0  0  0  0  0  # atno 7974 bound_to 7965
  154.9185  140.0408  157.1985 H   0  0  0  0  0  0  0  0  0  0  0  0  # atno 8008 bound_to 7997
  154.8277  140.2894  155.5722 H   0  0  0  0  0  0  0  0  0  0  0  0  # atno 8009 bound_to 7997
  156.2984  140.2506  156.3196 H   0  0  0  0  0  0  0  0  0  0  0  0  # atno 8010 bound_to 7997
  140.4454  144.1126  150.6181 H   0  0  0  0  0  0  0  0  0  0  0  0  # atno 10167 bound_to 10162
  156.3787  130.7826  151.2015 H   0  0  0  0  0  0  0  0  0  0  0  0  # atno 10718 bound_to 10713
  152.9873  135.6118  154.3019 H   0  0  0  0  0  0  0  0  0  0  0  0  # atno 10763 bound_to 10752
  154.2739  135.2779  155.2728 H   0  0  0  0  0  0  0  0  0  0  0  0  # atno 10764 bound_to 10752
  154.5097  135.5844  153.6652 H   0  0  0  0  0  0  0  0  0  0  0  0  # atno 10765 bound_to 10752
  141.0811  133.6653  156.3720 H   0  0  0  0  0  0  0  0  0  0  0  0  # atno 11005 bound_to 11000
  144.8881  139.4811  143.6691 LP  0  0  0  0  0  0  0  0  0  0  0  0  # atno 17320 bound_to 7965
  146.3054  139.7563  142.9060 LP  0  0  0  0  0  0  0  0  0  0  0  0  # atno 17321 bound_to 7965
  140.4270  143.2585  151.9644 LP  0  0  0  0  0  0  0  0  0  0  0  0  # atno 17342 bound_to 10162
  139.4792  144.5779  151.7981 LP  0  0  0  0  0  0  0  0  0  0  0  0  # atno 17343 bound_to 10162
  157.7490  131.0350  150.4345 LP  0  0  0  0  0  0  0  0  0  0  0  0  # atno 17370 bound_to 10713
  156.4585  130.4027  149.6591 LP  0  0  0  0  0  0  0  0  0  0  0  0  # atno 17371 bound_to 10713
  140.5465  134.6069  157.5395 LP  0  0  0  0  0  0  0  0  0  0  0  0  # atno 17394 bound_to 11000
  139.9625  134.7428  156.0206 LP  0  0  0  0  0  0  0  0  0  0  0  0  # atno 17395 bound_to 11000

$$$$
