AV-unprocessed.smi:2167|AV-procd|sdf|8817|dock8
  -GOLD-   2272012 03D 1   1.00000     0.00000
 Structure written by MMmdl.
 41 42  0  0  0  0  0  0  0  0  1 V2000
  151.6265  144.8152  160.4252 C   0  0  0  0  0  0  0  0  0  0  0  0
  152.4934  144.1169  159.3675 C   0  0  0  0  0  0  0  0  0  0  0  0
  152.0659  144.4416  157.9289 C   0  0  0  0  0  0  0  0  0  0  0  0
  152.5935  142.6427  159.6049 C   0  0  0  0  0  0  0  0  0  0  0  0
  152.2836  141.7209  158.6881 N   0  0  0  0  0  0  0  0  0  0  0  0
  152.4737  140.4135  159.1478 C   0  0  0  0  0  0  0  0  0  0  0  0
  152.1912  139.2462  158.2436 C   0  0  0  0  0  0  0  0  0  0  0  0
  150.8136  139.3720  157.5844 C   0  0  0  0  0  0  0  0  0  0  0  0
  149.7956  139.2645  158.2677 O   0  0  0  0  0  0  0  0  0  0  0  0
  150.7907  139.5819  156.2570 N   0  0  0  0  0  0  0  0  0  0  0  0
  149.5864  139.7173  155.4359 C   0  0  1  0  0  0  0  0  0  0  0  0
  149.5816  141.1489  154.8524 C   0  0  0  0  0  0  0  0  0  0  0  0
  148.1877  141.6401  154.4251 C   0  0  0  0  0  0  0  0  0  0  0  0
  147.5548  140.8655  153.2589 C   0  0  0  0  0  0  0  0  0  0  0  0
  147.2989  139.3809  153.5694 C   0  0  0  0  0  0  0  0  0  0  0  0
  148.5181  138.5869  153.4912 N   0  0  0  0  0  0  0  0  0  0  0  0
  149.6018  138.6959  154.2746 C   0  0  0  0  0  0  0  0  0  0  0  0
  150.5926  137.9959  154.0648 O   0  0  0  0  0  0  0  0  0  0  0  0
  152.9210  140.3582  160.4448 C   0  0  0  0  0  0  0  0  0  0  0  0
  153.1369  141.9460  161.1272 S   0  0  0  0  0  0  0  0  0  0  0  0
  152.0086  144.6304  161.4295 H   0  0  0  0  0  0  0  0  0  0  0  0
  150.5957  144.4609  160.3897 H   0  0  0  0  0  0  0  0  0  0  0  0
  151.6122  145.8944  160.2708 H   0  0  0  0  0  0  0  0  0  0  0  0
  153.5018  144.5156  159.4855 H   0  0  0  0  0  0  0  0  0  0  0  0
  152.7510  143.9971  157.2063 H   0  0  0  0  0  0  0  0  0  0  0  0
  152.0558  145.5179  157.7556 H   0  0  0  0  0  0  0  0  0  0  0  0
  151.0657  144.0617  157.7172 H   0  0  0  0  0  0  0  0  0  0  0  0
  152.9448  139.1741  157.4586 H   0  0  0  0  0  0  0  0  0  0  0  0
  152.2396  138.3114  158.8036 H   0  0  0  0  0  0  0  0  0  0  0  0
  151.6757  139.6474  155.7758 H   0  0  0  0  0  0  0  0  0  0  0  0
  148.7056  139.5629  156.0619 H   0  0  0  0  0  0  0  0  0  0  0  0
  149.9432  141.8433  155.6129 H   0  0  0  0  0  0  0  0  0  0  0  0
  150.2845  141.2360  154.0218 H   0  0  0  0  0  0  0  0  0  0  0  0
  147.5162  141.6132  155.2843 H   0  0  0  0  0  0  0  0  0  0  0  0
  148.2624  142.6904  154.1413 H   0  0  0  0  0  0  0  0  0  0  0  0
  146.6013  141.3373  153.0191 H   0  0  0  0  0  0  0  0  0  0  0  0
  148.1693  140.9625  152.3629 H   0  0  0  0  0  0  0  0  0  0  0  0
  146.8219  139.2570  154.5426 H   0  0  0  0  0  0  0  0  0  0  0  0
  146.6043  138.9754  152.8336 H   0  0  0  0  0  0  0  0  0  0  0  0
  148.5580  137.9047  152.7478 H   0  0  0  0  0  0  0  0  0  0  0  0
  153.1412  139.4817  161.0363 H   0  0  0  0  0  0  0  0  0  0  0  0
  1  2  1  0  0  0  0
  1 21  1  0  0  0  0
  1 22  1  0  0  0  0
  1 23  1  0  0  0  0
  2  3  1  0  0  0  0
  2  4  1  0  0  0  0
  2 24  1  0  0  0  0
  3 25  1  0  0  0  0
  3 26  1  0  0  0  0
  3 27  1  0  0  0  0
  4 20  1  0  0  0  0
  4  5  2  0  0  0  0
  5  6  1  0  0  0  0
  6  7  1  0  0  0  0
  6 19  2  0  0  0  0
  7  8  1  0  0  0  0
  7 28  1  0  0  0  0
  7 29  1  0  0  0  0
  8  9  2  0  0  0  0
  8 10  1  0  0  0  0
 10 11  1  0  0  0  0
 10 30  1  0  0  0  0
 11 17  1  0  0  0  0
 11 12  1  0  0  0  0
 11 31  1  0  0  0  0
 12 13  1  0  0  0  0
 12 32  1  0  0  0  0
 12 33  1  0  0  0  0
 13 14  1  0  0  0  0
 13 34  1  0  0  0  0
 13 35  1  0  0  0  0
 14 15  1  0  0  0  0
 14 36  1  0  0  0  0
 14 37  1  0  0  0  0
 15 16  1  0  0  0  0
 15 38  1  0  0  0  0
 15 39  1  0  0  0  0
 16 17  1  0  0  0  0
 16 40  1  0  0  0  0
 17 18  2  0  0  0  0
 19 20  1  0  0  0  0
 19 41  1  0  0  0  0
M  END
> <s_m_source_file>
AV-unprocessed.smi

> <i_m_source_file_index>
2167

> <i_lp_mmshare_version>
43012

> <i_f3d_flags>
0

> <s_epik_input>
W0NIM11bQ0hdKFtDSDNdKWMxbmMoW2NIXXMxKVtDSDJdQyg9TylbTkhdW0NAQEhdMltDSDJdW0NIMl1bQ0gyXVtDSDJdW05IXUMyPU8=

> <s_epik_cmdline>
J2VwaWtfcHl0aG9uJywgJy1waCcsICc3LjAnLCAnLXRuJywgJzgnLCAnLW1hJywgJzIwMCcsICctbWV0YWxfYmluZGluZycsICctaW1hZScsICc8aW5maWxlLm1hZT4nLCAnLW9tYWUnLCAnPG91dGZpbGUubWFlPic=

> <r_lp_tautomer_probability>
1

> <r_epik_Ionization_Penalty>
3.1619e-05

> <r_epik_Ionization_Penalty_Charging>
0

> <r_epik_Ionization_Penalty_Neutral>
3.1619e-05

> <r_epik_State_Penalty>
-0

> <r_epik_Charging_Adjusted_Penalty>
0

> <i_epik_Tot_Q>
0

> <i_epik_Tot_abs_Q>
0

> <r_epik_Metal_State_Penalty>
-0

> <b_epik_Metal_Only>
0

> <s_lp_Force_Field>
OPLS_2005

> <r_lp_Energy>
3.21442

> <b_lp_Chiralities_Consistent>
1

> <s_lp_Variant>
AV-unprocessed.smi:2167-2

> <Gold.Version>
5.8.1

> <Gold.Id.Protein>
6NUR|6NUR_protein|mol2

> <Gold.PLP.Fitness>
47.6669

> <Gold.PLP.PLP>
-45.0511

> <Gold.PLP.part.hbond>
-2.0000

> <Gold.PLP.part.metal>
0.0000

> <Gold.PLP.part.buried>
-2.6945

> <Gold.PLP.part.nonpolar>
-38.8983

> <Gold.PLP.part.repulsive>
0.4154

> <Gold.PLP.ligand.clash>
0.0000

> <Gold.PLP.ligand.torsion>
0.2285

> <Gold.PLP.Chemscore.Hbond>
1.0000

> <Gold.PLP.Chemscore.CHOScore>
0.0000

> <Gold.PLP.Chemscore.Metal>
0.0000

> <Gold.Chemscore.Hbonds>
donor molecule, donor type, donor heavy atom, donor atom, acceptor molecule, acceptor atom, score
      L1  H    16    40       P1  7948  1.00

> <Gold.PLP.Chemscore.Internal.Correction>
0.0729

> <Gold.Rescore>
     Score         DG    S(hbond)    S(metal)    S(lipo)     H(rot)  DE(clash)    DE(int)     intcor
     18.27     -18.44       1.00        0.00     116.68       1.57       0.12       0.05       ----

> <Gold.Chemscore.Fitness>
18.2701

> <Gold.Chemscore.DG>
-18.4408

> <Gold.Chemscore.ZeroCoef>
-5.4800

> <Gold.Chemscore.Hbond>
0.9991

> <Gold.Chemscore.Metal>
0.0000

> <Gold.Chemscore.Lipo>
116.6791

> <Gold.Chemscore.Internal_Hbond>
0.0000

> <Gold.Chemscore.DEClash>
0.1223

> <Gold.Chemscore.DEInternal>
0.0484

> <Gold.Chemscore.Rot>
1.5733

> <Gold.Chemscore.Internal.Correction>
   9.000000E+99

> <Gold.Chemscore.Hbonds>
donor molecule, donor type, donor heavy atom, donor atom, acceptor molecule, acceptor atom, score
      L1  H    16    40       P1  7948  0.99

> <Gold.Chemscore.Hbond.Weighted>
-3.3369

> <Gold.Chemscore.Metal.Weighted>
-0.0000

> <Gold.Chemscore.Lipo.Weighted>
-13.6514

> <Gold.Chemscore.Internal_Hbond.Weighted>
0.0000

> <Gold.Chemscore.DEClash.Weighted>
0.1223

> <Gold.Chemscore.DEInternal.Weighted>
0.0484

> <Gold.Chemscore.Rot.Weighted>
4.0276

> <Gold.Chemscore.Internal.Correction.Weighted>
   9.000000E+99

> <Gold.Protein.RotatedTorsions>
[ 6907 6896 6895 6894 ] final -148.38 input  -60.11 | X-H torsion
[ 7974 7965 7964 7962 ] final  158.11 input  175.53 | X-H torsion
[ 8008 7997 7996 7995 ] final -123.55 input   59.86 | X-H torsion
[ 10167 10162 10161 10158 ] final  164.81 input  -65.29 | X-H torsion
[ 10718 10713 10712 10709 ] final  110.71 input   66.30 | X-H torsion
[ 10763 10752 10751 10750 ] final  -40.21 input  -60.55 | X-H torsion
[ 11005 11000 10999 10996 ] final -175.62 input  -57.11 | X-H torsion

> <Gold.Protein.ActiveResidues>
 VAL166  LYS551  ARG553  GLY616  TRP617  ASP618  TYR619  PRO620  LYS621  CYS622 
 ASP623  PHE694  ASN695  SER759  ASP760  ASP761  ALA762  ILE779  LEU786  VAL792 
 PHE793  MET794  SER795  GLU796  ALA797  LYS798  CYS799  TRP800  GLU811  SER814 

> <Gold.Protein.RotatedAtoms>
  151.1690  133.4796  159.2593 H   0  0  0  0  0  0  0  0  0  0  0  0  # atno 6907 bound_to 6896
  151.1376  135.0162  159.8621 H   0  0  0  0  0  0  0  0  0  0  0  0  # atno 6908 bound_to 6896
  152.5461  134.1586  159.8601 H   0  0  0  0  0  0  0  0  0  0  0  0  # atno 6909 bound_to 6896
  144.7864  139.7433  143.6239 H   0  0  0  0  0  0  0  0  0  0  0  0  # atno 7974 bound_to 7965
  155.1823  140.0411  157.2884 H   0  0  0  0  0  0  0  0  0  0  0  0  # atno 8008 bound_to 7997
  154.6195  140.2497  155.7539 H   0  0  0  0  0  0  0  0  0  0  0  0  # atno 8009 bound_to 7997
  156.2425  140.2898  156.0496 H   0  0  0  0  0  0  0  0  0  0  0  0  # atno 8010 bound_to 7997
  139.4895  144.4197  151.9202 H   0  0  0  0  0  0  0  0  0  0  0  0  # atno 10167 bound_to 10162
  157.6481  131.0937  150.6642 H   0  0  0  0  0  0  0  0  0  0  0  0  # atno 10718 bound_to 10713
  153.9423  135.6760  153.4744 H   0  0  0  0  0  0  0  0  0  0  0  0  # atno 10763 bound_to 10752
  153.0925  135.4867  154.8714 H   0  0  0  0  0  0  0  0  0  0  0  0  # atno 10764 bound_to 10752
  154.7370  135.3151  154.8752 H   0  0  0  0  0  0  0  0  0  0  0  0  # atno 10765 bound_to 10752
  140.4613  134.6252  157.4844 H   0  0  0  0  0  0  0  0  0  0  0  0  # atno 11005 bound_to 11000
  146.2098  139.5447  142.9688 LP  0  0  0  0  0  0  0  0  0  0  0  0  # atno 17320 bound_to 7965
  145.5909  141.0369  143.2070 LP  0  0  0  0  0  0  0  0  0  0  0  0  # atno 17321 bound_to 7965
  140.3640  144.2937  150.5929 LP  0  0  0  0  0  0  0  0  0  0  0  0  # atno 17342 bound_to 10162
  140.5377  143.2230  151.8135 LP  0  0  0  0  0  0  0  0  0  0  0  0  # atno 17343 bound_to 10162
  156.6956  130.4608  149.5587 LP  0  0  0  0  0  0  0  0  0  0  0  0  # atno 17370 bound_to 10713
  156.1831  130.6511  151.0974 LP  0  0  0  0  0  0  0  0  0  0  0  0  # atno 17371 bound_to 10713
  139.9943  134.6935  155.9635 LP  0  0  0  0  0  0  0  0  0  0  0  0  # atno 17394 bound_to 11000
  141.1620  133.6538  156.4350 LP  0  0  0  0  0  0  0  0  0  0  0  0  # atno 17395 bound_to 11000

$$$$
