AV-unprocessed.smi:2188|AV-procd|sdf|8880|dock5
  -GOLD-   2272012 83D 1   1.00000     0.00000
 Structure written by MMmdl.
 39 41  0  0  0  0  0  0  0  0  1 V2000
  145.0437  137.2457  154.4084 O   0  0  0  0  0  0  0  0  0  0  0  0
  145.9103  136.7766  153.6687 C   0  0  0  0  0  0  0  0  0  0  0  0
  147.1984  137.1617  153.7535 N   0  0  0  0  0  0  0  0  0  0  0  0
  147.7482  138.1168  154.7121 C   0  0  0  0  0  0  0  0  0  0  0  0
  148.7657  139.0713  154.0591 C   0  0  0  0  0  0  0  0  0  0  0  0
  150.1873  138.8757  154.5562 C   0  0  0  0  0  0  0  0  0  0  0  0
  150.8895  139.9246  155.1857 C   0  0  0  0  0  0  0  0  0  0  0  0
  152.2124  139.6965  155.6100 C   0  0  0  0  0  0  0  0  0  0  0  0
  152.7773  138.4244  155.3891 C   0  0  0  0  0  0  0  0  0  0  0  0
  152.1137  137.4118  154.7911 N   0  0  0  0  0  0  0  0  0  0  0  0
  150.8467  137.6401  154.3841 C   0  0  0  0  0  0  0  0  0  0  0  0
  145.6725  135.7608  152.6299 C   0  0  0  0  0  0  0  0  0  0  0  0
  144.9659  136.1081  151.5224 C   0  0  0  0  0  0  0  0  0  0  0  0
  144.6882  135.1598  150.4722 C   0  0  0  0  0  0  0  0  0  0  0  0
  145.1717  133.9196  150.6009 C   0  0  0  0  0  0  0  0  0  0  0  0
  145.9295  133.5043  151.6948 N   0  0  0  0  0  0  0  0  0  0  0  0
  146.4613  132.1457  151.6506 C   0  0  0  0  0  0  0  0  0  0  0  0
  146.3952  131.5017  153.0238 C   0  0  0  0  0  0  0  0  0  0  0  0
  147.4834  132.5047  154.0975 S   0  0  0  0  0  0  0  0  0  0  0  0
  147.2767  132.0742  155.4886 O   0  0  0  0  0  0  0  0  0  0  0  0
  148.8394  132.4785  153.5268 O   0  0  0  0  0  0  0  0  0  0  0  0
  146.8161  134.0229  153.8653 N   0  0  0  0  0  0  0  0  0  0  0  0
  146.1924  134.3871  152.7806 C   0  0  0  0  0  0  0  0  0  0  0  0
  147.8535  136.7424  153.1099 H   0  0  0  0  0  0  0  0  0  0  0  0
  146.9202  138.6945  155.1230 H   0  0  0  0  0  0  0  0  0  0  0  0
  148.2052  137.6013  155.5584 H   0  0  0  0  0  0  0  0  0  0  0  0
  148.7464  138.9446  152.9757 H   0  0  0  0  0  0  0  0  0  0  0  0
  148.4704  140.1043  154.2469 H   0  0  0  0  0  0  0  0  0  0  0  0
  150.4278  140.8901  155.3326 H   0  0  0  0  0  0  0  0  0  0  0  0
  152.7820  140.4778  156.0908 H   0  0  0  0  0  0  0  0  0  0  0  0
  153.7896  138.2148  155.7016 H   0  0  0  0  0  0  0  0  0  0  0  0
  150.3451  136.8134  153.9025 H   0  0  0  0  0  0  0  0  0  0  0  0
  144.5963  137.1147  151.3881 H   0  0  0  0  0  0  0  0  0  0  0  0
  144.1064  135.4426  149.6073 H   0  0  0  0  0  0  0  0  0  0  0  0
  144.9986  133.1655  149.8467 H   0  0  0  0  0  0  0  0  0  0  0  0
  145.8924  131.5336  150.9499 H   0  0  0  0  0  0  0  0  0  0  0  0
  147.4868  132.1710  151.2809 H   0  0  0  0  0  0  0  0  0  0  0  0
  145.3833  131.5013  153.4304 H   0  0  0  0  0  0  0  0  0  0  0  0
  146.7649  130.4766  153.0093 H   0  0  0  0  0  0  0  0  0  0  0  0
  1  2  2  0  0  0  0
  2  3  1  0  0  0  0
  2 12  1  0  0  0  0
  3  4  1  0  0  0  0
  3 24  1  0  0  0  0
  4  5  1  0  0  0  0
  4 25  1  0  0  0  0
  4 26  1  0  0  0  0
  5  6  1  0  0  0  0
  5 27  1  0  0  0  0
  5 28  1  0  0  0  0
  6 11  1  0  0  0  0
  6  7  2  0  0  0  0
  7  8  1  0  0  0  0
  7 29  1  0  0  0  0
  8  9  2  0  0  0  0
  8 30  1  0  0  0  0
  9 10  1  0  0  0  0
  9 31  1  0  0  0  0
 10 11  2  0  0  0  0
 11 32  1  0  0  0  0
 12 23  1  0  0  0  0
 12 13  2  0  0  0  0
 13 14  1  0  0  0  0
 13 33  1  0  0  0  0
 14 15  2  0  0  0  0
 14 34  1  0  0  0  0
 15 16  1  0  0  0  0
 15 35  1  0  0  0  0
 16 23  1  0  0  0  0
 16 17  1  0  0  0  0
 17 18  1  0  0  0  0
 17 36  1  0  0  0  0
 17 37  1  0  0  0  0
 18 19  1  0  0  0  0
 18 38  1  0  0  0  0
 18 39  1  0  0  0  0
 19 20  2  0  0  0  0
 19 21  2  0  0  0  0
 19 22  1  0  0  0  0
 22 23  2  0  0  0  0
M  END
> <s_m_source_file>
AV-unprocessed.smi

> <i_m_source_file_index>
2188

> <i_lp_mmshare_version>
43012

> <i_f3d_flags>
0

> <s_epik_input>
W0NIMl0xW0NIMl1TKD1PKSg9TylOPUMoTjEyKUMoPVtDSF1bQ0hdPVtDSF0yKUMoPU8pW05IXVtDSDJdW0NIMl1jM1tjSF1bY0hdW2NIXW5bY0hdMw==

> <s_epik_cmdline>
J2VwaWtfcHl0aG9uJywgJy1waCcsICc3LjAnLCAnLXRuJywgJzgnLCAnLW1hJywgJzIwMCcsICctbWV0YWxfYmluZGluZycsICctaW1hZScsICc8aW5maWxlLm1hZT4nLCAnLW9tYWUnLCAnPG91dGZpbGUubWFlPic=

> <r_epik_Ionization_Penalty>
0.00945125

> <r_epik_Ionization_Penalty_Charging>
8.06468e-09

> <r_epik_Ionization_Penalty_Neutral>
0.00945124

> <r_epik_State_Penalty>
0.0071398

> <r_epik_Charging_Adjusted_Penalty>
0.0071398

> <i_epik_Tot_Q>
0

> <i_epik_Tot_abs_Q>
0

> <r_epik_Metal_State_Penalty>
0.0479458

> <b_epik_Metal_Only>
0

> <s_lp_Force_Field>
OPLS_2005

> <r_lp_Energy>
29.0495

> <b_lp_Chiralities_Consistent>
1

> <s_lp_Variant>
AV-unprocessed.smi:2188-1

> <Gold.Version>
5.8.1

> <Gold.Id.Protein>
6NUR|6NUR_protein|mol2

> <Gold.PLP.Fitness>
40.2313

> <Gold.PLP.PLP>
-35.1810

> <Gold.PLP.part.hbond>
-2.0000

> <Gold.PLP.part.metal>
0.0000

> <Gold.PLP.part.buried>
-1.5793

> <Gold.PLP.part.nonpolar>
-31.5833

> <Gold.PLP.part.repulsive>
0.3986

> <Gold.PLP.ligand.clash>
0.0000

> <Gold.PLP.ligand.torsion>
1.8040

> <Gold.PLP.Chemscore.Hbond>
1.8160

> <Gold.PLP.Chemscore.CHOScore>
0.9826

> <Gold.PLP.Chemscore.Metal>
0.0000

> <Gold.Chemscore.Hbonds>
donor molecule, donor type, donor heavy atom, donor atom, acceptor molecule, acceptor atom, score
      L1  H     3    24       P1  7948  1.00
      P1  H 10752 10765       L1    10  0.82
      L1  C    11    32       P1  7948  0.79
      L1  C    11    32       P1  7949  0.19

> <Gold.PLP.Chemscore.Internal.Correction>
0.2625

> <Gold.Rescore>
     Score         DG    S(hbond)    S(metal)    S(lipo)     H(rot)  DE(clash)    DE(int)     intcor
     15.12     -17.12       1.81        0.00      79.84       1.47       0.18       1.82       ----

> <Gold.Chemscore.Fitness>
15.1170

> <Gold.Chemscore.DG>
-17.1231

> <Gold.Chemscore.ZeroCoef>
-5.4800

> <Gold.Chemscore.Hbond>
1.8141

> <Gold.Chemscore.Metal>
0.0000

> <Gold.Chemscore.Lipo>
79.8443

> <Gold.Chemscore.Internal_Hbond>
0.0000

> <Gold.Chemscore.DEClash>
0.1812

> <Gold.Chemscore.DEInternal>
1.8249

> <Gold.Chemscore.Rot>
1.4679

> <Gold.Chemscore.Internal.Correction>
   9.000000E+99

> <Gold.Chemscore.Hbonds>
donor molecule, donor type, donor heavy atom, donor atom, acceptor molecule, acceptor atom, score
      L1  H     3    24       P1  7948  1.00
      P1  H 10752 10765       L1    10  0.77

> <Gold.Chemscore.Hbond.Weighted>
-6.0591

> <Gold.Chemscore.Metal.Weighted>
-0.0000

> <Gold.Chemscore.Lipo.Weighted>
-9.3418

> <Gold.Chemscore.Internal_Hbond.Weighted>
0.0000

> <Gold.Chemscore.DEClash.Weighted>
0.1812

> <Gold.Chemscore.DEInternal.Weighted>
1.8249

> <Gold.Chemscore.Rot.Weighted>
3.7578

> <Gold.Chemscore.Internal.Correction.Weighted>
   9.000000E+99

> <Gold.Protein.RotatedTorsions>
[ 6907 6896 6895 6894 ] final  106.60 input  -60.11 | X-H torsion
[ 7974 7965 7964 7962 ] final  126.12 input  175.53 | X-H torsion
[ 8008 7997 7996 7995 ] final  -10.29 input   59.86 | X-H torsion
[ 10167 10162 10161 10158 ] final   42.73 input  -65.29 | X-H torsion
[ 10718 10713 10712 10709 ] final  143.04 input   66.30 | X-H torsion
[ 10763 10752 10751 10750 ] final  171.36 input  -60.55 | X-H torsion
[ 11005 11000 10999 10996 ] final  -98.46 input  -57.11 | X-H torsion

> <Gold.Protein.ActiveResidues>
 VAL166  LYS551  ARG553  GLY616  TRP617  ASP618  TYR619  PRO620  LYS621  CYS622 
 ASP623  PHE694  ASN695  SER759  ASP760  ASP761  ALA762  ILE779  LEU786  VAL792 
 PHE793  MET794  SER795  GLU796  ALA797  LYS798  CYS799  TRP800  GLU811  SER814 

> <Gold.Protein.RotatedAtoms>
  152.5187  133.9357  159.7601 H   0  0  0  0  0  0  0  0  0  0  0  0  # atno 6907 bound_to 6896
  150.9698  133.6348  159.2747 H   0  0  0  0  0  0  0  0  0  0  0  0  # atno 6908 bound_to 6896
  151.3563  135.0900  159.9472 H   0  0  0  0  0  0  0  0  0  0  0  0  # atno 6909 bound_to 6896
  145.0653  139.3772  143.4985 H   0  0  0  0  0  0  0  0  0  0  0  0  # atno 7974 bound_to 7965
  154.5568  140.2333  155.8397 H   0  0  0  0  0  0  0  0  0  0  0  0  # atno 8008 bound_to 7997
  156.1995  140.3056  155.9457 H   0  0  0  0  0  0  0  0  0  0  0  0  # atno 8009 bound_to 7997
  155.2964  140.0429  157.3017 H   0  0  0  0  0  0  0  0  0  0  0  0  # atno 8010 bound_to 7997
  140.3515  144.2345  150.6145 H   0  0  0  0  0  0  0  0  0  0  0  0  # atno 10167 bound_to 10162
  157.3736  131.0982  151.0805 H   0  0  0  0  0  0  0  0  0  0  0  0  # atno 10718 bound_to 10713
  154.4108  135.2756  155.2038 H   0  0  0  0  0  0  0  0  0  0  0  0  # atno 10763 bound_to 10752
  154.4024  135.6041  153.5908 H   0  0  0  0  0  0  0  0  0  0  0  0  # atno 10764 bound_to 10752
  152.9831  135.5929  154.4390 H   0  0  0  0  0  0  0  0  0  0  0  0  # atno 10765 bound_to 10752
  141.1344  133.8247  157.0843 H   0  0  0  0  0  0  0  0  0  0  0  0  # atno 11005 bound_to 11000
  146.3526  140.0372  142.8646 LP  0  0  0  0  0  0  0  0  0  0  0  0  # atno 17320 bound_to 7965
  145.1358  140.9544  143.4517 LP  0  0  0  0  0  0  0  0  0  0  0  0  # atno 17321 bound_to 7965
  140.5215  143.2265  151.8382 LP  0  0  0  0  0  0  0  0  0  0  0  0  # atno 17342 bound_to 10162
  139.4826  144.4831  151.9281 LP  0  0  0  0  0  0  0  0  0  0  0  0  # atno 17343 bound_to 10162
  157.1901  130.6348  149.5701 LP  0  0  0  0  0  0  0  0  0  0  0  0  # atno 17370 bound_to 10713
  155.9760  130.4725  150.6501 LP  0  0  0  0  0  0  0  0  0  0  0  0  # atno 17371 bound_to 10713
  140.0432  134.9844  157.1000 LP  0  0  0  0  0  0  0  0  0  0  0  0  # atno 17394 bound_to 11000
  140.4103  134.1988  155.7163 LP  0  0  0  0  0  0  0  0  0  0  0  0  # atno 17395 bound_to 11000

$$$$
