#       Name:                AV-unprocessed.smi:1746
#       Creating user name   scv26
#       Creation time:       Fri Mar 27 08:25:15 2020


#       File generated by GOLD software.
#

@<TRIPOS>MOLECULE
AV-unprocessed.smi:1746
    40    41     1
SMALL
NO_CHARGES


@<TRIPOS>ATOM
      1 ****        -5.9809  -0.0352  -0.2797 C.3            1 S1                 0.0000
      2 ****        -5.3237  -0.3972   1.0576 C.3            1 S1                 0.0000
      3 ****        -4.0694   0.3051   1.2469 N.pl3          1 S1                 0.0000
      4 ****        -2.7873  -0.1707   1.0552 C.2            1 S1                 0.0000
      5 ****        -1.9572   0.8710   1.3598 C.2            1 S1                 0.0000
      6 ****        -0.5408   0.9310   1.3313 N.am           1 S1                 0.0000
      7 ****         0.3091  -0.0457   0.9740 C.2            1 S1                 0.0000
      8 ****        -0.0222  -1.1746   0.6110 O.2            1 S1                 0.0000
      9 ****         1.5835   0.3604   1.0597 N.am           1 S1                 0.0000
     10 ****         2.7447  -0.4605   0.7355 C.3            1 S1                 0.0000
     11 ****         3.0146  -0.4901  -0.7781 C.3            1 S1                 0.0000
     12 ****         4.1656  -1.4123  -1.1765 C.3            1 S1                 0.0000
     13 ****         4.6119  -0.7967  -2.4824 C.3            1 S1                 0.0000
     14 ****         4.4640   0.6926  -2.1870 C.3            1 S1                 0.0000
     15 ****         3.3988   0.8016  -1.2459 O.3            1 S1                 0.0000
     16 ****        -2.8057   1.9465   1.7303 C.2            1 S1                 0.0000
     17 ****        -4.0813   1.5971   1.6593 N.2            1 S1                 0.0000
     18 ****        -6.9203  -0.5730  -0.4087 H              1 S1                 0.0000
     19 ****        -5.3326  -0.2911  -1.1184 H              1 S1                 0.0000
     20 ****        -6.1986   1.0317  -0.3369 H              1 S1                 0.0000
     21 ****        -5.9908  -0.1562   1.8865 H              1 S1                 0.0000
     22 ****        -5.1338  -1.4701   1.1053 H              1 S1                 0.0000
     23 ****        -2.5938  -1.1810   0.7261 H              1 S1                 0.0000
     24 ****        -0.1319   1.8118   1.6073 H              1 S1                 0.0000
     25 ****         1.7650   1.3067   1.3610 H              1 S1                 0.0000
     26 ****         3.6101  -0.0578   1.2627 H              1 S1                 0.0000
     27 ****         2.5972  -1.4739   1.1128 H              1 S1                 0.0000
     28 ****         2.1188  -0.7922  -1.3234 H              1 S1                 0.0000
     29 ****         4.9738  -1.3610  -0.4452 H              1 S1                 0.0000
     30 ****         3.8600  -2.4543  -1.2766 H              1 S1                 0.0000
     31 ****         5.6265  -1.0774  -2.7668 H              1 S1                 0.0000
     32 ****         3.9357  -1.0912  -3.2862 H              1 S1                 0.0000
     33 ****         5.3728   1.0809  -1.7256 H              1 S1                 0.0000
     34 ****         4.2646   1.2768  -3.0855 H              1 S1                 0.0000
     35 ****        -2.5455   2.9479   2.0405 H              1 S1                 0.0000
     36 ****        -0.9903  -1.4213   0.5658 LP             1 S1                 0.0000
     37 ****         0.6767  -1.8448   0.3614 LP             1 S1                 0.0000
     38 ****         3.6996   1.3569  -0.4705 LP             1 S1                 0.0000
     39 ****         2.6145   1.2397  -1.6852 LP             1 S1                 0.0000
     40 ****        -4.8797   2.1630   1.8651 LP             1 S1                 0.0000
@<TRIPOS>BOND
    1    1    2 1     
    2    1   18 1     
    3    1   19 1     
    4    1   20 1     
    5    2    3 1     
    6    2   21 1     
    7    2   22 1     
    8    3   17 1     
    9    3    4 1     
   10    4    5 2     
   11    4   23 1     
   12    5    6 1     
   13    5   16 1     
   14    6    7 am    
   15    6   24 1     
   16    7    8 2     
   17    7    9 am    
   18    9   10 1     
   19    9   25 1     
   20   10   11 1     
   21   10   26 1     
   22   10   27 1     
   23   11   15 1     
   24   11   12 1     
   25   11   28 1     
   26   12   13 1     
   27   12   29 1     
   28   12   30 1     
   29   13   14 1     
   30   13   31 1     
   31   13   32 1     
   32   14   15 1     
   33   14   33 1     
   34   14   34 1     
   35   16   17 2     
   36   16   35 1     
   37    8   36 1     
   38    8   37 1     
   39   15   38 1     
   40   15   39 1     
   41   17   40 1     
@<TRIPOS>SUBSTRUCTURE
      1 S1             1
@<TRIPOS>SET
LONE_PAIRS      STATIC     ATOMS    <user>   **** ""
5 36 37 38 39 40
DONOR_HYDROGENS      STATIC     ATOMS    <user>   **** ""
2 24 25
ATOM$BLUE        STATIC     ATOMS    COLORGROUP SYSTEM
5 36 37 38 39 40
ATOM$RED        STATIC     ATOMS    COLORGROUP SYSTEM
2 24 25
