AV-unprocessed.smi:110|AV-procd|sdf|1065|dock1
  -GOLD-   2262018143D 1   1.00000     0.00000
 Structure written by MMmdl.
 46 50  0  0  0  0  0  0  0  0  1 V2000
  146.5739  133.0195  157.7591 O   0  0  0  0  0  0  0  0  0  0  0  0
  147.1127  132.9439  156.4566 C   0  0  0  0  0  0  0  0  0  0  0  0
  147.9092  134.2187  156.1391 C   0  0  1  0  0  0  0  0  0  0  0  0
  149.0213  134.3276  157.0281 O   0  0  0  0  0  0  0  0  0  0  0  0
  150.0969  134.9581  156.3960 C   0  0  2  0  0  0  0  0  0  0  0  0
  150.4579  136.2086  157.1420 N   0  0  0  0  0  0  0  0  0  0  0  0
  149.9271  136.6423  158.3354 C   0  0  0  0  0  0  0  0  0  0  0  0
  150.4041  137.7709  158.7836 N   0  0  0  0  0  0  0  0  0  0  0  0
  151.3459  138.1472  157.8335 C   0  0  0  0  0  0  0  0  0  0  0  0
  152.2274  139.2569  157.6859 C   0  0  0  0  0  0  0  0  0  0  0  0
  152.3261  140.2855  158.5608 N   0  0  0  0  0  0  0  0  0  0  0  0
  153.1005  140.0995  159.7964 C   0  0  0  0  0  0  0  0  0  0  0  0
  153.4665  141.4968  160.3318 C   0  0  0  0  0  0  0  0  0  0  0  0
  152.7356  142.3725  159.3661 C   0  0  0  0  0  0  0  0  0  0  0  0
  152.6391  143.7745  159.3924 C   0  0  0  0  0  0  0  0  0  0  0  0
  151.8734  144.4072  158.3900 C   0  0  0  0  0  0  0  0  0  0  0  0
  151.2187  143.6391  157.3992 C   0  0  0  0  0  0  0  0  0  0  0  0
  151.3284  142.2311  157.3938 C   0  0  0  0  0  0  0  0  0  0  0  0
  152.1131  141.6068  158.3853 C   0  0  0  0  0  0  0  0  0  0  0  0
  152.9857  139.3126  156.5618 N   0  0  0  0  0  0  0  0  0  0  0  0
  152.9204  138.3308  155.6590 C   0  0  0  0  0  0  0  0  0  0  0  0
  152.1659  137.2316  155.6774 N   0  0  0  0  0  0  0  0  0  0  0  0
  151.3762  137.1792  156.7885 C   0  0  0  0  0  0  0  0  0  0  0  0
  149.6976  135.2129  154.9299 C   0  0  2  0  0  0  0  0  0  0  0  0
  149.2754  136.5441  154.6764 O   0  0  0  0  0  0  0  0  0  0  0  0
  148.5766  134.1969  154.7625 C   0  0  2  0  0  0  0  0  0  0  0  0
  147.6911  134.5101  153.7033 O   0  0  0  0  0  0  0  0  0  0  0  0
  147.2797  135.1062  156.2227 H   0  0  0  0  0  0  0  0  0  0  0  0
  150.9769  134.3201  156.4875 H   0  0  0  0  0  0  0  0  0  0  0  0
  150.5441  134.9933  154.2787 H   0  0  0  0  0  0  0  0  0  0  0  0
  149.0107  133.2124  154.5813 H   0  0  0  0  0  0  0  0  0  0  0  0
  147.2488  133.3230  158.3467 H   0  0  0  0  0  0  0  0  0  0  0  0
  147.7312  132.0522  156.3517 H   0  0  0  0  0  0  0  0  0  0  0  0
  146.2767  132.8421  155.7640 H   0  0  0  0  0  0  0  0  0  0  0  0
  149.1662  136.0907  158.8682 H   0  0  0  0  0  0  0  0  0  0  0  0
  152.4909  139.5606  160.5228 H   0  0  0  0  0  0  0  0  0  0  0  0
  153.9968  139.5067  159.6085 H   0  0  0  0  0  0  0  0  0  0  0  0
  153.1185  141.6542  161.3531 H   0  0  0  0  0  0  0  0  0  0  0  0
  154.5389  141.6865  160.2799 H   0  0  0  0  0  0  0  0  0  0  0  0
  153.1332  144.3509  160.1605 H   0  0  0  0  0  0  0  0  0  0  0  0
  151.7802  145.4832  158.3844 H   0  0  0  0  0  0  0  0  0  0  0  0
  150.6262  144.1324  156.6430 H   0  0  0  0  0  0  0  0  0  0  0  0
  150.8135  141.6504  156.6432 H   0  0  0  0  0  0  0  0  0  0  0  0
  153.5630  138.4419  154.7983 H   0  0  0  0  0  0  0  0  0  0  0  0
  149.2414  136.6747  153.7411 H   0  0  0  0  0  0  0  0  0  0  0  0
  148.1046  135.1503  153.1448 H   0  0  0  0  0  0  0  0  0  0  0  0
  1  2  1  0  0  0  0
  1 32  1  0  0  0  0
  2  3  1  0  0  0  0
  2 33  1  0  0  0  0
  2 34  1  0  0  0  0
  3 28  1  0  0  0  0
  3 26  1  0  0  0  0
  3  4  1  0  0  0  0
  4  5  1  0  0  0  0
  5 29  1  0  0  0  0
  5  6  1  0  0  0  0
  5 24  1  0  0  0  0
  6 23  1  0  0  0  0
  6  7  1  0  0  0  0
  7  8  2  0  0  0  0
  7 35  1  0  0  0  0
  8  9  1  0  0  0  0
  9 23  2  0  0  0  0
  9 10  1  0  0  0  0
 10 11  1  0  0  0  0
 10 20  2  0  0  0  0
 11 19  1  0  0  0  0
 11 12  1  0  0  0  0
 12 13  1  0  0  0  0
 12 36  1  0  0  0  0
 12 37  1  0  0  0  0
 13 14  1  0  0  0  0
 13 38  1  0  0  0  0
 13 39  1  0  0  0  0
 14 19  2  0  0  0  0
 14 15  1  0  0  0  0
 15 16  2  0  0  0  0
 15 40  1  0  0  0  0
 16 17  1  0  0  0  0
 16 41  1  0  0  0  0
 17 18  2  0  0  0  0
 17 42  1  0  0  0  0
 18 19  1  0  0  0  0
 18 43  1  0  0  0  0
 20 21  1  0  0  0  0
 21 22  2  0  0  0  0
 21 44  1  0  0  0  0
 22 23  1  0  0  0  0
 24 30  1  0  0  0  0
 24 25  1  0  0  0  0
 24 26  1  0  0  0  0
 25 45  1  0  0  0  0
 26 31  1  0  0  0  0
 26 27  1  0  0  0  0
 27 46  1  0  0  0  0
M  END
> <s_m_source_file>
AV-unprocessed.smi

> <i_m_source_file_index>
110

> <i_lp_mmshare_version>
43012

> <i_f3d_flags>
0

> <s_epik_input>
W09IXVtDSDJdW0NASF0xT1tDQEhdKFtDQEhdKFtPSF0pW0NAQEhdMVtPSF0pbihbY0hdbjIpYyhjMjMpbltjSF1uYzNOKFtDSDJdW0NIMl00KWMoYzQ1KVtjSF1bY0hdW2NIXVtjSF01

> <s_epik_cmdline>
J2VwaWtfcHl0aG9uJywgJy1waCcsICc3LjAnLCAnLXRuJywgJzgnLCAnLW1hJywgJzIwMCcsICctbWV0YWxfYmluZGluZycsICctaW1hZScsICc8aW5maWxlLm1hZT4nLCAnLW9tYWUnLCAnPG91dGZpbGUubWFlPic=

> <r_lp_tautomer_probability>
1

> <r_epik_Ionization_Penalty>
0.00068475

> <r_epik_Ionization_Penalty_Charging>
0

> <r_epik_Ionization_Penalty_Neutral>
0.00068475

> <r_epik_State_Penalty>
0.000417442

> <r_epik_Charging_Adjusted_Penalty>
0.000417442

> <i_epik_Tot_Q>
0

> <i_epik_Tot_abs_Q>
0

> <r_epik_Metal_State_Penalty>
-0

> <b_epik_Metal_Only>
0

> <s_epik_Chemistry_Notes>
This compound contains an acetal/aminal-like group ( X-CH(R)-Y where X, Y are N, S, or O) that may be acid/base labile, releasing an aldehyde.

> <s_lp_Force_Field>
OPLS_2005

> <r_lp_Energy>
69.6213

> <b_lp_Chiralities_Consistent>
1

> <s_lp_Variant>
AV-unprocessed.smi:110-3

> <Gold.Version>
5.8.1

> <Gold.Id.Protein>
6NUR|6NUR_protein|mol2

> <Gold.PLP.Fitness>
50.9807

> <Gold.PLP.PLP>
-41.9059

> <Gold.PLP.part.hbond>
-4.0000

> <Gold.PLP.part.metal>
0.0000

> <Gold.PLP.part.buried>
-4.2996

> <Gold.PLP.part.nonpolar>
-34.4780

> <Gold.PLP.part.repulsive>
0.0239

> <Gold.PLP.ligand.clash>
0.0000

> <Gold.PLP.ligand.torsion>
1.3505

> <Gold.PLP.Chemscore.Hbond>
3.8800

> <Gold.PLP.Chemscore.CHOScore>
0.0000

> <Gold.PLP.Chemscore.Metal>
0.0000

> <Gold.Chemscore.Hbonds>
donor molecule, donor type, donor heavy atom, donor atom, acceptor molecule, acceptor atom, score
      L1  H    25    45       P1  7948  1.00
      L1  H    27    46       P1  7948  1.00
      P1  H  7997  8008       L1    20  1.00
      P1  H 10752 10765       L1    22  0.82

> <Gold.PLP.Chemscore.Internal.Correction>
0.1357

> <Gold.Rescore>
     Score         DG    S(hbond)    S(metal)    S(lipo)     H(rot)  DE(clash)    DE(int)     intcor
     18.52     -20.55       3.63        0.00      99.31       3.38       0.05       1.98       ----

> <Gold.Chemscore.Fitness>
18.5198

> <Gold.Chemscore.DG>
-20.5462

> <Gold.Chemscore.ZeroCoef>
-5.4800

> <Gold.Chemscore.Hbond>
3.6254

> <Gold.Chemscore.Metal>
0.0000

> <Gold.Chemscore.Lipo>
99.3131

> <Gold.Chemscore.Internal_Hbond>
0.0000

> <Gold.Chemscore.DEClash>
0.0494

> <Gold.Chemscore.DEInternal>
1.9770

> <Gold.Chemscore.Rot>
3.3837

> <Gold.Chemscore.Internal.Correction>
   9.000000E+99

> <Gold.Chemscore.Hbonds>
donor molecule, donor type, donor heavy atom, donor atom, acceptor molecule, acceptor atom, score
      L1  H    25    45       P1  7948  0.95
      L1  H    27    46       P1  7948  0.98
      P1  H  7997  8008       L1    20  0.76
      P1  H 10752 10765       L1    22  0.69

> <Gold.Chemscore.Hbond.Weighted>
-12.1087

> <Gold.Chemscore.Metal.Weighted>
-0.0000

> <Gold.Chemscore.Lipo.Weighted>
-11.6196

> <Gold.Chemscore.Internal_Hbond.Weighted>
0.0000

> <Gold.Chemscore.DEClash.Weighted>
0.0494

> <Gold.Chemscore.DEInternal.Weighted>
1.9770

> <Gold.Chemscore.Rot.Weighted>
8.6622

> <Gold.Chemscore.Internal.Correction.Weighted>
   9.000000E+99

> <Gold.Protein.RotatedTorsions>
[ 6907 6896 6895 6894 ] final  149.72 input  -60.11 | X-H torsion
[ 7974 7965 7964 7962 ] final   37.53 input  175.53 | X-H torsion
[ 8008 7997 7996 7995 ] final  -49.08 input   59.86 | X-H torsion
[ 10167 10162 10161 10158 ] final  -96.18 input  -65.29 | X-H torsion
[ 10718 10713 10712 10709 ] final   72.87 input   66.30 | X-H torsion
[ 10763 10752 10751 10750 ] final -163.45 input  -60.55 | X-H torsion
[ 11005 11000 10999 10996 ] final  -35.63 input  -57.11 | X-H torsion

> <Gold.Protein.ActiveResidues>
 VAL166  LYS551  ARG553  GLY616  TRP617  ASP618  TYR619  PRO620  LYS621  CYS622 
 ASP623  PHE694  ASN695  SER759  ASP760  ASP761  ALA762  ILE779  LEU786  VAL792 
 PHE793  MET794  SER795  GLU796  ALA797  LYS798  CYS799  TRP800  GLU811  SER814 

> <Gold.Protein.RotatedAtoms>
  152.1242  133.4370  159.4689 H   0  0  0  0  0  0  0  0  0  0  0  0  # atno 6907 bound_to 6896
  150.6874  134.2499  159.4515 H   0  0  0  0  0  0  0  0  0  0  0  0  # atno 6908 bound_to 6896
  152.0378  134.9729  160.0624 H   0  0  0  0  0  0  0  0  0  0  0  0  # atno 6909 bound_to 6896
  146.1131  139.5883  142.9339 H   0  0  0  0  0  0  0  0  0  0  0  0  # atno 7974 bound_to 7965
  154.4038  140.1305  156.4445 H   0  0  0  0  0  0  0  0  0  0  0  0  # atno 8008 bound_to 7997
  155.7427  140.3489  155.5092 H   0  0  0  0  0  0  0  0  0  0  0  0  # atno 8009 bound_to 7997
  155.9024  140.1021  157.1330 H   0  0  0  0  0  0  0  0  0  0  0  0  # atno 8010 bound_to 7997
  140.2964  143.3189  152.0293 H   0  0  0  0  0  0  0  0  0  0  0  0  # atno 10167 bound_to 10162
  157.6521  130.9600  150.0990 H   0  0  0  0  0  0  0  0  0  0  0  0  # atno 10718 bound_to 10713
  154.7121  135.3008  154.9181 H   0  0  0  0  0  0  0  0  0  0  0  0  # atno 10763 bound_to 10752
  154.0079  135.6698  153.4767 H   0  0  0  0  0  0  0  0  0  0  0  0  # atno 10764 bound_to 10752
  153.0763  135.5033  154.8326 H   0  0  0  0  0  0  0  0  0  0  0  0  # atno 10765 bound_to 10752
  140.9812  133.7055  156.1686 H   0  0  0  0  0  0  0  0  0  0  0  0  # atno 11005 bound_to 11000
  145.5623  141.0403  143.2219 LP  0  0  0  0  0  0  0  0  0  0  0  0  # atno 17320 bound_to 7965
  144.7529  139.7148  143.7266 LP  0  0  0  0  0  0  0  0  0  0  0  0  # atno 17321 bound_to 7965
  139.4925  144.6487  151.6722 LP  0  0  0  0  0  0  0  0  0  0  0  0  # atno 17342 bound_to 10162
  140.5688  144.0144  150.6206 LP  0  0  0  0  0  0  0  0  0  0  0  0  # atno 17343 bound_to 10162
  156.1918  130.3655  149.8900 LP  0  0  0  0  0  0  0  0  0  0  0  0  # atno 17370 bound_to 10713
  156.6827  130.8864  151.3578 LP  0  0  0  0  0  0  0  0  0  0  0  0  # atno 17371 bound_to 10713
  140.7184  134.4385  157.5577 LP  0  0  0  0  0  0  0  0  0  0  0  0  # atno 17394 bound_to 11000
  139.8951  134.8691  156.2148 LP  0  0  0  0  0  0  0  0  0  0  0  0  # atno 17395 bound_to 11000

$$$$
