#       Name:                AV-unprocessed.smi:2673
#       Creating user name   scv26
#       Creation time:       Fri Mar 27 14:38:06 2020


#       File generated by GOLD software.
#

@<TRIPOS>MOLECULE
AV-unprocessed.smi:2673
    36    37     1
SMALL
NO_CHARGES


@<TRIPOS>ATOM
      1 ****        -1.1640   1.4060  -0.0488 O.2            1 S1                 0.0000
      2 ****        -1.6565   0.2892   0.1228 C.2            1 S1                 0.0000
      3 ****        -2.9749   0.0150   0.2496 N.pl3          1 S1                -1.0000
      4 ****        -3.8780   1.0066   0.1743 C.2            1 S1                 0.0000
      5 ****        -4.4077   1.5819   1.2659 N.2            1 S1                 0.0000
      6 ****        -5.3220   2.5828   0.9663 N.2            1 S1                 0.0000
      7 ****        -5.4660   2.7309  -0.3503 C.2            1 S1                 0.0000
      8 ****        -4.4994   1.6610  -1.3435 S.3            1 S1                 0.0000
      9 ****        -0.8785  -0.8049   0.1974 N.am           1 S1                 0.0000
     10 ****         0.5849  -0.9595   0.1006 C.3            1 S1                 0.0000
     11 ****         0.8388  -2.4896   0.2600 C.3            1 S1                 0.0000
     12 ****         2.1291  -2.8119   0.1987 F              1 S1                 0.0000
     13 ****         0.3701  -2.9162   1.4344 F              1 S1                 0.0000
     14 ****         0.2061  -3.1656  -0.7011 F              1 S1                 0.0000
     15 ****         1.0752  -0.4524  -1.2920 C.3            1 S1                 0.0000
     16 ****         2.6023  -0.3040  -1.4112 C.3            1 S1                 0.0000
     17 ****         3.1715   0.5614  -0.2798 C.3            1 S1                 0.0000
     18 ****         2.7978  -0.0094   1.0939 C.3            1 S1                 0.0000
     19 ****         1.2733  -0.1551   1.2472 C.3            1 S1                 0.0000
     20 ****        -6.1469   3.4730  -0.7393 H              1 S1                 0.0000
     21 ****        -1.3787  -1.6699   0.3416 H              1 S1                 0.0000
     22 ****         0.7070  -1.1044  -2.0843 H              1 S1                 0.0000
     23 ****         0.6551   0.5279  -1.5103 H              1 S1                 0.0000
     24 ****         3.0838  -1.2809  -1.4112 H              1 S1                 0.0000
     25 ****         2.8482   0.1467  -2.3730 H              1 S1                 0.0000
     26 ****         4.2557   0.6291  -0.3725 H              1 S1                 0.0000
     27 ****         2.7884   1.5788  -0.3695 H              1 S1                 0.0000
     28 ****         3.2925  -0.9678   1.2457 H              1 S1                 0.0000
     29 ****         3.1789   0.6470   1.8768 H              1 S1                 0.0000
     30 ****         0.8714   0.8555   1.2968 H              1 S1                 0.0000
     31 ****         1.0435  -0.6021   2.2146 H              1 S1                 0.0000
     32 ****        -1.7558   2.2101  -0.1054 LP             1 S1                 0.0000
     33 ****        -0.1727   1.5080  -0.1314 LP             1 S1                 0.0000
     34 ****        -3.2775  -0.9262   0.3995 LP             1 S1                 0.0000
     35 ****        -4.1680   1.3164   2.1997 LP             1 S1                 0.0000
     36 ****        -5.8103   3.1237   1.6512 LP             1 S1                 0.0000
@<TRIPOS>BOND
    1    1    2 2     
    2    2    3 1     
    3    2    9 am    
    4    3    4 1     
    5    4    8 1     
    6    4    5 2     
    7    5    6 1     
    8    6    7 2     
    9    7    8 1     
   10    7   20 1     
   11    9   10 1     
   12    9   21 1     
   13   10   19 1     
   14   10   11 1     
   15   10   15 1     
   16   11   12 1     
   17   11   13 1     
   18   11   14 1     
   19   15   16 1     
   20   15   22 1     
   21   15   23 1     
   22   16   17 1     
   23   16   24 1     
   24   16   25 1     
   25   17   18 1     
   26   17   26 1     
   27   17   27 1     
   28   18   19 1     
   29   18   28 1     
   30   18   29 1     
   31   19   30 1     
   32   19   31 1     
   33    1   32 1     
   34    1   33 1     
   35    3   34 1     
   36    5   35 1     
   37    6   36 1     
@<TRIPOS>SUBSTRUCTURE
      1 S1             1
@<TRIPOS>SET
LONE_PAIRS      STATIC     ATOMS    <user>   **** ""
5 32 33 34 35 36
DONOR_HYDROGENS      STATIC     ATOMS    <user>   **** ""
1 21
ATOM$BLUE        STATIC     ATOMS    COLORGROUP SYSTEM
5 32 33 34 35 36
ATOM$RED        STATIC     ATOMS    COLORGROUP SYSTEM
1 21
