#       Name:                AV-unprocessed.smi:3157
#       Creating user name   scv26
#       Creation time:       Fri Mar 27 17:45:57 2020


#       File generated by GOLD software.
#

@<TRIPOS>MOLECULE
AV-unprocessed.smi:3157
    41    42     1
SMALL
NO_CHARGES


@<TRIPOS>ATOM
      1 ****        -1.7142  -0.4467   1.3187 C.3            1 S1                 0.0000
      2 ****        -1.1965  -0.1611  -0.1072 C.3            1 S1                 0.0000
      3 ****         0.2843  -0.1505  -0.1157 N.4            1 S1                 1.0000
      4 ****         0.9096   1.1010   0.3610 C.3            1 S1                 0.0000
      5 ****         2.4429   0.9974   0.3414 C.3            1 S1                 0.0000
      6 ****         3.0184   0.0138   1.3679 C.3            1 S1                 0.0000
      7 ****         4.4631   0.4692   1.6164 C.3            1 S1                 0.0000
      8 ****         4.5710   1.8964   1.0601 C.3            1 S1                 0.0000
      9 ****         3.1456   2.3108   0.6894 C.3            1 S1                 0.0000
     10 ****        -1.7178  -1.1796  -1.1547 C.3            1 S1                 0.0000
     11 ****        -1.3465  -0.7883  -2.5972 C.3            1 S1                 0.0000
     12 ****        -3.1584  -1.3805  -1.0527 N.pl3          1 S1                 0.0000
     13 ****        -4.1771  -0.4797  -1.2942 C.2            1 S1                 0.0000
     14 ****        -5.3570  -1.1229  -1.0531 C.2            1 S1                 0.0000
     15 ****        -4.9553  -2.4304  -0.6625 C.2            1 S1                 0.0000
     16 ****        -3.6407  -2.5806  -0.6620 N.2            1 S1                 0.0000
     17 ****        -2.8004  -0.3759   1.3774 H              1 S1                 0.0000
     18 ****        -1.3193   0.2630   2.0449 H              1 S1                 0.0000
     19 ****        -1.4307  -1.4474   1.6469 H              1 S1                 0.0000
     20 ****        -1.5469   0.8290  -0.4037 H              1 S1                 0.0000
     21 ****         0.6183  -0.9254   0.4395 H              1 S1                 0.0000
     22 ****         0.5908   1.9176  -0.2882 H              1 S1                 0.0000
     23 ****         0.5648   1.3416   1.3664 H              1 S1                 0.0000
     24 ****         2.7720   0.6954  -0.6546 H              1 S1                 0.0000
     25 ****         2.4573   0.0782   2.3015 H              1 S1                 0.0000
     26 ****         2.9652  -1.0203   1.0263 H              1 S1                 0.0000
     27 ****         4.6996   0.4379   2.6806 H              1 S1                 0.0000
     28 ****         5.1703  -0.1867   1.1075 H              1 S1                 0.0000
     29 ****         5.0243   2.5863   1.7726 H              1 S1                 0.0000
     30 ****         5.1964   1.8926   0.1663 H              1 S1                 0.0000
     31 ****         3.1213   3.0300  -0.1300 H              1 S1                 0.0000
     32 ****         2.6654   2.7751   1.5519 H              1 S1                 0.0000
     33 ****        -1.2429  -2.1412  -0.9476 H              1 S1                 0.0000
     34 ****        -0.2662  -0.7371  -2.7337 H              1 S1                 0.0000
     35 ****        -1.7604   0.1836  -2.8682 H              1 S1                 0.0000
     36 ****        -1.7268  -1.5208  -3.3101 H              1 S1                 0.0000
     37 ****        -3.9806   0.5336  -1.6119 H              1 S1                 0.0000
     38 ****        -6.3555  -0.7208  -1.1414 H              1 S1                 0.0000
     39 ****        -5.5753  -3.2685  -0.3799 H              1 S1                 0.0000
     40 ****         0.5869  -0.2883  -1.0695 H              1 S1                 0.0000
     41 ****        -3.1196  -3.4006  -0.4250 LP             1 S1                 0.0000
@<TRIPOS>BOND
    1    1    2 1     
    2    1   17 1     
    3    1   18 1     
    4    1   19 1     
    5    2    3 1     
    6    2   10 1     
    7    2   20 1     
    8    3    4 1     
    9    3   21 1     
   10    3   40 1     
   11    4    5 1     
   12    4   22 1     
   13    4   23 1     
   14    5    9 1     
   15    5    6 1     
   16    5   24 1     
   17    6    7 1     
   18    6   25 1     
   19    6   26 1     
   20    7    8 1     
   21    7   27 1     
   22    7   28 1     
   23    8    9 1     
   24    8   29 1     
   25    8   30 1     
   26    9   31 1     
   27    9   32 1     
   28   10   11 1     
   29   10   12 1     
   30   10   33 1     
   31   11   34 1     
   32   11   35 1     
   33   11   36 1     
   34   12   16 1     
   35   12   13 1     
   36   13   14 2     
   37   13   37 1     
   38   14   15 1     
   39   14   38 1     
   40   15   16 2     
   41   15   39 1     
   42   16   41 1     
@<TRIPOS>SUBSTRUCTURE
      1 S1             1
@<TRIPOS>SET
LONE_PAIRS      STATIC     ATOMS    <user>   **** ""
1 41
DONOR_HYDROGENS      STATIC     ATOMS    <user>   **** ""
2 21 40
ATOM$BLUE        STATIC     ATOMS    COLORGROUP SYSTEM
1 41
ATOM$RED        STATIC     ATOMS    COLORGROUP SYSTEM
2 21 40
