AV-unprocessed.smi:1991|AV-procd|sdf|8068|dock4
  -GOLD-   2272010273D 1   1.00000     0.00000
 Structure written by MMmdl.
 44 45  0  0  0  0  0  0  0  0  1 V2000
  145.2737  136.3591  158.7773 C   0  0  0  0  0  0  0  0  0  0  0  0
  146.1584  137.5613  159.1386 C   0  0  1  0  0  0  0  0  0  0  0  0
  146.5725  137.3957  160.4927 O   0  0  0  0  0  0  0  0  0  0  0  0
  147.2492  136.1772  160.7852 C   0  0  0  0  0  0  0  0  0  0  0  0
  147.0937  135.8559  162.2765 C   0  0  0  0  0  0  0  0  0  0  0  0
  145.8185  136.0145  162.6291 F   0  0  0  0  0  0  0  0  0  0  0  0
  147.4501  134.5942  162.5159 F   0  0  0  0  0  0  0  0  0  0  0  0
  147.8446  136.6804  163.0061 F   0  0  0  0  0  0  0  0  0  0  0  0
  147.3799  137.6533  158.2101 C   0  0  0  0  0  0  0  0  0  0  0  0
  148.5175  137.6327  158.6803 O   0  0  0  0  0  0  0  0  0  0  0  0
  147.1210  137.7738  156.8989 N   0  0  0  0  0  0  0  0  0  0  0  0
  148.1194  137.8631  155.8388 C   0  0  0  0  0  0  0  0  0  0  0  0
  148.2361  139.2720  155.2656 C   0  0  0  0  0  0  0  0  0  0  0  0
  147.1380  139.8159  154.5645 C   0  0  0  0  0  0  0  0  0  0  0  0
  147.2211  141.1251  154.0580 C   0  0  0  0  0  0  0  0  0  0  0  0
  148.4079  141.8477  154.2745 C   0  0  0  0  0  0  0  0  0  0  0  0
  149.4673  141.3435  154.9395 N   0  0  0  0  0  0  0  0  0  0  0  0
  149.3932  140.0814  155.4288 C   0  0  0  0  0  0  0  0  0  0  0  0
  150.5310  139.5808  156.0839 N   0  0  0  0  0  0  0  0  0  0  0  0
  151.6205  139.2667  155.1700 C   0  0  0  0  0  0  0  0  0  0  0  0
  152.7237  138.5001  155.9185 C   0  0  0  0  0  0  0  0  0  0  0  0
  153.1596  139.2655  157.0395 O   0  0  0  0  0  0  0  0  0  0  0  0
  152.1031  139.5185  157.9627 C   0  0  0  0  0  0  0  0  0  0  0  0
  150.9838  140.3093  157.2635 C   0  0  0  0  0  0  0  0  0  0  0  0
  144.9320  136.4145  157.7430 H   0  0  0  0  0  0  0  0  0  0  0  0
  144.3895  136.3253  159.4142 H   0  0  0  0  0  0  0  0  0  0  0  0
  145.8060  135.4157  158.9047 H   0  0  0  0  0  0  0  0  0  0  0  0
  145.5562  138.4678  159.0519 H   0  0  0  0  0  0  0  0  0  0  0  0
  146.8451  135.3548  160.1938 H   0  0  0  0  0  0  0  0  0  0  0  0
  148.3074  136.2694  160.5367 H   0  0  0  0  0  0  0  0  0  0  0  0
  146.1536  137.7901  156.6109 H   0  0  0  0  0  0  0  0  0  0  0  0
  149.0835  137.6034  156.2767 H   0  0  0  0  0  0  0  0  0  0  0  0
  147.9472  137.1153  155.0645 H   0  0  0  0  0  0  0  0  0  0  0  0
  146.2369  139.2381  154.4213 H   0  0  0  0  0  0  0  0  0  0  0  0
  146.3946  141.5654  153.5203 H   0  0  0  0  0  0  0  0  0  0  0  0
  148.5103  142.8565  153.9029 H   0  0  0  0  0  0  0  0  0  0  0  0
  151.2553  138.6795  154.3281 H   0  0  0  0  0  0  0  0  0  0  0  0
  152.0235  140.1935  154.7595 H   0  0  0  0  0  0  0  0  0  0  0  0
  152.3635  137.5239  156.2477 H   0  0  0  0  0  0  0  0  0  0  0  0
  153.5716  138.3213  155.2575 H   0  0  0  0  0  0  0  0  0  0  0  0
  151.7225  138.5767  158.3618 H   0  0  0  0  0  0  0  0  0  0  0  0
  152.4953  140.0874  158.8058 H   0  0  0  0  0  0  0  0  0  0  0  0
  151.3552  141.2932  156.9729 H   0  0  0  0  0  0  0  0  0  0  0  0
  150.1480  140.4646  157.9468 H   0  0  0  0  0  0  0  0  0  0  0  0
  1  2  1  0  0  0  0
  1 25  1  0  0  0  0
  1 26  1  0  0  0  0
  1 27  1  0  0  0  0
  2  3  1  0  0  0  0
  2  9  1  0  0  0  0
  2 28  1  0  0  0  0
  3  4  1  0  0  0  0
  4  5  1  0  0  0  0
  4 29  1  0  0  0  0
  4 30  1  0  0  0  0
  5  6  1  0  0  0  0
  5  7  1  0  0  0  0
  5  8  1  0  0  0  0
  9 10  2  0  0  0  0
  9 11  1  0  0  0  0
 11 12  1  0  0  0  0
 11 31  1  0  0  0  0
 12 13  1  0  0  0  0
 12 32  1  0  0  0  0
 12 33  1  0  0  0  0
 13 18  1  0  0  0  0
 13 14  2  0  0  0  0
 14 15  1  0  0  0  0
 14 34  1  0  0  0  0
 15 16  2  0  0  0  0
 15 35  1  0  0  0  0
 16 17  1  0  0  0  0
 16 36  1  0  0  0  0
 17 18  2  0  0  0  0
 18 19  1  0  0  0  0
 19 24  1  0  0  0  0
 19 20  1  0  0  0  0
 20 21  1  0  0  0  0
 20 37  1  0  0  0  0
 20 38  1  0  0  0  0
 21 22  1  0  0  0  0
 21 39  1  0  0  0  0
 21 40  1  0  0  0  0
 22 23  1  0  0  0  0
 23 24  1  0  0  0  0
 23 41  1  0  0  0  0
 23 42  1  0  0  0  0
 24 43  1  0  0  0  0
 24 44  1  0  0  0  0
M  END
> <s_m_source_file>
AV-unprocessed.smi

> <i_m_source_file_index>
1991

> <i_lp_mmshare_version>
43012

> <i_f3d_flags>
0

> <s_epik_input>
RkMoRikoRilbQ0gyXU9bQ0BASF0oW0NIM10pQyg9TylbTkhdW0NIMl1jMVtjSF1bY0hdW2NIXW5jMU4yW0NIMl1bQ0gyXU9bQ0gyXVtDSDJdMg==

> <s_epik_cmdline>
J2VwaWtfcHl0aG9uJywgJy1waCcsICc3LjAnLCAnLXRuJywgJzgnLCAnLW1hJywgJzIwMCcsICctbWV0YWxfYmluZGluZycsICctaW1hZScsICc8aW5maWxlLm1hZT4nLCAnLW9tYWUnLCAnPG91dGZpbGUubWFlPic=

> <r_lp_tautomer_probability>
1

> <r_epik_Ionization_Penalty>
0.00436412

> <r_epik_Ionization_Penalty_Charging>
0

> <r_epik_Ionization_Penalty_Neutral>
0.00436412

> <r_epik_State_Penalty>
0.00314317

> <r_epik_Charging_Adjusted_Penalty>
0.00314317

> <i_epik_Tot_Q>
0

> <i_epik_Tot_abs_Q>
0

> <r_epik_Metal_State_Penalty>
-0

> <b_epik_Metal_Only>
0

> <s_lp_Force_Field>
OPLS_2005

> <r_lp_Energy>
21.3683

> <b_lp_Chiralities_Consistent>
1

> <s_lp_Variant>
AV-unprocessed.smi:1991-2

> <Gold.Version>
5.8.1

> <Gold.Id.Protein>
6NUR|6NUR_protein|mol2

> <Gold.PLP.Fitness>
42.3656

> <Gold.PLP.PLP>
-34.7347

> <Gold.PLP.part.hbond>
-2.0000

> <Gold.PLP.part.metal>
0.0000

> <Gold.PLP.part.buried>
-3.5222

> <Gold.PLP.part.nonpolar>
-29.6311

> <Gold.PLP.part.repulsive>
0.1410

> <Gold.PLP.ligand.clash>
0.0000

> <Gold.PLP.ligand.torsion>
0.5636

> <Gold.PLP.Chemscore.Hbond>
2.0000

> <Gold.PLP.Chemscore.CHOScore>
0.7802

> <Gold.PLP.Chemscore.Metal>
0.0000

> <Gold.Chemscore.Hbonds>
donor molecule, donor type, donor heavy atom, donor atom, acceptor molecule, acceptor atom, score
      P1  H  6934  6947       L1     3  1.00
      P1  H  7997  8010       L1    22  0.98
      L1  C    16    36       P1  8028  0.72

> <Gold.PLP.Chemscore.Internal.Correction>
0.4176

> <Gold.Rescore>
     Score         DG    S(hbond)    S(metal)    S(lipo)     H(rot)  DE(clash)    DE(int)     intcor
      9.60     -11.91       1.73        0.00      60.18       2.49       0.04       2.26       ----

> <Gold.Chemscore.Fitness>
9.6031

> <Gold.Chemscore.DG>
-11.9095

> <Gold.Chemscore.ZeroCoef>
-5.4800

> <Gold.Chemscore.Hbond>
1.7251

> <Gold.Chemscore.Metal>
0.0000

> <Gold.Chemscore.Lipo>
60.1848

> <Gold.Chemscore.Internal_Hbond>
0.0000

> <Gold.Chemscore.DEClash>
0.0431

> <Gold.Chemscore.DEInternal>
2.2632

> <Gold.Chemscore.Rot>
2.4899

> <Gold.Chemscore.Internal.Correction>
   9.000000E+99

> <Gold.Chemscore.Hbonds>
donor molecule, donor type, donor heavy atom, donor atom, acceptor molecule, acceptor atom, score
      P1  H  6934  6947       L1     3  0.35
      P1  H  7997  8010       L1    22  0.78

> <Gold.Chemscore.Hbond.Weighted>
-5.7620

> <Gold.Chemscore.Metal.Weighted>
-0.0000

> <Gold.Chemscore.Lipo.Weighted>
-7.0416

> <Gold.Chemscore.Internal_Hbond.Weighted>
0.0000

> <Gold.Chemscore.DEClash.Weighted>
0.0431

> <Gold.Chemscore.DEInternal.Weighted>
2.2632

> <Gold.Chemscore.Rot.Weighted>
6.3741

> <Gold.Chemscore.Internal.Correction.Weighted>
   9.000000E+99

> <Gold.Protein.RotatedTorsions>
[ 6907 6896 6895 6894 ] final  -18.99 input  -60.11 | X-H torsion
[ 7974 7965 7964 7962 ] final  -60.17 input  175.53 | X-H torsion
[ 8008 7997 7996 7995 ] final   50.68 input   59.86 | X-H torsion
[ 10167 10162 10161 10158 ] final -116.40 input  -65.29 | X-H torsion
[ 10718 10713 10712 10709 ] final -112.45 input   66.30 | X-H torsion
[ 10763 10752 10751 10750 ] final   93.11 input  -60.55 | X-H torsion
[ 11005 11000 10999 10996 ] final  112.54 input  -57.11 | X-H torsion

> <Gold.Protein.ActiveResidues>
 VAL166  LYS551  ARG553  GLY616  TRP617  ASP618  TYR619  PRO620  LYS621  CYS622 
 ASP623  PHE694  ASN695  SER759  ASP760  ASP761  ALA762  ILE779  LEU786  VAL792 
 PHE793  MET794  SER795  GLU796  ALA797  LYS798  CYS799  TRP800  GLU811  SER814 

> <Gold.Protein.RotatedAtoms>
  151.2698  135.0681  159.9129 H   0  0  0  0  0  0  0  0  0  0  0  0  # atno 6907 bound_to 6896
  152.5352  134.0142  159.7962 H   0  0  0  0  0  0  0  0  0  0  0  0  # atno 6908 bound_to 6896
  151.0378  133.5682  159.2685 H   0  0  0  0  0  0  0  0  0  0  0  0  # atno 6909 bound_to 6896
  145.8187  140.8553  143.0144 H   0  0  0  0  0  0  0  0  0  0  0  0  # atno 7974 bound_to 7965
  155.4227  140.3447  155.4273 H   0  0  0  0  0  0  0  0  0  0  0  0  # atno 8008 bound_to 7997
  156.1383  140.1534  156.8991 H   0  0  0  0  0  0  0  0  0  0  0  0  # atno 8009 bound_to 7997
  154.4950  140.0830  156.7657 H   0  0  0  0  0  0  0  0  0  0  0  0  # atno 8010 bound_to 7997
  140.0796  143.4800  152.1933 H   0  0  0  0  0  0  0  0  0  0  0  0  # atno 10167 bound_to 10162
  156.0707  130.5921  150.8510 H   0  0  0  0  0  0  0  0  0  0  0  0  # atno 10718 bound_to 10713
  153.2266  135.4337  155.0549 H   0  0  0  0  0  0  0  0  0  0  0  0  # atno 10763 bound_to 10752
  154.8276  135.3369  154.6848 H   0  0  0  0  0  0  0  0  0  0  0  0  # atno 10764 bound_to 10752
  153.7277  135.7013  153.5053 H   0  0  0  0  0  0  0  0  0  0  0  0  # atno 10765 bound_to 10752
  139.8930  134.9532  156.6601 H   0  0  0  0  0  0  0  0  0  0  0  0  # atno 11005 bound_to 11000
  144.6750  140.0502  143.7479 LP  0  0  0  0  0  0  0  0  0  0  0  0  # atno 17320 bound_to 7965
  145.9698  139.2861  143.1105 LP  0  0  0  0  0  0  0  0  0  0  0  0  # atno 17321 bound_to 7965
  139.5787  144.7500  151.3696 LP  0  0  0  0  0  0  0  0  0  0  0  0  # atno 17342 bound_to 10162
  140.7084  143.7454  150.7523 LP  0  0  0  0  0  0  0  0  0  0  0  0  # atno 17343 bound_to 10162
  157.5775  131.0946  150.9322 LP  0  0  0  0  0  0  0  0  0  0  0  0  # atno 17370 bound_to 10713
  156.9525  130.5425  149.5283 LP  0  0  0  0  0  0  0  0  0  0  0  0  # atno 17371 bound_to 10713
  140.7453  133.8943  155.8307 LP  0  0  0  0  0  0  0  0  0  0  0  0  # atno 17394 bound_to 11000
  141.0044  134.1106  157.4285 LP  0  0  0  0  0  0  0  0  0  0  0  0  # atno 17395 bound_to 11000

$$$$
