AV-unprocessed.smi:1047|AV-procd|sdf|4600|dock1
  -GOLD-   22720 3 93D 1   1.00000     0.00000
 Structure written by MMmdl.
 57 59  0  0  0  0  0  0  0  0  3 V2000
  144.9265  134.9129  150.8624 C   0  0  0  0  0  0  0  0  0  0  0  0
  144.5471  136.3437  150.4557 C   0  0  0  0  0  0  0  0  0  0  0  0
  144.2709  137.2130  151.6263 N   0  3  1  0  0  0  0  0  0  0  0  0
  143.0212  136.8622  152.3454 C   0  0  0  0  0  0  0  0  0  0  0  0
  142.7810  137.8358  153.5115 C   0  0  0  0  0  0  0  0  0  0  0  0
  143.8971  137.8203  154.3924 O   0  0  0  0  0  0  0  0  0  0  0  0
  145.1009  138.2177  153.7447 C   0  0  1  0  0  0  0  0  0  0  0  0
  146.2256  138.3021  154.7907 C   0  0  0  0  0  0  0  0  0  0  0  0
  147.4533  138.8601  154.2296 N   0  0  0  0  0  0  0  0  0  0  0  0
  148.1308  139.7948  155.1225 C   0  0  0  0  0  0  0  0  0  0  0  0
  149.3249  140.4682  154.4247 C   0  0  1  0  0  0  0  0  0  0  0  0
  148.8353  141.2542  153.3557 O   0  0  0  0  0  0  0  0  0  0  0  0
  150.1187  141.3640  155.3955 C   0  0  0  0  0  0  0  0  0  0  0  0
  150.7855  140.6009  156.4612 N   0  0  0  0  0  0  0  0  0  0  0  0
  150.8687  139.2544  156.6396 C   0  0  0  0  0  0  0  0  0  0  0  0
  151.5891  139.0335  157.7737 N   0  3  0  0  0  0  0  0  0  0  0  0
  151.9729  140.2564  158.3275 C   0  0  0  0  0  0  0  0  0  0  0  0
  152.7100  140.5452  159.4696 C   0  0  0  0  0  0  0  0  0  0  0  0
  152.9349  141.9087  159.7648 C   0  0  0  0  0  0  0  0  0  0  0  0
  153.7350  142.2589  161.0081 C   0  0  0  0  0  0  0  0  0  0  0  0
  152.4280  142.9310  158.9214 C   0  0  0  0  0  0  0  0  0  0  0  0
  152.6828  144.3938  159.2432 C   0  0  0  0  0  0  0  0  0  0  0  0
  151.6785  142.6162  157.7653 C   0  0  0  0  0  0  0  0  0  0  0  0
  151.4628  141.2675  157.4900 C   0  0  0  0  0  0  0  0  0  0  0  0
  145.4117  137.2646  152.5708 C   0  0  0  0  0  0  0  0  0  0  0  0
  145.0362  134.2811  149.9807 H   0  0  0  0  0  0  0  0  0  0  0  0
  144.1578  134.4663  151.4937 H   0  0  0  0  0  0  0  0  0  0  0  0
  145.8713  134.8772  151.4039 H   0  0  0  0  0  0  0  0  0  0  0  0
  145.3254  136.7874  149.8329 H   0  0  0  0  0  0  0  0  0  0  0  0
  143.6511  136.2868  149.8359 H   0  0  0  0  0  0  0  0  0  0  0  0
  142.1682  136.8990  151.6685 H   0  0  0  0  0  0  0  0  0  0  0  0
  143.0872  135.8400  152.7216 H   0  0  0  0  0  0  0  0  0  0  0  0
  142.6069  138.8483  153.1434 H   0  0  0  0  0  0  0  0  0  0  0  0
  141.8906  137.5429  154.0679 H   0  0  0  0  0  0  0  0  0  0  0  0
  144.9539  139.2235  153.3471 H   0  0  0  0  0  0  0  0  0  0  0  0
  145.8930  138.9141  155.6300 H   0  0  0  0  0  0  0  0  0  0  0  0
  146.4181  137.3061  155.1913 H   0  0  0  0  0  0  0  0  0  0  0  0
  148.0866  138.1084  153.9759 H   0  0  0  0  0  0  0  0  0  0  0  0
  147.4349  140.5440  155.5029 H   0  0  0  0  0  0  0  0  0  0  0  0
  148.4947  139.2452  155.9917 H   0  0  0  0  0  0  0  0  0  0  0  0
  149.9974  139.7099  154.0205 H   0  0  0  0  0  0  0  0  0  0  0  0
  148.6269  140.6830  152.6326 H   0  0  0  0  0  0  0  0  0  0  0  0
  150.8542  141.9712  154.8674 H   0  0  0  0  0  0  0  0  0  0  0  0
  149.4424  142.0658  155.8856 H   0  0  0  0  0  0  0  0  0  0  0  0
  150.4407  138.4976  155.9979 H   0  0  0  0  0  0  0  0  0  0  0  0
  153.0953  139.7612  160.1049 H   0  0  0  0  0  0  0  0  0  0  0  0
  153.1458  142.8830  161.6804 H   0  0  0  0  0  0  0  0  0  0  0  0
  154.6435  142.7990  160.7399 H   0  0  0  0  0  0  0  0  0  0  0  0
  154.0288  141.3643  161.5581 H   0  0  0  0  0  0  0  0  0  0  0  0
  152.2440  145.0503  158.4912 H   0  0  0  0  0  0  0  0  0  0  0  0
  153.7534  144.5973  159.2780 H   0  0  0  0  0  0  0  0  0  0  0  0
  152.2487  144.6553  160.2084 H   0  0  0  0  0  0  0  0  0  0  0  0
  151.2965  143.3963  157.1242 H   0  0  0  0  0  0  0  0  0  0  0  0
  145.6171  136.2564  152.9342 H   0  0  0  0  0  0  0  0  0  0  0  0
  146.3072  137.6057  152.0494 H   0  0  0  0  0  0  0  0  0  0  0  0
  144.1552  138.1510  151.2699 H   0  0  0  0  0  0  0  0  0  0  0  0
  151.8026  138.1145  158.1397 H   0  0  0  0  0  0  0  0  0  0  0  0
  1  2  1  0  0  0  0
  1 26  1  0  0  0  0
  1 27  1  0  0  0  0
  1 28  1  0  0  0  0
  2  3  1  0  0  0  0
  2 29  1  0  0  0  0
  2 30  1  0  0  0  0
  3 25  1  0  0  0  0
  3  4  1  0  0  0  0
  3 56  1  0  0  0  0
  4  5  1  0  0  0  0
  4 31  1  0  0  0  0
  4 32  1  0  0  0  0
  5  6  1  0  0  0  0
  5 33  1  0  0  0  0
  5 34  1  0  0  0  0
  6  7  1  0  0  0  0
  7  8  1  0  0  0  0
  7 25  1  0  0  0  0
  7 35  1  0  0  0  0
  8  9  1  0  0  0  0
  8 36  1  0  0  0  0
  8 37  1  0  0  0  0
  9 10  1  0  0  0  0
  9 38  1  0  0  0  0
 10 11  1  0  0  0  0
 10 39  1  0  0  0  0
 10 40  1  0  0  0  0
 11 12  1  0  0  0  0
 11 13  1  0  0  0  0
 11 41  1  0  0  0  0
 12 42  1  0  0  0  0
 13 14  1  0  0  0  0
 13 43  1  0  0  0  0
 13 44  1  0  0  0  0
 14 24  1  0  0  0  0
 14 15  1  0  0  0  0
 15 16  2  0  0  0  0
 15 45  1  0  0  0  0
 16 17  1  0  0  0  0
 16 57  1  0  0  0  0
 17 24  2  0  0  0  0
 17 18  1  0  0  0  0
 18 19  2  0  0  0  0
 18 46  1  0  0  0  0
 19 20  1  0  0  0  0
 19 21  1  0  0  0  0
 20 47  1  0  0  0  0
 20 48  1  0  0  0  0
 20 49  1  0  0  0  0
 21 22  1  0  0  0  0
 21 23  2  0  0  0  0
 22 50  1  0  0  0  0
 22 51  1  0  0  0  0
 22 52  1  0  0  0  0
 23 24  1  0  0  0  0
 23 53  1  0  0  0  0
 25 54  1  0  0  0  0
 25 55  1  0  0  0  0
M  CHG  1   3   1
M  CHG  1  16   1
M  END
> <s_m_source_file>
AV-unprocessed.smi

> <i_m_source_file_index>
1047

> <i_lp_mmshare_version>
43012

> <i_f3d_flags>
0

> <s_epik_input>
W0NIM11bQ0gyXU4xW0NIMl1bQ0gyXU9bQ0BIXShbQ0gyXTEpW0NIMl1bTkhdW0NIMl1bQ0BIXShbT0hdKVtDSDJdbihbY0hdbjIpYyhjMjMpW2NIXWMoW0NIM10pYyhbY0hdMylbQ0gzXQ==

> <s_epik_cmdline>
J2VwaWtfcHl0aG9uJywgJy1waCcsICc3LjAnLCAnLXRuJywgJzgnLCAnLW1hJywgJzIwMCcsICctbWV0YWxfYmluZGluZycsICctaW1hZScsICc8aW5maWxlLm1hZT4nLCAnLW9tYWUnLCAnPG91dGZpbGUubWFlPic=

> <r_epik_Ionization_Penalty>
2.03028

> <r_epik_Ionization_Penalty_Charging>
1.21256

> <r_epik_Ionization_Penalty_Neutral>
0.817715

> <r_epik_State_Penalty>
2.54959

> <r_epik_Charging_Adjusted_Penalty>
3.76215

> <i_epik_Tot_Q>
2

> <i_epik_Tot_abs_Q>
2

> <r_epik_Metal_State_Penalty>
6.52811

> <b_epik_Metal_Only>
0

> <s_lp_Force_Field>
OPLS_2005

> <r_lp_Energy>
36.9073

> <b_lp_Chiralities_Consistent>
1

> <s_lp_Variant>
AV-unprocessed.smi:1047-41

> <Gold.Version>
5.8.1

> <Gold.Id.Protein>
6NUR|6NUR_protein|mol2

> <Gold.PLP.Fitness>
54.9612

> <Gold.PLP.PLP>
-47.4393

> <Gold.PLP.part.hbond>
-3.2215

> <Gold.PLP.part.metal>
0.0000

> <Gold.PLP.part.buried>
-4.9457

> <Gold.PLP.part.nonpolar>
-38.8709

> <Gold.PLP.part.repulsive>
0.1870

> <Gold.PLP.ligand.clash>
0.0000

> <Gold.PLP.ligand.torsion>
0.3973

> <Gold.PLP.Chemscore.Hbond>
2.6860

> <Gold.PLP.Chemscore.CHOScore>
0.0000

> <Gold.PLP.Chemscore.Metal>
0.0000

> <Gold.Chemscore.Hbonds>
donor molecule, donor type, donor heavy atom, donor atom, acceptor molecule, acceptor atom, score
      L1  H     3    56       P1 10171  0.58
      L1  H    12    42       P1  7957  0.67
      P1  H  8011  8017       L1    12  0.67

> <Gold.PLP.Chemscore.Internal.Correction>
0.2585

> <Gold.Rescore>
     Score         DG    S(hbond)    S(metal)    S(lipo)     H(rot)  DE(clash)    DE(int)     intcor
     19.17     -19.67       1.89        0.00     126.54       2.71       0.10       0.40       ----

> <Gold.Chemscore.Fitness>
19.1708

> <Gold.Chemscore.DG>
-19.6708

> <Gold.Chemscore.ZeroCoef>
-5.4800

> <Gold.Chemscore.Hbond>
1.8925

> <Gold.Chemscore.Metal>
0.0000

> <Gold.Chemscore.Lipo>
126.5359

> <Gold.Chemscore.Internal_Hbond>
0.0000

> <Gold.Chemscore.DEClash>
0.1019

> <Gold.Chemscore.DEInternal>
0.3981

> <Gold.Chemscore.Rot>
2.7088

> <Gold.Chemscore.Internal.Correction>
   9.000000E+99

> <Gold.Chemscore.Hbonds>
donor molecule, donor type, donor heavy atom, donor atom, acceptor molecule, acceptor atom, score
      L1  H     3    56       P1 10171  0.55
      L1  H    12    42       P1  7957  0.68
      P1  H  8011  8017       L1    12  0.07

> <Gold.Chemscore.Hbond.Weighted>
-6.3208

> <Gold.Chemscore.Metal.Weighted>
-0.0000

> <Gold.Chemscore.Lipo.Weighted>
-14.8047

> <Gold.Chemscore.Internal_Hbond.Weighted>
0.0000

> <Gold.Chemscore.DEClash.Weighted>
0.1019

> <Gold.Chemscore.DEInternal.Weighted>
0.3981

> <Gold.Chemscore.Rot.Weighted>
6.9346

> <Gold.Chemscore.Internal.Correction.Weighted>
   9.000000E+99

> <Gold.Protein.RotatedTorsions>
[ 6907 6896 6895 6894 ] final   51.74 input  -60.11 | X-H torsion
[ 7974 7965 7964 7962 ] final  -26.92 input  175.53 | X-H torsion
[ 8008 7997 7996 7995 ] final  110.07 input   59.86 | X-H torsion
[ 10167 10162 10161 10158 ] final -138.70 input  -65.29 | X-H torsion
[ 10718 10713 10712 10709 ] final -122.82 input   66.30 | X-H torsion
[ 10763 10752 10751 10750 ] final  168.07 input  -60.55 | X-H torsion
[ 11005 11000 10999 10996 ] final   83.22 input  -57.11 | X-H torsion

> <Gold.Protein.ActiveResidues>
 VAL166  LYS551  ARG553  GLY616  TRP617  ASP618  TYR619  PRO620  LYS621  CYS622 
 ASP623  PHE694  ASN695  SER759  ASP760  ASP761  ALA762  ILE779  LEU786  VAL792 
 PHE793  MET794  SER795  GLU796  ALA797  LYS798  CYS799  TRP800  GLU811  SER814 

> <Gold.Protein.RotatedAtoms>
  152.3159  134.7441  160.0325 H   0  0  0  0  0  0  0  0  0  0  0  0  # atno 6907 bound_to 6896
  151.7906  133.3353  159.3506 H   0  0  0  0  0  0  0  0  0  0  0  0  # atno 6908 bound_to 6896
  150.7344  134.5777  159.5967 H   0  0  0  0  0  0  0  0  0  0  0  0  # atno 6909 bound_to 6896
  146.1393  140.5083  142.8659 H   0  0  0  0  0  0  0  0  0  0  0  0  # atno 7974 bound_to 7965
  156.2026  140.3046  155.9558 H   0  0  0  0  0  0  0  0  0  0  0  0  # atno 8008 bound_to 7997
  155.2918  140.0442  157.3040 H   0  0  0  0  0  0  0  0  0  0  0  0  # atno 8009 bound_to 7997
  154.5590  140.2314  155.8374 H   0  0  0  0  0  0  0  0  0  0  0  0  # atno 8010 bound_to 7997
  139.8452  143.7270  152.2661 H   0  0  0  0  0  0  0  0  0  0  0  0  # atno 10167 bound_to 10162
  156.1450  130.6493  150.9828 H   0  0  0  0  0  0  0  0  0  0  0  0  # atno 10718 bound_to 10713
  154.3632  135.2753  155.2308 H   0  0  0  0  0  0  0  0  0  0  0  0  # atno 10763 bound_to 10752
  154.4487  135.5936  153.6181 H   0  0  0  0  0  0  0  0  0  0  0  0  # atno 10764 bound_to 10752
  152.9842  135.6036  154.3855 H   0  0  0  0  0  0  0  0  0  0  0  0  # atno 10765 bound_to 10752
  139.9038  134.8129  156.2280 H   0  0  0  0  0  0  0  0  0  0  0  0  # atno 11005 bound_to 11000
  144.7774  140.5769  143.6628 LP  0  0  0  0  0  0  0  0  0  0  0  0  # atno 17320 bound_to 7965
  145.5084  139.1480  143.3618 LP  0  0  0  0  0  0  0  0  0  0  0  0  # atno 17321 bound_to 7965
  139.7519  144.7531  151.0493 LP  0  0  0  0  0  0  0  0  0  0  0  0  # atno 17342 bound_to 10162
  140.7794  143.4850  150.9968 LP  0  0  0  0  0  0  0  0  0  0  0  0  # atno 17343 bound_to 10162
  157.6609  131.0881  150.7841 LP  0  0  0  0  0  0  0  0  0  0  0  0  # atno 17370 bound_to 10713
  156.7913  130.4891  149.5384 LP  0  0  0  0  0  0  0  0  0  0  0  0  # atno 17371 bound_to 10713
  141.0364  133.6961  156.1519 LP  0  0  0  0  0  0  0  0  0  0  0  0  # atno 17394 bound_to 11000
  140.7021  134.4553  157.5585 LP  0  0  0  0  0  0  0  0  0  0  0  0  # atno 17395 bound_to 11000

$$$$
