#       Name:                AV-unprocessed.smi:57
#       Creating user name   scv26
#       Creation time:       Thu Mar 26 16:48:20 2020


#       File generated by GOLD software.
#

@<TRIPOS>MOLECULE
AV-unprocessed.smi:57
    35    36     1
SMALL
NO_CHARGES


@<TRIPOS>ATOM
      1 ****         0.1585   2.0453   3.3681 N.pl3          1 S1                 0.0000
      2 ****        -0.4503   2.0551   2.1322 C.2            1 S1                 0.0000
      3 ****        -0.9837   3.3083   1.7982 N.pl3          1 S1                -1.0000
      4 ****        -1.6197   3.4941   0.6013 C.2            1 S1                 0.0000
      5 ****        -2.1161   4.5505   0.2146 O.2            1 S1                 0.0000
      6 ****        -1.6957   2.2986  -0.2727 C.2            1 S1                 0.0000
      7 ****        -2.2507   2.1058  -1.5333 N.2            1 S1                 0.0000
      8 ****        -1.9812   0.8210  -1.7629 C.2            1 S1                 0.0000
      9 ****        -1.3166   0.1868  -0.7776 N.pl3          1 S1                 0.0000
     10 ****        -0.8888  -1.1968  -0.7529 C.3            1 S1                 0.0000
     11 ****         0.4703  -1.2188  -1.0342 O.3            1 S1                 0.0000
     12 ****         1.0785  -2.4671  -0.7518 C.3            1 S1                 0.0000
     13 ****         2.5682  -2.3689  -1.0949 C.3            1 S1                 0.0000
     14 ****         3.2085  -3.5971  -0.8253 O.3            1 S1                 0.0000
     15 ****        -1.1256   1.1498   0.2047 C.2            1 S1                 0.0000
     16 ****        -0.4798   0.9605   1.4122 N.2            1 S1                 0.0000
     17 ****         0.2107   2.8539   3.9697 H              1 S1                 0.0000
     18 ****         0.5939   1.2239   3.7611 H              1 S1                 0.0000
     19 ****        -2.2748   0.3266  -2.6770 H              1 S1                 0.0000
     20 ****        -1.4437  -1.7658  -1.5001 H              1 S1                 0.0000
     21 ****        -1.0974  -1.5979   0.2407 H              1 S1                 0.0000
     22 ****         0.9538  -2.7163   0.3034 H              1 S1                 0.0000
     23 ****         0.6035  -3.2552  -1.3387 H              1 S1                 0.0000
     24 ****         2.7035  -2.1179  -2.1473 H              1 S1                 0.0000
     25 ****         3.0433  -1.5826  -0.5075 H              1 S1                 0.0000
     26 ****         4.1270  -3.5055  -1.0275 H              1 S1                 0.0000
     27 ****        -0.8986   4.0712   2.4391 LP             1 S1                 0.0000
     28 ****        -2.0725   5.3648   0.7934 LP             1 S1                 0.0000
     29 ****        -2.5633   4.5953  -0.6787 LP             1 S1                 0.0000
     30 ****        -2.7288   2.7621  -2.1170 LP             1 S1                 0.0000
     31 ****         0.9201  -0.5146  -0.4849 LP             1 S1                 0.0000
     32 ****         0.5973  -1.0158  -2.0051 LP             1 S1                 0.0000
     33 ****         2.8084  -4.3179  -1.3913 LP             1 S1                 0.0000
     34 ****         3.0971  -3.8312   0.1405 LP             1 S1                 0.0000
     35 ****        -0.0817   0.0902   1.7023 LP             1 S1                 0.0000
@<TRIPOS>BOND
    1    1    2 1     
    2    1   18 1     
    3    1   17 1     
    4    2   16 2     
    5    2    3 1     
    6    3    4 1     
    7    4    5 2     
    8    4    6 1     
    9    6   15 2     
   10    6    7 1     
   11    7    8 2     
   12    8   19 1     
   13    8    9 1     
   14    9   10 1     
   15    9   15 1     
   16   10   11 1     
   17   10   20 1     
   18   10   21 1     
   19   11   12 1     
   20   12   13 1     
   21   12   22 1     
   22   12   23 1     
   23   13   14 1     
   24   13   24 1     
   25   13   25 1     
   26   14   26 1     
   27   15   16 1     
   28    3   27 1     
   29    5   28 1     
   30    5   29 1     
   31    7   30 1     
   32   11   31 1     
   33   11   32 1     
   34   14   33 1     
   35   14   34 1     
   36   16   35 1     
@<TRIPOS>SUBSTRUCTURE
      1 S1             1
@<TRIPOS>SET
LONE_PAIRS      STATIC     ATOMS    <user>   **** ""
9 27 28 29 30 31 32 33 34 35
DONOR_HYDROGENS      STATIC     ATOMS    <user>   **** ""
3 18 17 26
ATOM$BLUE        STATIC     ATOMS    COLORGROUP SYSTEM
9 27 28 29 30 31 32 33 34 35
ATOM$RED        STATIC     ATOMS    COLORGROUP SYSTEM
3 18 17 26
