AV-unprocessed.smi:2252|AV-procd|sdf|9109|dock2
  -GOLD-   2272012313D 1   1.00000     0.00000
 Structure written by MMmdl.
 45 47  0  0  0  0  0  0  0  0  4 V2000
  152.9802  142.0230  159.9051 C   0  0  0  0  0  0  0  0  0  0  0  0
  152.2574  143.0851  159.2010 N   0  0  0  0  0  0  0  0  0  0  0  0
  152.2138  144.4100  159.5527 C   0  0  0  0  0  0  0  0  0  0  0  0
  151.4238  145.0377  158.6260 C   0  0  0  0  0  0  0  0  0  0  0  0
  151.0182  144.0717  157.7464 N   0  3  0  0  0  0  0  0  0  0  0  0
  151.5267  142.8803  158.0896 C   0  0  0  0  0  0  0  0  0  0  0  0
  151.2976  141.5904  157.3522 C   0  0  0  0  0  0  0  0  0  0  0  0
  150.6336  141.7638  155.9727 C   0  0  0  0  0  0  0  0  0  0  0  0
  150.7082  140.5072  155.2351 N   0  5  0  0  0  0  0  0  0  0  0  0
  149.6262  139.7410  154.9273 C   0  0  0  0  0  0  0  0  0  0  0  0
  149.4877  138.8561  154.0756 O   0  0  0  0  0  0  0  0  0  0  0  0
  148.4187  140.0919  155.8168 C   0  0  2  0  0  0  0  0  0  0  0  0
  147.8994  138.8005  156.4862 C   0  0  0  0  0  0  0  0  0  0  0  0
  146.9413  138.8514  157.6564 C   0  0  0  0  0  0  0  0  0  0  0  0
  148.3653  138.4076  157.8719 C   0  0  0  0  0  0  0  0  0  0  0  0
  147.3496  140.7688  155.0320 N   0  3  0  0  0  0  0  0  0  0  0  0
  146.2178  141.2999  155.8272 C   0  0  0  0  0  0  0  0  0  0  0  0
  145.6545  142.5040  155.0573 C   0  0  0  0  0  0  0  0  0  0  0  0
  146.5259  142.6328  153.8084 C   0  0  0  0  0  0  0  0  0  0  0  0
  147.8024  141.8823  154.1712 C   0  0  0  0  0  0  0  0  0  0  0  0
  153.5088  142.4452  160.7602 H   0  0  0  0  0  0  0  0  0  0  0  0
  153.7013  141.5640  159.2281 H   0  0  0  0  0  0  0  0  0  0  0  0
  152.2706  141.2728  160.2550 H   0  0  0  0  0  0  0  0  0  0  0  0
  152.7351  144.7986  160.4157 H   0  0  0  0  0  0  0  0  0  0  0  0
  151.1273  146.0719  158.5286 H   0  0  0  0  0  0  0  0  0  0  0  0
  152.2620  141.0900  157.2610 H   0  0  0  0  0  0  0  0  0  0  0  0
  150.6780  140.9683  158.0001 H   0  0  0  0  0  0  0  0  0  0  0  0
  149.5994  142.0794  156.1123 H   0  0  0  0  0  0  0  0  0  0  0  0
  151.1274  142.5855  155.4520 H   0  0  0  0  0  0  0  0  0  0  0  0
  148.7243  140.7840  156.6057 H   0  0  0  0  0  0  0  0  0  0  0  0
  147.7665  137.9713  155.7931 H   0  0  0  0  0  0  0  0  0  0  0  0
  146.6601  139.8283  158.0440 H   0  0  0  0  0  0  0  0  0  0  0  0
  146.1648  138.0908  157.7022 H   0  0  0  0  0  0  0  0  0  0  0  0
  148.5414  137.3505  158.0600 H   0  0  0  0  0  0  0  0  0  0  0  0
  149.0294  139.0917  158.3967 H   0  0  0  0  0  0  0  0  0  0  0  0
  145.4660  140.5255  155.9824 H   0  0  0  0  0  0  0  0  0  0  0  0
  146.5637  141.6313  156.8074 H   0  0  0  0  0  0  0  0  0  0  0  0
  144.6037  142.3692  154.7985 H   0  0  0  0  0  0  0  0  0  0  0  0
  145.7299  143.4048  155.6674 H   0  0  0  0  0  0  0  0  0  0  0  0
  146.0378  142.1382  152.9675 H   0  0  0  0  0  0  0  0  0  0  0  0
  146.7113  143.6693  153.5250 H   0  0  0  0  0  0  0  0  0  0  0  0
  148.4709  142.5352  154.7353 H   0  0  0  0  0  0  0  0  0  0  0  0
  148.3357  141.5319  153.2870 H   0  0  0  0  0  0  0  0  0  0  0  0
  146.9605  140.0752  154.4096 H   0  0  0  0  0  0  0  0  0  0  0  0
  150.4225  144.2306  156.9434 H   0  0  0  0  0  0  0  0  0  0  0  0
  1  2  1  0  0  0  0
  1 21  1  0  0  0  0
  1 22  1  0  0  0  0
  1 23  1  0  0  0  0
  2  6  1  0  0  0  0
  2  3  1  0  0  0  0
  3  4  2  0  0  0  0
  3 24  1  0  0  0  0
  4  5  1  0  0  0  0
  4 25  1  0  0  0  0
  5  6  2  0  0  0  0
  5 45  1  0  0  0  0
  6  7  1  0  0  0  0
  7  8  1  0  0  0  0
  7 26  1  0  0  0  0
  7 27  1  0  0  0  0
  8  9  1  0  0  0  0
  8 28  1  0  0  0  0
  8 29  1  0  0  0  0
  9 10  1  0  0  0  0
 10 11  2  0  0  0  0
 10 12  1  0  0  0  0
 12 13  1  0  0  0  0
 12 16  1  0  0  0  0
 12 30  1  0  0  0  0
 13 15  1  0  0  0  0
 13 14  1  0  0  0  0
 13 31  1  0  0  0  0
 14 15  1  0  0  0  0
 14 32  1  0  0  0  0
 14 33  1  0  0  0  0
 15 34  1  0  0  0  0
 15 35  1  0  0  0  0
 16 20  1  0  0  0  0
 16 17  1  0  0  0  0
 16 44  1  0  0  0  0
 17 18  1  0  0  0  0
 17 36  1  0  0  0  0
 17 37  1  0  0  0  0
 18 19  1  0  0  0  0
 18 38  1  0  0  0  0
 18 39  1  0  0  0  0
 19 20  1  0  0  0  0
 19 40  1  0  0  0  0
 19 41  1  0  0  0  0
 20 42  1  0  0  0  0
 20 43  1  0  0  0  0
M  CHG  1   5   1
M  CHG  1   9  -1
M  CHG  1  16   1
M  END
> <s_m_source_file>
AV-unprocessed.smi

> <i_m_source_file_index>
2252

> <i_lp_mmshare_version>
43012

> <i_f3d_flags>
0

> <s_epik_input>
W0NIM11uMVtjSF1bY0hdbmMxW0NIMl1bQ0gyXVtOSF1DKD1PKVtDQEhdKFtDSF0yW0NIMl1bQ0gyXTIpTjNbQ0gyXVtDSDJdW0NIMl1bQ0gyXTM=

> <s_epik_cmdline>
J2VwaWtfcHl0aG9uJywgJy1waCcsICc3LjAnLCAnLXRuJywgJzgnLCAnLW1hJywgJzIwMCcsICctbWV0YWxfYmluZGluZycsICctaW1hZScsICc8aW5maWxlLm1hZT4nLCAnLW9tYWUnLCAnPG91dGZpbGUubWFlPic=

> <r_lp_tautomer_probability>
1

> <r_epik_Ionization_Penalty>
5.88052

> <r_epik_Ionization_Penalty_Charging>
5.85424

> <r_epik_Ionization_Penalty_Neutral>
0.026272

> <r_epik_State_Penalty>
5.94961

> <r_epik_Charging_Adjusted_Penalty>
11.8039

> <i_epik_Tot_Q>
1

> <i_epik_Tot_abs_Q>
3

> <r_epik_Metal_State_Penalty>
2.20001

> <b_epik_Metal_Only>
1

> <s_lp_Force_Field>
OPLS_2005

> <r_lp_Energy>
29.4432

> <b_lp_Chiralities_Consistent>
1

> <s_lp_Variant>
AV-unprocessed.smi:2252-7

> <Gold.Version>
5.8.1

> <Gold.Id.Protein>
6NUR|6NUR_protein|mol2

> <Gold.PLP.Fitness>
48.3377

> <Gold.PLP.PLP>
-40.0538

> <Gold.PLP.part.hbond>
-2.0000

> <Gold.PLP.part.metal>
0.0000

> <Gold.PLP.part.buried>
-7.8744

> <Gold.PLP.part.nonpolar>
-30.9181

> <Gold.PLP.part.repulsive>
0.3143

> <Gold.PLP.ligand.clash>
0.0000

> <Gold.PLP.ligand.torsion>
1.0367

> <Gold.PLP.Chemscore.Hbond>
2.9920

> <Gold.PLP.Chemscore.CHOScore>
0.0000

> <Gold.PLP.Chemscore.Metal>
0.0000

> <Gold.Chemscore.Hbonds>
donor molecule, donor type, donor heavy atom, donor atom, acceptor molecule, acceptor atom, score
      L1  H     5    45       P1  8028  1.98
      P1  H  7989  7998       L1     9  0.99

> <Gold.PLP.Chemscore.Internal.Correction>
1.3813

> <Gold.Rescore>
     Score         DG    S(hbond)    S(metal)    S(lipo)     H(rot)  DE(clash)    DE(int)     intcor
     13.15     -13.95       1.39        0.00      76.18       1.98       0.01       0.79       ----

> <Gold.Chemscore.Fitness>
13.1474

> <Gold.Chemscore.DG>
-13.9491

> <Gold.Chemscore.ZeroCoef>
-5.4800

> <Gold.Chemscore.Hbond>
1.3855

> <Gold.Chemscore.Metal>
0.0000

> <Gold.Chemscore.Lipo>
76.1759

> <Gold.Chemscore.Internal_Hbond>
0.0000

> <Gold.Chemscore.DEClash>
0.0093

> <Gold.Chemscore.DEInternal>
0.7924

> <Gold.Chemscore.Rot>
1.9809

> <Gold.Chemscore.Internal.Correction>
   9.000000E+99

> <Gold.Chemscore.Hbonds>
donor molecule, donor type, donor heavy atom, donor atom, acceptor molecule, acceptor atom, score
      L1  H     5    45       P1  8028  0.88
      P1  H  7989  7998       L1     9  0.30

> <Gold.Chemscore.Hbond.Weighted>
-4.6276

> <Gold.Chemscore.Metal.Weighted>
-0.0000

> <Gold.Chemscore.Lipo.Weighted>
-8.9126

> <Gold.Chemscore.Internal_Hbond.Weighted>
0.0000

> <Gold.Chemscore.DEClash.Weighted>
0.0093

> <Gold.Chemscore.DEInternal.Weighted>
0.7924

> <Gold.Chemscore.Rot.Weighted>
5.0711

> <Gold.Chemscore.Internal.Correction.Weighted>
   9.000000E+99

> <Gold.Protein.RotatedTorsions>
[ 6907 6896 6895 6894 ] final   74.65 input  -60.11 | X-H torsion
[ 7974 7965 7964 7962 ] final  -50.54 input  175.53 | X-H torsion
[ 8008 7997 7996 7995 ] final  -24.91 input   59.86 | X-H torsion
[ 10167 10162 10161 10158 ] final -155.21 input  -65.29 | X-H torsion
[ 10718 10713 10712 10709 ] final -174.54 input   66.30 | X-H torsion
[ 10763 10752 10751 10750 ] final -128.68 input  -60.55 | X-H torsion
[ 11005 11000 10999 10996 ] final  -76.24 input  -57.11 | X-H torsion

> <Gold.Protein.ActiveResidues>
 VAL166  LYS551  ARG553  GLY616  TRP617  ASP618  TYR619  PRO620  LYS621  CYS622 
 ASP623  PHE694  ASN695  SER759  ASP760  ASP761  ALA762  ILE779  LEU786  VAL792 
 PHE793  MET794  SER795  GLU796  ALA797  LYS798  CYS799  TRP800  GLU811  SER814 

> <Gold.Protein.RotatedAtoms>
  152.4986  134.4239  159.9489 H   0  0  0  0  0  0  0  0  0  0  0  0  # atno 6907 bound_to 6896
  151.4214  133.3691  159.2764 H   0  0  0  0  0  0  0  0  0  0  0  0  # atno 6908 bound_to 6896
  150.9220  134.8660  159.7554 H   0  0  0  0  0  0  0  0  0  0  0  0  # atno 6909 bound_to 6896
  145.9288  140.7768  142.9610 H   0  0  0  0  0  0  0  0  0  0  0  0  # atno 7974 bound_to 7965
  154.4504  140.1941  156.0538 H   0  0  0  0  0  0  0  0  0  0  0  0  # atno 8008 bound_to 7997
  156.0634  140.3294  155.7462 H   0  0  0  0  0  0  0  0  0  0  0  0  # atno 8009 bound_to 7997
  155.5376  140.0583  157.2867 H   0  0  0  0  0  0  0  0  0  0  0  0  # atno 8010 bound_to 7997
  139.6950  143.9358  152.2402 H   0  0  0  0  0  0  0  0  0  0  0  0  # atno 10167 bound_to 10162
  156.7866  130.9502  151.3120 H   0  0  0  0  0  0  0  0  0  0  0  0  # atno 10718 bound_to 10713
  154.8757  135.3920  154.3796 H   0  0  0  0  0  0  0  0  0  0  0  0  # atno 10763 bound_to 10752
  153.4545  135.7028  153.6093 H   0  0  0  0  0  0  0  0  0  0  0  0  # atno 10764 bound_to 10752
  153.4619  135.3810  155.2311 H   0  0  0  0  0  0  0  0  0  0  0  0  # atno 10765 bound_to 10752
  141.1652  133.6976  156.7639 H   0  0  0  0  0  0  0  0  0  0  0  0  # atno 11005 bound_to 11000
  144.6762  140.2093  143.7379 LP  0  0  0  0  0  0  0  0  0  0  0  0  # atno 17320 bound_to 7965
  145.8454  139.2149  143.1803 LP  0  0  0  0  0  0  0  0  0  0  0  0  # atno 17321 bound_to 7965
  139.9184  144.6814  150.8487 LP  0  0  0  0  0  0  0  0  0  0  0  0  # atno 17342 bound_to 10162
  140.7693  143.3392  151.2243 LP  0  0  0  0  0  0  0  0  0  0  0  0  # atno 17343 bound_to 10162
  157.6621  130.8975  149.9852 LP  0  0  0  0  0  0  0  0  0  0  0  0  # atno 17370 bound_to 10713
  156.1185  130.3647  149.9927 LP  0  0  0  0  0  0  0  0  0  0  0  0  # atno 17371 bound_to 10713
  140.2513  134.8538  157.3670 LP  0  0  0  0  0  0  0  0  0  0  0  0  # atno 17394 bound_to 11000
  140.1700  134.4621  155.7838 LP  0  0  0  0  0  0  0  0  0  0  0  0  # atno 17395 bound_to 11000

$$$$
