AV-unprocessed.smi:2862|AV-procd|sdf|11011|dock9
  -GOLD-   2272015473D 1   1.00000     0.00000
 Structure written by MMmdl.
 52 54  0  0  0  0  0  0  0  0  1 V2000
  144.5346  137.2626  153.9918 C   0  0  0  0  0  0  0  0  0  0  0  0
  145.6506  136.6843  153.1044 C   0  0  1  0  0  0  0  0  0  0  0  0
  146.9034  136.5487  153.8470 N   0  0  0  0  0  0  0  0  0  0  0  0
  147.4901  137.4783  154.6189 C   0  0  0  0  0  0  0  0  0  0  0  0
  147.0537  138.6215  154.7600 O   0  0  0  0  0  0  0  0  0  0  0  0
  148.7769  137.0418  155.3346 C   0  0  0  0  0  0  0  0  0  0  0  0
  149.8195  138.0825  155.3225 N   0  0  0  0  0  0  0  0  0  0  0  0
  150.3735  138.4200  154.0709 C   0  0  0  0  0  0  0  0  0  0  0  0
  151.3168  139.3657  153.9385 C   0  0  0  0  0  0  0  0  0  0  0  0
  151.7521  140.0699  155.1203 C   0  0  0  0  0  0  0  0  0  0  0  0
  151.2111  139.7707  156.3198 C   0  0  0  0  0  0  0  0  0  0  0  0
  151.6422  140.4741  157.5309 C   0  0  0  0  0  0  0  0  0  0  0  0
  152.3322  139.9167  158.3851 O   0  0  0  0  0  0  0  0  0  0  0  0
  151.2434  141.7740  157.6579 N   0  0  0  0  0  0  0  0  0  0  0  0
  150.8223  142.6111  156.5209 C   0  0  0  0  0  0  0  0  0  0  0  0
  151.3359  142.5200  158.9314 C   0  0  1  0  0  0  0  0  0  0  0  0
  152.7321  142.3837  159.5718 C   0  0  0  0  0  0  0  0  0  0  0  0
  150.9050  143.9785  158.8489 C   0  0  0  0  0  0  0  0  0  0  0  0
  151.8390  145.0347  158.3077 C   0  0  0  0  0  0  0  0  0  0  0  0
  151.4845  145.0181  159.7778 C   0  0  0  0  0  0  0  0  0  0  0  0
  150.2223  138.6798  156.4875 C   0  0  0  0  0  0  0  0  0  0  0  0
  149.7772  138.3116  157.5788 O   0  0  0  0  0  0  0  0  0  0  0  0
  145.2001  135.4203  152.3869 C   0  0  0  0  0  0  0  0  0  0  0  0
  145.9035  134.9381  151.1414 C   0  0  0  0  0  0  0  0  0  0  0  0
  144.4980  135.4915  151.0523 C   0  0  0  0  0  0  0  0  0  0  0  0
  143.6480  137.4915  153.4001 H   0  0  0  0  0  0  0  0  0  0  0  0
  144.8535  138.1870  154.4741 H   0  0  0  0  0  0  0  0  0  0  0  0
  144.2338  136.5643  154.7730 H   0  0  0  0  0  0  0  0  0  0  0  0
  145.8601  137.4298  152.3361 H   0  0  0  0  0  0  0  0  0  0  0  0
  147.3522  135.6457  153.7943 H   0  0  0  0  0  0  0  0  0  0  0  0
  148.5488  136.7628  156.3654 H   0  0  0  0  0  0  0  0  0  0  0  0
  149.1305  136.1251  154.8610 H   0  0  0  0  0  0  0  0  0  0  0  0
  149.9871  137.8626  153.2301 H   0  0  0  0  0  0  0  0  0  0  0  0
  151.7284  139.6052  152.9691 H   0  0  0  0  0  0  0  0  0  0  0  0
  152.4926  140.8520  155.0301 H   0  0  0  0  0  0  0  0  0  0  0  0
  151.1922  142.2492  155.5610 H   0  0  0  0  0  0  0  0  0  0  0  0
  151.1996  143.6297  156.6158 H   0  0  0  0  0  0  0  0  0  0  0  0
  149.7344  142.6644  156.4708 H   0  0  0  0  0  0  0  0  0  0  0  0
  150.6624  142.0419  159.6448 H   0  0  0  0  0  0  0  0  0  0  0  0
  152.7325  142.7834  160.5862 H   0  0  0  0  0  0  0  0  0  0  0  0
  153.4994  142.9211  159.0150 H   0  0  0  0  0  0  0  0  0  0  0  0
  153.0346  141.3376  159.6337 H   0  0  0  0  0  0  0  0  0  0  0  0
  149.8595  144.1166  158.5825 H   0  0  0  0  0  0  0  0  0  0  0  0
  152.8462  144.7293  158.0308 H   0  0  0  0  0  0  0  0  0  0  0  0
  151.4046  145.8210  157.6937 H   0  0  0  0  0  0  0  0  0  0  0  0
  150.8128  145.7916  160.1442 H   0  0  0  0  0  0  0  0  0  0  0  0
  152.2576  144.7030  160.4757 H   0  0  0  0  0  0  0  0  0  0  0  0
  144.8396  134.6405  153.0551 H   0  0  0  0  0  0  0  0  0  0  0  0
  146.7113  135.5509  150.7460 H   0  0  0  0  0  0  0  0  0  0  0  0
  146.0324  133.8640  151.0240 H   0  0  0  0  0  0  0  0  0  0  0  0
  143.6897  134.7855  150.8722 H   0  0  0  0  0  0  0  0  0  0  0  0
  144.3723  136.4718  150.5965 H   0  0  0  0  0  0  0  0  0  0  0  0
  1  2  1  0  0  0  0
  1 26  1  0  0  0  0
  1 27  1  0  0  0  0
  1 28  1  0  0  0  0
  2  3  1  0  0  0  0
  2 23  1  0  0  0  0
  2 29  1  0  0  0  0
  3  4  1  0  0  0  0
  3 30  1  0  0  0  0
  4  5  2  0  0  0  0
  4  6  1  0  0  0  0
  6  7  1  0  0  0  0
  6 31  1  0  0  0  0
  6 32  1  0  0  0  0
  7 21  1  0  0  0  0
  7  8  1  0  0  0  0
  8  9  2  0  0  0  0
  8 33  1  0  0  0  0
  9 10  1  0  0  0  0
  9 34  1  0  0  0  0
 10 11  2  0  0  0  0
 10 35  1  0  0  0  0
 11 12  1  0  0  0  0
 11 21  1  0  0  0  0
 12 13  2  0  0  0  0
 12 14  1  0  0  0  0
 14 15  1  0  0  0  0
 14 16  1  0  0  0  0
 15 36  1  0  0  0  0
 15 37  1  0  0  0  0
 15 38  1  0  0  0  0
 16 17  1  0  0  0  0
 16 18  1  0  0  0  0
 16 39  1  0  0  0  0
 17 40  1  0  0  0  0
 17 41  1  0  0  0  0
 17 42  1  0  0  0  0
 18 20  1  0  0  0  0
 18 19  1  0  0  0  0
 18 43  1  0  0  0  0
 19 20  1  0  0  0  0
 19 44  1  0  0  0  0
 19 45  1  0  0  0  0
 20 46  1  0  0  0  0
 20 47  1  0  0  0  0
 21 22  2  0  0  0  0
 23 25  1  0  0  0  0
 23 24  1  0  0  0  0
 23 48  1  0  0  0  0
 24 25  1  0  0  0  0
 24 49  1  0  0  0  0
 24 50  1  0  0  0  0
 25 51  1  0  0  0  0
 25 52  1  0  0  0  0
M  END
> <s_m_source_file>
AV-unprocessed.smi

> <i_m_source_file_index>
2862

> <i_lp_mmshare_version>
43012

> <i_f3d_flags>
0

> <s_epik_input>
W0NIMl0xW0NIMl1bQ0hdMVtDQEhdKFtDSDNdKVtOSF1DKD1PKVtDSDJdbjJbY0hdW2NIXVtjSF1jKGMyPU8pQyg9TylOKFtDSDNdKVtDQEhdKFtDSDNdKVtDSF0zW0NIMl1bQ0gyXTM=

> <s_epik_cmdline>
J2VwaWtfcHl0aG9uJywgJy1waCcsICc3LjAnLCAnLXRuJywgJzgnLCAnLW1hJywgJzIwMCcsICctbWV0YWxfYmluZGluZycsICctaW1hZScsICc8aW5maWxlLm1hZT4nLCAnLW9tYWUnLCAnPG91dGZpbGUubWFlPic=

> <r_lp_tautomer_probability>
1

> <r_epik_Ionization_Penalty>
4.00841e-08

> <r_epik_Ionization_Penalty_Charging>
2.07773e-08

> <r_epik_Ionization_Penalty_Neutral>
1.93069e-08

> <r_epik_State_Penalty>
-0

> <r_epik_Charging_Adjusted_Penalty>
2.07773e-08

> <i_epik_Tot_Q>
0

> <i_epik_Tot_abs_Q>
0

> <r_epik_Metal_State_Penalty>
-0

> <b_epik_Metal_Only>
0

> <s_lp_Force_Field>
OPLS_2005

> <r_lp_Energy>
59.5746

> <b_lp_Chiralities_Consistent>
1

> <s_lp_Variant>
AV-unprocessed.smi:2862-4

> <Gold.Version>
5.8.1

> <Gold.Id.Protein>
6NUR|6NUR_protein|mol2

> <Gold.PLP.Fitness>
44.3026

> <Gold.PLP.PLP>
-44.2844

> <Gold.PLP.part.hbond>
-1.0000

> <Gold.PLP.part.metal>
0.0000

> <Gold.PLP.part.buried>
-5.6311

> <Gold.PLP.part.nonpolar>
-36.8146

> <Gold.PLP.part.repulsive>
0.1060

> <Gold.PLP.ligand.clash>
1.7601

> <Gold.PLP.ligand.torsion>
3.0061

> <Gold.PLP.Chemscore.Hbond>
0.0000

> <Gold.PLP.Chemscore.CHOScore>
1.1133

> <Gold.PLP.Chemscore.Metal>
0.0000

> <Gold.Chemscore.Hbonds>
donor molecule, donor type, donor heavy atom, donor atom, acceptor molecule, acceptor atom, score
      L1  C     8    33       P1  7948  1.00
      L1  C     8    33       P1  7949  0.01

> <Gold.PLP.Chemscore.Internal.Correction>
4.4507

> <Gold.Rescore>
     Score         DG    S(hbond)    S(metal)    S(lipo)     H(rot)  DE(clash)    DE(int)     intcor
      9.22     -13.85       0.00        0.00     109.48       1.73       0.07       4.57       ----

> <Gold.Chemscore.Fitness>
9.2171

> <Gold.Chemscore.DG>
-13.8478

> <Gold.Chemscore.ZeroCoef>
-5.4800

> <Gold.Chemscore.Hbond>
0.0000

> <Gold.Chemscore.Metal>
0.0000

> <Gold.Chemscore.Lipo>
109.4781

> <Gold.Chemscore.Internal_Hbond>
0.0000

> <Gold.Chemscore.DEClash>
0.0650

> <Gold.Chemscore.DEInternal>
4.5656

> <Gold.Chemscore.Rot>
1.7348

> <Gold.Chemscore.Internal.Correction>
   9.000000E+99

> <Gold.Chemscore.Hbond.Weighted>
-0.0000

> <Gold.Chemscore.Metal.Weighted>
-0.0000

> <Gold.Chemscore.Lipo.Weighted>
-12.8089

> <Gold.Chemscore.Internal_Hbond.Weighted>
0.0000

> <Gold.Chemscore.DEClash.Weighted>
0.0650

> <Gold.Chemscore.DEInternal.Weighted>
4.5656

> <Gold.Chemscore.Rot.Weighted>
4.4412

> <Gold.Chemscore.Internal.Correction.Weighted>
   9.000000E+99

> <Gold.Protein.RotatedTorsions>
[ 6907 6896 6895 6894 ] final   -6.84 input  -60.11 | X-H torsion
[ 7974 7965 7964 7962 ] final -102.56 input  175.53 | X-H torsion
[ 8008 7997 7996 7995 ] final  167.76 input   59.86 | X-H torsion
[ 10167 10162 10161 10158 ] final  -40.00 input  -65.29 | X-H torsion
[ 10718 10713 10712 10709 ] final   32.77 input   66.30 | X-H torsion
[ 10763 10752 10751 10750 ] final -144.32 input  -60.55 | X-H torsion
[ 11005 11000 10999 10996 ] final  -51.26 input  -57.11 | X-H torsion

> <Gold.Protein.ActiveResidues>
 VAL166  LYS551  ARG553  GLY616  TRP617  ASP618  TYR619  PRO620  LYS621  CYS622 
 ASP623  PHE694  ASN695  SER759  ASP760  ASP761  ALA762  ILE779  LEU786  VAL792 
 PHE793  MET794  SER795  GLU796  ALA797  LYS798  CYS799  TRP800  GLU811  SER814 

> <Gold.Protein.RotatedAtoms>
  151.4592  135.1037  159.9719 H   0  0  0  0  0  0  0  0  0  0  0  0  # atno 6907 bound_to 6896
  152.4859  133.8368  159.7142 H   0  0  0  0  0  0  0  0  0  0  0  0  # atno 6908 bound_to 6896
  150.8969  133.7110  159.2916 H   0  0  0  0  0  0  0  0  0  0  0  0  # atno 6909 bound_to 6896
  145.2672  140.9287  143.3007 H   0  0  0  0  0  0  0  0  0  0  0  0  # atno 7974 bound_to 7965
  156.1606  140.1608  156.8618 H   0  0  0  0  0  0  0  0  0  0  0  0  # atno 8008 bound_to 7997
  154.5157  140.0790  156.8112 H   0  0  0  0  0  0  0  0  0  0  0  0  # atno 8009 bound_to 7997
  155.3714  140.3400  155.4245 H   0  0  0  0  0  0  0  0  0  0  0  0  # atno 8010 bound_to 7997
  140.7047  143.3180  151.2862 H   0  0  0  0  0  0  0  0  0  0  0  0  # atno 10167 bound_to 10162
  157.2894  130.7295  149.6602 H   0  0  0  0  0  0  0  0  0  0  0  0  # atno 10718 bound_to 10713
  154.8433  135.3443  154.6327 H   0  0  0  0  0  0  0  0  0  0  0  0  # atno 10763 bound_to 10752
  153.6937  135.6973  153.5087 H   0  0  0  0  0  0  0  0  0  0  0  0  # atno 10764 bound_to 10752
  153.2575  135.4333  155.0816 H   0  0  0  0  0  0  0  0  0  0  0  0  # atno 10765 bound_to 10752
  141.0861  133.6642  156.3851 H   0  0  0  0  0  0  0  0  0  0  0  0  # atno 11005 bound_to 11000
  144.9367  139.4236  143.6469 LP  0  0  0  0  0  0  0  0  0  0  0  0  # atno 17320 bound_to 7965
  146.3257  139.8305  142.8909 LP  0  0  0  0  0  0  0  0  0  0  0  0  # atno 17321 bound_to 7965
  139.6625  144.0164  152.2701 LP  0  0  0  0  0  0  0  0  0  0  0  0  # atno 17342 bound_to 10162
  139.9736  144.6477  150.7966 LP  0  0  0  0  0  0  0  0  0  0  0  0  # atno 17343 bound_to 10162
  155.9666  130.4313  150.4915 LP  0  0  0  0  0  0  0  0  0  0  0  0  # atno 17370 bound_to 10713
  157.2875  131.0619  151.2156 LP  0  0  0  0  0  0  0  0  0  0  0  0  # atno 17371 bound_to 10713
  140.5359  134.6167  157.5365 LP  0  0  0  0  0  0  0  0  0  0  0  0  # atno 17394 bound_to 11000
  139.9680  134.7341  156.0099 LP  0  0  0  0  0  0  0  0  0  0  0  0  # atno 17395 bound_to 11000

$$$$
