AV-unprocessed.smi:3251|AV-procd|sdf|12436|dock8
  -GOLD-   2272018323D 1   1.00000     0.00000
 Structure written by MMmdl.
 41 42  0  0  0  0  0  0  0  0  2 V2000
  143.5340  135.0991  152.3198 C   0  0  0  0  0  0  0  0  0  0  0  0
  144.5933  136.0952  151.9445 C   0  0  0  0  0  0  0  0  0  0  0  0
  145.4458  136.0746  150.8044 C   0  0  0  0  0  0  0  0  0  0  0  0
  146.2755  137.1045  150.7645 N   0  0  0  0  0  0  0  0  0  0  0  0
  145.9836  137.8162  151.8738 N   0  0  0  0  0  0  0  0  0  0  0  0
  146.7078  139.0420  152.1570 C   0  0  0  0  0  0  0  0  0  0  0  0
  147.4520  138.9774  153.4997 C   0  0  0  0  0  0  0  0  0  0  0  0
  148.9157  138.8804  153.3043 N   0  3  0  0  0  0  0  0  0  0  0  0
  149.7316  139.0873  154.5224 C   0  0  1  0  0  0  0  0  0  0  0  0
  151.1087  138.4321  154.3292 C   0  0  0  0  0  0  0  0  0  0  0  0
  149.9024  140.5862  154.8433 C   0  0  0  0  0  0  0  0  0  0  0  0
  149.4142  141.4174  154.0757 O   0  0  0  0  0  0  0  0  0  0  0  0
  150.5898  140.9515  155.9469 N   0  0  0  0  0  0  0  0  0  0  0  0
  150.8010  142.3462  156.3324 C   0  0  0  0  0  0  0  0  0  0  0  0
  151.3784  142.3046  157.7473 C   0  0  0  0  0  0  0  0  0  0  0  0
  152.0550  140.9442  157.8310 C   0  0  0  0  0  0  0  0  0  0  0  0
  151.2132  140.0523  156.9185 C   0  0  0  0  0  0  0  0  0  0  0  0
  144.9710  137.2308  152.6036 C   0  0  0  0  0  0  0  0  0  0  0  0
  143.8170  134.0841  152.0399 H   0  0  0  0  0  0  0  0  0  0  0  0
  142.5866  135.3163  151.8265 H   0  0  0  0  0  0  0  0  0  0  0  0
  143.3444  135.0937  153.3934 H   0  0  0  0  0  0  0  0  0  0  0  0
  145.4861  135.3447  150.0091 H   0  0  0  0  0  0  0  0  0  0  0  0
  147.4203  139.2092  151.3483 H   0  0  0  0  0  0  0  0  0  0  0  0
  146.0121  139.8826  152.1382 H   0  0  0  0  0  0  0  0  0  0  0  0
  147.2070  139.8563  154.0973 H   0  0  0  0  0  0  0  0  0  0  0  0
  147.1150  138.1068  154.0628 H   0  0  0  0  0  0  0  0  0  0  0  0
  149.1161  137.9595  152.9419 H   0  0  0  0  0  0  0  0  0  0  0  0
  149.2204  138.5775  155.3391 H   0  0  0  0  0  0  0  0  0  0  0  0
  151.7389  138.5511  155.2114 H   0  0  0  0  0  0  0  0  0  0  0  0
  151.6424  138.8648  153.4817 H   0  0  0  0  0  0  0  0  0  0  0  0
  151.0089  137.3621  154.1447 H   0  0  0  0  0  0  0  0  0  0  0  0
  151.5128  142.8009  155.6416 H   0  0  0  0  0  0  0  0  0  0  0  0
  149.8781  142.9276  156.2998 H   0  0  0  0  0  0  0  0  0  0  0  0
  152.0607  143.1304  157.9508 H   0  0  0  0  0  0  0  0  0  0  0  0
  150.5673  142.3543  158.4749 H   0  0  0  0  0  0  0  0  0  0  0  0
  153.0696  141.0171  157.4368 H   0  0  0  0  0  0  0  0  0  0  0  0
  152.1197  140.5655  158.8514 H   0  0  0  0  0  0  0  0  0  0  0  0
  150.4320  139.5542  157.4947 H   0  0  0  0  0  0  0  0  0  0  0  0
  151.8305  139.2875  156.4466 H   0  0  0  0  0  0  0  0  0  0  0  0
  144.6058  137.6659  153.5224 H   0  0  0  0  0  0  0  0  0  0  0  0
  149.1970  139.5632  152.6141 H   0  0  0  0  0  0  0  0  0  0  0  0
  1  2  1  0  0  0  0
  1 19  1  0  0  0  0
  1 20  1  0  0  0  0
  1 21  1  0  0  0  0
  2 18  2  0  0  0  0
  2  3  1  0  0  0  0
  3  4  2  0  0  0  0
  3 22  1  0  0  0  0
  4  5  1  0  0  0  0
  5  6  1  0  0  0  0
  5 18  1  0  0  0  0
  6  7  1  0  0  0  0
  6 23  1  0  0  0  0
  6 24  1  0  0  0  0
  7  8  1  0  0  0  0
  7 25  1  0  0  0  0
  7 26  1  0  0  0  0
  8  9  1  0  0  0  0
  8 27  1  0  0  0  0
  8 41  1  0  0  0  0
  9 10  1  0  0  0  0
  9 11  1  0  0  0  0
  9 28  1  0  0  0  0
 10 29  1  0  0  0  0
 10 30  1  0  0  0  0
 10 31  1  0  0  0  0
 11 12  2  0  0  0  0
 11 13  1  0  0  0  0
 13 17  1  0  0  0  0
 13 14  1  0  0  0  0
 14 15  1  0  0  0  0
 14 32  1  0  0  0  0
 14 33  1  0  0  0  0
 15 16  1  0  0  0  0
 15 34  1  0  0  0  0
 15 35  1  0  0  0  0
 16 17  1  0  0  0  0
 16 36  1  0  0  0  0
 16 37  1  0  0  0  0
 17 38  1  0  0  0  0
 17 39  1  0  0  0  0
 18 40  1  0  0  0  0
M  CHG  1   8   1
M  END
> <s_m_source_file>
AV-unprocessed.smi

> <i_m_source_file_index>
3251

> <i_lp_mmshare_version>
43012

> <i_f3d_flags>
0

> <s_epik_input>
W0NIM11jMVtjSF1ubihbY0hdMSlbQ0gyXVtDSDJdW05IXVtDQEhdKFtDSDNdKUMoPU8pTjJbQ0gyXVtDSDJdW0NIMl1bQ0gyXTI=

> <s_epik_cmdline>
J2VwaWtfcHl0aG9uJywgJy1waCcsICc3LjAnLCAnLXRuJywgJzgnLCAnLW1hJywgJzIwMCcsICctbWV0YWxfYmluZGluZycsICctaW1hZScsICc8aW5maWxlLm1hZT4nLCAnLW9tYWUnLCAnPG91dGZpbGUubWFlPic=

> <r_lp_tautomer_probability>
1

> <r_epik_Ionization_Penalty>
0.203173

> <r_epik_Ionization_Penalty_Charging>
0.203168

> <r_epik_Ionization_Penalty_Neutral>
5.06494e-06

> <r_epik_State_Penalty>
0.193072

> <r_epik_Charging_Adjusted_Penalty>
0.39624

> <i_epik_Tot_Q>
1

> <i_epik_Tot_abs_Q>
1

> <r_epik_Metal_State_Penalty>
0.193587

> <b_epik_Metal_Only>
0

> <s_lp_Force_Field>
OPLS_2005

> <r_lp_Energy>
29.7429

> <b_lp_Chiralities_Consistent>
1

> <s_lp_Variant>
AV-unprocessed.smi:3251-2

> <Gold.Version>
5.8.1

> <Gold.Id.Protein>
6NUR|6NUR_protein|mol2

> <Gold.PLP.Fitness>
51.7959

> <Gold.PLP.PLP>
-36.3384

> <Gold.PLP.part.hbond>
-4.9562

> <Gold.PLP.part.metal>
0.0000

> <Gold.PLP.part.buried>
1.4156

> <Gold.PLP.part.nonpolar>
-34.9467

> <Gold.PLP.part.repulsive>
2.5435

> <Gold.PLP.ligand.clash>
0.0000

> <Gold.PLP.ligand.torsion>
0.5938

> <Gold.PLP.Chemscore.Hbond>
4.5265

> <Gold.PLP.Chemscore.CHOScore>
1.0000

> <Gold.PLP.Chemscore.Metal>
0.0000

> <Gold.Chemscore.Hbonds>
donor molecule, donor type, donor heavy atom, donor atom, acceptor molecule, acceptor atom, score
      L1  H     8    27       P1  7948  2.00
      L1  H     8    41       P1  7957  1.00
      P1  H  7954  7966       L1     4  0.54
      P1  H  8011  8017       L1    12  0.69
      L1  C     3    22       P1  7921  1.00

> <Gold.PLP.Chemscore.Internal.Correction>
0.0657

> <Gold.Rescore>
     Score         DG    S(hbond)    S(metal)    S(lipo)     H(rot)  DE(clash)    DE(int)     intcor
     17.31     -19.25       2.74        0.00      77.86       1.76       1.28       0.66       ----

> <Gold.Chemscore.Fitness>
17.3064

> <Gold.Chemscore.DG>
-19.2494

> <Gold.Chemscore.ZeroCoef>
-5.4800

> <Gold.Chemscore.Hbond>
2.7440

> <Gold.Chemscore.Metal>
0.0000

> <Gold.Chemscore.Lipo>
77.8599

> <Gold.Chemscore.Internal_Hbond>
0.0000

> <Gold.Chemscore.DEClash>
1.2818

> <Gold.Chemscore.DEInternal>
0.6612

> <Gold.Chemscore.Rot>
1.7599

> <Gold.Chemscore.Internal.Correction>
   9.000000E+99

> <Gold.Chemscore.Hbonds>
donor molecule, donor type, donor heavy atom, donor atom, acceptor molecule, acceptor atom, score
      L1  H     8    27       P1  7948  0.94
      L1  H     8    41       P1  7957  0.95
      P1  H  7954  7966       L1     4  0.39
      P1  H  8011  8017       L1    12  0.64

> <Gold.Chemscore.Hbond.Weighted>
-9.1651

> <Gold.Chemscore.Metal.Weighted>
-0.0000

> <Gold.Chemscore.Lipo.Weighted>
-9.1096

> <Gold.Chemscore.Internal_Hbond.Weighted>
0.0000

> <Gold.Chemscore.DEClash.Weighted>
1.2818

> <Gold.Chemscore.DEInternal.Weighted>
0.6612

> <Gold.Chemscore.Rot.Weighted>
4.5053

> <Gold.Chemscore.Internal.Correction.Weighted>
   9.000000E+99

> <Gold.Protein.RotatedTorsions>
[ 6907 6896 6895 6894 ] final  135.11 input  -60.11 | X-H torsion
[ 7974 7965 7964 7962 ] final  106.00 input  175.53 | X-H torsion
[ 8008 7997 7996 7995 ] final   41.04 input   59.86 | X-H torsion
[ 10167 10162 10161 10158 ] final  -44.66 input  -65.29 | X-H torsion
[ 10718 10713 10712 10709 ] final  -31.82 input   66.30 | X-H torsion
[ 10763 10752 10751 10750 ] final   65.70 input  -60.55 | X-H torsion
[ 11005 11000 10999 10996 ] final   30.78 input  -57.11 | X-H torsion

> <Gold.Protein.ActiveResidues>
 VAL166  LYS551  ARG553  GLY616  TRP617  ASP618  TYR619  PRO620  LYS621  CYS622 
 ASP623  PHE694  ASN695  SER759  ASP760  ASP761  ALA762  ILE779  LEU786  VAL792 
 PHE793  MET794  SER795  GLU796  ALA797  LYS798  CYS799  TRP800  GLU811  SER814 

> <Gold.Protein.RotatedAtoms>
  152.3040  133.5684  159.5636 H   0  0  0  0  0  0  0  0  0  0  0  0  # atno 6907 bound_to 6896
  150.7291  134.0250  159.3723 H   0  0  0  0  0  0  0  0  0  0  0  0  # atno 6908 bound_to 6896
  151.8147  135.0670  160.0468 H   0  0  0  0  0  0  0  0  0  0  0  0  # atno 6909 bound_to 6896
  145.3124  139.2536  143.3756 H   0  0  0  0  0  0  0  0  0  0  0  0  # atno 7974 bound_to 7965
  155.2631  140.3360  155.4271 H   0  0  0  0  0  0  0  0  0  0  0  0  # atno 8008 bound_to 7997
  156.2166  140.1791  156.7618 H   0  0  0  0  0  0  0  0  0  0  0  0  # atno 8009 bound_to 7997
  154.5762  140.0661  156.9022 H   0  0  0  0  0  0  0  0  0  0  0  0  # atno 8010 bound_to 7997
  140.6888  143.2919  151.3527 H   0  0  0  0  0  0  0  0  0  0  0  0  # atno 10167 bound_to 10162
  156.3826  130.4358  149.7457 H   0  0  0  0  0  0  0  0  0  0  0  0  # atno 10718 bound_to 10713
  153.0108  135.5347  154.6709 H   0  0  0  0  0  0  0  0  0  0  0  0  # atno 10763 bound_to 10752
  154.5894  135.2857  155.0653 H   0  0  0  0  0  0  0  0  0  0  0  0  # atno 10764 bound_to 10752
  154.1752  135.6525  153.5072 H   0  0  0  0  0  0  0  0  0  0  0  0  # atno 10765 bound_to 10752
  140.2907  134.2867  155.7776 H   0  0  0  0  0  0  0  0  0  0  0  0  # atno 11005 bound_to 11000
  146.3113  140.3663  142.8670 LP  0  0  0  0  0  0  0  0  0  0  0  0  # atno 17320 bound_to 7965
  144.9005  140.7636  143.5870 LP  0  0  0  0  0  0  0  0  0  0  0  0  # atno 17321 bound_to 7965
  139.6271  144.0793  152.2444 LP  0  0  0  0  0  0  0  0  0  0  0  0  # atno 17342 bound_to 10162
  140.0256  144.6120  150.7530 LP  0  0  0  0  0  0  0  0  0  0  0  0  # atno 17343 bound_to 10162
  156.4542  130.7921  151.2942 LP  0  0  0  0  0  0  0  0  0  0  0  0  # atno 17370 bound_to 10713
  157.7493  131.0086  150.3235 LP  0  0  0  0  0  0  0  0  0  0  0  0  # atno 17371 bound_to 10713
  141.2146  133.7583  156.9621 LP  0  0  0  0  0  0  0  0  0  0  0  0  # atno 17394 bound_to 11000
  140.1198  134.9424  157.2186 LP  0  0  0  0  0  0  0  0  0  0  0  0  # atno 17395 bound_to 11000

$$$$
