AV-unprocessed.smi:21|AV-procd|sdf|157|dock5
  -GOLD-   2262015383D 1   1.00000     0.00000
 Structure written by MMmdl.
 61 64  0  0  0  0  0  0  0  0  1 V2000
  152.8488  142.9965  162.8411 C   0  0  0  0  0  0  0  0  0  0  0  0
  152.1920  143.3228  161.6267 O   0  0  0  0  0  0  0  0  0  0  0  0
  152.9533  143.0076  160.4687 C   0  0  1  0  0  0  0  0  0  0  0  0
  153.0160  141.4912  160.2168 C   0  0  0  0  0  0  0  0  0  0  0  0
  152.6154  141.3400  158.7454 C   0  0  1  0  0  0  0  0  0  0  0  0
  152.0796  139.9337  158.4032 C   0  0  0  0  0  0  0  0  0  0  0  0
  153.1433  138.9487  158.2084 N   0  0  0  0  0  0  0  0  0  0  0  0
  152.8144  137.7318  157.4700 C   0  0  0  0  0  0  0  0  0  0  0  0
  154.0091  138.8248  159.2473 C   0  0  0  0  0  0  0  0  0  0  0  0
  155.1141  139.6161  159.3034 N   0  0  0  0  0  0  0  0  0  0  0  0
  155.9814  139.4950  160.3123 C   0  0  0  0  0  0  0  0  0  0  0  0
  155.9349  138.6674  161.3573 N   0  0  0  0  0  0  0  0  0  0  0  0
  154.8238  137.8781  161.3161 C   0  0  0  0  0  0  0  0  0  0  0  0
  153.8225  137.8883  160.3036 C   0  0  0  0  0  0  0  0  0  0  0  0
  152.8461  136.9459  160.5989 N   0  0  0  0  0  0  0  0  0  0  0  0
  153.2504  136.4032  161.7138 C   0  0  0  0  0  0  0  0  0  0  0  0
  154.4210  136.9151  162.2274 N   0  0  0  0  0  0  0  0  0  0  0  0
  155.0928  136.5028  163.4523 C   0  0  0  0  0  0  0  0  0  0  0  0
  155.4800  134.9986  163.4991 C   0  0  1  0  0  0  0  0  0  0  0  0
  156.5190  134.6973  164.6049 C   0  0  0  0  0  0  0  0  0  0  0  0
  157.6123  135.5873  164.5227 O   0  0  0  0  0  0  0  0  0  0  0  0
  154.2422  134.0703  163.6173 C   0  0  2  0  0  0  0  0  0  0  0  0
  153.6179  134.0041  165.0016 C   0  0  0  0  0  0  0  0  0  0  0  0
  152.8020  132.7162  164.9389 C   0  0  0  0  0  0  0  0  0  0  0  0
  153.4747  131.8720  164.0116 O   0  0  0  0  0  0  0  0  0  0  0  0
  154.5409  132.5837  163.3946 C   0  0  0  0  0  0  0  0  0  0  0  0
  151.6654  142.4179  158.5291 N   0  0  0  0  0  0  0  0  0  0  0  0
  151.4050  142.7022  157.1241 C   0  0  0  0  0  0  0  0  0  0  0  0
  152.2496  143.5547  159.2193 C   0  0  0  0  0  0  0  0  0  0  0  0
  153.9520  143.4425  160.5365 H   0  0  0  0  0  0  0  0  0  0  0  0
  153.4986  141.5433  158.1382 H   0  0  0  0  0  0  0  0  0  0  0  0
  152.2179  143.2797  163.6832 H   0  0  0  0  0  0  0  0  0  0  0  0
  153.7930  143.5344  162.9349 H   0  0  0  0  0  0  0  0  0  0  0  0
  153.0464  141.9270  162.9178 H   0  0  0  0  0  0  0  0  0  0  0  0
  153.9988  141.0690  160.4285 H   0  0  0  0  0  0  0  0  0  0  0  0
  152.2891  140.9834  160.8506 H   0  0  0  0  0  0  0  0  0  0  0  0
  151.3781  139.6155  159.1748 H   0  0  0  0  0  0  0  0  0  0  0  0
  151.5036  139.9729  157.4787 H   0  0  0  0  0  0  0  0  0  0  0  0
  153.7053  137.1275  157.2947 H   0  0  0  0  0  0  0  0  0  0  0  0
  152.3882  137.9695  156.4962 H   0  0  0  0  0  0  0  0  0  0  0  0
  152.0902  137.1299  158.0200 H   0  0  0  0  0  0  0  0  0  0  0  0
  156.8355  140.1551  160.2767 H   0  0  0  0  0  0  0  0  0  0  0  0
  152.6945  135.6129  162.1947 H   0  0  0  0  0  0  0  0  0  0  0  0
  155.9759  137.1285  163.5817 H   0  0  0  0  0  0  0  0  0  0  0  0
  154.4432  136.7461  164.2938 H   0  0  0  0  0  0  0  0  0  0  0  0
  155.9565  134.7684  162.5447 H   0  0  0  0  0  0  0  0  0  0  0  0
  156.0728  134.7535  165.5978 H   0  0  0  0  0  0  0  0  0  0  0  0
  156.9244  133.6917  164.4995 H   0  0  0  0  0  0  0  0  0  0  0  0
  157.9184  135.7696  165.3981 H   0  0  0  0  0  0  0  0  0  0  0  0
  153.4705  134.3869  162.9144 H   0  0  0  0  0  0  0  0  0  0  0  0
  154.3926  133.9166  165.7652 H   0  0  0  0  0  0  0  0  0  0  0  0
  153.0003  134.8701  165.2411 H   0  0  0  0  0  0  0  0  0  0  0  0
  152.7071  132.2393  165.9147 H   0  0  0  0  0  0  0  0  0  0  0  0
  151.7993  132.9167  164.5599 H   0  0  0  0  0  0  0  0  0  0  0  0
  154.6266  132.3163  162.3421 H   0  0  0  0  0  0  0  0  0  0  0  0
  155.4717  132.2998  163.8876 H   0  0  0  0  0  0  0  0  0  0  0  0
  150.7320  143.5542  157.0242 H   0  0  0  0  0  0  0  0  0  0  0  0
  150.9323  141.8519  156.6333 H   0  0  0  0  0  0  0  0  0  0  0  0
  152.3273  142.9340  156.5898 H   0  0  0  0  0  0  0  0  0  0  0  0
  151.4955  144.3059  159.4566 H   0  0  0  0  0  0  0  0  0  0  0  0
  152.9947  144.0330  158.5814 H   0  0  0  0  0  0  0  0  0  0  0  0
  1  2  1  0  0  0  0
  1 32  1  0  0  0  0
  1 33  1  0  0  0  0
  1 34  1  0  0  0  0
  2  3  1  0  0  0  0
  3 30  1  0  0  0  0
  3 29  1  0  0  0  0
  3  4  1  0  0  0  0
  4  5  1  0  0  0  0
  4 35  1  0  0  0  0
  4 36  1  0  0  0  0
  5 31  1  0  0  0  0
  5  6  1  0  0  0  0
  5 27  1  0  0  0  0
  6  7  1  0  0  0  0
  6 37  1  0  0  0  0
  6 38  1  0  0  0  0
  7  8  1  0  0  0  0
  7  9  1  0  0  0  0
  8 39  1  0  0  0  0
  8 40  1  0  0  0  0
  8 41  1  0  0  0  0
  9 14  1  0  0  0  0
  9 10  2  0  0  0  0
 10 11  1  0  0  0  0
 11 12  2  0  0  0  0
 11 42  1  0  0  0  0
 12 13  1  0  0  0  0
 13 17  1  0  0  0  0
 13 14  2  0  0  0  0
 14 15  1  0  0  0  0
 15 16  2  0  0  0  0
 16 17  1  0  0  0  0
 16 43  1  0  0  0  0
 17 18  1  0  0  0  0
 18 19  1  0  0  0  0
 18 44  1  0  0  0  0
 18 45  1  0  0  0  0
 19 20  1  0  0  0  0
 19 22  1  0  0  0  0
 19 46  1  0  0  0  0
 20 21  1  0  0  0  0
 20 47  1  0  0  0  0
 20 48  1  0  0  0  0
 21 49  1  0  0  0  0
 22 26  1  0  0  0  0
 22 23  1  0  0  0  0
 22 50  1  0  0  0  0
 23 24  1  0  0  0  0
 23 51  1  0  0  0  0
 23 52  1  0  0  0  0
 24 25  1  0  0  0  0
 24 53  1  0  0  0  0
 24 54  1  0  0  0  0
 25 26  1  0  0  0  0
 26 55  1  0  0  0  0
 26 56  1  0  0  0  0
 27 28  1  0  0  0  0
 27 29  1  0  0  0  0
 28 57  1  0  0  0  0
 28 58  1  0  0  0  0
 28 59  1  0  0  0  0
 29 60  1  0  0  0  0
 29 61  1  0  0  0  0
M  END
> <s_m_source_file>
AV-unprocessed.smi

> <i_m_source_file_index>
21

> <i_lp_mmshare_version>
43012

> <i_f3d_flags>
0

> <s_epik_input>
W0NIM11PW0NASF0xW0NIMl1bQ0BIXShOKFtDSDNdKVtDSDJdMSlbQ0gyXU4oW0NIM10pYyhuW2NIXW4yKWMoYzIzKW5bY0hdbjNbQ0gyXVtDQEhdKFtDSDJdW09IXSlbQ0BASF00W0NIMl1bQ0gyXU9bQ0gyXTQ=

> <s_epik_cmdline>
J2VwaWtfcHl0aG9uJywgJy1waCcsICc3LjAnLCAnLXRuJywgJzgnLCAnLW1hJywgJzIwMCcsICctbWV0YWxfYmluZGluZycsICctaW1hZScsICc8aW5maWxlLm1hZT4nLCAnLW9tYWUnLCAnPG91dGZpbGUubWFlPic=

> <r_lp_tautomer_probability>
1

> <r_epik_Ionization_Penalty>
2.17574

> <r_epik_Ionization_Penalty_Charging>
0

> <r_epik_Ionization_Penalty_Neutral>
2.17574

> <r_epik_State_Penalty>
2.31336

> <r_epik_Charging_Adjusted_Penalty>
2.31336

> <i_epik_Tot_Q>
0

> <i_epik_Tot_abs_Q>
0

> <r_epik_Metal_State_Penalty>
2.31025

> <b_epik_Metal_Only>
0

> <s_lp_Force_Field>
OPLS_2005

> <r_lp_Energy>
71.0879

> <b_lp_Chiralities_Consistent>
1

> <s_lp_Variant>
AV-unprocessed.smi:21-37

> <Gold.Version>
5.8.1

> <Gold.Id.Protein>
6NUR|6NUR_protein|mol2

> <Gold.PLP.Fitness>
45.7189

> <Gold.PLP.PLP>
-42.3290

> <Gold.PLP.part.hbond>
-1.9940

> <Gold.PLP.part.metal>
0.0000

> <Gold.PLP.part.buried>
-6.7597

> <Gold.PLP.part.nonpolar>
-34.0653

> <Gold.PLP.part.repulsive>
0.1390

> <Gold.PLP.ligand.clash>
0.0000

> <Gold.PLP.ligand.torsion>
0.9868

> <Gold.PLP.Chemscore.Hbond>
1.4030

> <Gold.PLP.Chemscore.CHOScore>
0.0000

> <Gold.PLP.Chemscore.Metal>
0.0000

> <Gold.Chemscore.Hbonds>
donor molecule, donor type, donor heavy atom, donor atom, acceptor molecule, acceptor atom, score
      P1  H  6896  6908       L1    15  0.36
      P1  H  7997  8008       L1    10  0.96

> <Gold.PLP.Chemscore.Internal.Correction>
1.1545

> <Gold.Rescore>
     Score         DG    S(hbond)    S(metal)    S(lipo)     H(rot)  DE(clash)    DE(int)     intcor
     12.93     -13.90       1.13        0.00     110.96       3.26       0.00       0.96       ----

> <Gold.Chemscore.Fitness>
12.9345

> <Gold.Chemscore.DG>
-13.8991

> <Gold.Chemscore.ZeroCoef>
-5.4800

> <Gold.Chemscore.Hbond>
1.1307

> <Gold.Chemscore.Metal>
0.0000

> <Gold.Chemscore.Lipo>
110.9593

> <Gold.Chemscore.Internal_Hbond>
0.0000

> <Gold.Chemscore.DEClash>
0.0015

> <Gold.Chemscore.DEInternal>
0.9632

> <Gold.Chemscore.Rot>
3.2576

> <Gold.Chemscore.Internal.Correction>
   9.000000E+99

> <Gold.Chemscore.Hbonds>
donor molecule, donor type, donor heavy atom, donor atom, acceptor molecule, acceptor atom, score
      P1  H  6896  6908       L1    15  0.02
      P1  H  7997  8008       L1    10  0.43

> <Gold.Chemscore.Hbond.Weighted>
-3.7764

> <Gold.Chemscore.Metal.Weighted>
-0.0000

> <Gold.Chemscore.Lipo.Weighted>
-12.9822

> <Gold.Chemscore.Internal_Hbond.Weighted>
0.0000

> <Gold.Chemscore.DEClash.Weighted>
0.0015

> <Gold.Chemscore.DEInternal.Weighted>
0.9632

> <Gold.Chemscore.Rot.Weighted>
8.3395

> <Gold.Chemscore.Internal.Correction.Weighted>
   9.000000E+99

> <Gold.Protein.RotatedTorsions>
[ 6907 6896 6895 6894 ] final -105.26 input  -60.11 | X-H torsion
[ 7974 7965 7964 7962 ] final  171.42 input  175.53 | X-H torsion
[ 8008 7997 7996 7995 ] final -146.11 input   59.86 | X-H torsion
[ 10167 10162 10161 10158 ] final  147.64 input  -65.29 | X-H torsion
[ 10718 10713 10712 10709 ] final -133.82 input   66.30 | X-H torsion
[ 10763 10752 10751 10750 ] final -105.11 input  -60.55 | X-H torsion
[ 11005 11000 10999 10996 ] final  126.43 input  -57.11 | X-H torsion

> <Gold.Protein.ActiveResidues>
 VAL166  LYS551  ARG553  GLY616  TRP617  ASP618  TYR619  PRO620  LYS621  CYS622 
 ASP623  PHE694  ASN695  SER759  ASP760  ASP761  ALA762  ILE779  LEU786  VAL792 
 PHE793  MET794  SER795  GLU796  ALA797  LYS798  CYS799  TRP800  GLU811  SER814 

> <Gold.Protein.RotatedAtoms>
  150.7328  134.0153  159.3683 H   0  0  0  0  0  0  0  0  0  0  0  0  # atno 6907 bound_to 6896
  151.8115  135.0677  160.0423 H   0  0  0  0  0  0  0  0  0  0  0  0  # atno 6908 bound_to 6896
  152.3069  133.5676  159.5691 H   0  0  0  0  0  0  0  0  0  0  0  0  # atno 6909 bound_to 6896
  144.7295  139.9348  143.6426 H   0  0  0  0  0  0  0  0  0  0  0  0  # atno 7974 bound_to 7965
  155.5541  140.0619  157.2843 H   0  0  0  0  0  0  0  0  0  0  0  0  # atno 8008 bound_to 7997
  154.4411  140.1897  156.0760 H   0  0  0  0  0  0  0  0  0  0  0  0  # atno 8009 bound_to 7997
  156.0495  140.3286  155.7338 H   0  0  0  0  0  0  0  0  0  0  0  0  # atno 8010 bound_to 7997
  139.4887  144.5740  151.7001 H   0  0  0  0  0  0  0  0  0  0  0  0  # atno 10167 bound_to 10162
  156.2490  130.7141  151.1033 H   0  0  0  0  0  0  0  0  0  0  0  0  # atno 10718 bound_to 10713
  154.7924  135.4761  154.0084 H   0  0  0  0  0  0  0  0  0  0  0  0  # atno 10763 bound_to 10752
  153.1652  135.6815  153.8693 H   0  0  0  0  0  0  0  0  0  0  0  0  # atno 10764 bound_to 10752
  153.8293  135.3194  155.3395 H   0  0  0  0  0  0  0  0  0  0  0  0  # atno 10765 bound_to 10752
  139.9456  134.9630  156.8706 H   0  0  0  0  0  0  0  0  0  0  0  0  # atno 11005 bound_to 11000
  146.0830  139.3818  143.0453 LP  0  0  0  0  0  0  0  0  0  0  0  0  # atno 17320 bound_to 7965
  145.7815  140.9854  143.1097 LP  0  0  0  0  0  0  0  0  0  0  0  0  # atno 17321 bound_to 7965
  140.5332  144.0697  150.6061 LP  0  0  0  0  0  0  0  0  0  0  0  0  # atno 17342 bound_to 10162
  140.3694  143.2863  152.0295 LP  0  0  0  0  0  0  0  0  0  0  0  0  # atno 17343 bound_to 10162
  157.7206  131.0683  150.6149 LP  0  0  0  0  0  0  0  0  0  0  0  0  # atno 17370 bound_to 10713
  156.6227  130.4410  149.5816 LP  0  0  0  0  0  0  0  0  0  0  0  0  # atno 17371 bound_to 10713
  140.5843  134.0322  155.7476 LP  0  0  0  0  0  0  0  0  0  0  0  0  # atno 17394 bound_to 11000
  141.1105  133.9624  157.2919 LP  0  0  0  0  0  0  0  0  0  0  0  0  # atno 17395 bound_to 11000

$$$$
