AV-unprocessed.smi:2931|AV-procd|sdf|11244|dock5
  -GOLD-   2272016133D 1   1.00000     0.00000
 Structure written by MMmdl.
 42 43  0  0  0  0  0  0  0  0  2 V2000
  143.1648  141.8229  155.9033 C   0  0  0  0  0  0  0  0  0  0  0  0
  144.3641  141.7490  155.0423 N   0  3  1  0  0  0  0  0  0  0  0  0
  144.9487  143.0862  154.7696 C   0  0  0  0  0  0  0  0  0  0  0  0
  146.1208  142.9903  153.7766 C   0  0  0  0  0  0  0  0  0  0  0  0
  147.1805  141.9805  154.2521 C   0  0  0  0  0  0  0  0  0  0  0  0
  146.5407  140.6150  154.5612 C   0  0  2  0  0  0  0  0  0  0  0  0
  146.0841  139.9925  153.3189 N   0  0  0  0  0  0  0  0  0  0  0  0
  146.5626  138.8543  152.7991 C   0  0  0  0  0  0  0  0  0  0  0  0
  147.4933  138.2114  153.2835 O   0  0  0  0  0  0  0  0  0  0  0  0
  145.8699  138.4781  151.7161 N   0  0  0  0  0  0  0  0  0  0  0  0
  146.0444  137.2159  151.0037 C   0  0  0  0  0  0  0  0  0  0  0  0
  145.8228  135.9789  151.9004 C   0  0  0  0  0  0  0  0  0  0  0  0
  145.5510  134.6994  151.1254 C   0  0  0  0  0  0  0  0  0  0  0  0
  146.5176  133.6732  151.0650 C   0  0  0  0  0  0  0  0  0  0  0  0
  146.2104  132.5029  150.3427 C   0  0  0  0  0  0  0  0  0  0  0  0
  145.0333  132.3080  149.7118 N   0  0  0  0  0  0  0  0  0  0  0  0
  144.1137  133.2955  149.7714 C   0  0  0  0  0  0  0  0  0  0  0  0
  144.3218  134.5062  150.4624 C   0  0  0  0  0  0  0  0  0  0  0  0
  145.3806  140.8024  155.5661 C   0  0  0  0  0  0  0  0  0  0  0  0
  143.4118  142.2278  156.8855 H   0  0  0  0  0  0  0  0  0  0  0  0
  142.7274  140.8335  156.0406 H   0  0  0  0  0  0  0  0  0  0  0  0
  142.4056  142.4610  155.4499 H   0  0  0  0  0  0  0  0  0  0  0  0
  144.1803  143.7448  154.3630 H   0  0  0  0  0  0  0  0  0  0  0  0
  145.2872  143.5338  155.7055 H   0  0  0  0  0  0  0  0  0  0  0  0
  145.7438  142.6972  152.7959 H   0  0  0  0  0  0  0  0  0  0  0  0
  146.5771  143.9719  153.6452 H   0  0  0  0  0  0  0  0  0  0  0  0
  147.9659  141.8753  153.5025 H   0  0  0  0  0  0  0  0  0  0  0  0
  147.6654  142.3639  155.1510 H   0  0  0  0  0  0  0  0  0  0  0  0
  147.2993  139.9687  155.0062 H   0  0  0  0  0  0  0  0  0  0  0  0
  145.3232  140.4482  152.8365 H   0  0  0  0  0  0  0  0  0  0  0  0
  145.1258  139.0793  151.3934 H   0  0  0  0  0  0  0  0  0  0  0  0
  145.3147  137.2062  150.1936 H   0  0  0  0  0  0  0  0  0  0  0  0
  147.0278  137.1775  150.5331 H   0  0  0  0  0  0  0  0  0  0  0  0
  146.6942  135.8263  152.5381 H   0  0  0  0  0  0  0  0  0  0  0  0
  144.9881  136.1651  152.5772 H   0  0  0  0  0  0  0  0  0  0  0  0
  147.4721  133.7771  151.5601 H   0  0  0  0  0  0  0  0  0  0  0  0
  146.9278  131.6988  150.2745 H   0  0  0  0  0  0  0  0  0  0  0  0
  143.1827  133.1144  149.2550 H   0  0  0  0  0  0  0  0  0  0  0  0
  143.5532  135.2651  150.4842 H   0  0  0  0  0  0  0  0  0  0  0  0
  145.7669  141.1758  156.5159 H   0  0  0  0  0  0  0  0  0  0  0  0
  144.9092  139.8432  155.7838 H   0  0  0  0  0  0  0  0  0  0  0  0
  144.0573  141.3777  154.1545 H   0  0  0  0  0  0  0  0  0  0  0  0
  1  2  1  0  0  0  0
  1 20  1  0  0  0  0
  1 21  1  0  0  0  0
  1 22  1  0  0  0  0
  2 19  1  0  0  0  0
  2  3  1  0  0  0  0
  2 42  1  0  0  0  0
  3  4  1  0  0  0  0
  3 23  1  0  0  0  0
  3 24  1  0  0  0  0
  4  5  1  0  0  0  0
  4 25  1  0  0  0  0
  4 26  1  0  0  0  0
  5  6  1  0  0  0  0
  5 27  1  0  0  0  0
  5 28  1  0  0  0  0
  6  7  1  0  0  0  0
  6 19  1  0  0  0  0
  6 29  1  0  0  0  0
  7  8  1  0  0  0  0
  7 30  1  0  0  0  0
  8  9  2  0  0  0  0
  8 10  1  0  0  0  0
 10 11  1  0  0  0  0
 10 31  1  0  0  0  0
 11 12  1  0  0  0  0
 11 32  1  0  0  0  0
 11 33  1  0  0  0  0
 12 13  1  0  0  0  0
 12 34  1  0  0  0  0
 12 35  1  0  0  0  0
 13 18  1  0  0  0  0
 13 14  2  0  0  0  0
 14 15  1  0  0  0  0
 14 36  1  0  0  0  0
 15 16  2  0  0  0  0
 15 37  1  0  0  0  0
 16 17  1  0  0  0  0
 17 18  2  0  0  0  0
 17 38  1  0  0  0  0
 18 39  1  0  0  0  0
 19 40  1  0  0  0  0
 19 41  1  0  0  0  0
M  CHG  1   2   1
M  END
> <s_m_source_file>
AV-unprocessed.smi

> <i_m_source_file_index>
2931

> <i_lp_mmshare_version>
43012

> <i_f3d_flags>
0

> <s_epik_input>
W0NIM11OMVtDSDJdW0NIMl1bQ0gyXVtDQEhdKFtDSDJdMSlbTkhdQyg9TylbTkhdW0NIMl1bQ0gyXWMyW2NIXVtjSF1uW2NIXVtjSF0y

> <s_epik_cmdline>
J2VwaWtfcHl0aG9uJywgJy1waCcsICc3LjAnLCAnLXRuJywgJzgnLCAnLW1hJywgJzIwMCcsICctbWV0YWxfYmluZGluZycsICctaW1hZScsICc8aW5maWxlLm1hZT4nLCAnLW9tYWUnLCAnPG91dGZpbGUubWFlPic=

> <r_epik_Ionization_Penalty>
0.0573876

> <r_epik_Ionization_Penalty_Charging>
0.00229982

> <r_epik_Ionization_Penalty_Neutral>
0.0550878

> <r_epik_State_Penalty>
0.0473925

> <r_epik_Charging_Adjusted_Penalty>
0.0496923

> <i_epik_Tot_Q>
1

> <i_epik_Tot_abs_Q>
1

> <r_epik_Metal_State_Penalty>
0.0433388

> <b_epik_Metal_Only>
0

> <s_lp_Force_Field>
OPLS_2005

> <r_lp_Energy>
20.0995

> <b_lp_Chiralities_Consistent>
1

> <s_lp_Variant>
AV-unprocessed.smi:2931-3

> <Gold.Version>
5.8.1

> <Gold.Id.Protein>
6NUR|6NUR_protein|mol2

> <Gold.PLP.Fitness>
48.1284

> <Gold.PLP.PLP>
-32.4857

> <Gold.PLP.part.hbond>
-3.9915

> <Gold.PLP.part.metal>
0.0000

> <Gold.PLP.part.buried>
-2.2915

> <Gold.PLP.part.nonpolar>
-30.2778

> <Gold.PLP.part.repulsive>
2.3009

> <Gold.PLP.ligand.clash>
0.0000

> <Gold.PLP.ligand.torsion>
0.2204

> <Gold.PLP.Chemscore.Hbond>
3.4284

> <Gold.PLP.Chemscore.CHOScore>
1.9264

> <Gold.PLP.Chemscore.Metal>
0.0000

> <Gold.Chemscore.Hbonds>
donor molecule, donor type, donor heavy atom, donor atom, acceptor molecule, acceptor atom, score
      L1  H     2    42       P1 10175  2.00
      L1  H     7    30       P1 10175  0.98
      L1  H    10    31       P1 10171  0.44
      L1  C    15    37       P1 10747  1.00
      L1  C    17    38       P1 10186  0.89

> <Gold.PLP.Chemscore.Internal.Correction>
0.0191

> <Gold.Rescore>
     Score         DG    S(hbond)    S(metal)    S(lipo)     H(rot)  DE(clash)    DE(int)     intcor
     16.49     -18.08       2.48        0.00      70.88       1.56       1.48       0.10       ----

> <Gold.Chemscore.Fitness>
16.4892

> <Gold.Chemscore.DG>
-18.0770

> <Gold.Chemscore.ZeroCoef>
-5.4800

> <Gold.Chemscore.Hbond>
2.4836

> <Gold.Chemscore.Metal>
0.0000

> <Gold.Chemscore.Lipo>
70.8827

> <Gold.Chemscore.Internal_Hbond>
0.0000

> <Gold.Chemscore.DEClash>
1.4844

> <Gold.Chemscore.DEInternal>
0.1034

> <Gold.Chemscore.Rot>
1.5592

> <Gold.Chemscore.Internal.Correction>
   9.000000E+99

> <Gold.Chemscore.Hbonds>
donor molecule, donor type, donor heavy atom, donor atom, acceptor molecule, acceptor atom, score
      L1  H     2    42       P1 10175  0.35
      L1  H     7    30       P1 10175  0.80
      L1  H    10    31       P1 10171  0.43

> <Gold.Chemscore.Hbond.Weighted>
-8.2952

> <Gold.Chemscore.Metal.Weighted>
-0.0000

> <Gold.Chemscore.Lipo.Weighted>
-8.2933

> <Gold.Chemscore.Internal_Hbond.Weighted>
0.0000

> <Gold.Chemscore.DEClash.Weighted>
1.4844

> <Gold.Chemscore.DEInternal.Weighted>
0.1034

> <Gold.Chemscore.Rot.Weighted>
3.9915

> <Gold.Chemscore.Internal.Correction.Weighted>
   9.000000E+99

> <Gold.Protein.RotatedTorsions>
[ 6907 6896 6895 6894 ] final -125.80 input  -60.11 | X-H torsion
[ 7974 7965 7964 7962 ] final  109.43 input  175.53 | X-H torsion
[ 8008 7997 7996 7995 ] final  -61.90 input   59.86 | X-H torsion
[ 10167 10162 10161 10158 ] final  -99.76 input  -65.29 | X-H torsion
[ 10718 10713 10712 10709 ] final   85.63 input   66.30 | X-H torsion
[ 10763 10752 10751 10750 ] final  148.84 input  -60.55 | X-H torsion
[ 11005 11000 10999 10996 ] final  -10.66 input  -57.11 | X-H torsion

> <Gold.Protein.ActiveResidues>
 VAL166  LYS551  ARG553  GLY616  TRP617  ASP618  TYR619  PRO620  LYS621  CYS622 
 ASP623  PHE694  ASN695  SER759  ASP760  ASP761  ALA762  ILE779  LEU786  VAL792 
 PHE793  MET794  SER795  GLU796  ALA797  LYS798  CYS799  TRP800  GLU811  SER814 

> <Gold.Protein.RotatedAtoms>
  150.8904  133.7251  159.2906 H   0  0  0  0  0  0  0  0  0  0  0  0  # atno 6907 bound_to 6896
  151.4803  135.1050  159.9785 H   0  0  0  0  0  0  0  0  0  0  0  0  # atno 6908 bound_to 6896
  152.4816  133.8222  159.7115 H   0  0  0  0  0  0  0  0  0  0  0  0  # atno 6909 bound_to 6896
  145.2678  139.2678  143.3982 H   0  0  0  0  0  0  0  0  0  0  0  0  # atno 7974 bound_to 7965
  154.4471  140.1008  156.6503 H   0  0  0  0  0  0  0  0  0  0  0  0  # atno 8008 bound_to 7997
  155.5405  140.3483  155.4427 H   0  0  0  0  0  0  0  0  0  0  0  0  # atno 8009 bound_to 7997
  156.0600  140.1324  156.9941 H   0  0  0  0  0  0  0  0  0  0  0  0  # atno 8010 bound_to 7997
  140.2590  143.3420  152.0643 H   0  0  0  0  0  0  0  0  0  0  0  0  # atno 10167 bound_to 10162
  157.6917  131.0182  150.2851 H   0  0  0  0  0  0  0  0  0  0  0  0  # atno 10718 bound_to 10713
  154.0614  135.2874  155.3324 H   0  0  0  0  0  0  0  0  0  0  0  0  # atno 10763 bound_to 10752
  154.6806  135.5265  153.8261 H   0  0  0  0  0  0  0  0  0  0  0  0  # atno 10764 bound_to 10752
  153.0521  135.6580  154.0802 H   0  0  0  0  0  0  0  0  0  0  0  0  # atno 10765 bound_to 10752
  140.7471  133.8623  155.9014 H   0  0  0  0  0  0  0  0  0  0  0  0  # atno 11005 bound_to 11000
  146.3255  140.3113  142.8627 LP  0  0  0  0  0  0  0  0  0  0  0  0  # atno 17320 bound_to 7965
  144.9361  140.8028  143.5659 LP  0  0  0  0  0  0  0  0  0  0  0  0  # atno 17321 bound_to 7965
  139.5022  144.6731  151.6195 LP  0  0  0  0  0  0  0  0  0  0  0  0  # atno 17342 bound_to 10162
  140.5981  143.9660  150.6368 LP  0  0  0  0  0  0  0  0  0  0  0  0  # atno 17343 bound_to 10162
  156.3391  130.3812  149.7424 LP  0  0  0  0  0  0  0  0  0  0  0  0  # atno 17370 bound_to 10713
  156.4939  130.8098  151.3106 LP  0  0  0  0  0  0  0  0  0  0  0  0  # atno 17371 bound_to 10713
  140.9785  134.1437  157.4515 LP  0  0  0  0  0  0  0  0  0  0  0  0  # atno 17394 bound_to 11000
  139.8795  135.0002  156.5999 LP  0  0  0  0  0  0  0  0  0  0  0  0  # atno 17395 bound_to 11000

$$$$
