#       Name:                AV-unprocessed.smi:1557
#       Creating user name   scv26
#       Creation time:       Fri Mar 27 06:46:08 2020


#       File generated by GOLD software.
#

@<TRIPOS>MOLECULE
AV-unprocessed.smi:1557
    48    49     1
SMALL
NO_CHARGES


@<TRIPOS>ATOM
      1 ****        -3.2754   4.2752  -0.7035 C.3            1 S1                 0.0000
      2 ****        -1.8205   4.7068  -0.5051 C.3            1 S1                 0.0000
      3 ****        -0.9985   3.5440  -0.4925 O.3            1 S1                 0.0000
      4 ****         0.3649   3.6950  -0.3252 C.ar           1 S1                 0.0000
      5 ****         0.8653   4.9486  -0.1876 N.ar           1 S1                 0.0000
      6 ****         2.1968   5.0947  -0.0283 C.ar           1 S1                 0.0000
      7 ****         3.0939   4.0110  -0.0053 C.ar           1 S1                 0.0000
      8 ****         2.5772   2.7098  -0.1474 C.ar           1 S1                 0.0000
      9 ****         1.1799   2.5397  -0.2993 C.ar           1 S1                 0.0000
     10 ****         0.5566   1.2734  -0.4684 N.am           1 S1                 0.0000
     11 ****         0.9792   0.0726  -0.0400 C.2            1 S1                 0.0000
     12 ****         2.0268  -0.1380   0.5715 O.2            1 S1                 0.0000
     13 ****         0.0927  -0.8870  -0.3441 N.am           1 S1                 0.0000
     14 ****         0.1986  -2.2945   0.0435 C.3            1 S1                 0.0000
     15 ****        -0.6706  -3.1275  -0.9321 C.3            1 S1                 0.0000
     16 ****        -1.0257  -4.5622  -0.4815 C.3            1 S1                 0.0000
     17 ****         0.1391  -5.3625   0.1367 C.3            1 S1                 0.0000
     18 ****         0.7707  -4.7866   1.4309 C.3            1 S1                 0.0000
     19 ****         0.0094  -3.7078   2.0614 N.am           1 S1                 0.0000
     20 ****        -0.2797  -2.5241   1.4949 C.2            1 S1                 0.0000
     21 ****        -0.9257  -1.6663   2.0960 O.2            1 S1                 0.0000
     22 ****        -3.9393   5.1398  -0.7200 H              1 S1                 0.0000
     23 ****        -3.6021   3.6179   0.1026 H              1 S1                 0.0000
     24 ****        -3.3999   3.7395  -1.6449 H              1 S1                 0.0000
     25 ****        -1.5239   5.3749  -1.3153 H              1 S1                 0.0000
     26 ****        -1.7254   5.2510   0.4358 H              1 S1                 0.0000
     27 ****         2.5587   6.1067   0.0772 H              1 S1                 0.0000
     28 ****         4.1547   4.1738   0.1140 H              1 S1                 0.0000
     29 ****         3.2592   1.8736  -0.1521 H              1 S1                 0.0000
     30 ****        -0.3656   1.2988  -0.8785 H              1 S1                 0.0000
     31 ****        -0.7427  -0.6184  -0.8426 H              1 S1                 0.0000
     32 ****         1.2417  -2.6007  -0.0486 H              1 S1                 0.0000
     33 ****        -1.6047  -2.6026  -1.1393 H              1 S1                 0.0000
     34 ****        -0.1479  -3.1816  -1.8880 H              1 S1                 0.0000
     35 ****        -1.8536  -4.5284   0.2282 H              1 S1                 0.0000
     36 ****        -1.4150  -5.1093  -1.3407 H              1 S1                 0.0000
     37 ****        -0.2291  -6.3653   0.3562 H              1 S1                 0.0000
     38 ****         0.9214  -5.5002  -0.6109 H              1 S1                 0.0000
     39 ****         0.8922  -5.5861   2.1621 H              1 S1                 0.0000
     40 ****         1.7802  -4.4281   1.2252 H              1 S1                 0.0000
     41 ****        -0.3144  -3.8688   3.0042 H              1 S1                 0.0000
     42 ****        -1.1376   3.0761  -1.3653 LP             1 S1                 0.0000
     43 ****        -1.3235   2.9622   0.2531 LP             1 S1                 0.0000
     44 ****         0.2613   5.7454  -0.2039 LP             1 S1                 0.0000
     45 ****         2.6415   0.6209   0.7866 LP             1 S1                 0.0000
     46 ****         2.2631  -1.0680   0.8531 LP             1 S1                 0.0000
     47 ****        -1.1499  -0.8022   1.6455 LP             1 S1                 0.0000
     48 ****        -1.2264  -1.8334   3.0350 LP             1 S1                 0.0000
@<TRIPOS>BOND
    1    1    2 1     
    2    1   22 1     
    3    1   23 1     
    4    1   24 1     
    5    2    3 1     
    6    2   25 1     
    7    2   26 1     
    8    3    4 1     
    9    4    9 ar    
   10    4    5 ar    
   11    5    6 ar    
   12    6    7 ar    
   13    6   27 1     
   14    7    8 ar    
   15    7   28 1     
   16    8    9 ar    
   17    8   29 1     
   18    9   10 1     
   19   10   11 am    
   20   10   30 1     
   21   11   12 2     
   22   11   13 am    
   23   13   14 1     
   24   13   31 1     
   25   14   20 1     
   26   14   15 1     
   27   14   32 1     
   28   15   16 1     
   29   15   33 1     
   30   15   34 1     
   31   16   17 1     
   32   16   35 1     
   33   16   36 1     
   34   17   18 1     
   35   17   37 1     
   36   17   38 1     
   37   18   19 1     
   38   18   39 1     
   39   18   40 1     
   40   19   20 am    
   41   19   41 1     
   42   20   21 2     
   43    3   42 1     
   44    3   43 1     
   45    5   44 1     
   46   12   45 1     
   47   12   46 1     
   48   21   47 1     
   49   21   48 1     
@<TRIPOS>SUBSTRUCTURE
      1 S1             1
@<TRIPOS>SET
LONE_PAIRS      STATIC     ATOMS    <user>   **** ""
7 42 43 44 45 46 47 48
DONOR_HYDROGENS      STATIC     ATOMS    <user>   **** ""
3 30 31 41
ATOM$BLUE        STATIC     ATOMS    COLORGROUP SYSTEM
7 42 43 44 45 46 47 48
ATOM$RED        STATIC     ATOMS    COLORGROUP SYSTEM
3 30 31 41
