AV-unprocessed.smi:2341|AV-procd|sdf|9352|dock8
  -GOLD-   2272012573D 1   1.00000     0.00000
 Structure written by MMmdl.
 52 54  0  0  0  0  0  0  0  0  2 V2000
  150.0237  129.5004  155.1365 C   0  0  0  0  0  0  0  0  0  0  0  0
  149.9172  130.9913  154.8951 C   0  0  0  0  0  0  0  0  0  0  0  0
  149.1734  131.5045  153.8155 C   0  0  0  0  0  0  0  0  0  0  0  0
  149.1092  132.8999  153.6383 C   0  0  0  0  0  0  0  0  0  0  0  0
  149.7889  133.7479  154.5414 C   0  0  0  0  0  0  0  0  0  0  0  0
  149.6605  135.1369  154.2736 N   0  0  0  0  0  0  0  0  0  0  0  0
  150.0002  136.1704  155.0639 C   0  0  0  0  0  0  0  0  0  0  0  0
  150.4973  136.0776  156.1866 O   0  0  0  0  0  0  0  0  0  0  0  0
  149.7299  137.3434  154.4725 N   0  0  0  0  0  0  0  0  0  0  0  0
  149.9696  138.6556  155.0660 C   0  0  2  0  0  0  0  0  0  0  0  0
  151.4647  138.8321  155.3607 C   0  0  0  0  0  0  0  0  0  0  0  0
  151.7480  140.1729  156.0603 C   0  0  0  0  0  0  0  0  0  0  0  0
  150.9578  140.3175  157.3180 N   0  3  1  0  0  0  0  0  0  0  0  0
  151.2528  141.5377  158.1393 C   0  0  0  0  0  0  0  0  0  0  0  0
  151.0372  142.8823  157.3933 C   0  0  0  0  0  0  0  0  0  0  0  0
  151.3864  144.0963  158.2695 C   0  0  0  0  0  0  0  0  0  0  0  0
  152.8273  144.0157  158.7870 C   0  0  0  0  0  0  0  0  0  0  0  0
  153.0569  142.7019  159.5437 C   0  0  0  0  0  0  0  0  0  0  0  0
  152.7074  141.4861  158.6709 C   0  0  0  0  0  0  0  0  0  0  0  0
  149.5002  140.1702  157.0398 C   0  0  0  0  0  0  0  0  0  0  0  0
  149.1781  138.8239  156.3728 C   0  0  0  0  0  0  0  0  0  0  0  0
  150.5039  133.2439  155.5780 N   0  0  0  0  0  0  0  0  0  0  0  0
  150.5647  131.9064  155.7474 C   0  0  0  0  0  0  0  0  0  0  0  0
  149.3295  128.9467  154.5038 H   0  0  0  0  0  0  0  0  0  0  0  0
  149.7957  129.2667  156.1766 H   0  0  0  0  0  0  0  0  0  0  0  0
  151.0347  129.1552  154.9198 H   0  0  0  0  0  0  0  0  0  0  0  0
  148.6595  130.8441  153.1323 H   0  0  0  0  0  0  0  0  0  0  0  0
  148.5424  133.3101  152.8151 H   0  0  0  0  0  0  0  0  0  0  0  0
  149.2620  135.3693  153.3761 H   0  0  0  0  0  0  0  0  0  0  0  0
  149.3217  137.3270  153.5491 H   0  0  0  0  0  0  0  0  0  0  0  0
  149.6648  139.4288  154.3578 H   0  0  0  0  0  0  0  0  0  0  0  0
  151.8169  138.0154  155.9929 H   0  0  0  0  0  0  0  0  0  0  0  0
  152.0377  138.7738  154.4345 H   0  0  0  0  0  0  0  0  0  0  0  0
  152.8171  140.1970  156.2673 H   0  0  0  0  0  0  0  0  0  0  0  0
  151.5268  141.0048  155.3897 H   0  0  0  0  0  0  0  0  0  0  0  0
  150.5689  141.5367  158.9903 H   0  0  0  0  0  0  0  0  0  0  0  0
  151.6445  142.9082  156.4874 H   0  0  0  0  0  0  0  0  0  0  0  0
  149.9976  142.9925  157.0842 H   0  0  0  0  0  0  0  0  0  0  0  0
  151.2485  145.0165  157.7008 H   0  0  0  0  0  0  0  0  0  0  0  0
  150.6969  144.1491  159.1130 H   0  0  0  0  0  0  0  0  0  0  0  0
  153.5239  144.0862  157.9505 H   0  0  0  0  0  0  0  0  0  0  0  0
  153.0382  144.8640  159.4391 H   0  0  0  0  0  0  0  0  0  0  0  0
  154.0961  142.6394  159.8681 H   0  0  0  0  0  0  0  0  0  0  0  0
  152.4496  142.6892  160.4497 H   0  0  0  0  0  0  0  0  0  0  0  0
  152.8827  140.5876  159.2603 H   0  0  0  0  0  0  0  0  0  0  0  0
  153.4009  141.4359  157.8300 H   0  0  0  0  0  0  0  0  0  0  0  0
  148.9180  140.2441  157.9566 H   0  0  0  0  0  0  0  0  0  0  0  0
  149.1696  140.9882  156.3976 H   0  0  0  0  0  0  0  0  0  0  0  0
  148.1073  138.7637  156.1750 H   0  0  0  0  0  0  0  0  0  0  0  0
  149.4118  138.0101  157.0612 H   0  0  0  0  0  0  0  0  0  0  0  0
  151.1478  131.5583  156.5873 H   0  0  0  0  0  0  0  0  0  0  0  0
  151.2249  139.5308  157.8926 H   0  0  0  0  0  0  0  0  0  0  0  0
  1  2  1  0  0  0  0
  1 24  1  0  0  0  0
  1 25  1  0  0  0  0
  1 26  1  0  0  0  0
  2 23  1  0  0  0  0
  2  3  2  0  0  0  0
  3  4  1  0  0  0  0
  3 27  1  0  0  0  0
  4  5  2  0  0  0  0
  4 28  1  0  0  0  0
  5  6  1  0  0  0  0
  5 22  1  0  0  0  0
  6  7  1  0  0  0  0
  6 29  1  0  0  0  0
  7  8  2  0  0  0  0
  7  9  1  0  0  0  0
  9 10  1  0  0  0  0
  9 30  1  0  0  0  0
 10 21  1  0  0  0  0
 10 11  1  0  0  0  0
 10 31  1  0  0  0  0
 11 12  1  0  0  0  0
 11 32  1  0  0  0  0
 11 33  1  0  0  0  0
 12 13  1  0  0  0  0
 12 34  1  0  0  0  0
 12 35  1  0  0  0  0
 13 14  1  0  0  0  0
 13 20  1  0  0  0  0
 13 52  1  0  0  0  0
 14 19  1  0  0  0  0
 14 15  1  0  0  0  0
 14 36  1  0  0  0  0
 15 16  1  0  0  0  0
 15 37  1  0  0  0  0
 15 38  1  0  0  0  0
 16 17  1  0  0  0  0
 16 39  1  0  0  0  0
 16 40  1  0  0  0  0
 17 18  1  0  0  0  0
 17 41  1  0  0  0  0
 17 42  1  0  0  0  0
 18 19  1  0  0  0  0
 18 43  1  0  0  0  0
 18 44  1  0  0  0  0
 19 45  1  0  0  0  0
 19 46  1  0  0  0  0
 20 21  1  0  0  0  0
 20 47  1  0  0  0  0
 20 48  1  0  0  0  0
 21 49  1  0  0  0  0
 21 50  1  0  0  0  0
 22 23  2  0  0  0  0
 23 51  1  0  0  0  0
M  CHG  1  13   1
M  END
> <s_m_source_file>
AV-unprocessed.smi

> <i_m_source_file_index>
2341

> <i_lp_mmshare_version>
43012

> <i_f3d_flags>
0

> <s_epik_input>
W0NIM11jMVtjSF1bY0hdYyhuW2NIXTEpW05IXUMoPU8pW05IXVtDSF0yW0NIMl1bQ0gyXU4oW0NIMl1bQ0gyXTIpW0NIXTNbQ0gyXVtDSDJdW0NIMl1bQ0gyXVtDSDJdMw==

> <s_epik_cmdline>
J2VwaWtfcHl0aG9uJywgJy1waCcsICc3LjAnLCAnLXRuJywgJzgnLCAnLW1hJywgJzIwMCcsICctbWV0YWxfYmluZGluZycsICctaW1hZScsICc8aW5maWxlLm1hZT4nLCAnLW9tYWUnLCAnPG91dGZpbGUubWFlPic=

> <r_epik_Ionization_Penalty>
0.00176486

> <r_epik_Ionization_Penalty_Charging>
0.00171891

> <r_epik_Ionization_Penalty_Neutral>
4.59494e-05

> <r_epik_State_Penalty>
0.00116222

> <r_epik_Charging_Adjusted_Penalty>
0.00288114

> <i_epik_Tot_Q>
1

> <i_epik_Tot_abs_Q>
1

> <r_epik_Metal_State_Penalty>
-0

> <b_epik_Metal_Only>
0

> <s_lp_Force_Field>
OPLS_2005

> <r_lp_Energy>
29.4095

> <b_lp_Chiralities_Consistent>
1

> <s_lp_Variant>
AV-unprocessed.smi:2341-1

> <Gold.Version>
5.8.1

> <Gold.Id.Protein>
6NUR|6NUR_protein|mol2

> <Gold.PLP.Fitness>
48.7783

> <Gold.PLP.PLP>
-43.1581

> <Gold.PLP.part.hbond>
-2.2877

> <Gold.PLP.part.metal>
0.0000

> <Gold.PLP.part.buried>
-5.1049

> <Gold.PLP.part.nonpolar>
-36.5209

> <Gold.PLP.part.repulsive>
0.1332

> <Gold.PLP.ligand.clash>
0.0000

> <Gold.PLP.ligand.torsion>
0.1018

> <Gold.PLP.Chemscore.Hbond>
1.9280

> <Gold.PLP.Chemscore.CHOScore>
0.0000

> <Gold.PLP.Chemscore.Metal>
0.0000

> <Gold.Chemscore.Hbonds>
donor molecule, donor type, donor heavy atom, donor atom, acceptor molecule, acceptor atom, score
      L1  H     6    29       P1  7948  1.00
      L1  H     9    30       P1  7948  0.93

> <Gold.PLP.Chemscore.Internal.Correction>
0.0398

> <Gold.Rescore>
     Score         DG    S(hbond)    S(metal)    S(lipo)     H(rot)  DE(clash)    DE(int)     intcor
     18.11     -20.71       1.48        0.00     113.88       1.19       0.09       2.51       ----

> <Gold.Chemscore.Fitness>
18.1067

> <Gold.Chemscore.DG>
-20.7079

> <Gold.Chemscore.ZeroCoef>
-5.4800

> <Gold.Chemscore.Hbond>
1.4837

> <Gold.Chemscore.Metal>
0.0000

> <Gold.Chemscore.Lipo>
113.8764

> <Gold.Chemscore.Internal_Hbond>
0.0000

> <Gold.Chemscore.DEClash>
0.0910

> <Gold.Chemscore.DEInternal>
2.5101

> <Gold.Chemscore.Rot>
1.1918

> <Gold.Chemscore.Internal.Correction>
   9.000000E+99

> <Gold.Chemscore.Hbonds>
donor molecule, donor type, donor heavy atom, donor atom, acceptor molecule, acceptor atom, score
      L1  H     6    29       P1  7948  0.25
      L1  H     9    30       P1  7948  0.83

> <Gold.Chemscore.Hbond.Weighted>
-4.9554

> <Gold.Chemscore.Metal.Weighted>
-0.0000

> <Gold.Chemscore.Lipo.Weighted>
-13.3235

> <Gold.Chemscore.Internal_Hbond.Weighted>
0.0000

> <Gold.Chemscore.DEClash.Weighted>
0.0910

> <Gold.Chemscore.DEInternal.Weighted>
2.5101

> <Gold.Chemscore.Rot.Weighted>
3.0511

> <Gold.Chemscore.Internal.Correction.Weighted>
   9.000000E+99

> <Gold.Protein.RotatedTorsions>
[ 6907 6896 6895 6894 ] final   87.72 input  -60.11 | X-H torsion
[ 7974 7965 7964 7962 ] final  150.99 input  175.53 | X-H torsion
[ 8008 7997 7996 7995 ] final   35.95 input   59.86 | X-H torsion
[ 10167 10162 10161 10158 ] final  113.81 input  -65.29 | X-H torsion
[ 10718 10713 10712 10709 ] final -146.63 input   66.30 | X-H torsion
[ 10763 10752 10751 10750 ] final  -49.63 input  -60.55 | X-H torsion
[ 11005 11000 10999 10996 ] final   22.58 input  -57.11 | X-H torsion

> <Gold.Protein.ActiveResidues>
 VAL166  LYS551  ARG553  GLY616  TRP617  ASP618  TYR619  PRO620  LYS621  CYS622 
 ASP623  PHE694  ASN695  SER759  ASP760  ASP761  ALA762  ILE779  LEU786  VAL792 
 PHE793  MET794  SER795  GLU796  ALA797  LYS798  CYS799  TRP800  GLU811  SER814 

> <Gold.Protein.RotatedAtoms>
  152.5415  134.2232  159.8795 H   0  0  0  0  0  0  0  0  0  0  0  0  # atno 6907 bound_to 6896
  151.2208  133.4497  159.2608 H   0  0  0  0  0  0  0  0  0  0  0  0  # atno 6908 bound_to 6896
  151.0807  134.9869  159.8410 H   0  0  0  0  0  0  0  0  0  0  0  0  # atno 6909 bound_to 6896
  144.8324  139.6480  143.6053 H   0  0  0  0  0  0  0  0  0  0  0  0  # atno 7974 bound_to 7965
  155.1795  140.3298  155.4378 H   0  0  0  0  0  0  0  0  0  0  0  0  # atno 8008 bound_to 7997
  156.2482  140.1929  156.6844 H   0  0  0  0  0  0  0  0  0  0  0  0  # atno 8009 bound_to 7997
  154.6281  140.0586  156.9685 H   0  0  0  0  0  0  0  0  0  0  0  0  # atno 8010 bound_to 7997
  139.6434  144.7125  151.2191 H   0  0  0  0  0  0  0  0  0  0  0  0  # atno 10167 bound_to 10162
  156.3973  130.7916  151.2124 H   0  0  0  0  0  0  0  0  0  0  0  0  # atno 10718 bound_to 10713
  154.0973  135.6568  153.4862 H   0  0  0  0  0  0  0  0  0  0  0  0  # atno 10763 bound_to 10752
  153.0301  135.5216  154.7321 H   0  0  0  0  0  0  0  0  0  0  0  0  # atno 10764 bound_to 10752
  154.6463  135.2995  155.0011 H   0  0  0  0  0  0  0  0  0  0  0  0  # atno 10765 bound_to 10752
  140.3790  134.1941  155.7664 H   0  0  0  0  0  0  0  0  0  0  0  0  # atno 11005 bound_to 11000
  146.2626  139.6445  142.9351 LP  0  0  0  0  0  0  0  0  0  0  0  0  # atno 17320 bound_to 7965
  145.4867  141.0438  143.2616 LP  0  0  0  0  0  0  0  0  0  0  0  0  # atno 17321 bound_to 7965
  140.7502  143.6272  150.8457 LP  0  0  0  0  0  0  0  0  0  0  0  0  # atno 17342 bound_to 10162
  139.9912  143.5844  152.2909 LP  0  0  0  0  0  0  0  0  0  0  0  0  # atno 17343 bound_to 10162
  157.7502  131.0297  150.4106 LP  0  0  0  0  0  0  0  0  0  0  0  0  # atno 17370 bound_to 10713
  156.4378  130.3985  149.6717 LP  0  0  0  0  0  0  0  0  0  0  0  0  # atno 17371 bound_to 10713
  141.1930  133.8161  157.0817 LP  0  0  0  0  0  0  0  0  0  0  0  0  # atno 17394 bound_to 11000
  140.0493  134.9814  157.1107 LP  0  0  0  0  0  0  0  0  0  0  0  0  # atno 17395 bound_to 11000

$$$$
