AV-unprocessed.smi:541|AV-procd|sdf|2872|dock6
  -GOLD-   2262023363D 1   1.00000     0.00000
 Structure written by MMmdl.
 42 44  0  0  0  0  0  0  0  0  2 V2000
  148.6245  141.1299  154.8186 C   0  0  0  0  0  0  0  0  0  0  0  0
  149.8880  141.4284  155.6285 C   0  0  0  0  0  0  0  0  0  0  0  0
  150.8880  140.4847  155.2846 O   0  0  0  0  0  0  0  0  0  0  0  0
  151.9943  140.5131  156.1704 C   0  0  0  0  0  0  0  0  0  0  0  0
  151.4793  140.3759  157.6103 C   0  0  0  0  0  0  0  0  0  0  0  0
  152.5722  140.3286  158.5783 N   0  0  0  0  0  0  0  0  0  0  0  0
  153.1273  141.3342  159.3214 C   0  0  0  0  0  0  0  0  0  0  0  0
  152.7024  142.6738  159.3114 N   0  0  0  0  0  0  0  0  0  0  0  0
  152.1798  143.5176  158.2354 C   0  0  0  0  0  0  0  0  0  0  0  0
  151.4868  144.7213  158.8650 C   0  0  0  0  0  0  0  0  0  0  0  0
  152.3189  144.9371  160.1087 C   0  0  0  0  0  0  0  0  0  0  0  0
  152.6476  143.5040  160.5158 C   0  0  0  0  0  0  0  0  0  0  0  0
  154.1448  140.9368  160.0912 N   0  0  0  0  0  0  0  0  0  0  0  0
  154.2352  139.5792  159.8423 C   0  0  0  0  0  0  0  0  0  0  0  0
  153.2962  139.1850  158.9438 C   0  0  0  0  0  0  0  0  0  0  0  0
  153.1369  137.7828  158.4907 C   0  0  0  0  0  0  0  0  0  0  0  0
  152.2577  137.4660  157.6921 O   0  0  0  0  0  0  0  0  0  0  0  0
  154.0559  136.9436  159.0655 N   0  5  0  0  0  0  0  0  0  0  0  0
  155.0265  137.3053  159.9742 C   0  0  0  0  0  0  0  0  0  0  0  0
  155.8171  136.4851  160.4426 O   0  0  0  0  0  0  0  0  0  0  0  0
  155.1270  138.6103  160.3775 N   0  0  0  0  0  0  0  0  0  0  0  0
  156.1446  139.0240  161.3480 C   0  0  0  0  0  0  0  0  0  0  0  0
  147.8324  141.8401  155.0563 H   0  0  0  0  0  0  0  0  0  0  0  0
  148.2508  140.1283  155.0327 H   0  0  0  0  0  0  0  0  0  0  0  0
  148.8214  141.1932  153.7481 H   0  0  0  0  0  0  0  0  0  0  0  0
  150.2363  142.4401  155.4148 H   0  0  0  0  0  0  0  0  0  0  0  0
  149.6675  141.3721  156.6955 H   0  0  0  0  0  0  0  0  0  0  0  0
  152.6852  139.7044  155.9305 H   0  0  0  0  0  0  0  0  0  0  0  0
  152.5433  141.4484  156.0528 H   0  0  0  0  0  0  0  0  0  0  0  0
  150.8205  141.2077  157.8550 H   0  0  0  0  0  0  0  0  0  0  0  0
  150.8413  139.5054  157.7217 H   0  0  0  0  0  0  0  0  0  0  0  0
  153.0152  143.8611  157.6246 H   0  0  0  0  0  0  0  0  0  0  0  0
  151.4850  142.9779  157.5952 H   0  0  0  0  0  0  0  0  0  0  0  0
  151.4606  145.5907  158.2077 H   0  0  0  0  0  0  0  0  0  0  0  0
  150.4619  144.4656  159.1382 H   0  0  0  0  0  0  0  0  0  0  0  0
  153.2339  145.4758  159.8581 H   0  0  0  0  0  0  0  0  0  0  0  0
  151.7953  145.4929  160.8869 H   0  0  0  0  0  0  0  0  0  0  0  0
  151.8665  143.1102  161.1676 H   0  0  0  0  0  0  0  0  0  0  0  0
  153.5884  143.4594  161.0659 H   0  0  0  0  0  0  0  0  0  0  0  0
  156.0289  138.4724  162.2821 H   0  0  0  0  0  0  0  0  0  0  0  0
  156.0897  140.0854  161.5893 H   0  0  0  0  0  0  0  0  0  0  0  0
  157.1444  138.8294  160.9582 H   0  0  0  0  0  0  0  0  0  0  0  0
  1  2  1  0  0  0  0
  1 23  1  0  0  0  0
  1 24  1  0  0  0  0
  1 25  1  0  0  0  0
  2  3  1  0  0  0  0
  2 26  1  0  0  0  0
  2 27  1  0  0  0  0
  3  4  1  0  0  0  0
  4  5  1  0  0  0  0
  4 28  1  0  0  0  0
  4 29  1  0  0  0  0
  5  6  1  0  0  0  0
  5 30  1  0  0  0  0
  5 31  1  0  0  0  0
  6 15  1  0  0  0  0
  6  7  1  0  0  0  0
  7  8  1  0  0  0  0
  7 13  2  0  0  0  0
  8 12  1  0  0  0  0
  8  9  1  0  0  0  0
  9 10  1  0  0  0  0
  9 32  1  0  0  0  0
  9 33  1  0  0  0  0
 10 11  1  0  0  0  0
 10 34  1  0  0  0  0
 10 35  1  0  0  0  0
 11 12  1  0  0  0  0
 11 36  1  0  0  0  0
 11 37  1  0  0  0  0
 12 38  1  0  0  0  0
 12 39  1  0  0  0  0
 13 14  1  0  0  0  0
 14 21  1  0  0  0  0
 14 15  2  0  0  0  0
 15 16  1  0  0  0  0
 16 17  2  0  0  0  0
 16 18  1  0  0  0  0
 18 19  1  0  0  0  0
 19 20  2  0  0  0  0
 19 21  1  0  0  0  0
 21 22  1  0  0  0  0
 22 40  1  0  0  0  0
 22 41  1  0  0  0  0
 22 42  1  0  0  0  0
M  CHG  1  18  -1
M  END
> <s_m_source_file>
AV-unprocessed.smi

> <i_m_source_file_index>
541

> <i_lp_mmshare_version>
43012

> <i_f3d_flags>
0

> <s_epik_input>
W0NIM11uMWMoPU8pW25IXWMoPU8pYyhjMTIpbihbQ0gyXVtDSDJdT1tDSDJdW0NIM10pYyhuMilOM1tDSDJdW0NIMl1bQ0gyXVtDSDJdMw==

> <s_epik_cmdline>
J2VwaWtfcHl0aG9uJywgJy1waCcsICc3LjAnLCAnLXRuJywgJzgnLCAnLW1hJywgJzIwMCcsICctbWV0YWxfYmluZGluZycsICctaW1hZScsICc8aW5maWxlLm1hZT4nLCAnLW9tYWUnLCAnPG91dGZpbGUubWFlPic=

> <r_lp_tautomer_probability>
1

> <r_epik_Ionization_Penalty>
6.1404

> <r_epik_Ionization_Penalty_Charging>
0.0734613

> <r_epik_Ionization_Penalty_Neutral>
6.06694

> <r_epik_State_Penalty>
6.06401

> <r_epik_Charging_Adjusted_Penalty>
6.13747

> <i_epik_Tot_Q>
-1

> <i_epik_Tot_abs_Q>
1

> <r_epik_Metal_State_Penalty>
2.01234

> <b_epik_Metal_Only>
1

> <s_lp_Force_Field>
OPLS_2005

> <r_lp_Energy>
49.972

> <b_lp_Chiralities_Consistent>
1

> <s_lp_Variant>
AV-unprocessed.smi:541-2

> <Gold.Version>
5.8.1

> <Gold.Id.Protein>
6NUR|6NUR_protein|mol2

> <Gold.PLP.Fitness>
52.5770

> <Gold.PLP.PLP>
-45.4456

> <Gold.PLP.part.hbond>
-2.0000

> <Gold.PLP.part.metal>
0.0000

> <Gold.PLP.part.buried>
-6.3268

> <Gold.PLP.part.nonpolar>
-36.3021

> <Gold.PLP.part.repulsive>
0.0450

> <Gold.PLP.ligand.clash>
0.0000

> <Gold.PLP.ligand.torsion>
0.9385

> <Gold.PLP.Chemscore.Hbond>
2.9920

> <Gold.PLP.Chemscore.CHOScore>
0.0000

> <Gold.PLP.Chemscore.Metal>
0.0000

> <Gold.Chemscore.Hbonds>
donor molecule, donor type, donor heavy atom, donor atom, acceptor molecule, acceptor atom, score
      P1  H  7989  7998       L1     3  0.99

> <Gold.PLP.Chemscore.Internal.Correction>
0.0325

> <Gold.Rescore>
     Score         DG    S(hbond)    S(metal)    S(lipo)     H(rot)  DE(clash)    DE(int)     intcor
     16.04     -16.56       1.62        0.00      84.18       1.64       0.07       0.46       ----

> <Gold.Chemscore.Fitness>
16.0355

> <Gold.Chemscore.DG>
-16.5568

> <Gold.Chemscore.ZeroCoef>
-5.4800

> <Gold.Chemscore.Hbond>
1.6231

> <Gold.Chemscore.Metal>
0.0000

> <Gold.Chemscore.Lipo>
84.1789

> <Gold.Chemscore.Internal_Hbond>
0.0000

> <Gold.Chemscore.DEClash>
0.0650

> <Gold.Chemscore.DEInternal>
0.4563

> <Gold.Chemscore.Rot>
1.6380

> <Gold.Chemscore.Internal.Correction>
   9.000000E+99

> <Gold.Chemscore.Hbonds>
donor molecule, donor type, donor heavy atom, donor atom, acceptor molecule, acceptor atom, score
      P1  H  7989  7998       L1     3  0.36

> <Gold.Chemscore.Hbond.Weighted>
-5.4212

> <Gold.Chemscore.Metal.Weighted>
-0.0000

> <Gold.Chemscore.Lipo.Weighted>
-9.8489

> <Gold.Chemscore.Internal_Hbond.Weighted>
0.0000

> <Gold.Chemscore.DEClash.Weighted>
0.0650

> <Gold.Chemscore.DEInternal.Weighted>
0.4563

> <Gold.Chemscore.Rot.Weighted>
4.1934

> <Gold.Chemscore.Internal.Correction.Weighted>
   9.000000E+99

> <Gold.Protein.RotatedTorsions>
[ 6907 6896 6895 6894 ] final   22.28 input  -60.11 | X-H torsion
[ 7974 7965 7964 7962 ] final  118.15 input  175.53 | X-H torsion
[ 8008 7997 7996 7995 ] final   71.98 input   59.86 | X-H torsion
[ 10167 10162 10161 10158 ] final -167.23 input  -65.29 | X-H torsion
[ 10718 10713 10712 10709 ] final  -18.86 input   66.30 | X-H torsion
[ 10763 10752 10751 10750 ] final   99.39 input  -60.55 | X-H torsion
[ 11005 11000 10999 10996 ] final -113.73 input  -57.11 | X-H torsion

> <Gold.Protein.ActiveResidues>
 VAL166  LYS551  ARG553  GLY616  TRP617  ASP618  TYR619  PRO620  LYS621  CYS622 
 ASP623  PHE694  ASN695  SER759  ASP760  ASP761  ALA762  ILE779  LEU786  VAL792 
 PHE793  MET794  SER795  GLU796  ALA797  LYS798  CYS799  TRP800  GLU811  SER814 

> <Gold.Protein.RotatedAtoms>
  151.9248  135.0282  160.0524 H   0  0  0  0  0  0  0  0  0  0  0  0  # atno 6907 bound_to 6896
  152.2169  133.4949  159.5149 H   0  0  0  0  0  0  0  0  0  0  0  0  # atno 6908 bound_to 6896
  150.6990  134.1311  159.4112 H   0  0  0  0  0  0  0  0  0  0  0  0  # atno 6909 bound_to 6896
  145.1587  139.3168  143.4529 H   0  0  0  0  0  0  0  0  0  0  0  0  # atno 7974 bound_to 7965
  155.7620  140.3486  155.5203 H   0  0  0  0  0  0  0  0  0  0  0  0  # atno 8008 bound_to 7997
  155.8905  140.1017  157.1443 H   0  0  0  0  0  0  0  0  0  0  0  0  # atno 8009 bound_to 7997
  154.4033  140.1305  156.4297 H   0  0  0  0  0  0  0  0  0  0  0  0  # atno 8010 bound_to 7997
  139.6063  144.0907  152.1796 H   0  0  0  0  0  0  0  0  0  0  0  0  # atno 10167 bound_to 10162
  156.5536  130.4708  149.6440 H   0  0  0  0  0  0  0  0  0  0  0  0  # atno 10718 bound_to 10713
  153.3008  135.4115  155.1250 H   0  0  0  0  0  0  0  0  0  0  0  0  # atno 10763 bound_to 10752
  154.8548  135.3541  154.5855 H   0  0  0  0  0  0  0  0  0  0  0  0  # atno 10764 bound_to 10752
  153.6280  135.7062  153.5344 H   0  0  0  0  0  0  0  0  0  0  0  0  # atno 10765 bound_to 10752
  141.0596  133.9557  157.2692 H   0  0  0  0  0  0  0  0  0  0  0  0  # atno 11005 bound_to 11000
  146.3485  140.1689  142.8590 LP  0  0  0  0  0  0  0  0  0  0  0  0  # atno 17320 bound_to 7965
  145.0354  140.8904  143.5084 LP  0  0  0  0  0  0  0  0  0  0  0  0  # atno 17321 bound_to 7965
  140.0515  144.5929  150.7333 LP  0  0  0  0  0  0  0  0  0  0  0  0  # atno 17342 bound_to 10162
  140.7287  143.2664  151.4030 LP  0  0  0  0  0  0  0  0  0  0  0  0  # atno 17343 bound_to 10162
  156.2862  130.7098  151.1935 LP  0  0  0  0  0  0  0  0  0  0  0  0  # atno 17370 bound_to 10713
  157.7382  131.0543  150.5306 LP  0  0  0  0  0  0  0  0  0  0  0  0  # atno 17371 bound_to 10713
  139.9420  135.0189  156.8738 LP  0  0  0  0  0  0  0  0  0  0  0  0  # atno 17394 bound_to 11000
  140.5896  134.0275  155.7494 LP  0  0  0  0  0  0  0  0  0  0  0  0  # atno 17395 bound_to 11000

$$$$
