AV-unprocessed.smi:1689|AV-procd|sdf|6772|dock4
  -GOLD-   22720 7533D 1   1.00000     0.00000
 Structure written by MMmdl.
 40 42  0  0  0  0  0  0  0  0  1 V2000
  153.3221  136.5922  160.1415 N   0  0  0  0  0  0  0  0  0  0  0  0
  153.0730  137.6733  159.8122 C   0  0  0  0  0  0  0  0  0  0  0  0
  152.7706  138.9962  159.3758 C   0  0  0  0  0  0  0  0  0  0  0  0
  153.0028  140.0723  160.1576 C   0  0  0  0  0  0  0  0  0  0  0  0
  152.7108  141.3611  159.7616 N   0  0  0  0  0  0  0  0  0  0  0  0
  153.1111  142.4933  160.5486 C   0  0  0  0  0  0  0  0  0  0  0  0
  152.7112  142.5521  162.0069 C   0  0  0  0  0  0  0  0  0  0  0  0
  152.0810  143.5023  161.0182 C   0  0  0  0  0  0  0  0  0  0  0  0
  152.2219  141.6123  158.4608 C   0  0  0  0  0  0  0  0  0  0  0  0
  152.0484  142.7653  158.0569 O   0  0  0  0  0  0  0  0  0  0  0  0
  151.9612  140.4834  157.6437 N   0  0  0  0  0  0  0  0  0  0  0  0
  151.4328  140.7061  156.3024 C   0  0  0  0  0  0  0  0  0  0  0  0
  150.0355  141.3933  156.2134 C   0  0  0  0  0  0  0  0  0  0  0  0
  150.2609  142.7905  156.2615 O   0  0  0  0  0  0  0  0  0  0  0  0
  149.4074  141.1002  154.8287 C   0  0  0  0  0  0  0  0  0  0  0  0
  148.0045  141.7106  154.6536 C   0  0  0  0  0  0  0  0  0  0  0  0
  147.0600  141.2718  155.7808 C   0  0  0  0  0  0  0  0  0  0  0  0
  147.6460  141.6255  157.1544 C   0  0  0  0  0  0  0  0  0  0  0  0
  149.0436  141.0086  157.3426 C   0  0  0  0  0  0  0  0  0  0  0  0
  152.2019  139.1424  158.0379 C   0  0  0  0  0  0  0  0  0  0  0  0
  151.9511  138.1893  157.2984 O   0  0  0  0  0  0  0  0  0  0  0  0
  153.4302  139.9199  161.1383 H   0  0  0  0  0  0  0  0  0  0  0  0
  154.0937  142.8973  160.3115 H   0  0  0  0  0  0  0  0  0  0  0  0
  152.0835  141.7545  162.3996 H   0  0  0  0  0  0  0  0  0  0  0  0
  153.4333  142.9639  162.7087 H   0  0  0  0  0  0  0  0  0  0  0  0
  152.3848  144.5462  161.0579 H   0  0  0  0  0  0  0  0  0  0  0  0
  151.0369  143.3311  160.7621 H   0  0  0  0  0  0  0  0  0  0  0  0
  152.1934  141.2512  155.7391 H   0  0  0  0  0  0  0  0  0  0  0  0
  151.4123  139.7338  155.8088 H   0  0  0  0  0  0  0  0  0  0  0  0
  149.4294  143.2306  156.1735 H   0  0  0  0  0  0  0  0  0  0  0  0
  150.0633  141.4552  154.0324 H   0  0  0  0  0  0  0  0  0  0  0  0
  149.3290  140.0205  154.6936 H   0  0  0  0  0  0  0  0  0  0  0  0
  148.0715  142.7989  154.6344 H   0  0  0  0  0  0  0  0  0  0  0  0
  147.5915  141.4140  153.6891 H   0  0  0  0  0  0  0  0  0  0  0  0
  146.0860  141.7460  155.6571 H   0  0  0  0  0  0  0  0  0  0  0  0
  146.8910  140.1958  155.7202 H   0  0  0  0  0  0  0  0  0  0  0  0
  147.7005  142.7093  157.2623 H   0  0  0  0  0  0  0  0  0  0  0  0
  146.9793  141.2735  157.9421 H   0  0  0  0  0  0  0  0  0  0  0  0
  148.9326  139.9246  157.3723 H   0  0  0  0  0  0  0  0  0  0  0  0
  149.4357  141.3051  158.3161 H   0  0  0  0  0  0  0  0  0  0  0  0
  1  2  3  0  0  0  0
  2  3  1  0  0  0  0
  3 20  1  0  0  0  0
  3  4  2  0  0  0  0
  4  5  1  0  0  0  0
  4 22  1  0  0  0  0
  5  6  1  0  0  0  0
  5  9  1  0  0  0  0
  6  8  1  0  0  0  0
  6  7  1  0  0  0  0
  6 23  1  0  0  0  0
  7  8  1  0  0  0  0
  7 24  1  0  0  0  0
  7 25  1  0  0  0  0
  8 26  1  0  0  0  0
  8 27  1  0  0  0  0
  9 10  2  0  0  0  0
  9 11  1  0  0  0  0
 11 12  1  0  0  0  0
 11 20  1  0  0  0  0
 12 13  1  0  0  0  0
 12 28  1  0  0  0  0
 12 29  1  0  0  0  0
 13 19  1  0  0  0  0
 13 14  1  0  0  0  0
 13 15  1  0  0  0  0
 14 30  1  0  0  0  0
 15 16  1  0  0  0  0
 15 31  1  0  0  0  0
 15 32  1  0  0  0  0
 16 17  1  0  0  0  0
 16 33  1  0  0  0  0
 16 34  1  0  0  0  0
 17 18  1  0  0  0  0
 17 35  1  0  0  0  0
 17 36  1  0  0  0  0
 18 19  1  0  0  0  0
 18 37  1  0  0  0  0
 18 38  1  0  0  0  0
 19 39  1  0  0  0  0
 19 40  1  0  0  0  0
 20 21  2  0  0  0  0
M  END
> <s_m_source_file>
AV-unprocessed.smi

> <i_m_source_file_index>
1689

> <i_lp_mmshare_version>
43012

> <i_f3d_flags>
0

> <s_epik_input>
TiNDYzFbY0hdbihbQ0hdMltDSDJdW0NIMl0yKWMoPU8pbihjMT1PKVtDSDJdQzMoW09IXSlbQ0gyXVtDSDJdW0NIMl1bQ0gyXVtDSDJdMw==

> <s_epik_cmdline>
J2VwaWtfcHl0aG9uJywgJy1waCcsICc3LjAnLCAnLXRuJywgJzgnLCAnLW1hJywgJzIwMCcsICctbWV0YWxfYmluZGluZycsICctaW1hZScsICc8aW5maWxlLm1hZT4nLCAnLW9tYWUnLCAnPG91dGZpbGUubWFlPic=

> <r_lp_tautomer_probability>
1

> <r_epik_Ionization_Penalty>
3.88729e-07

> <r_epik_Ionization_Penalty_Charging>
1.71084e-09

> <r_epik_Ionization_Penalty_Neutral>
3.87018e-07

> <r_epik_State_Penalty>
-0

> <r_epik_Charging_Adjusted_Penalty>
1.71084e-09

> <i_epik_Tot_Q>
0

> <i_epik_Tot_abs_Q>
0

> <r_epik_Metal_State_Penalty>
-0

> <b_epik_Metal_Only>
0

> <s_lp_Force_Field>
OPLS_2005

> <r_lp_Energy>
46.863

> <b_lp_Chiralities_Consistent>
1

> <s_lp_Variant>
AV-unprocessed.smi:1689-1

> <Gold.Version>
5.8.1

> <Gold.Id.Protein>
6NUR|6NUR_protein|mol2

> <Gold.PLP.Fitness>
45.0531

> <Gold.PLP.PLP>
-39.8494

> <Gold.PLP.part.hbond>
-1.5719

> <Gold.PLP.part.metal>
0.0000

> <Gold.PLP.part.buried>
-3.0254

> <Gold.PLP.part.nonpolar>
-34.3835

> <Gold.PLP.part.repulsive>
0.0272

> <Gold.PLP.ligand.clash>
0.0000

> <Gold.PLP.ligand.torsion>
0.5379

> <Gold.PLP.Chemscore.Hbond>
1.9120

> <Gold.PLP.Chemscore.CHOScore>
0.0000

> <Gold.PLP.Chemscore.Metal>
0.0000

> <Gold.Chemscore.Hbonds>
donor molecule, donor type, donor heavy atom, donor atom, acceptor molecule, acceptor atom, score
      L1  H    14    30       P1  8028  0.74
      P1  H  6896  6908       L1     1  1.00

> <Gold.PLP.Chemscore.Internal.Correction>
0.5435

> <Gold.Rescore>
     Score         DG    S(hbond)    S(metal)    S(lipo)     H(rot)  DE(clash)    DE(int)     intcor
     15.59     -16.69       1.82        0.00      86.30       1.94       0.26       0.84       ----

> <Gold.Chemscore.Fitness>
15.5918

> <Gold.Chemscore.DG>
-16.6921

> <Gold.Chemscore.ZeroCoef>
-5.4800

> <Gold.Chemscore.Hbond>
1.8229

> <Gold.Chemscore.Metal>
0.0000

> <Gold.Chemscore.Lipo>
86.3016

> <Gold.Chemscore.Internal_Hbond>
0.0000

> <Gold.Chemscore.DEClash>
0.2634

> <Gold.Chemscore.DEInternal>
0.8369

> <Gold.Chemscore.Rot>
1.9428

> <Gold.Chemscore.Internal.Correction>
   9.000000E+99

> <Gold.Chemscore.Hbonds>
donor molecule, donor type, donor heavy atom, donor atom, acceptor molecule, acceptor atom, score
      L1  H    14    30       P1  8028  0.74
      P1  H  6896  6908       L1     1  0.97

> <Gold.Chemscore.Hbond.Weighted>
-6.0884

> <Gold.Chemscore.Metal.Weighted>
-0.0000

> <Gold.Chemscore.Lipo.Weighted>
-10.0973

> <Gold.Chemscore.Internal_Hbond.Weighted>
0.0000

> <Gold.Chemscore.DEClash.Weighted>
0.2634

> <Gold.Chemscore.DEInternal.Weighted>
0.8369

> <Gold.Chemscore.Rot.Weighted>
4.9735

> <Gold.Chemscore.Internal.Correction.Weighted>
   9.000000E+99

> <Gold.Protein.RotatedTorsions>
[ 6907 6896 6895 6894 ] final  -87.09 input  -60.11 | X-H torsion
[ 7974 7965 7964 7962 ] final -152.43 input  175.53 | X-H torsion
[ 8008 7997 7996 7995 ] final -132.85 input   59.86 | X-H torsion
[ 10167 10162 10161 10158 ] final  -53.77 input  -65.29 | X-H torsion
[ 10718 10713 10712 10709 ] final  -80.62 input   66.30 | X-H torsion
[ 10763 10752 10751 10750 ] final  -16.38 input  -60.55 | X-H torsion
[ 11005 11000 10999 10996 ] final -135.06 input  -57.11 | X-H torsion

> <Gold.Protein.ActiveResidues>
 VAL166  LYS551  ARG553  GLY616  TRP617  ASP618  TYR619  PRO620  LYS621  CYS622 
 ASP623  PHE694  ASN695  SER759  ASP760  ASP761  ALA762  ILE779  LEU786  VAL792 
 PHE793  MET794  SER795  GLU796  ALA797  LYS798  CYS799  TRP800  GLU811  SER814 

> <Gold.Protein.RotatedAtoms>
  150.6866  134.2949  159.4682 H   0  0  0  0  0  0  0  0  0  0  0  0  # atno 6907 bound_to 6896
  152.0851  134.9442  160.0582 H   0  0  0  0  0  0  0  0  0  0  0  0  # atno 6908 bound_to 6896
  152.0780  133.4104  159.4525 H   0  0  0  0  0  0  0  0  0  0  0  0  # atno 6909 bound_to 6896
  144.7795  140.4663  143.5849 H   0  0  0  0  0  0  0  0  0  0  0  0  # atno 7974 bound_to 7965
  155.3357  140.0469  157.3044 H   0  0  0  0  0  0  0  0  0  0  0  0  # atno 8008 bound_to 7997
  154.5304  140.2255  155.8780 H   0  0  0  0  0  0  0  0  0  0  0  0  # atno 8009 bound_to 7997
  156.1782  140.3080  155.9105 H   0  0  0  0  0  0  0  0  0  0  0  0  # atno 8010 bound_to 7997
  140.6467  143.2539  151.4840 H   0  0  0  0  0  0  0  0  0  0  0  0  # atno 10167 bound_to 10162
  156.0066  130.4579  150.3828 H   0  0  0  0  0  0  0  0  0  0  0  0  # atno 10718 bound_to 10713
  153.5576  135.7010  153.5562 H   0  0  0  0  0  0  0  0  0  0  0  0  # atno 10763 bound_to 10752
  153.3458  135.4008  155.1608 H   0  0  0  0  0  0  0  0  0  0  0  0  # atno 10764 bound_to 10752
  154.8652  135.3753  154.5091 H   0  0  0  0  0  0  0  0  0  0  0  0  # atno 10765 bound_to 10752
  140.8933  134.1784  157.4512 H   0  0  0  0  0  0  0  0  0  0  0  0  # atno 11005 bound_to 11000
  145.6091  139.1511  143.3086 LP  0  0  0  0  0  0  0  0  0  0  0  0  # atno 17320 bound_to 7965
  146.1994  140.6208  142.9109 LP  0  0  0  0  0  0  0  0  0  0  0  0  # atno 17321 bound_to 7965
  139.5678  144.2001  152.1791 LP  0  0  0  0  0  0  0  0  0  0  0  0  # atno 17342 bound_to 10162
  140.1288  144.5307  150.6816 LP  0  0  0  0  0  0  0  0  0  0  0  0  # atno 17343 bound_to 10162
  157.1906  131.0414  151.2702 LP  0  0  0  0  0  0  0  0  0  0  0  0  # atno 17370 bound_to 10713
  157.4064  130.7361  149.6806 LP  0  0  0  0  0  0  0  0  0  0  0  0  # atno 17371 bound_to 10713
  139.8732  134.9867  156.5338 LP  0  0  0  0  0  0  0  0  0  0  0  0  # atno 17394 bound_to 11000
  140.8320  133.8271  155.8993 LP  0  0  0  0  0  0  0  0  0  0  0  0  # atno 17395 bound_to 11000

$$$$
