AV-unprocessed.smi:3306|AV-procd|sdf|12701|dock9
  -GOLD-   2272019 33D 1   1.00000     0.00000
 Structure written by MMmdl.
 45 46  0  0  0  0  0  0  0  0  3 V2000
  147.9698  133.0774  153.0118 C   0  0  0  0  0  0  0  0  0  0  0  0
  146.7516  133.7052  152.3145 C   0  0  0  0  0  0  0  0  0  0  0  0
  146.7066  133.3478  150.8161 C   0  0  0  0  0  0  0  0  0  0  0  0
  146.6726  135.1718  152.5810 N   0  3  2  0  0  0  0  0  0  0  0  0
  146.6189  135.5073  154.0285 C   0  0  0  0  0  0  0  0  0  0  0  0
  146.7848  137.0210  154.2482 C   0  0  0  0  0  0  0  0  0  0  0  0
  145.7190  137.8185  153.4781 C   0  0  1  0  0  0  0  0  0  0  0  0
  145.9261  139.2711  153.6790 N   0  3  0  0  0  0  0  0  0  0  0  0
  147.1147  139.8366  153.0072 C   0  0  0  0  0  0  0  0  0  0  0  0
  147.7522  140.9444  153.8569 C   0  0  0  0  0  0  0  0  0  0  0  0
  149.0564  140.5003  154.4914 C   0  0  0  0  0  0  0  0  0  0  0  0
  149.7472  141.3425  155.3883 C   0  0  0  0  0  0  0  0  0  0  0  0
  150.9538  140.8792  155.9486 C   0  0  0  0  0  0  0  0  0  0  0  0
  151.4179  139.5976  155.5945 C   0  0  0  0  0  0  0  0  0  0  0  0
  150.6523  138.8327  154.6921 C   0  0  0  0  0  0  0  0  0  0  0  0
  149.4948  139.2682  154.1482 N   0  0  0  0  0  0  0  0  0  0  0  0
  145.7773  137.4253  151.9887 C   0  0  0  0  0  0  0  0  0  0  0  0
  145.6305  135.9036  151.8095 C   0  0  0  0  0  0  0  0  0  0  0  0
  147.9433  131.9901  152.9326 H   0  0  0  0  0  0  0  0  0  0  0  0
  147.9887  133.3261  154.0735 H   0  0  0  0  0  0  0  0  0  0  0  0
  148.9105  133.4090  152.5727 H   0  0  0  0  0  0  0  0  0  0  0  0
  145.8768  133.2504  152.7815 H   0  0  0  0  0  0  0  0  0  0  0  0
  146.6544  132.2669  150.6813 H   0  0  0  0  0  0  0  0  0  0  0  0
  147.5957  133.6928  150.2879 H   0  0  0  0  0  0  0  0  0  0  0  0
  145.8342  133.7751  150.3224 H   0  0  0  0  0  0  0  0  0  0  0  0
  145.6725  135.1712  154.4540 H   0  0  0  0  0  0  0  0  0  0  0  0
  147.4112  134.9816  154.5627 H   0  0  0  0  0  0  0  0  0  0  0  0
  146.7214  137.2448  155.3139 H   0  0  0  0  0  0  0  0  0  0  0  0
  147.7824  137.3258  153.9276 H   0  0  0  0  0  0  0  0  0  0  0  0
  144.7400  137.5541  153.8820 H   0  0  0  0  0  0  0  0  0  0  0  0
  145.1191  139.7490  153.3034 H   0  0  0  0  0  0  0  0  0  0  0  0
  147.8461  139.0494  152.8238 H   0  0  0  0  0  0  0  0  0  0  0  0
  146.8207  140.2387  152.0366 H   0  0  0  0  0  0  0  0  0  0  0  0
  147.9431  141.8259  153.2430 H   0  0  0  0  0  0  0  0  0  0  0  0
  147.0609  141.2592  154.6401 H   0  0  0  0  0  0  0  0  0  0  0  0
  149.3667  142.3211  155.6421 H   0  0  0  0  0  0  0  0  0  0  0  0
  151.5130  141.4955  156.6369 H   0  0  0  0  0  0  0  0  0  0  0  0
  152.3390  139.2103  156.0044 H   0  0  0  0  0  0  0  0  0  0  0  0
  150.9774  137.8451  154.4001 H   0  0  0  0  0  0  0  0  0  0  0  0
  144.9874  137.9247  151.4276 H   0  0  0  0  0  0  0  0  0  0  0  0
  146.7216  137.7544  151.5525 H   0  0  0  0  0  0  0  0  0  0  0  0
  145.7035  135.6629  150.7495 H   0  0  0  0  0  0  0  0  0  0  0  0
  144.6369  135.5954  152.1378 H   0  0  0  0  0  0  0  0  0  0  0  0
  147.5586  135.5361  152.2607 H   0  0  0  0  0  0  0  0  0  0  0  0
  145.9789  139.4664  154.6688 H   0  0  0  0  0  0  0  0  0  0  0  0
  1  2  1  0  0  0  0
  1 19  1  0  0  0  0
  1 20  1  0  0  0  0
  1 21  1  0  0  0  0
  2  3  1  0  0  0  0
  2  4  1  0  0  0  0
  2 22  1  0  0  0  0
  3 23  1  0  0  0  0
  3 24  1  0  0  0  0
  3 25  1  0  0  0  0
  4 18  1  0  0  0  0
  4  5  1  0  0  0  0
  4 44  1  0  0  0  0
  5  6  1  0  0  0  0
  5 26  1  0  0  0  0
  5 27  1  0  0  0  0
  6  7  1  0  0  0  0
  6 28  1  0  0  0  0
  6 29  1  0  0  0  0
  7  8  1  0  0  0  0
  7 17  1  0  0  0  0
  7 30  1  0  0  0  0
  8  9  1  0  0  0  0
  8 31  1  0  0  0  0
  8 45  1  0  0  0  0
  9 10  1  0  0  0  0
  9 32  1  0  0  0  0
  9 33  1  0  0  0  0
 10 11  1  0  0  0  0
 10 34  1  0  0  0  0
 10 35  1  0  0  0  0
 11 16  1  0  0  0  0
 11 12  2  0  0  0  0
 12 13  1  0  0  0  0
 12 36  1  0  0  0  0
 13 14  2  0  0  0  0
 13 37  1  0  0  0  0
 14 15  1  0  0  0  0
 14 38  1  0  0  0  0
 15 16  2  0  0  0  0
 15 39  1  0  0  0  0
 17 18  1  0  0  0  0
 17 40  1  0  0  0  0
 17 41  1  0  0  0  0
 18 42  1  0  0  0  0
 18 43  1  0  0  0  0
M  CHG  1   4   1
M  CHG  1   8   1
M  END
> <s_m_source_file>
AV-unprocessed.smi

> <i_m_source_file_index>
3306

> <i_lp_mmshare_version>
43012

> <i_f3d_flags>
0

> <s_epik_input>
W0NIM11bQ0hdKFtDSDNdKU4xW0NIMl1bQ0gyXVtDSF0oW0NIMl1bQ0gyXTEpW05IXVtDSDJdW0NIMl1jMltjSF1bY0hdW2NIXVtjSF1uMg==

> <s_epik_cmdline>
J2VwaWtfcHl0aG9uJywgJy1waCcsICc3LjAnLCAnLXRuJywgJzgnLCAnLW1hJywgJzIwMCcsICctbWV0YWxfYmluZGluZycsICctaW1hZScsICc8aW5maWxlLm1hZT4nLCAnLW9tYWUnLCAnPG91dGZpbGUubWFlPic=

> <r_epik_Ionization_Penalty>
0.0800465

> <r_epik_Ionization_Penalty_Charging>
0.0790817

> <r_epik_Ionization_Penalty_Neutral>
0.000964829

> <r_epik_State_Penalty>
0.0665964

> <r_epik_Charging_Adjusted_Penalty>
0.145678

> <i_epik_Tot_Q>
2

> <i_epik_Tot_abs_Q>
2

> <r_epik_Metal_State_Penalty>
0.0683331

> <b_epik_Metal_Only>
0

> <s_lp_Force_Field>
OPLS_2005

> <r_lp_Energy>
27.4923

> <b_lp_Chiralities_Consistent>
1

> <s_lp_Variant>
AV-unprocessed.smi:3306-1

> <Gold.Version>
5.8.1

> <Gold.Id.Protein>
6NUR|6NUR_protein|mol2

> <Gold.PLP.Fitness>
45.5847

> <Gold.PLP.PLP>
-34.8609

> <Gold.PLP.part.hbond>
-2.0000

> <Gold.PLP.part.metal>
0.0000

> <Gold.PLP.part.buried>
-2.2924

> <Gold.PLP.part.nonpolar>
-31.6789

> <Gold.PLP.part.repulsive>
0.8174

> <Gold.PLP.ligand.clash>
0.0000

> <Gold.PLP.ligand.torsion>
0.7164

> <Gold.PLP.Chemscore.Hbond>
4.0000

> <Gold.PLP.Chemscore.CHOScore>
0.0000

> <Gold.PLP.Chemscore.Metal>
0.0000

> <Gold.Chemscore.Hbonds>
donor molecule, donor type, donor heavy atom, donor atom, acceptor molecule, acceptor atom, score
      L1  H     4    44       P1  7948  2.00
      L1  H     8    31       P1 10175  2.00

> <Gold.PLP.Chemscore.Internal.Correction>
0.1566

> <Gold.Rescore>
     Score         DG    S(hbond)    S(metal)    S(lipo)     H(rot)  DE(clash)    DE(int)     intcor
     17.55     -18.51       2.00        0.00      86.38       1.47       0.09       0.87       ----

> <Gold.Chemscore.Fitness>
17.5480

> <Gold.Chemscore.DG>
-18.5084

> <Gold.Chemscore.ZeroCoef>
-5.4800

> <Gold.Chemscore.Hbond>
1.9999

> <Gold.Chemscore.Metal>
0.0000

> <Gold.Chemscore.Lipo>
86.3827

> <Gold.Chemscore.Internal_Hbond>
0.0000

> <Gold.Chemscore.DEClash>
0.0902

> <Gold.Chemscore.DEInternal>
0.8702

> <Gold.Chemscore.Rot>
1.4679

> <Gold.Chemscore.Internal.Correction>
   9.000000E+99

> <Gold.Chemscore.Hbonds>
donor molecule, donor type, donor heavy atom, donor atom, acceptor molecule, acceptor atom, score
      L1  H     4    44       P1  7948  0.98
      L1  H     8    31       P1 10175  1.00

> <Gold.Chemscore.Hbond.Weighted>
-6.6795

> <Gold.Chemscore.Metal.Weighted>
-0.0000

> <Gold.Chemscore.Lipo.Weighted>
-10.1068

> <Gold.Chemscore.Internal_Hbond.Weighted>
0.0000

> <Gold.Chemscore.DEClash.Weighted>
0.0902

> <Gold.Chemscore.DEInternal.Weighted>
0.8702

> <Gold.Chemscore.Rot.Weighted>
3.7579

> <Gold.Chemscore.Internal.Correction.Weighted>
   9.000000E+99

> <Gold.Protein.RotatedTorsions>
[ 6907 6896 6895 6894 ] final  -59.64 input  -60.11 | X-H torsion
[ 7974 7965 7964 7962 ] final -150.07 input  175.53 | X-H torsion
[ 8008 7997 7996 7995 ] final  -32.82 input   59.86 | X-H torsion
[ 10167 10162 10161 10158 ] final -124.03 input  -65.29 | X-H torsion
[ 10718 10713 10712 10709 ] final  142.13 input   66.30 | X-H torsion
[ 10763 10752 10751 10750 ] final -167.95 input  -60.55 | X-H torsion
[ 11005 11000 10999 10996 ] final  107.77 input  -57.11 | X-H torsion

> <Gold.Protein.ActiveResidues>
 VAL166  LYS551  ARG553  GLY616  TRP617  ASP618  TYR619  PRO620  LYS621  CYS622 
 ASP623  PHE694  ASN695  SER759  ASP760  ASP761  ALA762  ILE779  LEU786  VAL792 
 PHE793  MET794  SER795  GLU796  ALA797  LYS798  CYS799  TRP800  GLU811  SER814 

> <Gold.Protein.RotatedAtoms>
  150.7915  134.6942  159.6513 H   0  0  0  0  0  0  0  0  0  0  0  0  # atno 6907 bound_to 6896
  152.4021  134.6266  160.0074 H   0  0  0  0  0  0  0  0  0  0  0  0  # atno 6908 bound_to 6896
  151.6534  133.3283  159.3193 H   0  0  0  0  0  0  0  0  0  0  0  0  # atno 6909 bound_to 6896
  144.7929  140.4981  143.5760 H   0  0  0  0  0  0  0  0  0  0  0  0  # atno 7974 bound_to 7965
  154.4168  140.1727  156.1788 H   0  0  0  0  0  0  0  0  0  0  0  0  # atno 8008 bound_to 7997
  155.9699  140.3386  155.6542 H   0  0  0  0  0  0  0  0  0  0  0  0  # atno 8009 bound_to 7997
  155.6639  140.0704  157.2535 H   0  0  0  0  0  0  0  0  0  0  0  0  # atno 8010 bound_to 7997
  139.9971  143.5579  152.2318 H   0  0  0  0  0  0  0  0  0  0  0  0  # atno 10167 bound_to 10162
  157.3841  131.0996  151.0711 H   0  0  0  0  0  0  0  0  0  0  0  0  # atno 10718 bound_to 10713
  154.6679  135.2934  154.9781 H   0  0  0  0  0  0  0  0  0  0  0  0  # atno 10763 bound_to 10752
  154.0818  135.6603  153.4843 H   0  0  0  0  0  0  0  0  0  0  0  0  # atno 10764 bound_to 10752
  153.0468  135.5199  154.7660 H   0  0  0  0  0  0  0  0  0  0  0  0  # atno 10765 bound_to 10752
  139.8833  134.9411  156.5871 H   0  0  0  0  0  0  0  0  0  0  0  0  # atno 11005 bound_to 11000
  145.5747  139.1485  143.3269 LP  0  0  0  0  0  0  0  0  0  0  0  0  # atno 17320 bound_to 7965
  146.2188  140.5879  142.9026 LP  0  0  0  0  0  0  0  0  0  0  0  0  # atno 17321 bound_to 7965
  139.6298  144.7642  151.2560 LP  0  0  0  0  0  0  0  0  0  0  0  0  # atno 17342 bound_to 10162
  140.7433  143.6499  150.8258 LP  0  0  0  0  0  0  0  0  0  0  0  0  # atno 17343 bound_to 10162
  157.1769  130.6292  149.5659 LP  0  0  0  0  0  0  0  0  0  0  0  0  # atno 17370 bound_to 10713
  155.9782  130.4766  150.6643 LP  0  0  0  0  0  0  0  0  0  0  0  0  # atno 17371 bound_to 10713
  140.7983  133.8526  155.8705 LP  0  0  0  0  0  0  0  0  0  0  0  0  # atno 17394 bound_to 11000
  140.9615  134.1649  157.4650 LP  0  0  0  0  0  0  0  0  0  0  0  0  # atno 17395 bound_to 11000

$$$$
