AV-unprocessed.smi:218|AV-procd|sdf|1669|dock7
  -GOLD-   2262020 83D 1   1.00000     0.00000
 Structure written by MMmdl.
 54 57  0  0  0  0  0  0  0  0  1 V2000
  152.5251  143.2946  159.6368 C   0  0  0  0  0  0  0  0  0  0  0  0
  152.4961  141.7848  159.3704 C   0  0  0  0  0  0  0  0  0  0  0  0
  153.7296  141.0896  159.9721 C   0  0  0  0  0  0  0  0  0  0  0  0
  152.4704  141.6142  157.9516 O   0  0  0  0  0  0  0  0  0  0  0  0
  151.9659  140.4515  157.4012 C   0  0  0  0  0  0  0  0  0  0  0  0
  150.5751  140.2290  157.4675 C   0  0  0  0  0  0  0  0  0  0  0  0
  150.0476  139.0435  156.9164 C   0  0  0  0  0  0  0  0  0  0  0  0
  148.5597  138.7675  156.9635 C   0  0  0  0  0  0  0  0  0  0  0  0
  148.1849  137.5645  156.2339 N   0  0  0  0  0  0  0  0  0  0  0  0
  147.3821  137.6533  155.1522 C   0  0  0  0  0  0  0  0  0  0  0  0
  146.9371  138.8580  154.7073 N   0  0  0  0  0  0  0  0  0  0  0  0
  146.1444  138.9216  153.6331 C   0  0  0  0  0  0  0  0  0  0  0  0
  145.6879  137.9237  152.8736 N   0  0  0  0  0  0  0  0  0  0  0  0
  146.1301  136.7121  153.3182 C   0  0  0  0  0  0  0  0  0  0  0  0
  146.9755  136.4946  154.4411 C   0  0  0  0  0  0  0  0  0  0  0  0
  147.2194  135.1354  154.5894 N   0  0  0  0  0  0  0  0  0  0  0  0
  146.5546  134.5859  153.6082 C   0  0  0  0  0  0  0  0  0  0  0  0
  145.8752  135.4625  152.7912 N   0  0  0  0  0  0  0  0  0  0  0  0
  145.0248  135.1385  151.6014 C   0  0  1  0  0  0  0  0  0  0  0  0
  145.7827  134.3366  150.7502 O   0  0  0  0  0  0  0  0  0  0  0  0
  144.9448  133.3358  150.1970 C   0  0  1  0  0  0  0  0  0  0  0  0
  145.7738  132.1666  149.6344 C   0  0  0  0  0  0  0  0  0  0  0  0
  146.5565  131.5366  150.6273 O   0  0  0  0  0  0  0  0  0  0  0  0
  143.9359  133.0104  151.3033 C   0  0  2  0  0  0  0  0  0  0  0  0
  142.7277  132.5349  150.7445 O   0  0  0  0  0  0  0  0  0  0  0  0
  143.7275  134.3703  151.9624 C   0  0  1  0  0  0  0  0  0  0  0  0
  143.4903  134.2304  153.3518 O   0  0  0  0  0  0  0  0  0  0  0  0
  150.9319  138.1254  156.3159 C   0  0  0  0  0  0  0  0  0  0  0  0
  152.3057  138.4342  156.2983 C   0  0  0  0  0  0  0  0  0  0  0  0
  152.8176  139.5658  156.8268 N   0  0  0  0  0  0  0  0  0  0  0  0
  144.8238  136.1033  151.1340 H   0  0  0  0  0  0  0  0  0  0  0  0
  144.4218  133.8151  149.3667 H   0  0  0  0  0  0  0  0  0  0  0  0
  144.3408  132.2919  152.0169 H   0  0  0  0  0  0  0  0  0  0  0  0
  142.8933  134.9039  151.5038 H   0  0  0  0  0  0  0  0  0  0  0  0
  152.5384  143.5052  160.7066 H   0  0  0  0  0  0  0  0  0  0  0  0
  151.6453  143.7810  159.2148 H   0  0  0  0  0  0  0  0  0  0  0  0
  153.4066  143.7581  159.1930 H   0  0  0  0  0  0  0  0  0  0  0  0
  151.5866  141.3949  159.8299 H   0  0  0  0  0  0  0  0  0  0  0  0
  153.7784  141.2469  161.0498 H   0  0  0  0  0  0  0  0  0  0  0  0
  154.6509  141.4779  159.5373 H   0  0  0  0  0  0  0  0  0  0  0  0
  153.7120  140.0136  159.8012 H   0  0  0  0  0  0  0  0  0  0  0  0
  149.9262  140.9555  157.9346 H   0  0  0  0  0  0  0  0  0  0  0  0
  148.2420  138.6753  158.0029 H   0  0  0  0  0  0  0  0  0  0  0  0
  148.0359  139.6264  156.5417 H   0  0  0  0  0  0  0  0  0  0  0  0
  148.5318  136.6908  156.6032 H   0  0  0  0  0  0  0  0  0  0  0  0
  145.8302  139.9123  153.3391 H   0  0  0  0  0  0  0  0  0  0  0  0
  146.5433  133.5171  153.4516 H   0  0  0  0  0  0  0  0  0  0  0  0
  145.1057  131.4151  149.2136 H   0  0  0  0  0  0  0  0  0  0  0  0
  146.4180  132.5089  148.8242 H   0  0  0  0  0  0  0  0  0  0  0  0
  147.4168  131.3726  150.2722 H   0  0  0  0  0  0  0  0  0  0  0  0
  142.2620  133.2700  150.3755 H   0  0  0  0  0  0  0  0  0  0  0  0
  143.2180  133.3400  153.5167 H   0  0  0  0  0  0  0  0  0  0  0  0
  150.5704  137.2068  155.8777 H   0  0  0  0  0  0  0  0  0  0  0  0
  153.0128  137.7541  155.8472 H   0  0  0  0  0  0  0  0  0  0  0  0
  1  2  1  0  0  0  0
  1 35  1  0  0  0  0
  1 36  1  0  0  0  0
  1 37  1  0  0  0  0
  2  3  1  0  0  0  0
  2  4  1  0  0  0  0
  2 38  1  0  0  0  0
  3 39  1  0  0  0  0
  3 40  1  0  0  0  0
  3 41  1  0  0  0  0
  4  5  1  0  0  0  0
  5 30  1  0  0  0  0
  5  6  2  0  0  0  0
  6  7  1  0  0  0  0
  6 42  1  0  0  0  0
  7  8  1  0  0  0  0
  7 28  2  0  0  0  0
  8  9  1  0  0  0  0
  8 43  1  0  0  0  0
  8 44  1  0  0  0  0
  9 10  1  0  0  0  0
  9 45  1  0  0  0  0
 10 15  1  0  0  0  0
 10 11  2  0  0  0  0
 11 12  1  0  0  0  0
 12 13  2  0  0  0  0
 12 46  1  0  0  0  0
 13 14  1  0  0  0  0
 14 18  1  0  0  0  0
 14 15  2  0  0  0  0
 15 16  1  0  0  0  0
 16 17  2  0  0  0  0
 17 18  1  0  0  0  0
 17 47  1  0  0  0  0
 18 19  1  0  0  0  0
 19 31  1  0  0  0  0
 19 26  1  0  0  0  0
 19 20  1  0  0  0  0
 20 21  1  0  0  0  0
 21 32  1  0  0  0  0
 21 22  1  0  0  0  0
 21 24  1  0  0  0  0
 22 23  1  0  0  0  0
 22 48  1  0  0  0  0
 22 49  1  0  0  0  0
 23 50  1  0  0  0  0
 24 33  1  0  0  0  0
 24 25  1  0  0  0  0
 24 26  1  0  0  0  0
 25 51  1  0  0  0  0
 26 34  1  0  0  0  0
 26 27  1  0  0  0  0
 27 52  1  0  0  0  0
 28 29  1  0  0  0  0
 28 53  1  0  0  0  0
 29 30  2  0  0  0  0
 29 54  1  0  0  0  0
M  END
> <s_m_source_file>
AV-unprocessed.smi

> <i_m_source_file_index>
218

> <i_lp_mmshare_version>
43012

> <i_f3d_flags>
0

> <s_epik_input>
W0NIM11bQ0hdKFtDSDNdKU9jMVtjSF1jKFtjSF1bY0hdbjEpW0NIMl1bTkhdYyhuW2NIXW4yKWMoYzIzKW5bY0hdbjNbQ0BASF00T1tDQEhdKFtDSDJdW09IXSlbQ0BASF0oW09IXSlbQ0BIXTRbT0hd

> <s_epik_cmdline>
J2VwaWtfcHl0aG9uJywgJy1waCcsICc3LjAnLCAnLXRuJywgJzgnLCAnLW1hJywgJzIwMCcsICctbWV0YWxfYmluZGluZycsICctaW1hZScsICc8aW5maWxlLm1hZT4nLCAnLW9tYWUnLCAnPG91dGZpbGUubWFlPic=

> <r_lp_tautomer_probability>
1

> <r_epik_Ionization_Penalty>
0.00457014

> <r_epik_Ionization_Penalty_Charging>
0

> <r_epik_Ionization_Penalty_Neutral>
0.00457014

> <r_epik_State_Penalty>
-0

> <r_epik_Charging_Adjusted_Penalty>
0

> <i_epik_Tot_Q>
0

> <i_epik_Tot_abs_Q>
0

> <r_epik_Metal_State_Penalty>
-0

> <b_epik_Metal_Only>
0

> <s_epik_Chemistry_Notes>
This compound contains an acetal/aminal-like group ( X-CH(R)-Y where X, Y are N, S, or O) that may be acid/base labile, releasing an aldehyde.

> <s_lp_Force_Field>
OPLS_2005

> <r_lp_Energy>
42.4644

> <b_lp_Chiralities_Consistent>
1

> <s_lp_Variant>
AV-unprocessed.smi:218-8

> <Gold.Version>
5.8.1

> <Gold.Id.Protein>
6NUR|6NUR_protein|mol2

> <Gold.PLP.Fitness>
51.2534

> <Gold.PLP.PLP>
-37.4488

> <Gold.PLP.part.hbond>
-4.6255

> <Gold.PLP.part.metal>
0.0000

> <Gold.PLP.part.buried>
-7.3304

> <Gold.PLP.part.nonpolar>
-26.4121

> <Gold.PLP.part.repulsive>
0.5255

> <Gold.PLP.ligand.clash>
0.0000

> <Gold.PLP.ligand.torsion>
0.5070

> <Gold.PLP.Chemscore.Hbond>
4.0000

> <Gold.PLP.Chemscore.CHOScore>
0.9014

> <Gold.PLP.Chemscore.Metal>
0.0000

> <Gold.Chemscore.Hbonds>
donor molecule, donor type, donor heavy atom, donor atom, acceptor molecule, acceptor atom, score
      L1  H    23    50       P1 10747  1.00
      L1  H    25    51       P1 10186  1.00
      L1  H    27    52       P1 10957  0.84
      P1  H  7997  8009       L1    30  0.96
      L1  C    12    46       P1 10175  0.91

> <Gold.PLP.Chemscore.Internal.Correction>
0.1143

> <Gold.Rescore>
     Score         DG    S(hbond)    S(metal)    S(lipo)     H(rot)  DE(clash)    DE(int)     intcor
     14.43     -15.00       3.89        0.00      77.53       4.90       0.06       0.52       ----

> <Gold.Chemscore.Fitness>
14.4301

> <Gold.Chemscore.DG>
-15.0023

> <Gold.Chemscore.ZeroCoef>
-5.4800

> <Gold.Chemscore.Hbond>
3.8932

> <Gold.Chemscore.Metal>
0.0000

> <Gold.Chemscore.Lipo>
77.5268

> <Gold.Chemscore.Internal_Hbond>
0.0000

> <Gold.Chemscore.DEClash>
0.0563

> <Gold.Chemscore.DEInternal>
0.5158

> <Gold.Chemscore.Rot>
4.9029

> <Gold.Chemscore.Internal.Correction>
   9.000000E+99

> <Gold.Chemscore.Hbonds>
donor molecule, donor type, donor heavy atom, donor atom, acceptor molecule, acceptor atom, score
      L1  H    23    50       P1 10747  0.99
      L1  H    25    51       P1 10186  1.00
      L1  H    27    52       P1 10957  0.78
      P1  H  7997  8009       L1    30  0.81

> <Gold.Chemscore.Hbond.Weighted>
-13.0032

> <Gold.Chemscore.Metal.Weighted>
-0.0000

> <Gold.Chemscore.Lipo.Weighted>
-9.0706

> <Gold.Chemscore.Internal_Hbond.Weighted>
0.0000

> <Gold.Chemscore.DEClash.Weighted>
0.0563

> <Gold.Chemscore.DEInternal.Weighted>
0.5158

> <Gold.Chemscore.Rot.Weighted>
12.5515

> <Gold.Chemscore.Internal.Correction.Weighted>
   9.000000E+99

> <Gold.Protein.RotatedTorsions>
[ 6907 6896 6895 6894 ] final    9.66 input  -60.11 | X-H torsion
[ 7974 7965 7964 7962 ] final -156.53 input  175.53 | X-H torsion
[ 8008 7997 7996 7995 ] final  162.99 input   59.86 | X-H torsion
[ 10167 10162 10161 10158 ] final  162.38 input  -65.29 | X-H torsion
[ 10718 10713 10712 10709 ] final -142.84 input   66.30 | X-H torsion
[ 10763 10752 10751 10750 ] final -162.98 input  -60.55 | X-H torsion
[ 11005 11000 10999 10996 ] final  -43.91 input  -57.11 | X-H torsion

> <Gold.Protein.ActiveResidues>
 VAL166  LYS551  ARG553  GLY616  TRP617  ASP618  TYR619  PRO620  LYS621  CYS622 
 ASP623  PHE694  ASN695  SER759  ASP760  ASP761  ALA762  ILE779  LEU786  VAL792 
 PHE793  MET794  SER795  GLU796  ALA797  LYS798  CYS799  TRP800  GLU811  SER814 

> <Gold.Protein.RotatedAtoms>
  151.7258  135.0885  160.0291 H   0  0  0  0  0  0  0  0  0  0  0  0  # atno 6907 bound_to 6896
  152.3573  133.6248  159.5997 H   0  0  0  0  0  0  0  0  0  0  0  0  # atno 6908 bound_to 6896
  150.7580  133.9396  159.3493 H   0  0  0  0  0  0  0  0  0  0  0  0  # atno 6909 bound_to 6896
  144.7589  140.4096  143.5991 H   0  0  0  0  0  0  0  0  0  0  0  0  # atno 7974 bound_to 7965
  156.1991  140.1735  156.7937 H   0  0  0  0  0  0  0  0  0  0  0  0  # atno 8008 bound_to 7997
  154.5568  140.0707  156.8786 H   0  0  0  0  0  0  0  0  0  0  0  0  # atno 8009 bound_to 7997
  155.2924  140.3356  155.4254 H   0  0  0  0  0  0  0  0  0  0  0  0  # atno 8010 bound_to 7997
  139.4860  144.4443  151.8912 H   0  0  0  0  0  0  0  0  0  0  0  0  # atno 10167 bound_to 10162
  156.3507  130.7687  151.1839 H   0  0  0  0  0  0  0  0  0  0  0  0  # atno 10718 bound_to 10713
  154.7164  135.3016  154.9116 H   0  0  0  0  0  0  0  0  0  0  0  0  # atno 10763 bound_to 10752
  154.0002  135.6708  153.4763 H   0  0  0  0  0  0  0  0  0  0  0  0  # atno 10764 bound_to 10752
  153.0797  135.5015  154.8393 H   0  0  0  0  0  0  0  0  0  0  0  0  # atno 10765 bound_to 10752
  141.0416  133.6778  156.2799 H   0  0  0  0  0  0  0  0  0  0  0  0  # atno 11005 bound_to 11000
  145.6686  139.1595  143.2767 LP  0  0  0  0  0  0  0  0  0  0  0  0  # atno 17320 bound_to 7965
  146.1630  140.6760  142.9268 LP  0  0  0  0  0  0  0  0  0  0  0  0  # atno 17321 bound_to 7965
  140.3896  144.2632  150.5901 LP  0  0  0  0  0  0  0  0  0  0  0  0  # atno 17342 bound_to 10162
  140.5158  143.2278  151.8465 LP  0  0  0  0  0  0  0  0  0  0  0  0  # atno 17343 bound_to 10162
  157.7461  131.0428  150.4713 LP  0  0  0  0  0  0  0  0  0  0  0  0  # atno 17370 bound_to 10713
  156.4908  130.4095  149.6408 LP  0  0  0  0  0  0  0  0  0  0  0  0  # atno 17371 bound_to 10713
  140.6224  134.5347  157.5549 LP  0  0  0  0  0  0  0  0  0  0  0  0  # atno 17394 bound_to 11000
  139.9280  134.8019  156.1013 LP  0  0  0  0  0  0  0  0  0  0  0  0  # atno 17395 bound_to 11000

$$$$
