AV-unprocessed.smi:2044|AV-procd|sdf|8299|dock1
  -GOLD-   2272010563D 1   1.00000     0.00000
 Structure written by MMmdl.
 39 40  0  0  0  0  0  0  0  0  1 V2000
  153.2794  142.2901  161.5725 C   0  0  0  0  0  0  0  0  0  0  0  0
  152.4261  142.8363  160.4792 C   0  0  0  0  0  0  0  0  0  0  0  0
  151.8199  142.2620  159.3972 C   0  0  0  0  0  0  0  0  0  0  0  0
  151.1672  143.3600  158.7759 C   0  0  0  0  0  0  0  0  0  0  0  0
  150.4082  143.1815  157.5908 N   0  0  0  0  0  0  0  0  0  0  0  0
  150.0767  142.0218  156.9974 C   0  0  0  0  0  0  0  0  0  0  0  0
  150.3874  140.9018  157.4043 O   0  0  0  0  0  0  0  0  0  0  0  0
  149.3521  142.2309  155.8886 N   0  0  0  0  0  0  0  0  0  0  0  0
  148.8310  141.1807  155.0172 C   0  0  0  0  0  0  0  0  0  0  0  0
  147.7961  141.6960  153.9748 C   0  0  1  0  0  0  0  0  0  0  0  0
  147.1343  140.4768  153.2833 C   0  0  0  0  0  0  0  0  0  0  0  0
  146.8046  142.6371  154.5474 N   0  0  0  0  0  0  0  0  0  0  0  0
  145.9256  141.9946  155.5318 C   0  0  0  0  0  0  0  0  0  0  0  0
  144.8691  142.9527  156.1095 C   0  0  0  0  0  0  0  0  0  0  0  0
  144.0961  143.5062  155.0540 O   0  0  0  0  0  0  0  0  0  0  0  0
  144.9003  144.2079  154.1166 C   0  0  0  0  0  0  0  0  0  0  0  0
  145.9561  143.2587  153.5237 C   0  0  0  0  0  0  0  0  0  0  0  0
  151.3568  144.5008  159.4211 N   0  0  0  0  0  0  0  0  0  0  0  0
  152.1640  144.1708  160.5161 O   0  0  0  0  0  0  0  0  0  0  0  0
  153.6995  141.3238  161.2928 H   0  0  0  0  0  0  0  0  0  0  0  0
  152.6979  142.1549  162.4846 H   0  0  0  0  0  0  0  0  0  0  0  0
  154.1060  142.9654  161.7948 H   0  0  0  0  0  0  0  0  0  0  0  0
  151.8427  141.2237  159.1009 H   0  0  0  0  0  0  0  0  0  0  0  0
  150.0844  144.0278  157.1468 H   0  0  0  0  0  0  0  0  0  0  0  0
  149.1407  143.1831  155.6286 H   0  0  0  0  0  0  0  0  0  0  0  0
  149.6738  140.7171  154.5041 H   0  0  0  0  0  0  0  0  0  0  0  0
  148.4108  140.4158  155.6687 H   0  0  0  0  0  0  0  0  0  0  0  0
  148.3552  142.2309  153.2055 H   0  0  0  0  0  0  0  0  0  0  0  0
  147.8665  139.7610  152.9115 H   0  0  0  0  0  0  0  0  0  0  0  0
  146.5518  140.7640  152.4090 H   0  0  0  0  0  0  0  0  0  0  0  0
  146.4744  139.9444  153.9692 H   0  0  0  0  0  0  0  0  0  0  0  0
  145.4259  141.1379  155.0769 H   0  0  0  0  0  0  0  0  0  0  0  0
  146.5035  141.6147  156.3724 H   0  0  0  0  0  0  0  0  0  0  0  0
  144.2067  142.4185  156.7908 H   0  0  0  0  0  0  0  0  0  0  0  0
  145.3428  143.7509  156.6831 H   0  0  0  0  0  0  0  0  0  0  0  0
  144.2617  144.6031  153.3265 H   0  0  0  0  0  0  0  0  0  0  0  0
  145.3768  145.0622  154.6002 H   0  0  0  0  0  0  0  0  0  0  0  0
  146.5539  143.8483  152.8319 H   0  0  0  0  0  0  0  0  0  0  0  0
  145.4586  142.4856  152.9359 H   0  0  0  0  0  0  0  0  0  0  0  0
  1  2  1  0  0  0  0
  1 20  1  0  0  0  0
  1 21  1  0  0  0  0
  1 22  1  0  0  0  0
  2 19  1  0  0  0  0
  2  3  2  0  0  0  0
  3  4  1  0  0  0  0
  3 23  1  0  0  0  0
  4  5  1  0  0  0  0
  4 18  2  0  0  0  0
  5  6  1  0  0  0  0
  5 24  1  0  0  0  0
  6  7  2  0  0  0  0
  6  8  1  0  0  0  0
  8  9  1  0  0  0  0
  8 25  1  0  0  0  0
  9 10  1  0  0  0  0
  9 26  1  0  0  0  0
  9 27  1  0  0  0  0
 10 11  1  0  0  0  0
 10 12  1  0  0  0  0
 10 28  1  0  0  0  0
 11 29  1  0  0  0  0
 11 30  1  0  0  0  0
 11 31  1  0  0  0  0
 12 17  1  0  0  0  0
 12 13  1  0  0  0  0
 13 14  1  0  0  0  0
 13 32  1  0  0  0  0
 13 33  1  0  0  0  0
 14 15  1  0  0  0  0
 14 34  1  0  0  0  0
 14 35  1  0  0  0  0
 15 16  1  0  0  0  0
 16 17  1  0  0  0  0
 16 36  1  0  0  0  0
 16 37  1  0  0  0  0
 17 38  1  0  0  0  0
 17 39  1  0  0  0  0
 18 19  1  0  0  0  0
M  END
> <s_m_source_file>
AV-unprocessed.smi

> <i_m_source_file_index>
2044

> <i_lp_mmshare_version>
43012

> <i_f3d_flags>
0

> <s_epik_input>
W0NIM11jMVtjSF1jKG5vMSlbTkhdQyg9TylbTkhdW0NIMl1bQ0BIXShbQ0gzXSlOMltDSDJdW0NIMl1PW0NIMl1bQ0gyXTI=

> <s_epik_cmdline>
J2VwaWtfcHl0aG9uJywgJy1waCcsICc3LjAnLCAnLXRuJywgJzgnLCAnLW1hJywgJzIwMCcsICctbWV0YWxfYmluZGluZycsICctaW1hZScsICc8aW5maWxlLm1hZT4nLCAnLW9tYWUnLCAnPG91dGZpbGUubWFlPic=

> <r_epik_Ionization_Penalty>
0.214073

> <r_epik_Ionization_Penalty_Charging>
0

> <r_epik_Ionization_Penalty_Neutral>
0.214073

> <r_epik_State_Penalty>
0.204211

> <r_epik_Charging_Adjusted_Penalty>
0.204211

> <i_epik_Tot_Q>
0

> <i_epik_Tot_abs_Q>
0

> <r_epik_Metal_State_Penalty>
0.217151

> <b_epik_Metal_Only>
0

> <s_lp_Force_Field>
OPLS_2005

> <r_lp_Energy>
26.3951

> <b_lp_Chiralities_Consistent>
1

> <s_lp_Variant>
AV-unprocessed.smi:2044-2

> <Gold.Version>
5.8.1

> <Gold.Id.Protein>
6NUR|6NUR_protein|mol2

> <Gold.PLP.Fitness>
41.7139

> <Gold.PLP.PLP>
-36.3446

> <Gold.PLP.part.hbond>
-2.0000

> <Gold.PLP.part.metal>
0.0000

> <Gold.PLP.part.buried>
-8.3504

> <Gold.PLP.part.nonpolar>
-27.6621

> <Gold.PLP.part.repulsive>
0.6910

> <Gold.PLP.ligand.clash>
0.0000

> <Gold.PLP.ligand.torsion>
0.1913

> <Gold.PLP.Chemscore.Hbond>
1.8960

> <Gold.PLP.Chemscore.CHOScore>
0.0000

> <Gold.PLP.Chemscore.Metal>
0.0000

> <Gold.Chemscore.Hbonds>
donor molecule, donor type, donor heavy atom, donor atom, acceptor molecule, acceptor atom, score
      L1  H     5    24       P1  8028  0.88
      L1  H     8    25       P1  8028  1.00

> <Gold.PLP.Chemscore.Internal.Correction>
0.0638

> <Gold.Rescore>
     Score         DG    S(hbond)    S(metal)    S(lipo)     H(rot)  DE(clash)    DE(int)     intcor
     15.00     -16.63       1.88        0.00      76.12       1.58       0.03       1.60       ----

> <Gold.Chemscore.Fitness>
15.0012

> <Gold.Chemscore.DG>
-16.6325

> <Gold.Chemscore.ZeroCoef>
-5.4800

> <Gold.Chemscore.Hbond>
1.8802

> <Gold.Chemscore.Metal>
0.0000

> <Gold.Chemscore.Lipo>
76.1151

> <Gold.Chemscore.Internal_Hbond>
0.0000

> <Gold.Chemscore.DEClash>
0.0291

> <Gold.Chemscore.DEInternal>
1.6022

> <Gold.Chemscore.Rot>
1.5753

> <Gold.Chemscore.Internal.Correction>
   9.000000E+99

> <Gold.Chemscore.Hbonds>
donor molecule, donor type, donor heavy atom, donor atom, acceptor molecule, acceptor atom, score
      L1  H     5    24       P1  8028  0.73
      L1  H     8    25       P1  8028  0.96

> <Gold.Chemscore.Hbond.Weighted>
-6.2799

> <Gold.Chemscore.Metal.Weighted>
-0.0000

> <Gold.Chemscore.Lipo.Weighted>
-8.9055

> <Gold.Chemscore.Internal_Hbond.Weighted>
0.0000

> <Gold.Chemscore.DEClash.Weighted>
0.0291

> <Gold.Chemscore.DEInternal.Weighted>
1.6022

> <Gold.Chemscore.Rot.Weighted>
4.0329

> <Gold.Chemscore.Internal.Correction.Weighted>
   9.000000E+99

> <Gold.Protein.RotatedTorsions>
[ 6907 6896 6895 6894 ] final  121.28 input  -60.11 | X-H torsion
[ 7974 7965 7964 7962 ] final   36.65 input  175.53 | X-H torsion
[ 8008 7997 7996 7995 ] final  172.15 input   59.86 | X-H torsion
[ 10167 10162 10161 10158 ] final  -11.18 input  -65.29 | X-H torsion
[ 10718 10713 10712 10709 ] final  -18.65 input   66.30 | X-H torsion
[ 10763 10752 10751 10750 ] final -163.55 input  -60.55 | X-H torsion
[ 11005 11000 10999 10996 ] final  -88.67 input  -57.11 | X-H torsion

> <Gold.Protein.ActiveResidues>
 VAL166  LYS551  ARG553  GLY616  TRP617  ASP618  TYR619  PRO620  LYS621  CYS622 
 ASP623  PHE694  ASN695  SER759  ASP760  ASP761  ALA762  ILE779  LEU786  VAL792 
 PHE793  MET794  SER795  GLU796  ALA797  LYS798  CYS799  TRP800  GLU811  SER814 

> <Gold.Protein.RotatedAtoms>
  152.4334  133.7317  159.6591 H   0  0  0  0  0  0  0  0  0  0  0  0  # atno 6907 bound_to 6896
  150.8215  133.8234  159.3143 H   0  0  0  0  0  0  0  0  0  0  0  0  # atno 6908 bound_to 6896
  151.5915  135.1055  160.0091 H   0  0  0  0  0  0  0  0  0  0  0  0  # atno 6909 bound_to 6896
  146.1196  139.5991  142.9299 H   0  0  0  0  0  0  0  0  0  0  0  0  # atno 7974 bound_to 7965
  156.1203  140.1493  156.9214 H   0  0  0  0  0  0  0  0  0  0  0  0  # atno 8008 bound_to 7997
  154.4830  140.0873  156.7464 H   0  0  0  0  0  0  0  0  0  0  0  0  # atno 8009 bound_to 7997
  155.4441  140.3432  155.4295 H   0  0  0  0  0  0  0  0  0  0  0  0  # atno 8010 bound_to 7997
  140.7132  143.5668  150.9136 H   0  0  0  0  0  0  0  0  0  0  0  0  # atno 10167 bound_to 10162
  156.5565  130.4715  149.6427 H   0  0  0  0  0  0  0  0  0  0  0  0  # atno 10718 bound_to 10713
  154.7112  135.3006  154.9194 H   0  0  0  0  0  0  0  0  0  0  0  0  # atno 10763 bound_to 10752
  154.0095  135.6696  153.4768 H   0  0  0  0  0  0  0  0  0  0  0  0  # atno 10764 bound_to 10752
  153.0756  135.5036  154.8311 H   0  0  0  0  0  0  0  0  0  0  0  0  # atno 10765 bound_to 10752
  141.1598  133.7584  156.9485 H   0  0  0  0  0  0  0  0  0  0  0  0  # atno 11005 bound_to 11000
  145.5495  141.0414  143.2286 LP  0  0  0  0  0  0  0  0  0  0  0  0  # atno 17320 bound_to 7965
  144.7584  139.7016  143.7244 LP  0  0  0  0  0  0  0  0  0  0  0  0  # atno 17321 bound_to 7965
  139.9394  143.6400  152.3057 LP  0  0  0  0  0  0  0  0  0  0  0  0  # atno 17342 bound_to 10162
  139.6879  144.7650  151.1491 LP  0  0  0  0  0  0  0  0  0  0  0  0  # atno 17343 bound_to 10162
  156.2837  130.7085  151.1916 LP  0  0  0  0  0  0  0  0  0  0  0  0  # atno 17370 bound_to 10713
  157.7377  131.0549  150.5339 LP  0  0  0  0  0  0  0  0  0  0  0  0  # atno 17371 bound_to 10713
  140.1273  134.9378  157.2288 LP  0  0  0  0  0  0  0  0  0  0  0  0  # atno 17394 bound_to 11000
  140.2997  134.3146  155.7293 LP  0  0  0  0  0  0  0  0  0  0  0  0  # atno 17395 bound_to 11000

$$$$
