AV-unprocessed.smi:276|AV-procd|sdf|2078|dock6
  -GOLD-   2262021343D 1   1.00000     0.00000
 Structure written by MMmdl.
 57 61  0  0  0  0  0  0  0  0  1 V2000
  153.0096  143.4126  162.0956 C   0  0  0  0  0  0  0  0  0  0  0  0
  153.6573  142.4484  161.2836 O   0  0  0  0  0  0  0  0  0  0  0  0
  152.7647  141.7872  160.4006 C   0  0  2  0  0  0  0  0  0  0  0  0
  153.4630  140.7834  159.4691 C   0  0  0  0  0  0  0  0  0  0  0  0
  152.8879  141.5218  158.2515 C   0  0  1  0  0  0  0  0  0  0  0  0
  151.8491  140.7662  157.5316 N   0  0  0  0  0  0  0  0  0  0  0  0
  150.8573  141.4220  156.6793 C   0  0  0  0  0  0  0  0  0  0  0  0
  152.0581  139.4390  157.3070 C   0  0  0  0  0  0  0  0  0  0  0  0
  153.3211  138.9404  157.3968 N   0  0  0  0  0  0  0  0  0  0  0  0
  153.5632  137.6471  157.1685 C   0  0  0  0  0  0  0  0  0  0  0  0
  152.7014  136.6826  156.8454 N   0  0  0  0  0  0  0  0  0  0  0  0
  151.4294  137.1667  156.7642 C   0  0  0  0  0  0  0  0  0  0  0  0
  151.0213  138.5153  156.9765 C   0  0  0  0  0  0  0  0  0  0  0  0
  149.6423  138.6145  156.8166 N   0  0  0  0  0  0  0  0  0  0  0  0
  149.2616  137.4016  156.5225 C   0  0  0  0  0  0  0  0  0  0  0  0
  150.2712  136.4695  156.4708 N   0  0  0  0  0  0  0  0  0  0  0  0
  150.1316  135.0542  156.1753 C   0  0  0  0  0  0  0  0  0  0  0  0
  148.9932  134.7680  155.1756 C   0  0  2  0  0  0  0  0  0  0  0  0
  147.7600  134.7201  155.8681 O   0  0  0  0  0  0  0  0  0  0  0  0
  149.1975  133.4371  154.4280 C   0  0  1  0  0  0  0  0  0  0  0  0
  149.4639  132.2349  155.3356 C   0  0  0  0  0  0  0  0  0  0  0  0
  149.0362  131.0853  154.4532 C   0  0  0  0  0  0  0  0  0  0  0  0
  147.8148  131.6695  153.7500 C   0  0  0  0  0  0  0  0  0  0  0  0
  148.0162  133.0805  153.7129 O   0  0  0  0  0  0  0  0  0  0  0  0
  152.3671  142.6399  159.1769 C   0  0  0  0  0  0  0  0  0  0  0  0
  152.9007  144.0744  159.0095 C   0  0  0  0  0  0  0  0  0  0  0  0
  151.5422  144.5867  159.4922 C   0  0  0  0  0  0  0  0  0  0  0  0
  150.9524  143.2399  159.0680 C   0  0  0  0  0  0  0  0  0  0  0  0
  153.7383  143.8854  162.7540 H   0  0  0  0  0  0  0  0  0  0  0  0
  152.2398  142.9565  162.7192 H   0  0  0  0  0  0  0  0  0  0  0  0
  152.5497  144.1927  161.4876 H   0  0  0  0  0  0  0  0  0  0  0  0
  151.8937  141.3671  160.9060 H   0  0  0  0  0  0  0  0  0  0  0  0
  154.5508  140.8501  159.5125 H   0  0  0  0  0  0  0  0  0  0  0  0
  153.1317  139.7522  159.5957 H   0  0  0  0  0  0  0  0  0  0  0  0
  153.7011  141.8665  157.6109 H   0  0  0  0  0  0  0  0  0  0  0  0
  150.7991  140.9456  155.6996 H   0  0  0  0  0  0  0  0  0  0  0  0
  151.0914  142.4706  156.5082 H   0  0  0  0  0  0  0  0  0  0  0  0
  149.8730  141.3742  157.1451 H   0  0  0  0  0  0  0  0  0  0  0  0
  154.5954  137.3420  157.2571 H   0  0  0  0  0  0  0  0  0  0  0  0
  148.2270  137.1512  156.3373 H   0  0  0  0  0  0  0  0  0  0  0  0
  151.0823  134.6967  155.7780 H   0  0  0  0  0  0  0  0  0  0  0  0
  149.9652  134.5161  157.1093 H   0  0  0  0  0  0  0  0  0  0  0  0
  148.9381  135.5822  154.4517 H   0  0  0  0  0  0  0  0  0  0  0  0
  147.1215  134.2957  155.3154 H   0  0  0  0  0  0  0  0  0  0  0  0
  150.0103  133.5278  153.7052 H   0  0  0  0  0  0  0  0  0  0  0  0
  150.5045  132.1630  155.6535 H   0  0  0  0  0  0  0  0  0  0  0  0
  148.8354  132.2760  156.2265 H   0  0  0  0  0  0  0  0  0  0  0  0
  149.8182  130.8621  153.7261 H   0  0  0  0  0  0  0  0  0  0  0  0
  148.8146  130.1739  155.0091 H   0  0  0  0  0  0  0  0  0  0  0  0
  147.6806  131.2605  152.7485 H   0  0  0  0  0  0  0  0  0  0  0  0
  146.9097  131.4655  154.3233 H   0  0  0  0  0  0  0  0  0  0  0  0
  153.7442  144.3481  159.6432 H   0  0  0  0  0  0  0  0  0  0  0  0
  153.0922  144.3294  157.9657 H   0  0  0  0  0  0  0  0  0  0  0  0
  151.5088  144.7417  160.5718 H   0  0  0  0  0  0  0  0  0  0  0  0
  151.1577  145.4477  158.9450 H   0  0  0  0  0  0  0  0  0  0  0  0
  150.5681  143.2615  158.0474 H   0  0  0  0  0  0  0  0  0  0  0  0
  150.2207  142.8262  159.7624 H   0  0  0  0  0  0  0  0  0  0  0  0
  1  2  1  0  0  0  0
  1 29  1  0  0  0  0
  1 30  1  0  0  0  0
  1 31  1  0  0  0  0
  2  3  1  0  0  0  0
  3 25  1  0  0  0  0
  3  4  1  0  0  0  0
  3 32  1  0  0  0  0
  4  5  1  0  0  0  0
  4 33  1  0  0  0  0
  4 34  1  0  0  0  0
  5  6  1  0  0  0  0
  5 25  1  0  0  0  0
  5 35  1  0  0  0  0
  6  7  1  0  0  0  0
  6  8  1  0  0  0  0
  7 36  1  0  0  0  0
  7 37  1  0  0  0  0
  7 38  1  0  0  0  0
  8 13  1  0  0  0  0
  8  9  2  0  0  0  0
  9 10  1  0  0  0  0
 10 11  2  0  0  0  0
 10 39  1  0  0  0  0
 11 12  1  0  0  0  0
 12 16  1  0  0  0  0
 12 13  2  0  0  0  0
 13 14  1  0  0  0  0
 14 15  2  0  0  0  0
 15 16  1  0  0  0  0
 15 40  1  0  0  0  0
 16 17  1  0  0  0  0
 17 18  1  0  0  0  0
 17 41  1  0  0  0  0
 17 42  1  0  0  0  0
 18 19  1  0  0  0  0
 18 20  1  0  0  0  0
 18 43  1  0  0  0  0
 19 44  1  0  0  0  0
 20 24  1  0  0  0  0
 20 21  1  0  0  0  0
 20 45  1  0  0  0  0
 21 22  1  0  0  0  0
 21 46  1  0  0  0  0
 21 47  1  0  0  0  0
 22 23  1  0  0  0  0
 22 48  1  0  0  0  0
 22 49  1  0  0  0  0
 23 24  1  0  0  0  0
 23 50  1  0  0  0  0
 23 51  1  0  0  0  0
 25 28  1  0  0  0  0
 25 26  1  0  0  0  0
 26 27  1  0  0  0  0
 26 52  1  0  0  0  0
 26 53  1  0  0  0  0
 27 28  1  0  0  0  0
 27 54  1  0  0  0  0
 27 55  1  0  0  0  0
 28 56  1  0  0  0  0
 28 57  1  0  0  0  0
M  END
> <s_m_source_file>
AV-unprocessed.smi

> <i_m_source_file_index>
276

> <i_lp_mmshare_version>
43012

> <i_f3d_flags>
0

> <s_epik_input>
W0NIMl0xW0NIMl1bQ0gyXUMxMltDQEhdKE9bQ0gzXSlbQ0gyXVtDQEhdMk4oW0NIM10pYyhuW2NIXW4zKWMoYzM0KW5bY0hdbjRbQ0gyXVtDQEhdKFtPSF0pW0NAQEhdNVtDSDJdW0NIMl1bQ0gyXU81

> <s_epik_cmdline>
J2VwaWtfcHl0aG9uJywgJy1waCcsICc3LjAnLCAnLXRuJywgJzgnLCAnLW1hJywgJzIwMCcsICctbWV0YWxfYmluZGluZycsICctaW1hZScsICc8aW5maWxlLm1hZT4nLCAnLW9tYWUnLCAnPG91dGZpbGUubWFlPic=

> <r_lp_tautomer_probability>
1

> <r_epik_Ionization_Penalty>
0.00204117

> <r_epik_Ionization_Penalty_Charging>
0

> <r_epik_Ionization_Penalty_Neutral>
0.00204117

> <r_epik_State_Penalty>
0.00127401

> <r_epik_Charging_Adjusted_Penalty>
0.00127401

> <i_epik_Tot_Q>
0

> <i_epik_Tot_abs_Q>
0

> <r_epik_Metal_State_Penalty>
-0

> <b_epik_Metal_Only>
0

> <s_lp_Force_Field>
OPLS_2005

> <r_lp_Energy>
56.66

> <b_lp_Chiralities_Consistent>
1

> <s_lp_Variant>
AV-unprocessed.smi:276-9

> <Gold.Version>
5.8.1

> <Gold.Id.Protein>
6NUR|6NUR_protein|mol2

> <Gold.PLP.Fitness>
48.3427

> <Gold.PLP.PLP>
-44.6395

> <Gold.PLP.part.hbond>
-2.0000

> <Gold.PLP.part.metal>
0.0000

> <Gold.PLP.part.buried>
-5.3125

> <Gold.PLP.part.nonpolar>
-35.9985

> <Gold.PLP.part.repulsive>
0.2015

> <Gold.PLP.ligand.clash>
0.0000

> <Gold.PLP.ligand.torsion>
1.6095

> <Gold.PLP.Chemscore.Hbond>
1.9913

> <Gold.PLP.Chemscore.CHOScore>
0.0000

> <Gold.PLP.Chemscore.Metal>
0.0000

> <Gold.Chemscore.Hbonds>
donor molecule, donor type, donor heavy atom, donor atom, acceptor molecule, acceptor atom, score
      P1  H  7997  8009       L1     9  1.00
      P1  H 10752 10765       L1    11  0.73

> <Gold.PLP.Chemscore.Internal.Correction>
0.9485

> <Gold.Rescore>
     Score         DG    S(hbond)    S(metal)    S(lipo)     H(rot)  DE(clash)    DE(int)     intcor
     13.55     -19.32       1.71        0.00     123.20       2.46       0.49       5.28       ----

> <Gold.Chemscore.Fitness>
13.5451

> <Gold.Chemscore.DG>
-19.3179

> <Gold.Chemscore.ZeroCoef>
-5.4800

> <Gold.Chemscore.Hbond>
1.7115

> <Gold.Chemscore.Metal>
0.0000

> <Gold.Chemscore.Lipo>
123.1965

> <Gold.Chemscore.Internal_Hbond>
0.0000

> <Gold.Chemscore.DEClash>
0.4906

> <Gold.Chemscore.DEInternal>
5.2821

> <Gold.Chemscore.Rot>
2.4581

> <Gold.Chemscore.Internal.Correction>
   9.000000E+99

> <Gold.Chemscore.Hbonds>
donor molecule, donor type, donor heavy atom, donor atom, acceptor molecule, acceptor atom, score
      P1  H  7997  8009       L1     9  0.82
      P1  H 10752 10765       L1    11  0.59

> <Gold.Chemscore.Hbond.Weighted>
-5.7165

> <Gold.Chemscore.Metal.Weighted>
-0.0000

> <Gold.Chemscore.Lipo.Weighted>
-14.4140

> <Gold.Chemscore.Internal_Hbond.Weighted>
0.0000

> <Gold.Chemscore.DEClash.Weighted>
0.4906

> <Gold.Chemscore.DEInternal.Weighted>
5.2821

> <Gold.Chemscore.Rot.Weighted>
6.2927

> <Gold.Chemscore.Internal.Correction.Weighted>
   9.000000E+99

> <Gold.Protein.RotatedTorsions>
[ 6907 6896 6895 6894 ] final  -32.76 input  -60.11 | X-H torsion
[ 7974 7965 7964 7962 ] final  137.32 input  175.53 | X-H torsion
[ 8008 7997 7996 7995 ] final  161.34 input   59.86 | X-H torsion
[ 10167 10162 10161 10158 ] final  177.62 input  -65.29 | X-H torsion
[ 10718 10713 10712 10709 ] final  -50.70 input   66.30 | X-H torsion
[ 10763 10752 10751 10750 ] final -132.11 input  -60.55 | X-H torsion
[ 11005 11000 10999 10996 ] final   90.40 input  -57.11 | X-H torsion

> <Gold.Protein.ActiveResidues>
 VAL166  LYS551  ARG553  GLY616  TRP617  ASP618  TYR619  PRO620  LYS621  CYS622 
 ASP623  PHE694  ASN695  SER759  ASP760  ASP761  ALA762  ILE779  LEU786  VAL792 
 PHE793  MET794  SER795  GLU796  ALA797  LYS798  CYS799  TRP800  GLU811  SER814 

> <Gold.Protein.RotatedAtoms>
  151.0745  134.9819  159.8325 H   0  0  0  0  0  0  0  0  0  0  0  0  # atno 6907 bound_to 6896
  152.5412  134.2258  159.8815 H   0  0  0  0  0  0  0  0  0  0  0  0  # atno 6908 bound_to 6896
  151.2284  133.4420  159.2636 H   0  0  0  0  0  0  0  0  0  0  0  0  # atno 6909 bound_to 6896
  144.9479  139.4852  143.5540 H   0  0  0  0  0  0  0  0  0  0  0  0  # atno 7974 bound_to 7965
  156.2110  140.1780  156.7695 H   0  0  0  0  0  0  0  0  0  0  0  0  # atno 8008 bound_to 7997
  154.5722  140.0680  156.9011 H   0  0  0  0  0  0  0  0  0  0  0  0  # atno 8009 bound_to 7997
  155.2652  140.3338  155.4272 H   0  0  0  0  0  0  0  0  0  0  0  0  # atno 8010 bound_to 7997
  139.5260  144.2777  152.0574 H   0  0  0  0  0  0  0  0  0  0  0  0  # atno 10167 bound_to 10162
  156.1776  130.4150  149.9553 H   0  0  0  0  0  0  0  0  0  0  0  0  # atno 10718 bound_to 10713
  154.8746  135.3808  154.4357 H   0  0  0  0  0  0  0  0  0  0  0  0  # atno 10763 bound_to 10752
  153.5046  135.7030  153.5818 H   0  0  0  0  0  0  0  0  0  0  0  0  # atno 10764 bound_to 10752
  153.4135  135.3919  155.2032 H   0  0  0  0  0  0  0  0  0  0  0  0  # atno 10765 bound_to 10752
  139.8857  134.8611  156.3280 H   0  0  0  0  0  0  0  0  0  0  0  0  # atno 11005 bound_to 11000
  146.3310  139.8545  142.8867 LP  0  0  0  0  0  0  0  0  0  0  0  0  # atno 17320 bound_to 7965
  145.2889  141.0161  143.3675 LP  0  0  0  0  0  0  0  0  0  0  0  0  # atno 17321 bound_to 7965
  140.2233  144.4443  150.6332 LP  0  0  0  0  0  0  0  0  0  0  0  0  # atno 17342 bound_to 10162
  140.6404  143.2202  151.6303 LP  0  0  0  0  0  0  0  0  0  0  0  0  # atno 17343 bound_to 10162
  156.7334  130.9052  151.3627 LP  0  0  0  0  0  0  0  0  0  0  0  0  # atno 17370 bound_to 10713
  157.6846  130.9173  150.0355 LP  0  0  0  0  0  0  0  0  0  0  0  0  # atno 17371 bound_to 10713
  140.9742  133.7308  156.0578 LP  0  0  0  0  0  0  0  0  0  0  0  0  # atno 17394 bound_to 11000
  140.7832  134.3702  157.5482 LP  0  0  0  0  0  0  0  0  0  0  0  0  # atno 17395 bound_to 11000

$$$$
