AV-unprocessed.smi:676|AV-procd|sdf|3308|dock10
  -GOLD-   22720 0273D 1   1.00000     0.00000
 Structure written by MMmdl.
 42 43  0  0  0  0  0  0  0  0  1 V2000
  144.8410  139.0306  156.9691 C   0  0  0  0  0  0  0  0  0  0  0  0
  145.2648  140.2255  156.3246 O   0  0  0  0  0  0  0  0  0  0  0  0
  146.4394  140.1507  155.5050 C   0  0  2  0  0  0  0  0  0  0  0  0
  146.2334  139.1527  154.3585 C   0  0  0  0  0  0  0  0  0  0  0  0
  147.6973  140.0377  156.3874 C   0  0  0  0  0  0  0  0  0  0  0  0
  147.6485  141.5579  156.5250 C   0  0  1  0  0  0  0  0  0  0  0  0
  148.9747  142.1653  156.5191 N   0  0  0  0  0  0  0  0  0  0  0  0
  150.0439  141.6565  157.1478 C   0  0  0  0  0  0  0  0  0  0  0  0
  150.0191  140.5923  157.7671 O   0  0  0  0  0  0  0  0  0  0  0  0
  151.3387  142.4738  157.0494 C   0  0  0  0  0  0  0  0  0  0  0  0
  151.7097  143.1089  158.3244 N   0  0  0  0  0  0  0  0  0  0  0  0
  151.2878  144.4377  158.5291 C   0  0  0  0  0  0  0  0  0  0  0  0
  151.5768  145.1088  159.6552 C   0  0  0  0  0  0  0  0  0  0  0  0
  152.3431  144.4330  160.6749 C   0  0  0  0  0  0  0  0  0  0  0  0
  152.7537  143.1629  160.4886 C   0  0  0  0  0  0  0  0  0  0  0  0
  152.4410  142.4257  159.2588 C   0  0  0  0  0  0  0  0  0  0  0  0
  152.8134  141.2655  159.0796 O   0  0  0  0  0  0  0  0  0  0  0  0
  146.8997  141.6067  155.1674 C   0  0  0  0  0  0  0  0  0  0  0  0
  147.7663  141.7639  153.9030 C   0  0  0  0  0  0  0  0  0  0  0  0
  145.7960  142.6634  155.0476 C   0  0  0  0  0  0  0  0  0  0  0  0
  144.0426  139.2702  157.6712 H   0  0  0  0  0  0  0  0  0  0  0  0
  145.6428  138.5533  157.5315 H   0  0  0  0  0  0  0  0  0  0  0  0
  144.4366  138.3118  156.2568 H   0  0  0  0  0  0  0  0  0  0  0  0
  147.0731  139.1541  153.6643 H   0  0  0  0  0  0  0  0  0  0  0  0
  145.3355  139.3872  153.7863 H   0  0  0  0  0  0  0  0  0  0  0  0
  146.1436  138.1286  154.7196 H   0  0  0  0  0  0  0  0  0  0  0  0
  147.5788  139.5001  157.3275 H   0  0  0  0  0  0  0  0  0  0  0  0
  148.5680  139.6757  155.8378 H   0  0  0  0  0  0  0  0  0  0  0  0
  147.0243  141.8664  157.3669 H   0  0  0  0  0  0  0  0  0  0  0  0
  149.0792  143.0403  156.0264 H   0  0  0  0  0  0  0  0  0  0  0  0
  152.1315  141.8104  156.7016 H   0  0  0  0  0  0  0  0  0  0  0  0
  151.2395  143.2338  156.2718 H   0  0  0  0  0  0  0  0  0  0  0  0
  150.7258  144.8737  157.7161 H   0  0  0  0  0  0  0  0  0  0  0  0
  151.2479  146.1282  159.7931 H   0  0  0  0  0  0  0  0  0  0  0  0
  152.5901  144.9490  161.5908 H   0  0  0  0  0  0  0  0  0  0  0  0
  153.3275  142.6743  161.2622 H   0  0  0  0  0  0  0  0  0  0  0  0
  148.1869  142.7672  153.8243 H   0  0  0  0  0  0  0  0  0  0  0  0
  147.1857  141.5887  152.9969 H   0  0  0  0  0  0  0  0  0  0  0  0
  148.6043  141.0670  153.8876 H   0  0  0  0  0  0  0  0  0  0  0  0
  146.2084  143.6581  154.8747 H   0  0  0  0  0  0  0  0  0  0  0  0
  145.1940  142.7296  155.9538 H   0  0  0  0  0  0  0  0  0  0  0  0
  145.1182  142.4393  154.2234 H   0  0  0  0  0  0  0  0  0  0  0  0
  1  2  1  0  0  0  0
  1 21  1  0  0  0  0
  1 22  1  0  0  0  0
  1 23  1  0  0  0  0
  2  3  1  0  0  0  0
  3 18  1  0  0  0  0
  3  4  1  0  0  0  0
  3  5  1  0  0  0  0
  4 24  1  0  0  0  0
  4 25  1  0  0  0  0
  4 26  1  0  0  0  0
  5  6  1  0  0  0  0
  5 27  1  0  0  0  0
  5 28  1  0  0  0  0
  6  7  1  0  0  0  0
  6 18  1  0  0  0  0
  6 29  1  0  0  0  0
  7  8  1  0  0  0  0
  7 30  1  0  0  0  0
  8  9  2  0  0  0  0
  8 10  1  0  0  0  0
 10 11  1  0  0  0  0
 10 31  1  0  0  0  0
 10 32  1  0  0  0  0
 11 16  1  0  0  0  0
 11 12  1  0  0  0  0
 12 13  2  0  0  0  0
 12 33  1  0  0  0  0
 13 14  1  0  0  0  0
 13 34  1  0  0  0  0
 14 15  2  0  0  0  0
 14 35  1  0  0  0  0
 15 16  1  0  0  0  0
 15 36  1  0  0  0  0
 16 17  2  0  0  0  0
 18 19  1  0  0  0  0
 18 20  1  0  0  0  0
 19 37  1  0  0  0  0
 19 38  1  0  0  0  0
 19 39  1  0  0  0  0
 20 40  1  0  0  0  0
 20 41  1  0  0  0  0
 20 42  1  0  0  0  0
M  END
> <s_m_source_file>
AV-unprocessed.smi

> <i_m_source_file_index>
676

> <i_lp_mmshare_version>
43012

> <i_f3d_flags>
0

> <s_epik_input>
W0NIM11PW0NAQF0xKFtDSDNdKVtDSDJdW0NASF0oQzEoW0NIM10pW0NIM10pW05IXUMoPU8pW0NIMl1uMltjSF1bY0hdW2NIXVtjSF1jMj1P

> <s_epik_cmdline>
J2VwaWtfcHl0aG9uJywgJy1waCcsICc3LjAnLCAnLXRuJywgJzgnLCAnLW1hJywgJzIwMCcsICctbWV0YWxfYmluZGluZycsICctaW1hZScsICc8aW5maWxlLm1hZT4nLCAnLW9tYWUnLCAnPG91dGZpbGUubWFlPic=

> <r_lp_tautomer_probability>
1

> <r_epik_Ionization_Penalty>
4.09771e-07

> <r_epik_Ionization_Penalty_Charging>
3.90712e-07

> <r_epik_Ionization_Penalty_Neutral>
1.90591e-08

> <r_epik_State_Penalty>
-0

> <r_epik_Charging_Adjusted_Penalty>
3.90712e-07

> <i_epik_Tot_Q>
0

> <i_epik_Tot_abs_Q>
0

> <r_epik_Metal_State_Penalty>
-0

> <b_epik_Metal_Only>
0

> <s_lp_Force_Field>
OPLS_2005

> <r_lp_Energy>
31.4736

> <b_lp_Chiralities_Consistent>
1

> <s_lp_Variant>
AV-unprocessed.smi:676-2

> <Gold.Version>
5.8.1

> <Gold.Id.Protein>
6NUR|6NUR_protein|mol2

> <Gold.PLP.Fitness>
41.3195

> <Gold.PLP.PLP>
-36.6293

> <Gold.PLP.part.hbond>
-1.0000

> <Gold.PLP.part.metal>
0.0000

> <Gold.PLP.part.buried>
-6.3449

> <Gold.PLP.part.nonpolar>
-29.3962

> <Gold.PLP.part.repulsive>
0.1044

> <Gold.PLP.ligand.clash>
0.0000

> <Gold.PLP.ligand.torsion>
0.8251

> <Gold.PLP.Chemscore.Hbond>
0.9920

> <Gold.PLP.Chemscore.CHOScore>
0.9945

> <Gold.PLP.Chemscore.Metal>
0.0000

> <Gold.Chemscore.Hbonds>
donor molecule, donor type, donor heavy atom, donor atom, acceptor molecule, acceptor atom, score
      L1  H     7    30       P1  8028  1.00
      L1  C    12    33       P1  8028  0.53

> <Gold.PLP.Chemscore.Internal.Correction>
0.3808

> <Gold.Rescore>
     Score         DG    S(hbond)    S(metal)    S(lipo)     H(rot)  DE(clash)    DE(int)     intcor
     12.16     -14.38       0.96        0.00      84.16       1.62       0.03       2.18       ----

> <Gold.Chemscore.Fitness>
12.1626

> <Gold.Chemscore.DG>
-14.3795

> <Gold.Chemscore.ZeroCoef>
-5.4800

> <Gold.Chemscore.Hbond>
0.9560

> <Gold.Chemscore.Metal>
0.0000

> <Gold.Chemscore.Lipo>
84.1636

> <Gold.Chemscore.Internal_Hbond>
0.0000

> <Gold.Chemscore.DEClash>
0.0344

> <Gold.Chemscore.DEInternal>
2.1825

> <Gold.Chemscore.Rot>
1.6175

> <Gold.Chemscore.Internal.Correction>
   9.000000E+99

> <Gold.Chemscore.Hbonds>
donor molecule, donor type, donor heavy atom, donor atom, acceptor molecule, acceptor atom, score
      L1  H     7    30       P1  8028  0.99

> <Gold.Chemscore.Hbond.Weighted>
-3.1931

> <Gold.Chemscore.Metal.Weighted>
-0.0000

> <Gold.Chemscore.Lipo.Weighted>
-9.8471

> <Gold.Chemscore.Internal_Hbond.Weighted>
0.0000

> <Gold.Chemscore.DEClash.Weighted>
0.0344

> <Gold.Chemscore.DEInternal.Weighted>
2.1825

> <Gold.Chemscore.Rot.Weighted>
4.1408

> <Gold.Chemscore.Internal.Correction.Weighted>
   9.000000E+99

> <Gold.Protein.RotatedTorsions>
[ 6907 6896 6895 6894 ] final  -54.63 input  -60.11 | X-H torsion
[ 7974 7965 7964 7962 ] final  -24.91 input  175.53 | X-H torsion
[ 8008 7997 7996 7995 ] final -100.08 input   59.86 | X-H torsion
[ 10167 10162 10161 10158 ] final  147.70 input  -65.29 | X-H torsion
[ 10718 10713 10712 10709 ] final  111.92 input   66.30 | X-H torsion
[ 10763 10752 10751 10750 ] final  179.19 input  -60.55 | X-H torsion
[ 11005 11000 10999 10996 ] final  116.62 input  -57.11 | X-H torsion

> <Gold.Protein.ActiveResidues>
 VAL166  LYS551  ARG553  GLY616  TRP617  ASP618  TYR619  PRO620  LYS621  CYS622 
 ASP623  PHE694  ASN695  SER759  ASP760  ASP761  ALA762  ILE779  LEU786  VAL792 
 PHE793  MET794  SER795  GLU796  ALA797  LYS798  CYS799  TRP800  GLU811  SER814 

> <Gold.Protein.RotatedAtoms>
  150.8322  134.7579  159.6862 H   0  0  0  0  0  0  0  0  0  0  0  0  # atno 6907 bound_to 6896
  152.4424  134.5560  159.9890 H   0  0  0  0  0  0  0  0  0  0  0  0  # atno 6908 bound_to 6896
  151.5718  133.3351  159.3027 H   0  0  0  0  0  0  0  0  0  0  0  0  # atno 6909 bound_to 6896
  146.1524  140.4816  142.8605 H   0  0  0  0  0  0  0  0  0  0  0  0  # atno 7974 bound_to 7965
  154.8237  140.0443  157.1429 H   0  0  0  0  0  0  0  0  0  0  0  0  # atno 8008 bound_to 7997
  154.9230  140.3029  155.5186 H   0  0  0  0  0  0  0  0  0  0  0  0  # atno 8009 bound_to 7997
  156.2982  140.2337  156.4282 H   0  0  0  0  0  0  0  0  0  0  0  0  # atno 8010 bound_to 7997
  139.4886  144.5735  151.7009 H   0  0  0  0  0  0  0  0  0  0  0  0  # atno 10167 bound_to 10162
  157.6420  131.0959  150.6819 H   0  0  0  0  0  0  0  0  0  0  0  0  # atno 10718 bound_to 10713
  154.5175  135.2792  155.1291 H   0  0  0  0  0  0  0  0  0  0  0  0  # atno 10763 bound_to 10752
  154.2862  135.6276  153.5370 H   0  0  0  0  0  0  0  0  0  0  0  0  # atno 10764 bound_to 10752
  152.9930  135.5663  154.5655 H   0  0  0  0  0  0  0  0  0  0  0  0  # atno 10765 bound_to 10752
  139.9047  134.9600  156.7225 H   0  0  0  0  0  0  0  0  0  0  0  0  # atno 11005 bound_to 11000
  144.7921  140.6052  143.6534 LP  0  0  0  0  0  0  0  0  0  0  0  0  # atno 17320 bound_to 7965
  145.4790  139.1497  143.3772 LP  0  0  0  0  0  0  0  0  0  0  0  0  # atno 17321 bound_to 7965
  140.5327  144.0704  150.6059 LP  0  0  0  0  0  0  0  0  0  0  0  0  # atno 17342 bound_to 10162
  140.3700  143.2860  152.0289 LP  0  0  0  0  0  0  0  0  0  0  0  0  # atno 17343 bound_to 10162
  156.7141  130.4661  149.5539 LP  0  0  0  0  0  0  0  0  0  0  0  0  # atno 17370 bound_to 10713
  156.1710  130.6437  151.0837 LP  0  0  0  0  0  0  0  0  0  0  0  0  # atno 17371 bound_to 10713
  140.6989  133.9324  155.8012 LP  0  0  0  0  0  0  0  0  0  0  0  0  # atno 17394 bound_to 11000
  141.0386  134.0653  157.3929 LP  0  0  0  0  0  0  0  0  0  0  0  0  # atno 17395 bound_to 11000

$$$$
