#       Name:                AV-unprocessed.smi:242
#       Creating user name   scv26
#       Creation time:       Thu Mar 26 20:46:12 2020


#       File generated by GOLD software.
#

@<TRIPOS>MOLECULE
AV-unprocessed.smi:242
    65    68     1
SMALL
NO_CHARGES


@<TRIPOS>ATOM
      1 ****        -5.7351  -4.9076  -0.8076 C.3            1 S1                 0.0000
      2 ****        -4.8770  -3.8034  -1.4558 C.3            1 S1                 0.0000
      3 ****        -4.8312  -4.0241  -2.9803 C.3            1 S1                 0.0000
      4 ****        -3.5032  -3.7584  -0.8791 N.4            1 S1                 1.0000
      5 ****        -3.4267  -3.7229   0.6028 C.3            1 S1                 0.0000
      6 ****        -2.1080  -3.0286   0.9346 C.3            1 S1                 0.0000
      7 ****        -2.0550  -1.9617  -0.1537 C.3            1 S1                 0.0000
      8 ****        -0.7443  -1.3366  -0.3642 N.pl3          1 S1                 0.0000
      9 ****         0.3820  -2.1272  -0.8546 C.3            1 S1                 0.0000
     10 ****        -0.4279  -0.2033   0.3187 C.ar           1 S1                 0.0000
     11 ****        -1.0876   0.0917   1.4710 N.ar           1 S1                 0.0000
     12 ****        -0.7903   1.1967   2.1603 C.ar           1 S1                 0.0000
     13 ****         0.1145   2.1354   1.8801 N.ar           1 S1                 0.0000
     14 ****         0.7790   1.8523   0.7237 C.ar           1 S1                 0.0000
     15 ****         0.5728   0.7169  -0.1112 C.ar           1 S1                 0.0000
     16 ****         1.4210   0.7836  -1.2110 N.2            1 S1                 0.0000
     17 ****         2.0892   1.8901  -1.0353 C.2            1 S1                 0.0000
     18 ****         1.7741   2.5904   0.1067 N.pl3          1 S1                 0.0000
     19 ****         2.3532   3.8518   0.5427 C.3            1 S1                 0.0000
     20 ****         3.5954   3.7020   1.4634 C.3            1 S1                 0.0000
     21 ****         3.1773   3.0409   2.6426 O.3            1 S1                 0.0000
     22 ****         4.7442   2.8731   0.8505 C.3            1 S1                 0.0000
     23 ****         5.4567   3.6507  -0.2693 C.3            1 S1                 0.0000
     24 ****         5.9488   4.8858   0.2397 O.3            1 S1                 0.0000
     25 ****         4.9205   5.7468   0.7178 C.3            1 S1                 0.0000
     26 ****         4.1611   5.0749   1.8771 C.3            1 S1                 0.0000
     27 ****        -2.6360  -2.6639  -1.3888 C.3            1 S1                 0.0000
     28 ****        -6.7214  -4.9558  -1.2702 H              1 S1                 0.0000
     29 ****        -5.8975  -4.7327   0.2559 H              1 S1                 0.0000
     30 ****        -5.2711  -5.8884  -0.9188 H              1 S1                 0.0000
     31 ****        -5.3575  -2.8436  -1.2597 H              1 S1                 0.0000
     32 ****        -5.8376  -4.0764  -3.3970 H              1 S1                 0.0000
     33 ****        -4.3241  -4.9568  -3.2296 H              1 S1                 0.0000
     34 ****        -4.3165  -3.2182  -3.5024 H              1 S1                 0.0000
     35 ****        -4.2517  -3.1293   1.0013 H              1 S1                 0.0000
     36 ****        -3.4882  -4.7221   1.0351 H              1 S1                 0.0000
     37 ****        -2.0913  -2.6122   1.9421 H              1 S1                 0.0000
     38 ****        -1.2806  -3.7328   0.8428 H              1 S1                 0.0000
     39 ****        -2.7746  -1.1850   0.1113 H              1 S1                 0.0000
     40 ****         1.2593  -2.0080  -0.2171 H              1 S1                 0.0000
     41 ****         0.6468  -1.8167  -1.8654 H              1 S1                 0.0000
     42 ****         0.1449  -3.1903  -0.8846 H              1 S1                 0.0000
     43 ****        -1.3590   1.3518   3.0652 H              1 S1                 0.0000
     44 ****         2.8380   2.2265  -1.7375 H              1 S1                 0.0000
     45 ****         2.5993   4.4246  -0.3509 H              1 S1                 0.0000
     46 ****         1.5762   4.4225   1.0536 H              1 S1                 0.0000
     47 ****         3.9211   2.9527   3.2186 H              1 S1                 0.0000
     48 ****         5.4796   2.6437   1.6231 H              1 S1                 0.0000
     49 ****         4.3923   1.9091   0.4844 H              1 S1                 0.0000
     50 ****         6.2980   3.0704  -0.6479 H              1 S1                 0.0000
     51 ****         4.7922   3.8292  -1.1154 H              1 S1                 0.0000
     52 ****         5.3764   6.6748   1.0625 H              1 S1                 0.0000
     53 ****         4.2482   6.0151  -0.0977 H              1 S1                 0.0000
     54 ****         3.3648   5.7280   2.2360 H              1 S1                 0.0000
     55 ****         4.8534   4.9510   2.7114 H              1 S1                 0.0000
     56 ****        -1.8660  -3.1156  -2.0138 H              1 S1                 0.0000
     57 ****        -3.1749  -1.9424  -2.0039 H              1 S1                 0.0000
     58 ****        -3.0475  -4.6166  -1.1547 H              1 S1                 0.0000
     59 ****        -1.8013  -0.5239   1.8051 LP             1 S1                 0.0000
     60 ****         0.2838   2.9428   2.4453 LP             1 S1                 0.0000
     61 ****         1.5007   0.1316  -1.9650 LP             1 S1                 0.0000
     62 ****         2.8201   2.1356   2.4127 LP             1 S1                 0.0000
     63 ****         2.4634   3.5762   3.0939 LP             1 S1                 0.0000
     64 ****         6.4426   5.3564  -0.4915 LP             1 S1                 0.0000
     65 ****         6.5761   4.6911   0.9938 LP             1 S1                 0.0000
@<TRIPOS>BOND
    1    1    2 1     
    2    1   28 1     
    3    1   29 1     
    4    1   30 1     
    5    2    3 1     
    6    2    4 1     
    7    2   31 1     
    8    3   32 1     
    9    3   33 1     
   10    3   34 1     
   11    4   27 1     
   12    4    5 1     
   13    4   58 1     
   14    5    6 1     
   15    5   35 1     
   16    5   36 1     
   17    6    7 1     
   18    6   37 1     
   19    6   38 1     
   20    7    8 1     
   21    7   27 1     
   22    7   39 1     
   23    8    9 1     
   24    8   10 1     
   25    9   40 1     
   26    9   41 1     
   27    9   42 1     
   28   10   15 ar    
   29   10   11 ar    
   30   11   12 ar    
   31   12   13 ar    
   32   12   43 1     
   33   13   14 ar    
   34   14   18 1     
   35   14   15 ar    
   36   15   16 1     
   37   16   17 2     
   38   17   18 1     
   39   17   44 1     
   40   18   19 1     
   41   19   20 1     
   42   19   45 1     
   43   19   46 1     
   44   20   26 1     
   45   20   21 1     
   46   20   22 1     
   47   21   47 1     
   48   22   23 1     
   49   22   48 1     
   50   22   49 1     
   51   23   24 1     
   52   23   50 1     
   53   23   51 1     
   54   24   25 1     
   55   25   26 1     
   56   25   52 1     
   57   25   53 1     
   58   26   54 1     
   59   26   55 1     
   60   27   56 1     
   61   27   57 1     
   62   11   59 1     
   63   13   60 1     
   64   16   61 1     
   65   21   62 1     
   66   21   63 1     
   67   24   64 1     
   68   24   65 1     
@<TRIPOS>SUBSTRUCTURE
      1 S1             1
@<TRIPOS>SET
LONE_PAIRS      STATIC     ATOMS    <user>   **** ""
7 59 60 61 62 63 64 65
DONOR_HYDROGENS      STATIC     ATOMS    <user>   **** ""
2 58 47
ATOM$BLUE        STATIC     ATOMS    COLORGROUP SYSTEM
7 59 60 61 62 63 64 65
ATOM$RED        STATIC     ATOMS    COLORGROUP SYSTEM
2 58 47
