AV-unprocessed.smi:3306|AV-procd|sdf|12701|dock8
  -GOLD-   2272019 33D 1   1.00000     0.00000
 Structure written by MMmdl.
 45 46  0  0  0  0  0  0  0  0  3 V2000
  144.8799  133.2138  151.3241 C   0  0  0  0  0  0  0  0  0  0  0  0
  146.3312  133.6913  151.4979 C   0  0  0  0  0  0  0  0  0  0  0  0
  147.1482  132.7223  152.3746 C   0  0  0  0  0  0  0  0  0  0  0  0
  146.3818  135.1076  151.9668 N   0  3  2  0  0  0  0  0  0  0  0  0
  146.0071  135.2703  153.3964 C   0  0  0  0  0  0  0  0  0  0  0  0
  146.3104  136.6974  153.8849 C   0  0  0  0  0  0  0  0  0  0  0  0
  145.5904  137.7486  153.0239 C   0  0  1  0  0  0  0  0  0  0  0  0
  145.9299  139.1113  153.4942 N   0  3  0  0  0  0  0  0  0  0  0  0
  147.2279  139.6357  153.0208 C   0  0  0  0  0  0  0  0  0  0  0  0
  147.7243  140.7732  153.9238 C   0  0  0  0  0  0  0  0  0  0  0  0
  149.0926  140.4827  154.5105 C   0  0  0  0  0  0  0  0  0  0  0  0
  149.7232  141.4100  155.3670 C   0  0  0  0  0  0  0  0  0  0  0  0
  150.9936  141.0886  155.8838 C   0  0  0  0  0  0  0  0  0  0  0  0
  151.5790  139.8580  155.5285 C   0  0  0  0  0  0  0  0  0  0  0  0
  150.8655  138.9995  154.6685 C   0  0  0  0  0  0  0  0  0  0  0  0
  149.6474  139.2987  154.1665 N   0  0  0  0  0  0  0  0  0  0  0  0
  145.9725  137.5336  151.5459 C   0  0  0  0  0  0  0  0  0  0  0  0
  145.6761  136.0907  151.0996 C   0  0  0  0  0  0  0  0  0  0  0  0
  144.8495  132.2330  150.8483 H   0  0  0  0  0  0  0  0  0  0  0  0
  144.3116  133.8990  150.6941 H   0  0  0  0  0  0  0  0  0  0  0  0
  144.3598  133.1249  152.2777 H   0  0  0  0  0  0  0  0  0  0  0  0
  146.7704  133.6719  150.4993 H   0  0  0  0  0  0  0  0  0  0  0  0
  147.1698  131.7275  151.9285 H   0  0  0  0  0  0  0  0  0  0  0  0
  146.7206  132.6157  153.3718 H   0  0  0  0  0  0  0  0  0  0  0  0
  148.1825  133.0473  152.4843 H   0  0  0  0  0  0  0  0  0  0  0  0
  144.9479  135.0482  153.5316 H   0  0  0  0  0  0  0  0  0  0  0  0
  146.5610  134.5592  154.0104 H   0  0  0  0  0  0  0  0  0  0  0  0
  146.0086  136.7985  154.9282 H   0  0  0  0  0  0  0  0  0  0  0  0
  147.3881  136.8677  153.8574 H   0  0  0  0  0  0  0  0  0  0  0  0
  144.5149  137.6048  153.1420 H   0  0  0  0  0  0  0  0  0  0  0  0
  145.2155  139.7386  153.1525 H   0  0  0  0  0  0  0  0  0  0  0  0
  147.9666  138.8343  153.0022 H   0  0  0  0  0  0  0  0  0  0  0  0
  147.1167  139.9981  151.9979 H   0  0  0  0  0  0  0  0  0  0  0  0
  147.7753  141.7057  153.3597 H   0  0  0  0  0  0  0  0  0  0  0  0
  147.0147  140.9431  154.7349 H   0  0  0  0  0  0  0  0  0  0  0  0
  149.2497  142.3466  155.6228 H   0  0  0  0  0  0  0  0  0  0  0  0
  151.5098  141.7735  156.5402 H   0  0  0  0  0  0  0  0  0  0  0  0
  152.5517  139.5789  155.9056 H   0  0  0  0  0  0  0  0  0  0  0  0
  151.2833  138.0473  154.3769 H   0  0  0  0  0  0  0  0  0  0  0  0
  145.4243  138.2219  150.9026 H   0  0  0  0  0  0  0  0  0  0  0  0
  147.0317  137.7506  151.3990 H   0  0  0  0  0  0  0  0  0  0  0  0
  145.9835  135.9707  150.0613 H   0  0  0  0  0  0  0  0  0  0  0  0
  144.6000  135.9155  151.1348 H   0  0  0  0  0  0  0  0  0  0  0  0
  147.3603  135.3546  151.9231 H   0  0  0  0  0  0  0  0  0  0  0  0
  145.9121  139.1292  154.5041 H   0  0  0  0  0  0  0  0  0  0  0  0
  1  2  1  0  0  0  0
  1 19  1  0  0  0  0
  1 20  1  0  0  0  0
  1 21  1  0  0  0  0
  2  3  1  0  0  0  0
  2  4  1  0  0  0  0
  2 22  1  0  0  0  0
  3 23  1  0  0  0  0
  3 24  1  0  0  0  0
  3 25  1  0  0  0  0
  4 18  1  0  0  0  0
  4  5  1  0  0  0  0
  4 44  1  0  0  0  0
  5  6  1  0  0  0  0
  5 26  1  0  0  0  0
  5 27  1  0  0  0  0
  6  7  1  0  0  0  0
  6 28  1  0  0  0  0
  6 29  1  0  0  0  0
  7  8  1  0  0  0  0
  7 17  1  0  0  0  0
  7 30  1  0  0  0  0
  8  9  1  0  0  0  0
  8 31  1  0  0  0  0
  8 45  1  0  0  0  0
  9 10  1  0  0  0  0
  9 32  1  0  0  0  0
  9 33  1  0  0  0  0
 10 11  1  0  0  0  0
 10 34  1  0  0  0  0
 10 35  1  0  0  0  0
 11 16  1  0  0  0  0
 11 12  2  0  0  0  0
 12 13  1  0  0  0  0
 12 36  1  0  0  0  0
 13 14  2  0  0  0  0
 13 37  1  0  0  0  0
 14 15  1  0  0  0  0
 14 38  1  0  0  0  0
 15 16  2  0  0  0  0
 15 39  1  0  0  0  0
 17 18  1  0  0  0  0
 17 40  1  0  0  0  0
 17 41  1  0  0  0  0
 18 42  1  0  0  0  0
 18 43  1  0  0  0  0
M  CHG  1   4   1
M  CHG  1   8   1
M  END
> <s_m_source_file>
AV-unprocessed.smi

> <i_m_source_file_index>
3306

> <i_lp_mmshare_version>
43012

> <i_f3d_flags>
0

> <s_epik_input>
W0NIM11bQ0hdKFtDSDNdKU4xW0NIMl1bQ0gyXVtDSF0oW0NIMl1bQ0gyXTEpW05IXVtDSDJdW0NIMl1jMltjSF1bY0hdW2NIXVtjSF1uMg==

> <s_epik_cmdline>
J2VwaWtfcHl0aG9uJywgJy1waCcsICc3LjAnLCAnLXRuJywgJzgnLCAnLW1hJywgJzIwMCcsICctbWV0YWxfYmluZGluZycsICctaW1hZScsICc8aW5maWxlLm1hZT4nLCAnLW9tYWUnLCAnPG91dGZpbGUubWFlPic=

> <r_epik_Ionization_Penalty>
0.0800465

> <r_epik_Ionization_Penalty_Charging>
0.0790817

> <r_epik_Ionization_Penalty_Neutral>
0.000964829

> <r_epik_State_Penalty>
0.0665964

> <r_epik_Charging_Adjusted_Penalty>
0.145678

> <i_epik_Tot_Q>
2

> <i_epik_Tot_abs_Q>
2

> <r_epik_Metal_State_Penalty>
0.0683331

> <b_epik_Metal_Only>
0

> <s_lp_Force_Field>
OPLS_2005

> <r_lp_Energy>
27.4923

> <b_lp_Chiralities_Consistent>
1

> <s_lp_Variant>
AV-unprocessed.smi:3306-1

> <Gold.Version>
5.8.1

> <Gold.Id.Protein>
6NUR|6NUR_protein|mol2

> <Gold.PLP.Fitness>
45.2149

> <Gold.PLP.PLP>
-34.5086

> <Gold.PLP.part.hbond>
-2.0000

> <Gold.PLP.part.metal>
0.0000

> <Gold.PLP.part.buried>
-0.1572

> <Gold.PLP.part.nonpolar>
-33.7063

> <Gold.PLP.part.repulsive>
0.5200

> <Gold.PLP.ligand.clash>
0.0000

> <Gold.PLP.ligand.torsion>
0.7251

> <Gold.PLP.Chemscore.Hbond>
4.0000

> <Gold.PLP.Chemscore.CHOScore>
0.0000

> <Gold.PLP.Chemscore.Metal>
0.0000

> <Gold.Chemscore.Hbonds>
donor molecule, donor type, donor heavy atom, donor atom, acceptor molecule, acceptor atom, score
      L1  H     4    44       P1  7948  2.00
      L1  H     8    31       P1 10175  2.00

> <Gold.PLP.Chemscore.Internal.Correction>
0.1566

> <Gold.Rescore>
     Score         DG    S(hbond)    S(metal)    S(lipo)     H(rot)  DE(clash)    DE(int)     intcor
     17.74     -19.04       1.98        0.00      91.59       1.47       0.58       0.72       ----

> <Gold.Chemscore.Fitness>
17.7394

> <Gold.Chemscore.DG>
-19.0442

> <Gold.Chemscore.ZeroCoef>
-5.4800

> <Gold.Chemscore.Hbond>
1.9778

> <Gold.Chemscore.Metal>
0.0000

> <Gold.Chemscore.Lipo>
91.5923

> <Gold.Chemscore.Internal_Hbond>
0.0000

> <Gold.Chemscore.DEClash>
0.5849

> <Gold.Chemscore.DEInternal>
0.7198

> <Gold.Chemscore.Rot>
1.4679

> <Gold.Chemscore.Internal.Correction>
   9.000000E+99

> <Gold.Chemscore.Hbonds>
donor molecule, donor type, donor heavy atom, donor atom, acceptor molecule, acceptor atom, score
      L1  H     4    44       P1  7948  0.99
      L1  H     8    31       P1 10175  1.00

> <Gold.Chemscore.Hbond.Weighted>
-6.6058

> <Gold.Chemscore.Metal.Weighted>
-0.0000

> <Gold.Chemscore.Lipo.Weighted>
-10.7163

> <Gold.Chemscore.Internal_Hbond.Weighted>
0.0000

> <Gold.Chemscore.DEClash.Weighted>
0.5849

> <Gold.Chemscore.DEInternal.Weighted>
0.7198

> <Gold.Chemscore.Rot.Weighted>
3.7579

> <Gold.Chemscore.Internal.Correction.Weighted>
   9.000000E+99

> <Gold.Protein.RotatedTorsions>
[ 6907 6896 6895 6894 ] final  -14.50 input  -60.11 | X-H torsion
[ 7974 7965 7964 7962 ] final  113.12 input  175.53 | X-H torsion
[ 8008 7997 7996 7995 ] final  -31.90 input   59.86 | X-H torsion
[ 10167 10162 10161 10158 ] final  -55.67 input  -65.29 | X-H torsion
[ 10718 10713 10712 10709 ] final -101.19 input   66.30 | X-H torsion
[ 10763 10752 10751 10750 ] final   11.71 input  -60.55 | X-H torsion
[ 11005 11000 10999 10996 ] final   18.25 input  -57.11 | X-H torsion

> <Gold.Protein.ActiveResidues>
 VAL166  LYS551  ARG553  GLY616  TRP617  ASP618  TYR619  PRO620  LYS621  CYS622 
 ASP623  PHE694  ASN695  SER759  ASP760  ASP761  ALA762  ILE779  LEU786  VAL792 
 PHE793  MET794  SER795  GLU796  ALA797  LYS798  CYS799  TRP800  GLU811  SER814 

> <Gold.Protein.RotatedAtoms>
  151.3384  135.0858  159.9362 H   0  0  0  0  0  0  0  0  0  0  0  0  # atno 6907 bound_to 6896
  152.5217  133.9472  159.7665 H   0  0  0  0  0  0  0  0  0  0  0  0  # atno 6908 bound_to 6896
  150.9824  133.6179  159.2750 H   0  0  0  0  0  0  0  0  0  0  0  0  # atno 6909 bound_to 6896
  145.2209  139.2862  143.4218 H   0  0  0  0  0  0  0  0  0  0  0  0  # atno 7974 bound_to 7965
  154.4198  140.1752  156.1640 H   0  0  0  0  0  0  0  0  0  0  0  0  # atno 8008 bound_to 7997
  155.9815  140.3377  155.6643 H   0  0  0  0  0  0  0  0  0  0  0  0  # atno 8009 bound_to 7997
  155.6494  140.0688  157.2583 H   0  0  0  0  0  0  0  0  0  0  0  0  # atno 8010 bound_to 7997
  140.6362  143.2483  151.5113 H   0  0  0  0  0  0  0  0  0  0  0  0  # atno 10167 bound_to 10162
  156.0187  130.5362  150.6927 H   0  0  0  0  0  0  0  0  0  0  0  0  # atno 10718 bound_to 10713
  153.1898  135.6840  153.8368 H   0  0  0  0  0  0  0  0  0  0  0  0  # atno 10763 bound_to 10752
  153.7671  135.3201  155.3347 H   0  0  0  0  0  0  0  0  0  0  0  0  # atno 10764 bound_to 10752
  154.8110  135.4717  154.0615 H   0  0  0  0  0  0  0  0  0  0  0  0  # atno 10765 bound_to 10752
  140.4268  134.1461  155.7677 H   0  0  0  0  0  0  0  0  0  0  0  0  # atno 11005 bound_to 11000
  146.3376  140.2515  142.8598 LP  0  0  0  0  0  0  0  0  0  0  0  0  # atno 17320 bound_to 7965
  144.9766  140.8420  143.5423 LP  0  0  0  0  0  0  0  0  0  0  0  0  # atno 17321 bound_to 7965
  139.5572  144.2246  152.1632 LP  0  0  0  0  0  0  0  0  0  0  0  0  # atno 17342 bound_to 10162
  140.1503  144.5120  150.6691 LP  0  0  0  0  0  0  0  0  0  0  0  0  # atno 17343 bound_to 10162
  157.4605  131.0882  151.0751 LP  0  0  0  0  0  0  0  0  0  0  0  0  # atno 17370 bound_to 10713
  157.1240  130.6074  149.5512 LP  0  0  0  0  0  0  0  0  0  0  0  0  # atno 17371 bound_to 10713
  141.1762  133.8510  157.1414 LP  0  0  0  0  0  0  0  0  0  0  0  0  # atno 17394 bound_to 11000
  140.0161  134.9966  157.0497 LP  0  0  0  0  0  0  0  0  0  0  0  0  # atno 17395 bound_to 11000

$$$$
