#       Name:                AV-unprocessed.smi:1996
#       Creating user name   scv26
#       Creation time:       Fri Mar 27 10:30:11 2020


#       File generated by GOLD software.
#

@<TRIPOS>MOLECULE
AV-unprocessed.smi:1996
    37    38     1
SMALL
NO_CHARGES


@<TRIPOS>ATOM
      1 ****        -2.1923   2.3199   0.4393 O.2            1 S1                 0.0000
      2 ****        -2.6779   1.3016  -0.0587 C.2            1 S1                 0.0000
      3 ****        -1.8906   0.2521  -0.3305 N.am           1 S1                 0.0000
      4 ****        -0.4560   0.1940  -0.0832 C.3            1 S1                 0.0000
      5 ****         0.1018  -1.1849  -0.4662 C.3            1 S1                 0.0000
      6 ****         1.6074  -1.2841  -0.2830 C.2            1 S1                 0.0000
      7 ****         2.4433  -1.4527  -1.3263 C.2            1 S1                 0.0000
      8 ****         3.9542  -1.5440  -1.2038 C.3            1 S1                 0.0000
      9 ****         4.4597  -1.0864   0.1747 C.3            1 S1                 0.0000
     10 ****         3.5796  -1.6438   1.3002 C.3            1 S1                 0.0000
     11 ****         2.1189  -1.1824   1.1499 C.3            1 S1                 0.0000
     12 ****        -3.9779   1.1065  -0.3777 N.pl3          1 S1                -1.0000
     13 ****        -4.8773   2.0779  -0.1511 C.2            1 S1                 0.0000
     14 ****        -5.2858   2.9189  -1.1150 N.2            1 S1                 0.0000
     15 ****        -6.2200   3.8455  -0.6717 N.2            1 S1                 0.0000
     16 ****        -6.5001   3.6728   0.6198 C.2            1 S1                 0.0000
     17 ****        -5.6519   2.3609   1.4105 S.3            1 S1                 0.0000
     18 ****        -2.3224  -0.5640  -0.7385 H              1 S1                 0.0000
     19 ****         0.0406   0.9736  -0.6631 H              1 S1                 0.0000
     20 ****        -0.2671   0.4024   0.9708 H              1 S1                 0.0000
     21 ****        -0.3742  -1.9621   0.1328 H              1 S1                 0.0000
     22 ****        -0.1498  -1.4014  -1.5055 H              1 S1                 0.0000
     23 ****         2.0436  -1.5402  -2.3262 H              1 S1                 0.0000
     24 ****         4.2445  -2.5789  -1.3874 H              1 S1                 0.0000
     25 ****         4.4153  -0.9409  -1.9863 H              1 S1                 0.0000
     26 ****         5.4963  -1.3947   0.3135 H              1 S1                 0.0000
     27 ****         4.4524   0.0034   0.2221 H              1 S1                 0.0000
     28 ****         3.6206  -2.7337   1.2803 H              1 S1                 0.0000
     29 ****         3.9675  -1.3383   2.2724 H              1 S1                 0.0000
     30 ****         2.0279  -0.1443   1.4709 H              1 S1                 0.0000
     31 ****         1.4815  -1.7735   1.8082 H              1 S1                 0.0000
     32 ****        -7.2126   4.3194   1.1095 H              1 S1                 0.0000
     33 ****        -1.2133   2.3609   0.6392 LP             1 S1                 0.0000
     34 ****        -2.7775   3.1048   0.6432 LP             1 S1                 0.0000
     35 ****        -4.2691   0.2395  -0.7820 LP             1 S1                 0.0000
     36 ****        -4.9511   2.8816  -2.0566 LP             1 S1                 0.0000
     37 ****        -6.6303   4.5523  -1.2480 LP             1 S1                 0.0000
@<TRIPOS>BOND
    1    1    2 2     
    2    2    3 am    
    3    2   12 1     
    4    3    4 1     
    5    3   18 1     
    6    4    5 1     
    7    4   19 1     
    8    4   20 1     
    9    5    6 1     
   10    5   21 1     
   11    5   22 1     
   12    6   11 1     
   13    6    7 2     
   14    7    8 1     
   15    7   23 1     
   16    8    9 1     
   17    8   24 1     
   18    8   25 1     
   19    9   10 1     
   20    9   26 1     
   21    9   27 1     
   22   10   11 1     
   23   10   28 1     
   24   10   29 1     
   25   11   30 1     
   26   11   31 1     
   27   12   13 1     
   28   13   17 1     
   29   13   14 2     
   30   14   15 1     
   31   15   16 2     
   32   16   17 1     
   33   16   32 1     
   34    1   33 1     
   35    1   34 1     
   36   12   35 1     
   37   14   36 1     
   38   15   37 1     
@<TRIPOS>SUBSTRUCTURE
      1 S1             1
@<TRIPOS>SET
LONE_PAIRS      STATIC     ATOMS    <user>   **** ""
5 33 34 35 36 37
DONOR_HYDROGENS      STATIC     ATOMS    <user>   **** ""
1 18
ATOM$BLUE        STATIC     ATOMS    COLORGROUP SYSTEM
5 33 34 35 36 37
ATOM$RED        STATIC     ATOMS    COLORGROUP SYSTEM
1 18
