#       Name:                AV-unprocessed.smi:2409
#       Creating user name   scv26
#       Creation time:       Fri Mar 27 13:15:43 2020


#       File generated by GOLD software.
#

@<TRIPOS>MOLECULE
AV-unprocessed.smi:2409
    40    41     1
SMALL
NO_CHARGES


@<TRIPOS>ATOM
      1 ****        -1.4520  -3.0245   1.3293 C.3            1 S1                 0.0000
      2 ****        -1.9419  -2.6284   0.0597 O.3            1 S1                 0.0000
      3 ****        -2.2080  -1.3075  -0.0264 C.2            1 S1                 0.0000
      4 ****        -1.3927  -0.2162  -0.1443 C.2            1 S1                 0.0000
      5 ****         0.0214  -0.1361  -0.2075 N.am           1 S1                 0.0000
      6 ****         0.8759  -1.0552  -0.6936 C.2            1 S1                 0.0000
      7 ****         0.5327  -2.1157  -1.2113 O.2            1 S1                 0.0000
      8 ****         2.1705  -0.6971  -0.6283 N.am           1 S1                 0.0000
      9 ****         3.3103  -1.4489  -1.0595 C.3            1 S1                 0.0000
     10 ****         4.5932  -0.6742  -1.2649 C.3            1 S1                 0.0000
     11 ****         4.4678  -1.6159  -0.0968 C.3            1 S1                 0.0000
     12 ****         5.2717  -2.8973  -0.0675 C.3            1 S1                 0.0000
     13 ****        -2.2698   0.9032  -0.1288 C.2            1 S1                 0.0000
     14 ****        -1.9438   2.3677  -0.1986 C.3            1 S1                 0.0000
     15 ****        -3.5385   0.5171  -0.0543 N.2            1 S1                 0.0000
     16 ****        -3.5042  -0.8367   0.0008 N.pl3          1 S1                 0.0000
     17 ****        -4.7440  -1.5785   0.1032 C.3            1 S1                 0.0000
     18 ****        -1.2661  -4.0983   1.3301 H              1 S1                 0.0000
     19 ****        -2.1790  -2.8078   2.1133 H              1 S1                 0.0000
     20 ****        -0.5157  -2.5218   1.5741 H              1 S1                 0.0000
     21 ****         0.4251   0.7427   0.0816 H              1 S1                 0.0000
     22 ****         2.3612   0.2399  -0.3035 H              1 S1                 0.0000
     23 ****         3.1443  -2.2517  -1.7767 H              1 S1                 0.0000
     24 ****         5.2306  -0.9756  -2.0939 H              1 S1                 0.0000
     25 ****         4.5863   0.3929  -1.0501 H              1 S1                 0.0000
     26 ****         4.3525  -1.1507   0.8808 H              1 S1                 0.0000
     27 ****         5.3663  -3.3196  -1.0685 H              1 S1                 0.0000
     28 ****         4.7818  -3.6307   0.5733 H              1 S1                 0.0000
     29 ****         6.2703  -2.7038   0.3244 H              1 S1                 0.0000
     30 ****        -0.8688   2.5355  -0.2671 H              1 S1                 0.0000
     31 ****        -2.3039   2.8914   0.6871 H              1 S1                 0.0000
     32 ****        -2.4059   2.8302  -1.0708 H              1 S1                 0.0000
     33 ****        -4.5905  -2.6116  -0.2097 H              1 S1                 0.0000
     34 ****        -5.5033  -1.1275  -0.5366 H              1 S1                 0.0000
     35 ****        -5.0925  -1.5674   1.1360 H              1 S1                 0.0000
     36 ****        -2.7845  -3.1338  -0.1263 LP             1 S1                 0.0000
     37 ****        -1.2558  -2.8587  -0.6303 LP             1 S1                 0.0000
     38 ****        -0.4381  -2.3414  -1.2923 LP             1 S1                 0.0000
     39 ****         1.2242  -2.7528  -1.5515 LP             1 S1                 0.0000
     40 ****        -4.3491   1.1026  -0.0415 LP             1 S1                 0.0000
@<TRIPOS>BOND
    1    1    2 1     
    2    1   18 1     
    3    1   19 1     
    4    1   20 1     
    5    2    3 1     
    6    3   16 1     
    7    3    4 2     
    8    4    5 1     
    9    4   13 1     
   10    5    6 am    
   11    5   21 1     
   12    6    7 2     
   13    6    8 am    
   14    8    9 1     
   15    8   22 1     
   16    9   11 1     
   17    9   10 1     
   18    9   23 1     
   19   10   11 1     
   20   10   24 1     
   21   10   25 1     
   22   11   12 1     
   23   11   26 1     
   24   12   27 1     
   25   12   28 1     
   26   12   29 1     
   27   13   14 1     
   28   13   15 2     
   29   14   30 1     
   30   14   31 1     
   31   14   32 1     
   32   15   16 1     
   33   16   17 1     
   34   17   33 1     
   35   17   34 1     
   36   17   35 1     
   37    2   36 1     
   38    2   37 1     
   39    7   38 1     
   40    7   39 1     
   41   15   40 1     
@<TRIPOS>SUBSTRUCTURE
      1 S1             1
@<TRIPOS>SET
LONE_PAIRS      STATIC     ATOMS    <user>   **** ""
5 36 37 38 39 40
DONOR_HYDROGENS      STATIC     ATOMS    <user>   **** ""
2 21 22
ATOM$BLUE        STATIC     ATOMS    COLORGROUP SYSTEM
5 36 37 38 39 40
ATOM$RED        STATIC     ATOMS    COLORGROUP SYSTEM
2 21 22
