AV-unprocessed.smi:3348|AV-procd|sdf|12922|dock4
  -GOLD-   2272019343D 1   1.00000     0.00000
 Structure written by MMmdl.
 47 48  0  0  0  0  0  0  0  0  2 V2000
  143.9547  136.8774  152.4041 C   0  0  0  0  0  0  0  0  0  0  0  0
  145.2917  136.2371  151.9955 C   0  0  1  0  0  0  0  0  0  0  0  0
  145.1827  135.5957  150.5965 C   0  0  0  0  0  0  0  0  0  0  0  0
  144.9683  134.1581  150.6398 N   0  0  0  0  0  0  0  0  0  0  0  0
  143.8573  133.4473  150.2359 C   0  0  0  0  0  0  0  0  0  0  0  0
  144.1028  132.1284  150.4895 C   0  0  0  0  0  0  0  0  0  0  0  0
  145.4017  132.1316  151.0699 C   0  0  0  0  0  0  0  0  0  0  0  0
  145.9144  133.3479  151.1628 N   0  0  0  0  0  0  0  0  0  0  0  0
  146.3865  137.2339  152.0146 N   0  3  0  0  0  0  0  0  0  0  0  0
  146.4828  138.0446  153.2462 C   0  0  0  0  0  0  0  0  0  0  0  0
  147.6759  139.0020  153.1758 C   0  0  0  0  0  0  0  0  0  0  0  0
  148.6346  138.5970  154.1417 O   0  0  0  0  0  0  0  0  0  0  0  0
  149.7356  139.4852  154.2912 C   0  0  1  0  0  0  0  0  0  0  0  0
  149.2592  140.7963  154.9523 C   0  0  0  0  0  0  0  0  0  0  0  0
  150.4361  141.7335  155.2602 C   0  0  0  0  0  0  0  0  0  0  0  0
  151.4848  141.0323  156.1341 C   0  0  0  0  0  0  0  0  0  0  0  0
  151.9690  139.7318  155.4759 C   0  0  0  0  0  0  0  0  0  0  0  0
  150.7985  138.7784  155.1628 C   0  0  2  0  0  0  0  0  0  0  0  0
  151.3125  137.4896  154.5005 C   0  0  0  0  0  0  0  0  0  0  0  0
  143.1458  136.1471  152.3657 H   0  0  0  0  0  0  0  0  0  0  0  0
  143.6887  137.7000  151.7394 H   0  0  0  0  0  0  0  0  0  0  0  0
  143.9851  137.2670  153.4213 H   0  0  0  0  0  0  0  0  0  0  0  0
  145.5278  135.4517  152.7150 H   0  0  0  0  0  0  0  0  0  0  0  0
  144.3554  136.0400  150.0415 H   0  0  0  0  0  0  0  0  0  0  0  0
  146.0869  135.7936  150.0186 H   0  0  0  0  0  0  0  0  0  0  0  0
  142.9935  133.9326  149.8056 H   0  0  0  0  0  0  0  0  0  0  0  0
  143.4509  131.2892  150.2968 H   0  0  0  0  0  0  0  0  0  0  0  0
  145.9817  131.2932  151.4264 H   0  0  0  0  0  0  0  0  0  0  0  0
  147.2565  136.7288  151.9220 H   0  0  0  0  0  0  0  0  0  0  0  0
  145.5642  138.6086  153.4077 H   0  0  0  0  0  0  0  0  0  0  0  0
  146.6055  137.3760  154.0992 H   0  0  0  0  0  0  0  0  0  0  0  0
  148.1198  138.9565  152.1803 H   0  0  0  0  0  0  0  0  0  0  0  0
  147.3483  140.0284  153.3419 H   0  0  0  0  0  0  0  0  0  0  0  0
  150.1785  139.7043  153.3177 H   0  0  0  0  0  0  0  0  0  0  0  0
  148.5491  141.3164  154.3101 H   0  0  0  0  0  0  0  0  0  0  0  0
  148.7280  140.5674  155.8768 H   0  0  0  0  0  0  0  0  0  0  0  0
  150.8964  142.0618  154.3273 H   0  0  0  0  0  0  0  0  0  0  0  0
  150.0755  142.6324  155.7610 H   0  0  0  0  0  0  0  0  0  0  0  0
  152.3305  141.6985  156.3072 H   0  0  0  0  0  0  0  0  0  0  0  0
  151.0588  140.8116  157.1136 H   0  0  0  0  0  0  0  0  0  0  0  0
  152.5061  139.9702  154.5569 H   0  0  0  0  0  0  0  0  0  0  0  0
  152.6868  139.2389  156.1325 H   0  0  0  0  0  0  0  0  0  0  0  0
  150.3323  138.5012  156.1096 H   0  0  0  0  0  0  0  0  0  0  0  0
  151.7657  137.6958  153.5304 H   0  0  0  0  0  0  0  0  0  0  0  0
  150.5059  136.7729  154.3450 H   0  0  0  0  0  0  0  0  0  0  0  0
  152.0648  137.0027  155.1216 H   0  0  0  0  0  0  0  0  0  0  0  0
  146.2877  137.8485  151.2189 H   0  0  0  0  0  0  0  0  0  0  0  0
  1  2  1  0  0  0  0
  1 20  1  0  0  0  0
  1 21  1  0  0  0  0
  1 22  1  0  0  0  0
  2  3  1  0  0  0  0
  2  9  1  0  0  0  0
  2 23  1  0  0  0  0
  3  4  1  0  0  0  0
  3 24  1  0  0  0  0
  3 25  1  0  0  0  0
  4  8  1  0  0  0  0
  4  5  1  0  0  0  0
  5  6  2  0  0  0  0
  5 26  1  0  0  0  0
  6  7  1  0  0  0  0
  6 27  1  0  0  0  0
  7  8  2  0  0  0  0
  7 28  1  0  0  0  0
  9 10  1  0  0  0  0
  9 29  1  0  0  0  0
  9 47  1  0  0  0  0
 10 11  1  0  0  0  0
 10 30  1  0  0  0  0
 10 31  1  0  0  0  0
 11 12  1  0  0  0  0
 11 32  1  0  0  0  0
 11 33  1  0  0  0  0
 12 13  1  0  0  0  0
 13 18  1  0  0  0  0
 13 14  1  0  0  0  0
 13 34  1  0  0  0  0
 14 15  1  0  0  0  0
 14 35  1  0  0  0  0
 14 36  1  0  0  0  0
 15 16  1  0  0  0  0
 15 37  1  0  0  0  0
 15 38  1  0  0  0  0
 16 17  1  0  0  0  0
 16 39  1  0  0  0  0
 16 40  1  0  0  0  0
 17 18  1  0  0  0  0
 17 41  1  0  0  0  0
 17 42  1  0  0  0  0
 18 19  1  0  0  0  0
 18 43  1  0  0  0  0
 19 44  1  0  0  0  0
 19 45  1  0  0  0  0
 19 46  1  0  0  0  0
M  CHG  1   9   1
M  END
> <s_m_source_file>
AV-unprocessed.smi

> <i_m_source_file_index>
3348

> <i_lp_mmshare_version>
43012

> <i_f3d_flags>
0

> <s_epik_input>
bjFbY0hdW2NIXVtjSF1uMVtDSDJdW0NAQEhdKFtDSDNdKVtOSF1bQ0gyXVtDSDJdT1tDQEBIXTJbQ0gyXVtDSDJdW0NIMl1bQ0gyXVtDQEhdMltDSDNd

> <s_epik_cmdline>
J2VwaWtfcHl0aG9uJywgJy1waCcsICc3LjAnLCAnLXRuJywgJzgnLCAnLW1hJywgJzIwMCcsICctbWV0YWxfYmluZGluZycsICctaW1hZScsICc8aW5maWxlLm1hZT4nLCAnLW9tYWUnLCAnPG91dGZpbGUubWFlPic=

> <r_lp_tautomer_probability>
1

> <r_epik_Ionization_Penalty>
0.00925088

> <r_epik_Ionization_Penalty_Charging>
0.00924645

> <r_epik_Ionization_Penalty_Neutral>
4.42413e-06

> <r_epik_State_Penalty>
0.0070118

> <r_epik_Charging_Adjusted_Penalty>
0.0162583

> <i_epik_Tot_Q>
1

> <i_epik_Tot_abs_Q>
1

> <r_epik_Metal_State_Penalty>
0.00701222

> <b_epik_Metal_Only>
0

> <s_lp_Force_Field>
OPLS_2005

> <r_lp_Energy>
15.644

> <b_lp_Chiralities_Consistent>
1

> <s_lp_Variant>
AV-unprocessed.smi:3348-8

> <Gold.Version>
5.8.1

> <Gold.Id.Protein>
6NUR|6NUR_protein|mol2

> <Gold.PLP.Fitness>
48.8815

> <Gold.PLP.PLP>
-38.8656

> <Gold.PLP.part.hbond>
-1.0000

> <Gold.PLP.part.metal>
0.0000

> <Gold.PLP.part.buried>
-3.8730

> <Gold.PLP.part.nonpolar>
-34.6390

> <Gold.PLP.part.repulsive>
0.4308

> <Gold.PLP.ligand.clash>
0.0000

> <Gold.PLP.ligand.torsion>
1.0657

> <Gold.PLP.Chemscore.Hbond>
2.0000

> <Gold.PLP.Chemscore.CHOScore>
1.9996

> <Gold.PLP.Chemscore.Metal>
0.0000

> <Gold.Chemscore.Hbonds>
donor molecule, donor type, donor heavy atom, donor atom, acceptor molecule, acceptor atom, score
      L1  H     9    29       P1  7948  2.00
      L1  C     5    26       P1 10186  1.00

> <Gold.PLP.Chemscore.Internal.Correction>
0.1485

> <Gold.Rescore>
     Score         DG    S(hbond)    S(metal)    S(lipo)     H(rot)  DE(clash)    DE(int)     intcor
     15.39     -16.28       1.00        0.00     103.61       1.82       0.28       0.61       ----

> <Gold.Chemscore.Fitness>
15.3921

> <Gold.Chemscore.DG>
-16.2817

> <Gold.Chemscore.ZeroCoef>
-5.4800

> <Gold.Chemscore.Hbond>
0.9966

> <Gold.Chemscore.Metal>
0.0000

> <Gold.Chemscore.Lipo>
103.6143

> <Gold.Chemscore.Internal_Hbond>
0.0000

> <Gold.Chemscore.DEClash>
0.2780

> <Gold.Chemscore.DEInternal>
0.6116

> <Gold.Chemscore.Rot>
1.8163

> <Gold.Chemscore.Internal.Correction>
   9.000000E+99

> <Gold.Chemscore.Hbonds>
donor molecule, donor type, donor heavy atom, donor atom, acceptor molecule, acceptor atom, score
      L1  H     9    29       P1  7948  1.00

> <Gold.Chemscore.Hbond.Weighted>
-3.3286

> <Gold.Chemscore.Metal.Weighted>
-0.0000

> <Gold.Chemscore.Lipo.Weighted>
-12.1229

> <Gold.Chemscore.Internal_Hbond.Weighted>
0.0000

> <Gold.Chemscore.DEClash.Weighted>
0.2780

> <Gold.Chemscore.DEInternal.Weighted>
0.6116

> <Gold.Chemscore.Rot.Weighted>
4.6497

> <Gold.Chemscore.Internal.Correction.Weighted>
   9.000000E+99

> <Gold.Protein.RotatedTorsions>
[ 6907 6896 6895 6894 ] final  -81.39 input  -60.11 | X-H torsion
[ 7974 7965 7964 7962 ] final  -42.97 input  175.53 | X-H torsion
[ 8008 7997 7996 7995 ] final  -34.73 input   59.86 | X-H torsion
[ 10167 10162 10161 10158 ] final  134.42 input  -65.29 | X-H torsion
[ 10718 10713 10712 10709 ] final -176.04 input   66.30 | X-H torsion
[ 10763 10752 10751 10750 ] final -133.08 input  -60.55 | X-H torsion
[ 11005 11000 10999 10996 ] final  -25.72 input  -57.11 | X-H torsion

> <Gold.Protein.ActiveResidues>
 VAL166  LYS551  ARG553  GLY616  TRP617  ASP618  TYR619  PRO620  LYS621  CYS622 
 ASP623  PHE694  ASN695  SER759  ASP760  ASP761  ALA762  ILE779  LEU786  VAL792 
 PHE793  MET794  SER795  GLU796  ALA797  LYS798  CYS799  TRP800  GLU811  SER814 

> <Gold.Protein.RotatedAtoms>
  150.6913  134.3825  159.5040 H   0  0  0  0  0  0  0  0  0  0  0  0  # atno 6907 bound_to 6896
  152.1625  134.8898  160.0549 H   0  0  0  0  0  0  0  0  0  0  0  0  # atno 6908 bound_to 6896
  151.9954  133.3771  159.4198 H   0  0  0  0  0  0  0  0  0  0  0  0  # atno 6909 bound_to 6896
  146.0065  140.7014  142.9245 H   0  0  0  0  0  0  0  0  0  0  0  0  # atno 7974 bound_to 7965
  154.4113  140.1676  156.2097 H   0  0  0  0  0  0  0  0  0  0  0  0  # atno 8008 bound_to 7997
  155.9454  140.3405  155.6339 H   0  0  0  0  0  0  0  0  0  0  0  0  # atno 8009 bound_to 7997
  155.6936  140.0737  157.2429 H   0  0  0  0  0  0  0  0  0  0  0  0  # atno 8010 bound_to 7997
  139.5257  144.6568  151.5137 H   0  0  0  0  0  0  0  0  0  0  0  0  # atno 10167 bound_to 10162
  156.8088  130.9578  151.3116 H   0  0  0  0  0  0  0  0  0  0  0  0  # atno 10718 bound_to 10713
  154.8736  135.3777  154.4514 H   0  0  0  0  0  0  0  0  0  0  0  0  # atno 10763 bound_to 10752
  153.5190  135.7029  153.5746 H   0  0  0  0  0  0  0  0  0  0  0  0  # atno 10764 bound_to 10752
  153.4001  135.3950  155.1948 H   0  0  0  0  0  0  0  0  0  0  0  0  # atno 10765 bound_to 10752
  140.8964  133.7553  156.0487 H   0  0  0  0  0  0  0  0  0  0  0  0  # atno 11005 bound_to 11000
  144.6937  140.3323  143.7214 LP  0  0  0  0  0  0  0  0  0  0  0  0  # atno 17320 bound_to 7965
  145.7408  139.1764  143.2377 LP  0  0  0  0  0  0  0  0  0  0  0  0  # atno 17321 bound_to 7965
  140.6397  143.8913  150.6680 LP  0  0  0  0  0  0  0  0  0  0  0  0  # atno 17342 bound_to 10162
  140.2244  143.3784  152.1617 LP  0  0  0  0  0  0  0  0  0  0  0  0  # atno 17343 bound_to 10162
  157.6516  130.8889  149.9645 LP  0  0  0  0  0  0  0  0  0  0  0  0  # atno 17370 bound_to 10713
  156.1057  130.3653  150.0138 LP  0  0  0  0  0  0  0  0  0  0  0  0  # atno 17371 bound_to 10713
  140.8284  134.3207  157.5357 LP  0  0  0  0  0  0  0  0  0  0  0  0  # atno 17394 bound_to 11000
  139.8736  134.9349  156.3619 LP  0  0  0  0  0  0  0  0  0  0  0  0  # atno 17395 bound_to 11000

$$$$
