AV-unprocessed.smi:885|AV-procd|sdf|4046|dock6
  -GOLD-   22720 1533D 1   1.00000     0.00000
 Structure written by MMmdl.
 39 41  0  0  0  0  0  0  0  0  1 V2000
  151.6269  144.6348  160.7067 C   0  0  0  0  0  0  0  0  0  0  0  0
  152.5019  143.7981  161.6573 C   0  0  0  0  0  0  0  0  0  0  0  0
  153.2264  142.5883  161.0410 C   0  0  0  0  0  0  0  0  0  0  0  0
  152.4045  141.7738  160.0276 C   0  0  0  0  0  0  0  0  0  0  0  0
  152.4961  142.3190  158.5857 C   0  0  0  0  0  0  0  0  0  0  0  0
  152.0573  141.2870  157.5905 C   0  0  0  0  0  0  0  0  0  0  0  0
  151.0730  141.5294  156.7324 N   0  0  0  0  0  0  0  0  0  0  0  0
  150.9714  140.3336  156.0074 O   0  0  0  0  0  0  0  0  0  0  0  0
  151.9272  139.5135  156.5069 C   0  0  0  0  0  0  0  0  0  0  0  0
  152.0343  138.1244  155.9646 C   0  0  2  0  0  0  0  0  0  0  0  0
  151.4962  138.0171  154.5246 C   0  0  0  0  0  0  0  0  0  0  0  0
  151.5439  136.6290  154.0683 N   0  0  0  0  0  0  0  0  0  0  0  0
  150.8285  135.7463  154.9885 C   0  0  0  0  0  0  0  0  0  0  0  0
  151.3704  135.9113  156.4200 C   0  0  0  0  0  0  0  0  0  0  0  0
  151.2690  137.2748  156.8161 O   0  0  0  0  0  0  0  0  0  0  0  0
  152.6215  140.0496  157.5089 N   0  0  0  0  0  0  0  0  0  0  0  0
  151.7677  143.6559  158.3428 C   0  0  0  0  0  0  0  0  0  0  0  0
  152.1764  144.8051  159.2809 C   0  0  0  0  0  0  0  0  0  0  0  0
  151.4938  145.6201  161.1551 H   0  0  0  0  0  0  0  0  0  0  0  0
  150.6251  144.2058  160.6597 H   0  0  0  0  0  0  0  0  0  0  0  0
  153.2532  144.4451  162.1114 H   0  0  0  0  0  0  0  0  0  0  0  0
  151.8757  143.4565  162.4822 H   0  0  0  0  0  0  0  0  0  0  0  0
  154.1580  142.9157  160.5781 H   0  0  0  0  0  0  0  0  0  0  0  0
  153.5305  141.9322  161.8572 H   0  0  0  0  0  0  0  0  0  0  0  0
  152.8143  140.7626  160.0268 H   0  0  0  0  0  0  0  0  0  0  0  0
  151.3671  141.6732  160.3490 H   0  0  0  0  0  0  0  0  0  0  0  0
  153.5534  142.5040  158.3880 H   0  0  0  0  0  0  0  0  0  0  0  0
  153.0839  137.8262  156.0000 H   0  0  0  0  0  0  0  0  0  0  0  0
  150.4691  138.3827  154.4870 H   0  0  0  0  0  0  0  0  0  0  0  0
  152.0790  138.6508  153.8559 H   0  0  0  0  0  0  0  0  0  0  0  0
  151.1324  136.5609  153.1431 H   0  0  0  0  0  0  0  0  0  0  0  0
  149.7631  135.9786  154.9722 H   0  0  0  0  0  0  0  0  0  0  0  0
  150.9286  134.7098  154.6666 H   0  0  0  0  0  0  0  0  0  0  0  0
  150.7912  135.3001  157.1122 H   0  0  0  0  0  0  0  0  0  0  0  0
  152.4062  135.5747  156.4880 H   0  0  0  0  0  0  0  0  0  0  0  0
  151.9638  143.9688  157.3163 H   0  0  0  0  0  0  0  0  0  0  0  0
  150.6886  143.5081  158.4034 H   0  0  0  0  0  0  0  0  0  0  0  0
  151.7606  145.7256  158.8699 H   0  0  0  0  0  0  0  0  0  0  0  0
  153.2578  144.9453  159.2885 H   0  0  0  0  0  0  0  0  0  0  0  0
  1 18  1  0  0  0  0
  1  2  1  0  0  0  0
  1 19  1  0  0  0  0
  1 20  1  0  0  0  0
  2  3  1  0  0  0  0
  2 21  1  0  0  0  0
  2 22  1  0  0  0  0
  3  4  1  0  0  0  0
  3 23  1  0  0  0  0
  3 24  1  0  0  0  0
  4  5  1  0  0  0  0
  4 25  1  0  0  0  0
  4 26  1  0  0  0  0
  5  6  1  0  0  0  0
  5 17  1  0  0  0  0
  5 27  1  0  0  0  0
  6 16  1  0  0  0  0
  6  7  2  0  0  0  0
  7  8  1  0  0  0  0
  8  9  1  0  0  0  0
  9 10  1  0  0  0  0
  9 16  2  0  0  0  0
 10 15  1  0  0  0  0
 10 11  1  0  0  0  0
 10 28  1  0  0  0  0
 11 12  1  0  0  0  0
 11 29  1  0  0  0  0
 11 30  1  0  0  0  0
 12 13  1  0  0  0  0
 12 31  1  0  0  0  0
 13 14  1  0  0  0  0
 13 32  1  0  0  0  0
 13 33  1  0  0  0  0
 14 15  1  0  0  0  0
 14 34  1  0  0  0  0
 14 35  1  0  0  0  0
 17 18  1  0  0  0  0
 17 36  1  0  0  0  0
 17 37  1  0  0  0  0
 18 38  1  0  0  0  0
 18 39  1  0  0  0  0
M  END
> <s_m_source_file>
AV-unprocessed.smi

> <i_m_source_file_index>
885

> <i_lp_mmshare_version>
43012

> <i_f3d_flags>
0

> <s_epik_input>
W0NIMl0xW0NIMl1bQ0gyXVtDSDJdW0NIMl1bQ0gyXVtDSF0xYzJub2MobjIpW0NAQEhdM1tDSDJdW05IXVtDSDJdW0NIMl1PMw==

> <s_epik_cmdline>
J2VwaWtfcHl0aG9uJywgJy1waCcsICc3LjAnLCAnLXRuJywgJzgnLCAnLW1hJywgJzIwMCcsICctbWV0YWxfYmluZGluZycsICctaW1hZScsICc8aW5maWxlLm1hZT4nLCAnLW9tYWUnLCAnPG91dGZpbGUubWFlPic=

> <r_lp_tautomer_probability>
1

> <r_epik_Ionization_Penalty>
0.861744

> <r_epik_Ionization_Penalty_Charging>
0

> <r_epik_Ionization_Penalty_Neutral>
0.861744

> <r_epik_State_Penalty>
0.898282

> <r_epik_Charging_Adjusted_Penalty>
0.898282

> <i_epik_Tot_Q>
0

> <i_epik_Tot_abs_Q>
0

> <r_epik_Metal_State_Penalty>
0.898282

> <b_epik_Metal_Only>
0

> <s_lp_Force_Field>
OPLS_2005

> <r_lp_Energy>
20.6019

> <b_lp_Chiralities_Consistent>
1

> <s_lp_Variant>
AV-unprocessed.smi:885-3

> <Gold.Version>
5.8.1

> <Gold.Id.Protein>
6NUR|6NUR_protein|mol2

> <Gold.PLP.Fitness>
46.4652

> <Gold.PLP.PLP>
-38.8486

> <Gold.PLP.part.hbond>
-3.0000

> <Gold.PLP.part.metal>
0.0000

> <Gold.PLP.part.buried>
-5.9707

> <Gold.PLP.part.nonpolar>
-29.4047

> <Gold.PLP.part.repulsive>
0.0562

> <Gold.PLP.ligand.clash>
0.0000

> <Gold.PLP.ligand.torsion>
0.7079

> <Gold.PLP.Chemscore.Hbond>
2.9750

> <Gold.PLP.Chemscore.CHOScore>
0.0000

> <Gold.PLP.Chemscore.Metal>
0.0000

> <Gold.Chemscore.Hbonds>
donor molecule, donor type, donor heavy atom, donor atom, acceptor molecule, acceptor atom, score
      L1  H    12    31       P1  7949  1.00
      P1  H  7997  8009       L1    16  0.99
      P1  H 10752 10763       L1    12  0.60

> <Gold.PLP.Chemscore.Internal.Correction>
0.1073

> <Gold.Rescore>
     Score         DG    S(hbond)    S(metal)    S(lipo)     H(rot)  DE(clash)    DE(int)     intcor
     18.02     -18.93       1.33        0.00     103.57       1.21       0.15       0.76       ----

> <Gold.Chemscore.Fitness>
18.0174

> <Gold.Chemscore.DG>
-18.9288

> <Gold.Chemscore.ZeroCoef>
-5.4800

> <Gold.Chemscore.Hbond>
1.3252

> <Gold.Chemscore.Metal>
0.0000

> <Gold.Chemscore.Lipo>
103.5674

> <Gold.Chemscore.Internal_Hbond>
0.0000

> <Gold.Chemscore.DEClash>
0.1513

> <Gold.Chemscore.DEInternal>
0.7601

> <Gold.Chemscore.Rot>
1.2088

> <Gold.Chemscore.Internal.Correction>
   9.000000E+99

> <Gold.Chemscore.Hbonds>
donor molecule, donor type, donor heavy atom, donor atom, acceptor molecule, acceptor atom, score
      L1  H    12    31       P1  7949  0.43
      P1  H  7997  8009       L1    16  0.44
      P1  H 10752 10763       L1    12  0.03

> <Gold.Chemscore.Hbond.Weighted>
-4.4260

> <Gold.Chemscore.Metal.Weighted>
-0.0000

> <Gold.Chemscore.Lipo.Weighted>
-12.1174

> <Gold.Chemscore.Internal_Hbond.Weighted>
0.0000

> <Gold.Chemscore.DEClash.Weighted>
0.1513

> <Gold.Chemscore.DEInternal.Weighted>
0.7601

> <Gold.Chemscore.Rot.Weighted>
3.0946

> <Gold.Chemscore.Internal.Correction.Weighted>
   9.000000E+99

> <Gold.Protein.RotatedTorsions>
[ 6907 6896 6895 6894 ] final  140.70 input  -60.11 | X-H torsion
[ 7974 7965 7964 7962 ] final  162.48 input  175.53 | X-H torsion
[ 8008 7997 7996 7995 ] final  160.94 input   59.86 | X-H torsion
[ 10167 10162 10161 10158 ] final  152.36 input  -65.29 | X-H torsion
[ 10718 10713 10712 10709 ] final  -19.68 input   66.30 | X-H torsion
[ 10763 10752 10751 10750 ] final   33.28 input  -60.55 | X-H torsion
[ 11005 11000 10999 10996 ] final  -80.32 input  -57.11 | X-H torsion

> <Gold.Protein.ActiveResidues>
 VAL166  LYS551  ARG553  GLY616  TRP617  ASP618  TYR619  PRO620  LYS621  CYS622 
 ASP623  PHE694  ASN695  SER759  ASP760  ASP761  ALA762  ILE779  LEU786  VAL792 
 PHE793  MET794  SER795  GLU796  ALA797  LYS798  CYS799  TRP800  GLU811  SER814 

> <Gold.Protein.RotatedAtoms>
  152.2399  133.5126  159.5263 H   0  0  0  0  0  0  0  0  0  0  0  0  # atno 6907 bound_to 6896
  150.7061  134.1103  159.4007 H   0  0  0  0  0  0  0  0  0  0  0  0  # atno 6908 bound_to 6896
  151.9024  135.0373  160.0558 H   0  0  0  0  0  0  0  0  0  0  0  0  # atno 6909 bound_to 6896
  144.7635  139.8045  143.6324 H   0  0  0  0  0  0  0  0  0  0  0  0  # atno 7974 bound_to 7965
  156.2138  140.1791  156.7636 H   0  0  0  0  0  0  0  0  0  0  0  0  # atno 8008 bound_to 7997
  154.5761  140.0674  156.9065 H   0  0  0  0  0  0  0  0  0  0  0  0  # atno 8009 bound_to 7997
  155.2586  140.3334  155.4278 H   0  0  0  0  0  0  0  0  0  0  0  0  # atno 8010 bound_to 7997
  139.4833  144.5364  151.7638 H   0  0  0  0  0  0  0  0  0  0  0  0  # atno 10167 bound_to 10162
  156.5423  130.4681  149.6492 H   0  0  0  0  0  0  0  0  0  0  0  0  # atno 10718 bound_to 10713
  153.0219  135.6391  154.1487 H   0  0  0  0  0  0  0  0  0  0  0  0  # atno 10763 bound_to 10752
  154.1221  135.2846  155.3207 H   0  0  0  0  0  0  0  0  0  0  0  0  # atno 10764 bound_to 10752
  154.6256  135.5510  153.7685 H   0  0  0  0  0  0  0  0  0  0  0  0  # atno 10765 bound_to 10752
  141.1668  133.7145  156.8255 H   0  0  0  0  0  0  0  0  0  0  0  0  # atno 11005 bound_to 11000
  146.1720  139.4875  142.9921 LP  0  0  0  0  0  0  0  0  0  0  0  0  # atno 17320 bound_to 7965
  145.6544  141.0255  143.1743 LP  0  0  0  0  0  0  0  0  0  0  0  0  # atno 17321 bound_to 7965
  140.4897  144.1328  150.5948 LP  0  0  0  0  0  0  0  0  0  0  0  0  # atno 17342 bound_to 10162
  140.4185  143.2623  151.9745 LP  0  0  0  0  0  0  0  0  0  0  0  0  # atno 17343 bound_to 10162
  156.2960  130.7150  151.2011 LP  0  0  0  0  0  0  0  0  0  0  0  0  # atno 17370 bound_to 10713
  157.7403  131.0519  150.5176 LP  0  0  0  0  0  0  0  0  0  0  0  0  # atno 17371 bound_to 10713
  140.2088  134.8842  157.3252 LP  0  0  0  0  0  0  0  0  0  0  0  0  # atno 17394 bound_to 11000
  140.2108  134.4141  155.7614 LP  0  0  0  0  0  0  0  0  0  0  0  0  # atno 17395 bound_to 11000

$$$$
