#       Name:                AV-unprocessed.smi:1080
#       Creating user name   scv26
#       Creation time:       Fri Mar 27 03:23:14 2020


#       File generated by GOLD software.
#

@<TRIPOS>MOLECULE
AV-unprocessed.smi:1080
    53    55     1
SMALL
NO_CHARGES


@<TRIPOS>ATOM
      1 ****        -2.2956   3.2065  -0.0327 O.2            1 S1                 0.0000
      2 ****        -2.7580   2.0725   0.0882 C.2            1 S1                 0.0000
      3 ****        -4.0646   1.7670   0.1782 N.am           1 S1                 0.0000
      4 ****        -5.1936   2.6319   0.1607 C.ar           1 S1                 0.0000
      5 ****        -6.4269   2.1015   0.5938 C.ar           1 S1                 0.0000
      6 ****        -7.5671   2.9292   0.5783 C.ar           1 S1                 0.0000
      7 ****        -7.5463   4.2124   0.1616 N.ar           1 S1                 0.0000
      8 ****        -6.3685   4.7161  -0.2635 C.ar           1 S1                 0.0000
      9 ****        -5.1701   3.9747  -0.2893 C.ar           1 S1                 0.0000
     10 ****        -2.0019   0.9671   0.1637 N.am           1 S1                 0.0000
     11 ****        -0.5424   0.9221   0.1209 C.3            1 S1                 0.0000
     12 ****        -0.0761   0.2357  -1.1764 C.3            1 S1                 0.0000
     13 ****         1.4538   0.0855  -1.2167 C.3            1 S1                 0.0000
     14 ****         1.9806  -0.6762   0.0175 C.3            1 S1                 0.0000
     15 ****         3.5178  -0.8147  -0.0452 C.2            1 S1                 0.0000
     16 ****         4.2034   0.0971   0.4203 O.2            1 S1                 0.0000
     17 ****         4.0798  -1.9321  -0.5727 N.am           1 S1                 0.0000
     18 ****         5.5155  -2.2165  -0.4543 C.3            1 S1                 0.0000
     19 ****         5.7279  -3.2392   0.6753 C.3            1 S1                 0.0000
     20 ****         4.8905  -4.8141   0.3055 S.3            1 S1                 0.0000
     21 ****         3.2424  -4.1912  -0.1542 C.3            1 S1                 0.0000
     22 ****         3.3575  -3.0548  -1.1829 C.3            1 S1                 0.0000
     23 ****         1.5202   0.0367   1.3096 C.3            1 S1                 0.0000
     24 ****        -0.0101   0.1742   1.3568 C.3            1 S1                 0.0000
     25 ****        -4.2765   0.7918   0.3299 H              1 S1                 0.0000
     26 ****        -6.5026   1.0801   0.9374 H              1 S1                 0.0000
     27 ****        -8.5222   2.5489   0.9092 H              1 S1                 0.0000
     28 ****        -6.3808   5.7425  -0.5994 H              1 S1                 0.0000
     29 ****        -4.2743   4.4474  -0.6595 H              1 S1                 0.0000
     30 ****        -2.4745   0.0808   0.2637 H              1 S1                 0.0000
     31 ****        -0.1310   1.9330   0.1381 H              1 S1                 0.0000
     32 ****        -0.5362  -0.7500  -1.2601 H              1 S1                 0.0000
     33 ****        -0.4114   0.8076  -2.0425 H              1 S1                 0.0000
     34 ****         1.7416  -0.4316  -2.1329 H              1 S1                 0.0000
     35 ****         1.9113   1.0750  -1.2674 H              1 S1                 0.0000
     36 ****         1.5230  -1.6638   0.0508 H              1 S1                 0.0000
     37 ****         5.9044  -2.6075  -1.3956 H              1 S1                 0.0000
     38 ****         6.1012  -1.3187  -0.2528 H              1 S1                 0.0000
     39 ****         6.7911  -3.4331   0.8178 H              1 S1                 0.0000
     40 ****         5.3455  -2.8467   1.6184 H              1 S1                 0.0000
     41 ****         2.6582  -5.0163  -0.5617 H              1 S1                 0.0000
     42 ****         2.7276  -3.8458   0.7430 H              1 S1                 0.0000
     43 ****         2.3770  -2.7722  -1.5631 H              1 S1                 0.0000
     44 ****         3.8972  -3.4096  -2.0622 H              1 S1                 0.0000
     45 ****         1.8621  -0.5163   2.1854 H              1 S1                 0.0000
     46 ****         1.9646   1.0310   1.3785 H              1 S1                 0.0000
     47 ****        -0.3033   0.7000   2.2664 H              1 S1                 0.0000
     48 ****        -0.4607  -0.8178   1.4142 H              1 S1                 0.0000
     49 ****        -2.9092   3.9952  -0.0713 LP             1 S1                 0.0000
     50 ****        -1.3062   3.3393  -0.0923 LP             1 S1                 0.0000
     51 ****        -8.3755   4.7713   0.1676 LP             1 S1                 0.0000
     52 ****         3.7621   0.8984   0.8243 LP             1 S1                 0.0000
     53 ****         5.2012   0.0359   0.3942 LP             1 S1                 0.0000
@<TRIPOS>BOND
    1    1    2 2     
    2    2    3 am    
    3    2   10 am    
    4    3    4 1     
    5    3   25 1     
    6    4    9 ar    
    7    4    5 ar    
    8    5    6 ar    
    9    5   26 1     
   10    6    7 ar    
   11    6   27 1     
   12    7    8 ar    
   13    8    9 ar    
   14    8   28 1     
   15    9   29 1     
   16   10   11 1     
   17   10   30 1     
   18   11   24 1     
   19   11   12 1     
   20   11   31 1     
   21   12   13 1     
   22   12   32 1     
   23   12   33 1     
   24   13   14 1     
   25   13   34 1     
   26   13   35 1     
   27   14   15 1     
   28   14   23 1     
   29   14   36 1     
   30   15   16 2     
   31   15   17 am    
   32   17   22 1     
   33   17   18 1     
   34   18   19 1     
   35   18   37 1     
   36   18   38 1     
   37   19   20 1     
   38   19   39 1     
   39   19   40 1     
   40   20   21 1     
   41   21   22 1     
   42   21   41 1     
   43   21   42 1     
   44   22   43 1     
   45   22   44 1     
   46   23   24 1     
   47   23   45 1     
   48   23   46 1     
   49   24   47 1     
   50   24   48 1     
   51    1   49 1     
   52    1   50 1     
   53    7   51 1     
   54   16   52 1     
   55   16   53 1     
@<TRIPOS>SUBSTRUCTURE
      1 S1             1
@<TRIPOS>SET
LONE_PAIRS      STATIC     ATOMS    <user>   **** ""
5 49 50 51 52 53
DONOR_HYDROGENS      STATIC     ATOMS    <user>   **** ""
2 25 30
ATOM$BLUE        STATIC     ATOMS    COLORGROUP SYSTEM
5 49 50 51 52 53
ATOM$RED        STATIC     ATOMS    COLORGROUP SYSTEM
2 25 30
