#       Name:                AV-unprocessed.smi:102
#       Creating user name   scv26
#       Creation time:       Thu Mar 26 17:48:45 2020


#       File generated by GOLD software.
#

@<TRIPOS>MOLECULE
AV-unprocessed.smi:102
    56    57     1
SMALL
NO_CHARGES


@<TRIPOS>ATOM
      1 ****        -3.4222   3.5861  -1.3168 C.3            1 S1                 0.0000
      2 ****        -2.9983   2.1501  -1.0388 C.2            1 S1                 0.0000
      3 ****        -3.7488   1.3564  -0.4710 O.2            1 S1                 0.0000
      4 ****        -1.7561   1.8889  -1.4748 O.3            1 S1                 0.0000
      5 ****        -1.2045   0.5958  -1.2890 C.3            1 S1                 0.0000
      6 ****         0.3205   0.6567  -1.4642 C.3            1 S1                 0.0000
      7 ****         0.9050   1.3371  -0.3554 O.3            1 S1                 0.0000
      8 ****         1.4147   0.4419   0.5904 C.3            1 S1                 0.0000
      9 ****         0.7201   0.6442   1.9242 N.am           1 S1                 0.0000
     10 ****        -0.4150   1.4338   2.0673 C.2            1 S1                 0.0000
     11 ****        -1.0441   1.6110   3.2531 C.2            1 S1                 0.0000
     12 ****        -2.1383   2.3890   3.3133 F              1 S1                 0.0000
     13 ****        -0.5427   0.9718   4.4663 C.2            1 S1                 0.0000
     14 ****        -1.0465   1.0683   5.5834 O.2            1 S1                 0.0000
     15 ****         0.6091   0.2023   4.2791 N.am           1 S1                 0.0000
     16 ****         1.2677   0.0130   3.0631 C.2            1 S1                 0.0000
     17 ****         2.2776  -0.6877   3.0099 O.2            1 S1                 0.0000
     18 ****         1.2440  -0.9856   0.0265 C.3            1 S1                 0.0000
     19 ****         0.1548  -1.6766   0.6341 O.3            1 S1                 0.0000
     20 ****         0.1257  -3.0182   0.6542 C.2            1 S1                 0.0000
     21 ****        -1.1082  -3.5574   1.3647 C.3            1 S1                 0.0000
     22 ****         0.9692  -3.7696   0.1657 O.2            1 S1                 0.0000
     23 ****         0.9510  -0.7387  -1.4438 C.3            1 S1                 0.0000
     24 ****         2.1686  -0.7794  -2.1786 O.3            1 S1                 0.0000
     25 ****         2.1597  -1.0485  -3.4964 C.2            1 S1                 0.0000
     26 ****         3.5597  -1.0609  -4.0955 C.3            1 S1                 0.0000
     27 ****         1.1625  -1.2607  -4.1866 O.2            1 S1                 0.0000
     28 ****         0.9962  -0.2546   5.0921 H              1 S1                 0.0000
     29 ****        -2.6569   4.2823  -0.9726 H              1 S1                 0.0000
     30 ****        -4.3550   3.8161  -0.8012 H              1 S1                 0.0000
     31 ****        -3.5720   3.7352  -2.3861 H              1 S1                 0.0000
     32 ****        -1.4589   0.1963  -0.3068 H              1 S1                 0.0000
     33 ****        -1.6393  -0.0743  -2.0315 H              1 S1                 0.0000
     34 ****         0.5522   1.1812  -2.3922 H              1 S1                 0.0000
     35 ****         2.4594   0.7061   0.7654 H              1 S1                 0.0000
     36 ****        -0.8330   1.9442   1.2144 H              1 S1                 0.0000
     37 ****         2.1742  -1.5363   0.1765 H              1 S1                 0.0000
     38 ****        -1.2154  -3.0920   2.3448 H              1 S1                 0.0000
     39 ****        -1.0319  -4.6363   1.5010 H              1 S1                 0.0000
     40 ****        -2.0033  -3.3446   0.7802 H              1 S1                 0.0000
     41 ****         0.2693  -1.4957  -1.8354 H              1 S1                 0.0000
     42 ****         4.2127  -1.7193  -3.5222 H              1 S1                 0.0000
     43 ****         3.9833  -0.0566  -4.0852 H              1 S1                 0.0000
     44 ****         3.5325  -1.4141  -5.1266 H              1 S1                 0.0000
     45 ****        -4.6598   1.6497  -0.1811 LP             1 S1                 0.0000
     46 ****        -3.4474   0.4184  -0.2997 LP             1 S1                 0.0000
     47 ****         0.2075   1.9062   0.0800 LP             1 S1                 0.0000
     48 ****         1.6492   1.9171  -0.6867 LP             1 S1                 0.0000
     49 ****        -1.8692   1.6214   5.7148 LP             1 S1                 0.0000
     50 ****        -0.6336   0.5937   6.3608 LP             1 S1                 0.0000
     51 ****         2.7433  -0.8281   2.1362 LP             1 S1                 0.0000
     52 ****         2.6328  -1.1168   3.8404 LP             1 S1                 0.0000
     53 ****         1.7683  -3.3890  -0.2997 LP             1 S1                 0.0000
     54 ****         0.8555  -4.7608   0.2342 LP             1 S1                 0.0000
     55 ****         0.2533  -1.2413  -3.7708 LP             1 S1                 0.0000
     56 ****         1.2618  -1.4525  -5.1630 LP             1 S1                 0.0000
@<TRIPOS>BOND
    1    1    2 1     
    2    1   29 1     
    3    1   30 1     
    4    1   31 1     
    5    2    3 2     
    6    2    4 1     
    7    4    5 1     
    8    5    6 1     
    9    5   32 1     
   10    5   33 1     
   11    6   23 1     
   12    6    7 1     
   13    6   34 1     
   14    7    8 1     
   15    8    9 1     
   16    8   18 1     
   17    8   35 1     
   18    9   16 1     
   19    9   10 1     
   20   10   11 2     
   21   10   36 1     
   22   11   12 1     
   23   11   13 1     
   24   13   14 2     
   25   13   15 1     
   26   15   28 1     
   27   15   16 1     
   28   16   17 2     
   29   18   19 1     
   30   18   23 1     
   31   18   37 1     
   32   19   20 1     
   33   20   21 1     
   34   20   22 2     
   35   21   38 1     
   36   21   39 1     
   37   21   40 1     
   38   23   24 1     
   39   23   41 1     
   40   24   25 1     
   41   25   26 1     
   42   25   27 2     
   43   26   42 1     
   44   26   43 1     
   45   26   44 1     
   46    3   45 1     
   47    3   46 1     
   48    7   47 1     
   49    7   48 1     
   50   14   49 1     
   51   14   50 1     
   52   17   51 1     
   53   17   52 1     
   54   22   53 1     
   55   22   54 1     
   56   27   55 1     
   57   27   56 1     
@<TRIPOS>SUBSTRUCTURE
      1 S1             1
@<TRIPOS>SET
LONE_PAIRS      STATIC     ATOMS    <user>   **** ""
12 45 46 47 48 49 50 51 52 53 54 55 56
DONOR_HYDROGENS      STATIC     ATOMS    <user>   **** ""
1 28
ATOM$BLUE        STATIC     ATOMS    COLORGROUP SYSTEM
12 45 46 47 48 49 50 51 52 53 54 55 56
ATOM$RED        STATIC     ATOMS    COLORGROUP SYSTEM
1 28
