AV-unprocessed.smi:3078|AV-procd|sdf|11735|dock9
  -GOLD-   2272017133D 1   1.00000     0.00000
 Structure written by MMmdl.
 24 24  0  0  0  0  0  0  0  0  3 V2000
  152.3947  138.4211  154.6824 C   0  0  0  0  0  0  0  0  0  0  0  0
  151.0276  138.8509  154.4788 N   0  0  0  0  0  0  0  0  0  0  0  0
  149.9267  138.0925  154.1451 C   0  0  0  0  0  0  0  0  0  0  0  0
  148.8536  138.9377  154.0604 C   0  0  0  0  0  0  0  0  0  0  0  0
  147.4151  138.6301  153.7281 C   0  0  2  0  0  0  0  0  0  0  0  0
  147.2079  137.1707  153.7457 N   0  3  0  0  0  0  0  0  0  0  0  0
  146.9774  139.2295  152.3769 C   0  0  0  0  0  0  0  0  0  0  0  0
  145.5542  138.9671  152.0918 N   0  3  0  0  0  0  0  0  0  0  0  0
  149.4154  140.2101  154.3697 C   0  0  0  0  0  0  0  0  0  0  0  0
  150.7132  140.1548  154.6147 N   0  0  0  0  0  0  0  0  0  0  0  0
  152.4482  137.3319  154.6904 H   0  0  0  0  0  0  0  0  0  0  0  0
  152.7647  138.7997  155.6360 H   0  0  0  0  0  0  0  0  0  0  0  0
  153.0239  138.8018  153.8775 H   0  0  0  0  0  0  0  0  0  0  0  0
  149.9992  137.0248  153.9975 H   0  0  0  0  0  0  0  0  0  0  0  0
  146.7627  139.0348  154.5034 H   0  0  0  0  0  0  0  0  0  0  0  0
  146.2668  136.9613  153.4431 H   0  0  0  0  0  0  0  0  0  0  0  0
  147.3411  136.8179  154.6828 H   0  0  0  0  0  0  0  0  0  0  0  0
  147.1500  140.3062  152.3547 H   0  0  0  0  0  0  0  0  0  0  0  0
  147.5667  138.7982  151.5668 H   0  0  0  0  0  0  0  0  0  0  0  0
  145.2727  138.1054  152.5380 H   0  0  0  0  0  0  0  0  0  0  0  0
  145.4175  138.8863  151.0939 H   0  0  0  0  0  0  0  0  0  0  0  0
  148.9202  141.1687  154.4202 H   0  0  0  0  0  0  0  0  0  0  0  0
  144.9888  139.7258  152.4459 H   0  0  0  0  0  0  0  0  0  0  0  0
  147.8653  136.7247  153.1217 H   0  0  0  0  0  0  0  0  0  0  0  0
  1  2  1  0  0  0  0
  1 11  1  0  0  0  0
  1 12  1  0  0  0  0
  1 13  1  0  0  0  0
  2 10  1  0  0  0  0
  2  3  1  0  0  0  0
  3  4  2  0  0  0  0
  3 14  1  0  0  0  0
  4  5  1  0  0  0  0
  4  9  1  0  0  0  0
  5  6  1  0  0  0  0
  5  7  1  0  0  0  0
  5 15  1  0  0  0  0
  6 16  1  0  0  0  0
  6 17  1  0  0  0  0
  6 24  1  0  0  0  0
  7  8  1  0  0  0  0
  7 18  1  0  0  0  0
  7 19  1  0  0  0  0
  8 20  1  0  0  0  0
  8 21  1  0  0  0  0
  8 23  1  0  0  0  0
  9 10  2  0  0  0  0
  9 22  1  0  0  0  0
M  CHG  1   6   1
M  CHG  1   8   1
M  END
> <s_m_source_file>
AV-unprocessed.smi

> <i_m_source_file_index>
3078

> <i_lp_mmshare_version>
43012

> <i_f3d_flags>
0

> <s_epik_input>
W0NIM11uMVtjSF1jKFtjSF1uMSlbQ0BIXShbTkgyXSlbQ0gyXVtOSDJd

> <s_epik_cmdline>
J2VwaWtfcHl0aG9uJywgJy1waCcsICc3LjAnLCAnLXRuJywgJzgnLCAnLW1hJywgJzIwMCcsICctbWV0YWxfYmluZGluZycsICctaW1hZScsICc8aW5maWxlLm1hZT4nLCAnLW9tYWUnLCAnPG91dGZpbGUubWFlPic=

> <r_lp_tautomer_probability>
1

> <r_epik_Ionization_Penalty>
2.39325

> <r_epik_Ionization_Penalty_Charging>
2.39325

> <r_epik_Ionization_Penalty_Neutral>
1.68997e-07

> <r_epik_State_Penalty>
1.77229

> <r_epik_Charging_Adjusted_Penalty>
4.16555

> <i_epik_Tot_Q>
2

> <i_epik_Tot_abs_Q>
2

> <r_epik_Metal_State_Penalty>
1.77233

> <b_epik_Metal_Only>
0

> <s_lp_Force_Field>
OPLS_2005

> <r_lp_Energy>
8.51806

> <b_lp_Chiralities_Consistent>
1

> <s_lp_Variant>
AV-unprocessed.smi:3078-5

> <Gold.Version>
5.8.1

> <Gold.Id.Protein>
6NUR|6NUR_protein|mol2

> <Gold.PLP.Fitness>
40.2372

> <Gold.PLP.PLP>
-21.1437

> <Gold.PLP.part.hbond>
-3.7965

> <Gold.PLP.part.metal>
0.0000

> <Gold.PLP.part.buried>
0.1518

> <Gold.PLP.part.nonpolar>
-17.2873

> <Gold.PLP.part.repulsive>
0.1049

> <Gold.PLP.ligand.clash>
0.0000

> <Gold.PLP.ligand.torsion>
0.1786

> <Gold.PLP.Chemscore.Hbond>
5.8160

> <Gold.PLP.Chemscore.CHOScore>
0.6619

> <Gold.PLP.Chemscore.Metal>
0.0000

> <Gold.Chemscore.Hbonds>
donor molecule, donor type, donor heavy atom, donor atom, acceptor molecule, acceptor atom, score
      L1  H     6    24       P1  7948  2.00
      L1  H     8    21       P1 10171  0.77
      L1  H     8    23       P1 10175  1.81
      P1  H  7989  7998       L1    10  1.00
      L1  C     3    14       P1  7948  0.68

> <Gold.PLP.Chemscore.Internal.Correction>
0.0169

> <Gold.Rescore>
     Score         DG    S(hbond)    S(metal)    S(lipo)     H(rot)  DE(clash)    DE(int)     intcor
     18.45     -18.79       3.66        0.00      40.52       1.43       0.32       0.03       ----

> <Gold.Chemscore.Fitness>
18.4470

> <Gold.Chemscore.DG>
-18.7888

> <Gold.Chemscore.ZeroCoef>
-5.4800

> <Gold.Chemscore.Hbond>
3.6615

> <Gold.Chemscore.Metal>
0.0000

> <Gold.Chemscore.Lipo>
40.5230

> <Gold.Chemscore.Internal_Hbond>
0.0000

> <Gold.Chemscore.DEClash>
0.3154

> <Gold.Chemscore.DEInternal>
0.0264

> <Gold.Chemscore.Rot>
1.4304

> <Gold.Chemscore.Internal.Correction>
   9.000000E+99

> <Gold.Chemscore.Hbonds>
donor molecule, donor type, donor heavy atom, donor atom, acceptor molecule, acceptor atom, score
      L1  H     6    24       P1  7948  1.00
      L1  H     8    21       P1 10171  0.72
      L1  H     8    23       P1 10175  0.83
      P1  H  7989  7998       L1    10  0.35

> <Gold.Chemscore.Hbond.Weighted>
-12.2295

> <Gold.Chemscore.Metal.Weighted>
-0.0000

> <Gold.Chemscore.Lipo.Weighted>
-4.7412

> <Gold.Chemscore.Internal_Hbond.Weighted>
0.0000

> <Gold.Chemscore.DEClash.Weighted>
0.3154

> <Gold.Chemscore.DEInternal.Weighted>
0.0264

> <Gold.Chemscore.Rot.Weighted>
3.6618

> <Gold.Chemscore.Internal.Correction.Weighted>
   9.000000E+99

> <Gold.Protein.RotatedTorsions>
[ 6907 6896 6895 6894 ] final  -99.14 input  -60.11 | X-H torsion
[ 7974 7965 7964 7962 ] final   14.18 input  175.53 | X-H torsion
[ 8008 7997 7996 7995 ] final -123.64 input   59.86 | X-H torsion
[ 10167 10162 10161 10158 ] final  -84.00 input  -65.29 | X-H torsion
[ 10718 10713 10712 10709 ] final   14.34 input   66.30 | X-H torsion
[ 10763 10752 10751 10750 ] final  141.63 input  -60.55 | X-H torsion
[ 11005 11000 10999 10996 ] final  -37.19 input  -57.11 | X-H torsion

> <Gold.Protein.ActiveResidues>
 VAL166  LYS551  ARG553  GLY616  TRP617  ASP618  TYR619  PRO620  LYS621  CYS622 
 ASP623  PHE694  ASN695  SER759  ASP760  ASP761  ALA762  ILE779  LEU786  VAL792 
 PHE793  MET794  SER795  GLU796  ALA797  LYS798  CYS799  TRP800  GLU811  SER814 

> <Gold.Protein.RotatedAtoms>
  150.7070  134.1087  159.3991 H   0  0  0  0  0  0  0  0  0  0  0  0  # atno 6907 bound_to 6896
  151.9073  135.0351  160.0521 H   0  0  0  0  0  0  0  0  0  0  0  0  # atno 6908 bound_to 6896
  152.2365  133.5065  159.5282 H   0  0  0  0  0  0  0  0  0  0  0  0  # atno 6909 bound_to 6896
  146.2311  139.9079  142.8529 H   0  0  0  0  0  0  0  0  0  0  0  0  # atno 7974 bound_to 7965
  155.1839  140.0411  157.2887 H   0  0  0  0  0  0  0  0  0  0  0  0  # atno 8008 bound_to 7997
  154.6185  140.2494  155.7552 H   0  0  0  0  0  0  0  0  0  0  0  0  # atno 8009 bound_to 7997
  156.2420  140.2900  156.0481 H   0  0  0  0  0  0  0  0  0  0  0  0  # atno 8010 bound_to 7997
  140.4174  143.2598  151.8936 H   0  0  0  0  0  0  0  0  0  0  0  0  # atno 10167 bound_to 10162
  157.0377  130.6218  149.5745 H   0  0  0  0  0  0  0  0  0  0  0  0  # atno 10718 bound_to 10713
  153.9424  135.2978  155.3442 H   0  0  0  0  0  0  0  0  0  0  0  0  # atno 10763 bound_to 10752
  154.7470  135.4998  153.9224 H   0  0  0  0  0  0  0  0  0  0  0  0  # atno 10764 bound_to 10752
  153.1035  135.6741  153.9735 H   0  0  0  0  0  0  0  0  0  0  0  0  # atno 10765 bound_to 10752
  140.9933  133.6993  156.1889 H   0  0  0  0  0  0  0  0  0  0  0  0  # atno 11005 bound_to 11000
  145.2259  140.9954  143.4019 LP  0  0  0  0  0  0  0  0  0  0  0  0  # atno 17320 bound_to 7965
  144.9571  139.4020  143.6374 LP  0  0  0  0  0  0  0  0  0  0  0  0  # atno 17321 bound_to 7965
  139.4782  144.5473  151.8438 LP  0  0  0  0  0  0  0  0  0  0  0  0  # atno 17342 bound_to 10162
  140.4571  144.1773  150.5902 LP  0  0  0  0  0  0  0  0  0  0  0  0  # atno 17343 bound_to 10162
  156.0048  130.5133  150.7792 LP  0  0  0  0  0  0  0  0  0  0  0  0  # atno 17370 bound_to 10713
  157.5129  131.0926  151.0176 LP  0  0  0  0  0  0  0  0  0  0  0  0  # atno 17371 bound_to 10713
  140.7006  134.4568  157.5586 LP  0  0  0  0  0  0  0  0  0  0  0  0  # atno 17394 bound_to 11000
  139.9002  134.8573  156.1927 LP  0  0  0  0  0  0  0  0  0  0  0  0  # atno 17395 bound_to 11000

$$$$
