AV-unprocessed.smi:798|AV-procd|sdf|3771|dock9
  -GOLD-   22720 1203D 1   1.00000     0.00000
 Structure written by MMmdl.
 34 36  0  0  0  0  0  0  0  0  1 V2000
  150.8246  140.6865  156.4693 O   0  0  0  0  0  0  0  0  0  0  0  0
  150.3519  141.8028  156.2533 C   0  0  0  0  0  0  0  0  0  0  0  0
  150.6351  142.9159  156.9523 N   0  0  0  0  0  0  0  0  0  0  0  0
  151.4923  143.0544  158.0762 C   0  0  0  0  0  0  0  0  0  0  0  0
  151.7192  144.2209  158.7004 N   0  0  0  0  0  0  0  0  0  0  0  0
  152.6012  144.0785  159.7637 N   0  0  0  0  0  0  0  0  0  0  0  0
  153.0038  142.8119  159.9001 C   0  0  0  0  0  0  0  0  0  0  0  0
  152.3441  141.6686  158.7431 S   0  0  0  0  0  0  0  0  0  0  0  0
  149.4752  142.0556  155.2715 N   0  0  0  0  0  0  0  0  0  0  0  0
  148.9501  141.0590  154.3412 C   0  0  2  0  0  0  0  0  0  0  0  0
  147.5908  141.5153  153.7666 C   0  0  1  0  0  0  0  0  0  0  0  0
  147.2738  140.6707  152.5194 C   0  0  0  0  0  0  0  0  0  0  0  0
  146.9240  139.2993  153.1269 C   0  0  0  0  0  0  0  0  0  0  0  0
  147.1025  139.5349  154.6425 C   0  0  2  0  0  0  0  0  0  0  0  0
  146.5884  140.9626  154.7766 C   0  0  0  0  0  0  0  0  0  0  0  0
  148.5901  139.7193  155.0341 C   0  0  1  0  0  0  0  0  0  0  0  0
  149.5363  138.5541  154.6850 C   0  0  0  0  0  0  0  0  0  0  0  0
  149.8327  138.5582  153.3046 O   0  0  0  0  0  0  0  0  0  0  0  0
  150.1758  143.7631  156.6517 H   0  0  0  0  0  0  0  0  0  0  0  0
  153.6949  142.5497  160.6873 H   0  0  0  0  0  0  0  0  0  0  0  0
  149.1384  143.0009  155.1624 H   0  0  0  0  0  0  0  0  0  0  0  0
  149.6687  140.9163  153.5315 H   0  0  0  0  0  0  0  0  0  0  0  0
  147.5215  142.5888  153.5860 H   0  0  0  0  0  0  0  0  0  0  0  0
  146.4191  141.0797  151.9792 H   0  0  0  0  0  0  0  0  0  0  0  0
  148.1130  140.6180  151.8246 H   0  0  0  0  0  0  0  0  0  0  0  0
  145.8873  139.0438  152.9032 H   0  0  0  0  0  0  0  0  0  0  0  0
  147.5432  138.4930  152.7364 H   0  0  0  0  0  0  0  0  0  0  0  0
  146.5776  138.8064  155.2612 H   0  0  0  0  0  0  0  0  0  0  0  0
  146.7083  141.3760  155.7797 H   0  0  0  0  0  0  0  0  0  0  0  0
  145.5488  141.0814  154.4659 H   0  0  0  0  0  0  0  0  0  0  0  0
  148.6266  139.8552  156.1172 H   0  0  0  0  0  0  0  0  0  0  0  0
  150.4612  138.5910  155.2590 H   0  0  0  0  0  0  0  0  0  0  0  0
  149.0589  137.6042  154.9262 H   0  0  0  0  0  0  0  0  0  0  0  0
  149.5649  137.7293  152.9381 H   0  0  0  0  0  0  0  0  0  0  0  0
  1  2  2  0  0  0  0
  2  3  1  0  0  0  0
  2  9  1  0  0  0  0
  3  4  1  0  0  0  0
  3 19  1  0  0  0  0
  4  8  1  0  0  0  0
  4  5  2  0  0  0  0
  5  6  1  0  0  0  0
  6  7  2  0  0  0  0
  7  8  1  0  0  0  0
  7 20  1  0  0  0  0
  9 10  1  0  0  0  0
  9 21  1  0  0  0  0
 10 16  1  0  0  0  0
 10 11  1  0  0  0  0
 10 22  1  0  0  0  0
 11 15  1  0  0  0  0
 11 12  1  0  0  0  0
 11 23  1  0  0  0  0
 12 13  1  0  0  0  0
 12 24  1  0  0  0  0
 12 25  1  0  0  0  0
 13 14  1  0  0  0  0
 13 26  1  0  0  0  0
 13 27  1  0  0  0  0
 14 15  1  0  0  0  0
 14 16  1  0  0  0  0
 14 28  1  0  0  0  0
 15 29  1  0  0  0  0
 15 30  1  0  0  0  0
 16 17  1  0  0  0  0
 16 31  1  0  0  0  0
 17 18  1  0  0  0  0
 17 32  1  0  0  0  0
 17 33  1  0  0  0  0
 18 34  1  0  0  0  0
M  END
> <s_m_source_file>
AV-unprocessed.smi

> <i_m_source_file_index>
798

> <i_lp_mmshare_version>
43012

> <i_f3d_flags>
0

> <s_epik_input>
W0NIMl0xW0NIMl1bQ0BASF0oW0NIMl0yKVtDQEBIXShbQ0gyXVtPSF0pW0NAQEhdKFtDQEhdMTIpW05IXUMoPU8pW05IXWMzbm5bY0hdczM=

> <s_epik_cmdline>
J2VwaWtfcHl0aG9uJywgJy1waCcsICc3LjAnLCAnLXRuJywgJzgnLCAnLW1hJywgJzIwMCcsICctbWV0YWxfYmluZGluZycsICctaW1hZScsICc8aW5maWxlLm1hZT4nLCAnLW9tYWUnLCAnPG91dGZpbGUubWFlPic=

> <r_lp_tautomer_probability>
1

> <r_epik_Ionization_Penalty>
0.000329046

> <r_epik_Ionization_Penalty_Charging>
0

> <r_epik_Ionization_Penalty_Neutral>
0.000329046

> <r_epik_State_Penalty>
-0

> <r_epik_Charging_Adjusted_Penalty>
0

> <i_epik_Tot_Q>
0

> <i_epik_Tot_abs_Q>
0

> <r_epik_Metal_State_Penalty>
0.173433

> <b_epik_Metal_Only>
0

> <s_lp_Force_Field>
OPLS_2005

> <r_lp_Energy>
48.5099

> <b_lp_Chiralities_Consistent>
1

> <s_lp_Variant>
AV-unprocessed.smi:798-3

> <Gold.Version>
5.8.1

> <Gold.Id.Protein>
6NUR|6NUR_protein|mol2

> <Gold.PLP.Fitness>
39.5753

> <Gold.PLP.PLP>
-31.4126

> <Gold.PLP.part.hbond>
-4.0000

> <Gold.PLP.part.metal>
0.0000

> <Gold.PLP.part.buried>
-5.7656

> <Gold.PLP.part.nonpolar>
-21.8341

> <Gold.PLP.part.repulsive>
0.3167

> <Gold.PLP.ligand.clash>
0.0000

> <Gold.PLP.ligand.torsion>
0.4274

> <Gold.PLP.Chemscore.Hbond>
3.0000

> <Gold.PLP.Chemscore.CHOScore>
0.0000

> <Gold.PLP.Chemscore.Metal>
0.0000

> <Gold.Chemscore.Hbonds>
donor molecule, donor type, donor heavy atom, donor atom, acceptor molecule, acceptor atom, score
      L1  H     3    19       P1  8028  1.00
      L1  H     9    21       P1  8028  1.00
      L1  H    18    34       P1  7948  1.00

> <Gold.PLP.Chemscore.Internal.Correction>
0.0176

> <Gold.Rescore>
     Score         DG    S(hbond)    S(metal)    S(lipo)     H(rot)  DE(clash)    DE(int)     intcor
     13.99     -18.07       2.92        0.00      66.96       1.94       0.16       3.92       ----

> <Gold.Chemscore.Fitness>
13.9919

> <Gold.Chemscore.DG>
-18.0742

> <Gold.Chemscore.ZeroCoef>
-5.4800

> <Gold.Chemscore.Hbond>
2.9152

> <Gold.Chemscore.Metal>
0.0000

> <Gold.Chemscore.Lipo>
66.9628

> <Gold.Chemscore.Internal_Hbond>
0.0000

> <Gold.Chemscore.DEClash>
0.1603

> <Gold.Chemscore.DEInternal>
3.9220

> <Gold.Chemscore.Rot>
1.9442

> <Gold.Chemscore.Internal.Correction>
   9.000000E+99

> <Gold.Chemscore.Hbonds>
donor molecule, donor type, donor heavy atom, donor atom, acceptor molecule, acceptor atom, score
      L1  H     3    19       P1  8028  0.98
      L1  H     9    21       P1  8028  0.99
      L1  H    18    34       P1  7948  0.78

> <Gold.Chemscore.Hbond.Weighted>
-9.7367

> <Gold.Chemscore.Metal.Weighted>
-0.0000

> <Gold.Chemscore.Lipo.Weighted>
-7.8346

> <Gold.Chemscore.Internal_Hbond.Weighted>
0.0000

> <Gold.Chemscore.DEClash.Weighted>
0.1603

> <Gold.Chemscore.DEInternal.Weighted>
3.9220

> <Gold.Chemscore.Rot.Weighted>
4.9771

> <Gold.Chemscore.Internal.Correction.Weighted>
   9.000000E+99

> <Gold.Protein.RotatedTorsions>
[ 6907 6896 6895 6894 ] final -167.76 input  -60.11 | X-H torsion
[ 7974 7965 7964 7962 ] final  -58.10 input  175.53 | X-H torsion
[ 8008 7997 7996 7995 ] final  114.18 input   59.86 | X-H torsion
[ 10167 10162 10161 10158 ] final  167.73 input  -65.29 | X-H torsion
[ 10718 10713 10712 10709 ] final  105.18 input   66.30 | X-H torsion
[ 10763 10752 10751 10750 ] final  146.12 input  -60.55 | X-H torsion
[ 11005 11000 10999 10996 ] final  148.62 input  -57.11 | X-H torsion

> <Gold.Protein.ActiveResidues>
 VAL166  LYS551  ARG553  GLY616  TRP617  ASP618  TYR619  PRO620  LYS621  CYS622 
 ASP623  PHE694  ASN695  SER759  ASP760  ASP761  ALA762  ILE779  LEU786  VAL792 
 PHE793  MET794  SER795  GLU796  ALA797  LYS798  CYS799  TRP800  GLU811  SER814 

> <Gold.Protein.RotatedAtoms>
  151.4647  133.3584  159.2814 H   0  0  0  0  0  0  0  0  0  0  0  0  # atno 6907 bound_to 6896
  150.9001  134.8415  159.7365 H   0  0  0  0  0  0  0  0  0  0  0  0  # atno 6908 bound_to 6896
  152.4874  134.4566  159.9643 H   0  0  0  0  0  0  0  0  0  0  0  0  # atno 6909 bound_to 6896
  145.8433  140.8402  143.0023 H   0  0  0  0  0  0  0  0  0  0  0  0  # atno 7974 bound_to 7965
  156.2305  140.2964  156.0176 H   0  0  0  0  0  0  0  0  0  0  0  0  # atno 8008 bound_to 7997
  155.2238  140.0416  157.2969 H   0  0  0  0  0  0  0  0  0  0  0  0  # atno 8009 bound_to 7997
  154.5987  140.2421  155.7829 H   0  0  0  0  0  0  0  0  0  0  0  0  # atno 8010 bound_to 7997
  139.4952  144.3890  151.9538 H   0  0  0  0  0  0  0  0  0  0  0  0  # atno 10167 bound_to 10162
  157.6714  131.0821  150.5818 H   0  0  0  0  0  0  0  0  0  0  0  0  # atno 10718 bound_to 10713
  154.0166  135.2910  155.3386 H   0  0  0  0  0  0  0  0  0  0  0  0  # atno 10763 bound_to 10752
  154.7071  135.5164  153.8615 H   0  0  0  0  0  0  0  0  0  0  0  0  # atno 10764 bound_to 10752
  153.0699  135.6644  154.0392 H   0  0  0  0  0  0  0  0  0  0  0  0  # atno 10765 bound_to 10752
  140.0975  134.9003  157.1745 H   0  0  0  0  0  0  0  0  0  0  0  0  # atno 11005 bound_to 11000
  144.6732  140.0844  143.7468 LP  0  0  0  0  0  0  0  0  0  0  0  0  # atno 17320 bound_to 7965
  145.9441  139.2688  143.1251 LP  0  0  0  0  0  0  0  0  0  0  0  0  # atno 17321 bound_to 7965
  140.3328  144.3296  150.5984 LP  0  0  0  0  0  0  0  0  0  0  0  0  # atno 17342 bound_to 10162
  140.5631  143.2189  151.7730 LP  0  0  0  0  0  0  0  0  0  0  0  0  # atno 17343 bound_to 10162
  156.6118  130.4382  149.5856 LP  0  0  0  0  0  0  0  0  0  0  0  0  # atno 17370 bound_to 10713
  156.2424  130.6859  151.1568 LP  0  0  0  0  0  0  0  0  0  0  0  0  # atno 17371 bound_to 10713
  140.3266  134.2857  155.7236 LP  0  0  0  0  0  0  0  0  0  0  0  0  # atno 17394 bound_to 11000
  141.2096  133.7744  156.9985 LP  0  0  0  0  0  0  0  0  0  0  0  0  # atno 17395 bound_to 11000

$$$$
