AV-unprocessed.smi:634|AV-procd|sdf|3138|dock9
  -GOLD-   22720 0 63D 1   1.00000     0.00000
 Structure written by MMmdl.
 32 33  0  0  0  0  0  0  0  0  2 V2000
  153.3777  142.2664  161.2764 C   0  0  0  0  0  0  0  0  0  0  0  0
  152.6964  142.4116  159.9592 C   0  0  0  0  0  0  0  0  0  0  0  0
  152.3571  141.5164  158.9842 C   0  0  0  0  0  0  0  0  0  0  0  0
  151.7358  142.3319  158.0011 C   0  0  0  0  0  0  0  0  0  0  0  0
  151.2373  141.7631  156.7995 N   0  0  0  0  0  0  0  0  0  0  0  0
  151.5931  140.6125  156.2005 C   0  0  0  0  0  0  0  0  0  0  0  0
  152.4877  139.9085  156.6807 O   0  0  0  0  0  0  0  0  0  0  0  0
  150.8661  140.3745  155.0724 N   0  5  0  0  0  0  0  0  0  0  0  0
  149.3988  140.3244  154.9350 C   0  0  2  0  0  0  0  0  0  0  0  0
  149.0741  139.0573  154.1163 C   0  0  0  0  0  0  0  0  0  0  0  0
  148.8408  141.5725  154.1977 C   0  0  0  0  0  0  0  0  0  0  0  0
  147.3189  141.6480  154.3994 C   0  0  0  0  0  0  0  0  0  0  0  0
  146.9863  140.8898  156.0371 S   0  0  0  0  0  0  0  0  0  0  0  0
  146.7018  141.9470  157.0199 O   0  0  0  0  0  0  0  0  0  0  0  0
  146.0597  139.7602  155.8604 O   0  0  0  0  0  0  0  0  0  0  0  0
  148.6899  140.2570  156.3078 C   0  0  0  0  0  0  0  0  0  0  0  0
  151.6975  143.6103  158.3478 N   0  0  0  0  0  0  0  0  0  0  0  0
  152.3122  143.6676  159.6040 O   0  0  0  0  0  0  0  0  0  0  0  0
  153.8540  141.2898  161.3628 H   0  0  0  0  0  0  0  0  0  0  0  0
  152.6631  142.3684  162.0932 H   0  0  0  0  0  0  0  0  0  0  0  0
  154.1468  143.0287  161.4013 H   0  0  0  0  0  0  0  0  0  0  0  0
  152.5287  140.4502  158.9754 H   0  0  0  0  0  0  0  0  0  0  0  0
  150.5051  142.2842  156.3408 H   0  0  0  0  0  0  0  0  0  0  0  0
  148.0016  138.9238  153.9755 H   0  0  0  0  0  0  0  0  0  0  0  0
  149.4470  138.1589  154.6098 H   0  0  0  0  0  0  0  0  0  0  0  0
  149.5280  139.0971  153.1252 H   0  0  0  0  0  0  0  0  0  0  0  0
  149.2657  142.4839  154.6174 H   0  0  0  0  0  0  0  0  0  0  0  0
  149.1015  141.5742  153.1387 H   0  0  0  0  0  0  0  0  0  0  0  0
  146.9447  142.6716  154.3791 H   0  0  0  0  0  0  0  0  0  0  0  0
  146.7870  141.0725  153.6409 H   0  0  0  0  0  0  0  0  0  0  0  0
  148.6537  139.2511  156.7262 H   0  0  0  0  0  0  0  0  0  0  0  0
  149.1540  140.9086  157.0471 H   0  0  0  0  0  0  0  0  0  0  0  0
  1  2  1  0  0  0  0
  1 19  1  0  0  0  0
  1 20  1  0  0  0  0
  1 21  1  0  0  0  0
  2 18  1  0  0  0  0
  2  3  2  0  0  0  0
  3  4  1  0  0  0  0
  3 22  1  0  0  0  0
  4  5  1  0  0  0  0
  4 17  2  0  0  0  0
  5  6  1  0  0  0  0
  5 23  1  0  0  0  0
  6  7  2  0  0  0  0
  6  8  1  0  0  0  0
  8  9  1  0  0  0  0
  9 16  1  0  0  0  0
  9 10  1  0  0  0  0
  9 11  1  0  0  0  0
 10 24  1  0  0  0  0
 10 25  1  0  0  0  0
 10 26  1  0  0  0  0
 11 12  1  0  0  0  0
 11 27  1  0  0  0  0
 11 28  1  0  0  0  0
 12 13  1  0  0  0  0
 12 29  1  0  0  0  0
 12 30  1  0  0  0  0
 13 14  2  0  0  0  0
 13 15  2  0  0  0  0
 13 16  1  0  0  0  0
 16 31  1  0  0  0  0
 16 32  1  0  0  0  0
 17 18  1  0  0  0  0
M  CHG  1   8  -1
M  END
> <s_m_source_file>
AV-unprocessed.smi

> <i_m_source_file_index>
634

> <i_lp_mmshare_version>
43012

> <i_f3d_flags>
0

> <s_epik_input>
W0NIM11jMVtjSF1jKG5vMSlbTkhdQyg9TylbTkhdW0NAQF0yKFtDSDNdKVtDSDJdW0NIMl1TKD1PKSg9TylbQ0gyXTI=

> <s_epik_cmdline>
J2VwaWtfcHl0aG9uJywgJy1waCcsICc3LjAnLCAnLXRuJywgJzgnLCAnLW1hJywgJzIwMCcsICctbWV0YWxfYmluZGluZycsICctaW1hZScsICc8aW5maWxlLm1hZT4nLCAnLW9tYWUnLCAnPG91dGZpbGUubWFlPic=

> <r_lp_tautomer_probability>
1

> <r_epik_Ionization_Penalty>
6.62388

> <r_epik_Ionization_Penalty_Charging>
6.62387

> <r_epik_Ionization_Penalty_Neutral>
5.45748e-06

> <r_epik_State_Penalty>
6.65157

> <r_epik_Charging_Adjusted_Penalty>
13.2754

> <i_epik_Tot_Q>
-1

> <i_epik_Tot_abs_Q>
1

> <r_epik_Metal_State_Penalty>
2.59195

> <b_epik_Metal_Only>
1

> <s_lp_Force_Field>
OPLS_2005

> <r_lp_Energy>
8.10378

> <b_lp_Chiralities_Consistent>
1

> <s_lp_Variant>
AV-unprocessed.smi:634-6

> <Gold.Version>
5.8.1

> <Gold.Id.Protein>
6NUR|6NUR_protein|mol2

> <Gold.PLP.Fitness>
33.7294

> <Gold.PLP.PLP>
-29.4078

> <Gold.PLP.part.hbond>
-2.0000

> <Gold.PLP.part.metal>
0.0000

> <Gold.PLP.part.buried>
-3.0945

> <Gold.PLP.part.nonpolar>
-22.7853

> <Gold.PLP.part.repulsive>
0.3667

> <Gold.PLP.ligand.clash>
0.0011

> <Gold.PLP.ligand.torsion>
0.8402

> <Gold.PLP.Chemscore.Hbond>
2.0000

> <Gold.PLP.Chemscore.CHOScore>
0.0000

> <Gold.PLP.Chemscore.Metal>
0.0000

> <Gold.Chemscore.Hbonds>
donor molecule, donor type, donor heavy atom, donor atom, acceptor molecule, acceptor atom, score
      P1  H  7989  7998       L1     8  1.00
      P1  H  7997  8008       L1     7  1.00

> <Gold.PLP.Chemscore.Internal.Correction>
0.0031

> <Gold.Rescore>
     Score         DG    S(hbond)    S(metal)    S(lipo)     H(rot)  DE(clash)    DE(int)     intcor
     13.57     -15.83       1.80        0.00      59.00       1.00       0.00       2.26       ----

> <Gold.Chemscore.Fitness>
13.5677

> <Gold.Chemscore.DG>
-15.8295

> <Gold.Chemscore.ZeroCoef>
-5.4800

> <Gold.Chemscore.Hbond>
1.7983

> <Gold.Chemscore.Metal>
0.0000

> <Gold.Chemscore.Lipo>
59.0024

> <Gold.Chemscore.Internal_Hbond>
0.0000

> <Gold.Chemscore.DEClash>
0.0025

> <Gold.Chemscore.DEInternal>
2.2593

> <Gold.Chemscore.Rot>
1.0000

> <Gold.Chemscore.Internal.Correction>
   9.000000E+99

> <Gold.Chemscore.Hbonds>
donor molecule, donor type, donor heavy atom, donor atom, acceptor molecule, acceptor atom, score
      P1  H  7989  7998       L1     8  0.67
      P1  H  7997  8008       L1     7  0.97

> <Gold.Chemscore.Hbond.Weighted>
-6.0062

> <Gold.Chemscore.Metal.Weighted>
-0.0000

> <Gold.Chemscore.Lipo.Weighted>
-6.9033

> <Gold.Chemscore.Internal_Hbond.Weighted>
0.0000

> <Gold.Chemscore.DEClash.Weighted>
0.0025

> <Gold.Chemscore.DEInternal.Weighted>
2.2593

> <Gold.Chemscore.Rot.Weighted>
2.5600

> <Gold.Chemscore.Internal.Correction.Weighted>
   9.000000E+99

> <Gold.Protein.RotatedTorsions>
[ 6907 6896 6895 6894 ] final  -47.58 input  -60.11 | X-H torsion
[ 7974 7965 7964 7962 ] final -100.90 input  175.53 | X-H torsion
[ 8008 7997 7996 7995 ] final  -38.41 input   59.86 | X-H torsion
[ 10167 10162 10161 10158 ] final   37.27 input  -65.29 | X-H torsion
[ 10718 10713 10712 10709 ] final  -25.78 input   66.30 | X-H torsion
[ 10763 10752 10751 10750 ] final   17.06 input  -60.55 | X-H torsion
[ 11005 11000 10999 10996 ] final -135.50 input  -57.11 | X-H torsion

> <Gold.Protein.ActiveResidues>
 VAL166  LYS551  ARG553  GLY616  TRP617  ASP618  TYR619  PRO620  LYS621  CYS622 
 ASP623  PHE694  ASN695  SER759  ASP760  ASP761  ALA762  ILE779  LEU786  VAL792 
 PHE793  MET794  SER795  GLU796  ALA797  LYS798  CYS799  TRP800  GLU811  SER814 

> <Gold.Protein.RotatedAtoms>
  150.8993  134.8404  159.7348 H   0  0  0  0  0  0  0  0  0  0  0  0  # atno 6907 bound_to 6896
  152.4883  134.4527  159.9589 H   0  0  0  0  0  0  0  0  0  0  0  0  # atno 6908 bound_to 6896
  151.4580  133.3561  159.2840 H   0  0  0  0  0  0  0  0  0  0  0  0  # atno 6909 bound_to 6896
  145.2886  140.9346  143.2891 H   0  0  0  0  0  0  0  0  0  0  0  0  # atno 7974 bound_to 7965
  154.4037  140.1578  156.2695 H   0  0  0  0  0  0  0  0  0  0  0  0  # atno 8008 bound_to 7997
  155.8966  140.3435  155.5973 H   0  0  0  0  0  0  0  0  0  0  0  0  # atno 8009 bound_to 7997
  155.7497  140.0803  157.2198 H   0  0  0  0  0  0  0  0  0  0  0  0  # atno 8010 bound_to 7997
  140.4049  144.1673  150.6135 H   0  0  0  0  0  0  0  0  0  0  0  0  # atno 10167 bound_to 10162
  156.4599  130.4502  149.6935 H   0  0  0  0  0  0  0  0  0  0  0  0  # atno 10718 bound_to 10713
  153.1373  135.6753  153.9082 H   0  0  0  0  0  0  0  0  0  0  0  0  # atno 10763 bound_to 10752
  153.8549  135.3088  155.3436 H   0  0  0  0  0  0  0  0  0  0  0  0  # atno 10764 bound_to 10752
  154.7758  135.4915  153.9825 H   0  0  0  0  0  0  0  0  0  0  0  0  # atno 10765 bound_to 10752
  140.8892  134.1833  157.4539 H   0  0  0  0  0  0  0  0  0  0  0  0  # atno 11005 bound_to 11000
  144.9192  139.4433  143.6549 LP  0  0  0  0  0  0  0  0  0  0  0  0  # atno 17320 bound_to 7965
  146.3192  139.8043  142.8959 LP  0  0  0  0  0  0  0  0  0  0  0  0  # atno 17321 bound_to 7965
  140.4701  143.2416  151.9101 LP  0  0  0  0  0  0  0  0  0  0  0  0  # atno 17342 bound_to 10162
  139.4783  144.5379  151.8571 LP  0  0  0  0  0  0  0  0  0  0  0  0  # atno 17343 bound_to 10162
  156.3727  130.7539  151.2524 LP  0  0  0  0  0  0  0  0  0  0  0  0  # atno 17370 bound_to 10713
  157.7498  131.0318  150.4199 LP  0  0  0  0  0  0  0  0  0  0  0  0  # atno 17371 bound_to 10713
  139.8728  134.9851  156.5268 LP  0  0  0  0  0  0  0  0  0  0  0  0  # atno 17394 bound_to 11000
  140.8367  133.8237  155.9035 LP  0  0  0  0  0  0  0  0  0  0  0  0  # atno 17395 bound_to 11000

$$$$
