#       Name:                AV-unprocessed.smi:3128
#       Creating user name   scv26
#       Creation time:       Fri Mar 27 17:30:12 2020


#       File generated by GOLD software.
#

@<TRIPOS>MOLECULE
AV-unprocessed.smi:3128
    43    43     1
SMALL
NO_CHARGES


@<TRIPOS>ATOM
      1 ****        -3.7987  -0.7121   2.1947 C.3            1 S1                 0.0000
      2 ****        -2.2715  -0.5503   2.3001 C.3            1 S1                 0.0000
      3 ****        -1.9209   0.1267   3.6396 C.3            1 S1                 0.0000
      4 ****        -1.6714   0.2040   1.0841 C.3            1 S1                 0.0000
      5 ****        -1.9293  -0.5050  -0.2604 C.3            1 S1                 0.0000
      6 ****        -0.2294   0.3707   1.2567 N.am           1 S1                 0.0000
      7 ****         0.5098   1.3612   0.7337 C.2            1 S1                 0.0000
      8 ****         0.0391   2.2776   0.0606 O.2            1 S1                 0.0000
      9 ****         2.0192   1.2978   0.9853 C.3            1 S1                 0.0000
     10 ****         2.7708   0.8213  -0.1836 N.3            1 S1                 0.0000
     11 ****         2.6232  -0.6109  -0.4255 C.3            1 S1                 0.0000
     12 ****         2.9913  -0.9375  -1.8811 C.3            1 S1                 0.0000
     13 ****         1.9880  -0.4457  -2.8090 N.pl3          1 S1                 0.0000
     14 ****         2.0041   0.7134  -3.5558 C.2            1 S1                 0.0000
     15 ****         0.8340   0.7602  -4.2581 C.2            1 S1                 0.0000
     16 ****         0.1585  -0.4303  -3.8692 C.2            1 S1                 0.0000
     17 ****         0.8519  -1.1507  -3.0026 N.2            1 S1                 0.0000
     18 ****        -4.2939   0.2551   2.1024 H              1 S1                 0.0000
     19 ****        -4.2022  -1.2072   3.0786 H              1 S1                 0.0000
     20 ****        -4.0853  -1.3194   1.3368 H              1 S1                 0.0000
     21 ****        -1.8392  -1.5516   2.3229 H              1 S1                 0.0000
     22 ****        -2.2853   1.1541   3.6693 H              1 S1                 0.0000
     23 ****        -0.8458   0.1491   3.8175 H              1 S1                 0.0000
     24 ****        -2.3690  -0.4071   4.4781 H              1 S1                 0.0000
     25 ****        -2.1325   1.1927   1.0435 H              1 S1                 0.0000
     26 ****        -2.9914  -0.5481  -0.4985 H              1 S1                 0.0000
     27 ****        -1.5441  -1.5251  -0.2521 H              1 S1                 0.0000
     28 ****        -1.4458   0.0214  -1.0842 H              1 S1                 0.0000
     29 ****         0.2476  -0.3402   1.7918 H              1 S1                 0.0000
     30 ****         2.3594   2.3052   1.2266 H              1 S1                 0.0000
     31 ****         2.2460   0.6783   1.8547 H              1 S1                 0.0000
     32 ****         3.7521   1.0514  -0.1225 H              1 S1                 0.0000
     33 ****         3.2785  -1.1466   0.2617 H              1 S1                 0.0000
     34 ****         1.6109  -0.9641  -0.2306 H              1 S1                 0.0000
     35 ****         3.9612  -0.5144  -2.1459 H              1 S1                 0.0000
     36 ****         3.0760  -2.0175  -2.0090 H              1 S1                 0.0000
     37 ****         2.8342   1.4034  -3.5194 H              1 S1                 0.0000
     38 ****         0.5085   1.5298  -4.9421 H              1 S1                 0.0000
     39 ****        -0.8090  -0.7893  -4.1876 H              1 S1                 0.0000
     40 ****        -0.9436   2.3103  -0.1218 LP             1 S1                 0.0000
     41 ****         0.6393   2.9895  -0.3040 LP             1 S1                 0.0000
     42 ****         2.3667   1.3038  -0.9607 LP             1 S1                 0.0000
     43 ****         0.5931  -2.0216  -2.5848 LP             1 S1                 0.0000
@<TRIPOS>BOND
    1    1    2 1     
    2    1   18 1     
    3    1   19 1     
    4    1   20 1     
    5    2    3 1     
    6    2    4 1     
    7    2   21 1     
    8    3   22 1     
    9    3   23 1     
   10    3   24 1     
   11    4    5 1     
   12    4    6 1     
   13    4   25 1     
   14    5   26 1     
   15    5   27 1     
   16    5   28 1     
   17    6    7 am    
   18    6   29 1     
   19    7    8 2     
   20    7    9 1     
   21    9   10 1     
   22    9   30 1     
   23    9   31 1     
   24   10   11 1     
   25   10   32 1     
   26   11   12 1     
   27   11   33 1     
   28   11   34 1     
   29   12   13 1     
   30   12   35 1     
   31   12   36 1     
   32   13   17 1     
   33   13   14 1     
   34   14   15 2     
   35   14   37 1     
   36   15   16 1     
   37   15   38 1     
   38   16   17 2     
   39   16   39 1     
   40    8   40 1     
   41    8   41 1     
   42   10   42 1     
   43   17   43 1     
@<TRIPOS>SUBSTRUCTURE
      1 S1             1
@<TRIPOS>SET
LONE_PAIRS      STATIC     ATOMS    <user>   **** ""
4 40 41 42 43
DONOR_HYDROGENS      STATIC     ATOMS    <user>   **** ""
2 29 32
ATOM$BLUE        STATIC     ATOMS    COLORGROUP SYSTEM
4 40 41 42 43
ATOM$RED        STATIC     ATOMS    COLORGROUP SYSTEM
2 29 32
