AV-unprocessed.smi:95|AV-procd|sdf|855|dock2
  -GOLD-   2262017303D 1   1.00000     0.00000
 Structure written by MMmdl.
 41 44  0  0  0  0  0  0  0  0  1 V2000
  152.4451  139.8878  155.4415 O   0  0  0  0  0  0  0  0  0  0  0  0
  151.2415  139.8054  155.1894 C   0  0  0  0  0  0  0  0  0  0  0  0
  150.6152  138.6082  154.6401 C   0  0  0  0  0  0  0  0  0  0  0  0
  151.3574  137.5093  154.4229 F   0  0  0  0  0  0  0  0  0  0  0  0
  149.2977  138.5842  154.3447 C   0  0  0  0  0  0  0  0  0  0  0  0
  148.4618  139.6712  154.5251 N   0  0  0  0  0  0  0  0  0  0  0  0
  146.9962  139.5406  154.1808 C   0  0  2  0  0  0  0  0  0  0  0  0
  146.0549  139.8721  155.3551 C   0  0  0  0  0  0  0  0  0  0  0  0
  145.2527  138.5916  155.5193 C   0  0  0  0  0  0  0  0  0  0  0  0
  145.4095  137.9166  154.1612 C   0  0  0  0  0  0  0  0  0  0  0  0
  146.7453  138.2248  153.7946 O   0  0  0  0  0  0  0  0  0  0  0  0
  148.9719  140.8598  155.0972 C   0  0  0  0  0  0  0  0  0  0  0  0
  148.2412  141.8303  155.3043 O   0  0  0  0  0  0  0  0  0  0  0  0
  150.3534  140.8862  155.4073 N   0  0  0  0  0  0  0  0  0  0  0  0
  150.9271  142.1243  155.9138 C   0  0  0  0  0  0  0  0  0  0  0  0
  151.3932  142.0776  157.3646 C   0  0  0  0  0  0  0  0  0  0  0  0
  151.7149  140.8432  157.9630 C   0  0  0  0  0  0  0  0  0  0  0  0
  152.1325  140.8375  159.3062 C   0  0  0  0  0  0  0  0  0  0  0  0
  152.2076  142.0619  160.0011 C   0  0  0  0  0  0  0  0  0  0  0  0
  152.6232  142.0896  161.3482 C   0  0  0  0  0  0  0  0  0  0  0  0
  152.6932  143.3144  162.0371 C   0  0  0  0  0  0  0  0  0  0  0  0
  152.3485  144.5089  161.3788 C   0  0  0  0  0  0  0  0  0  0  0  0
  151.9348  144.4785  160.0329 C   0  0  0  0  0  0  0  0  0  0  0  0
  151.8567  143.2615  159.3228 C   0  0  0  0  0  0  0  0  0  0  0  0
  151.4561  143.2531  158.0317 N   0  0  0  0  0  0  0  0  0  0  0  0
  148.8871  137.6700  153.9416 H   0  0  0  0  0  0  0  0  0  0  0  0
  146.8264  140.2021  153.3299 H   0  0  0  0  0  0  0  0  0  0  0  0
  146.5943  140.1560  156.2594 H   0  0  0  0  0  0  0  0  0  0  0  0
  145.4125  140.7028  155.0615 H   0  0  0  0  0  0  0  0  0  0  0  0
  145.6935  137.9674  156.2970 H   0  0  0  0  0  0  0  0  0  0  0  0
  144.2109  138.7732  155.7840 H   0  0  0  0  0  0  0  0  0  0  0  0
  145.2406  136.8406  154.2028 H   0  0  0  0  0  0  0  0  0  0  0  0
  144.7220  138.3469  153.4314 H   0  0  0  0  0  0  0  0  0  0  0  0
  151.7522  142.4210  155.2659 H   0  0  0  0  0  0  0  0  0  0  0  0
  150.1744  142.9019  155.7705 H   0  0  0  0  0  0  0  0  0  0  0  0
  151.6464  139.9203  157.4058 H   0  0  0  0  0  0  0  0  0  0  0  0
  152.3887  139.9070  159.7915 H   0  0  0  0  0  0  0  0  0  0  0  0
  152.8887  141.1744  161.8569 H   0  0  0  0  0  0  0  0  0  0  0  0
  153.0106  143.3377  163.0694 H   0  0  0  0  0  0  0  0  0  0  0  0
  152.4013  145.4500  161.9060 H   0  0  0  0  0  0  0  0  0  0  0  0
  151.6730  145.4030  159.5391 H   0  0  0  0  0  0  0  0  0  0  0  0
  1  2  2  0  0  0  0
  2 14  1  0  0  0  0
  2  3  1  0  0  0  0
  3  4  1  0  0  0  0
  3  5  2  0  0  0  0
  5  6  1  0  0  0  0
  5 26  1  0  0  0  0
  6  7  1  0  0  0  0
  6 12  1  0  0  0  0
  7 11  1  0  0  0  0
  7  8  1  0  0  0  0
  7 27  1  0  0  0  0
  8  9  1  0  0  0  0
  8 28  1  0  0  0  0
  8 29  1  0  0  0  0
  9 10  1  0  0  0  0
  9 30  1  0  0  0  0
  9 31  1  0  0  0  0
 10 11  1  0  0  0  0
 10 32  1  0  0  0  0
 10 33  1  0  0  0  0
 12 13  2  0  0  0  0
 12 14  1  0  0  0  0
 14 15  1  0  0  0  0
 15 16  1  0  0  0  0
 15 34  1  0  0  0  0
 15 35  1  0  0  0  0
 16 25  1  0  0  0  0
 16 17  2  0  0  0  0
 17 18  1  0  0  0  0
 17 36  1  0  0  0  0
 18 19  2  0  0  0  0
 18 37  1  0  0  0  0
 19 24  1  0  0  0  0
 19 20  1  0  0  0  0
 20 21  2  0  0  0  0
 20 38  1  0  0  0  0
 21 22  1  0  0  0  0
 21 39  1  0  0  0  0
 22 23  2  0  0  0  0
 22 40  1  0  0  0  0
 23 24  1  0  0  0  0
 23 41  1  0  0  0  0
 24 25  2  0  0  0  0
M  END
> <s_m_source_file>
AV-unprocessed.smi

> <i_m_source_file_index>
95

> <i_lp_mmshare_version>
43012

> <i_f3d_flags>
0

> <s_epik_input>
TzFbQ0gyXVtDSDJdW0NIMl1bQ0BIXTFuKFtjSF1jKEYpYzI9TyljKD1PKW4yW0NIMl1jKFtjSF1bY0hdMyluYyhjMzQpW2NIXVtjSF1bY0hdW2NIXTQ=

> <s_epik_cmdline>
J2VwaWtfcHl0aG9uJywgJy1waCcsICc3LjAnLCAnLXRuJywgJzgnLCAnLW1hJywgJzIwMCcsICctbWV0YWxfYmluZGluZycsICctaW1hZScsICc8aW5maWxlLm1hZT4nLCAnLW9tYWUnLCAnPG91dGZpbGUubWFlPic=

> <r_lp_tautomer_probability>
1

> <r_epik_Ionization_Penalty>
0.0274176

> <r_epik_Ionization_Penalty_Charging>
1.11818e-08

> <r_epik_Ionization_Penalty_Neutral>
0.0274176

> <r_epik_State_Penalty>
0.0224396

> <r_epik_Charging_Adjusted_Penalty>
0.0224396

> <i_epik_Tot_Q>
0

> <i_epik_Tot_abs_Q>
0

> <r_epik_Metal_State_Penalty>
2.28695e-05

> <b_epik_Metal_Only>
0

> <s_epik_Chemistry_Notes>
This compound contains an acetal/aminal-like group ( X-CH(R)-Y where X, Y are N, S, or O) that may be acid/base labile, releasing an aldehyde.

> <s_lp_Force_Field>
OPLS_2005

> <r_lp_Energy>
29.0351

> <b_lp_Chiralities_Consistent>
1

> <s_lp_Variant>
AV-unprocessed.smi:95-1

> <Gold.Version>
5.8.1

> <Gold.Id.Protein>
6NUR|6NUR_protein|mol2

> <Gold.PLP.Fitness>
50.2854

> <Gold.PLP.PLP>
-45.2609

> <Gold.PLP.part.hbond>
-1.8727

> <Gold.PLP.part.metal>
0.0000

> <Gold.PLP.part.buried>
-3.9869

> <Gold.PLP.part.nonpolar>
-40.1992

> <Gold.PLP.part.repulsive>
0.5980

> <Gold.PLP.ligand.clash>
0.0331

> <Gold.PLP.ligand.torsion>
0.4815

> <Gold.PLP.Chemscore.Hbond>
1.0000

> <Gold.PLP.Chemscore.CHOScore>
1.0000

> <Gold.PLP.Chemscore.Metal>
0.0000

> <Gold.Chemscore.Hbonds>
donor molecule, donor type, donor heavy atom, donor atom, acceptor molecule, acceptor atom, score
      P1  H  7997  8010       L1     1  0.89
      L1  C     5    26       P1  7948  1.00

> <Gold.PLP.Chemscore.Internal.Correction>
0.0205

> <Gold.Rescore>
     Score         DG    S(hbond)    S(metal)    S(lipo)     H(rot)  DE(clash)    DE(int)     intcor
     11.93     -18.74       1.00        0.00     117.67       1.50       2.84       3.97       ----

> <Gold.Chemscore.Fitness>
11.9273

> <Gold.Chemscore.DG>
-18.7386

> <Gold.Chemscore.ZeroCoef>
-5.4800

> <Gold.Chemscore.Hbond>
0.9961

> <Gold.Chemscore.Metal>
0.0000

> <Gold.Chemscore.Lipo>
117.6734

> <Gold.Chemscore.Internal_Hbond>
0.0000

> <Gold.Chemscore.DEClash>
2.8384

> <Gold.Chemscore.DEInternal>
3.9728

> <Gold.Chemscore.Rot>
1.4985

> <Gold.Chemscore.Internal.Correction>
   9.000000E+99

> <Gold.Chemscore.Hbonds>
donor molecule, donor type, donor heavy atom, donor atom, acceptor molecule, acceptor atom, score
      P1  H  7997  8010       L1     1  0.87

> <Gold.Chemscore.Hbond.Weighted>
-3.3270

> <Gold.Chemscore.Metal.Weighted>
-0.0000

> <Gold.Chemscore.Lipo.Weighted>
-13.7678

> <Gold.Chemscore.Internal_Hbond.Weighted>
0.0000

> <Gold.Chemscore.DEClash.Weighted>
2.8384

> <Gold.Chemscore.DEInternal.Weighted>
3.9728

> <Gold.Chemscore.Rot.Weighted>
3.8362

> <Gold.Chemscore.Internal.Correction.Weighted>
   9.000000E+99

> <Gold.Protein.RotatedTorsions>
[ 6907 6896 6895 6894 ] final -173.04 input  -60.11 | X-H torsion
[ 7974 7965 7964 7962 ] final  125.16 input  175.53 | X-H torsion
[ 8008 7997 7996 7995 ] final  103.70 input   59.86 | X-H torsion
[ 10167 10162 10161 10158 ] final   29.81 input  -65.29 | X-H torsion
[ 10718 10713 10712 10709 ] final  118.08 input   66.30 | X-H torsion
[ 10763 10752 10751 10750 ] final    2.50 input  -60.55 | X-H torsion
[ 11005 11000 10999 10996 ] final   -8.07 input  -57.11 | X-H torsion

> <Gold.Protein.ActiveResidues>
 VAL166  LYS551  ARG553  GLY616  TRP617  ASP618  TYR619  PRO620  LYS621  CYS622 
 ASP623  PHE694  ASN695  SER759  ASP760  ASP761  ALA762  ILE779  LEU786  VAL792 
 PHE793  MET794  SER795  GLU796  ALA797  LYS798  CYS799  TRP800  GLU811  SER814 

> <Gold.Protein.RotatedAtoms>
  151.5497  133.3419  159.2950 H   0  0  0  0  0  0  0  0  0  0  0  0  # atno 6907 bound_to 6896
  150.8486  134.7806  159.7002 H   0  0  0  0  0  0  0  0  0  0  0  0  # atno 6908 bound_to 6896
  152.4538  134.5344  159.9872 H   0  0  0  0  0  0  0  0  0  0  0  0  # atno 6909 bound_to 6896
  145.0761  139.3692  143.4933 H   0  0  0  0  0  0  0  0  0  0  0  0  # atno 7974 bound_to 7965
  156.1507  140.3160  155.8643 H   0  0  0  0  0  0  0  0  0  0  0  0  # atno 8008 bound_to 7997
  155.3976  140.0497  157.3055 H   0  0  0  0  0  0  0  0  0  0  0  0  # atno 8009 bound_to 7997
  154.5056  140.2145  155.9270 H   0  0  0  0  0  0  0  0  0  0  0  0  # atno 8010 bound_to 7997
  140.4733  144.0729  150.6243 H   0  0  0  0  0  0  0  0  0  0  0  0  # atno 10167 bound_to 10162
  157.6054  131.1044  150.7706 H   0  0  0  0  0  0  0  0  0  0  0  0  # atno 10718 bound_to 10713
  153.2948  135.6951  153.7259 H   0  0  0  0  0  0  0  0  0  0  0  0  # atno 10763 bound_to 10752
  153.6196  135.3429  155.3007 H   0  0  0  0  0  0  0  0  0  0  0  0  # atno 10764 bound_to 10752
  154.8534  135.4383  154.2041 H   0  0  0  0  0  0  0  0  0  0  0  0  # atno 10765 bound_to 10752
  140.7195  133.8840  155.8810 H   0  0  0  0  0  0  0  0  0  0  0  0  # atno 11005 bound_to 11000
  146.3530  140.0529  142.8634 LP  0  0  0  0  0  0  0  0  0  0  0  0  # atno 17320 bound_to 7965
  145.1234  140.9475  143.4587 LP  0  0  0  0  0  0  0  0  0  0  0  0  # atno 17321 bound_to 7965
  140.3950  143.2733  152.0015 LP  0  0  0  0  0  0  0  0  0  0  0  0  # atno 17342 bound_to 10162
  139.4822  144.6046  151.7545 LP  0  0  0  0  0  0  0  0  0  0  0  0  # atno 17343 bound_to 10162
  156.8096  130.4948  149.5358 LP  0  0  0  0  0  0  0  0  0  0  0  0  # atno 17370 bound_to 10713
  156.1138  130.6060  151.0089 LP  0  0  0  0  0  0  0  0  0  0  0  0  # atno 17371 bound_to 10713
  141.0016  134.1143  157.4312 LP  0  0  0  0  0  0  0  0  0  0  0  0  # atno 17394 bound_to 11000
  139.8851  135.0070  156.6416 LP  0  0  0  0  0  0  0  0  0  0  0  0  # atno 17395 bound_to 11000

$$$$
