AV-unprocessed.smi:21|AV-procd|sdf|136|dock5
  -GOLD-   2262015333D 1   1.00000     0.00000
 Structure written by MMmdl.
 62 65  0  0  0  0  0  0  0  0  2 V2000
  144.3576  135.1939  155.5263 C   0  0  0  0  0  0  0  0  0  0  0  0
  145.7307  134.8751  155.6885 O   0  0  0  0  0  0  0  0  0  0  0  0
  146.5981  135.6665  154.8906 C   0  0  2  0  0  0  0  0  0  0  0  0
  146.5096  137.1564  155.1997 C   0  0  0  0  0  0  0  0  0  0  0  0
  147.0033  137.8363  153.9119 C   0  0  2  0  0  0  0  0  0  0  0  0
  146.4500  139.2720  153.7043 C   0  0  0  0  0  0  0  0  0  0  0  0
  147.3788  140.3258  154.1185 N   0  0  0  0  0  0  0  0  0  0  0  0
  148.2678  140.8817  153.1019 C   0  0  0  0  0  0  0  0  0  0  0  0
  147.8051  140.3318  155.4106 C   0  0  0  0  0  0  0  0  0  0  0  0
  146.9137  140.0550  156.4003 N   0  0  0  0  0  0  0  0  0  0  0  0
  147.2816  140.1136  157.6826 C   0  0  0  0  0  0  0  0  0  0  0  0
  148.4716  140.4302  158.1929 N   0  0  0  0  0  0  0  0  0  0  0  0
  149.3786  140.6926  157.2096 C   0  0  0  0  0  0  0  0  0  0  0  0
  149.1372  140.6514  155.8064 C   0  0  0  0  0  0  0  0  0  0  0  0
  150.3116  140.9449  155.1224 N   0  0  0  0  0  0  0  0  0  0  0  0
  151.1889  141.1612  156.0630 C   0  0  0  0  0  0  0  0  0  0  0  0
  150.7033  141.0705  157.3475 N   0  0  0  0  0  0  0  0  0  0  0  0
  151.4537  141.2799  158.5742 C   0  0  0  0  0  0  0  0  0  0  0  0
  152.1139  142.6822  158.7020 C   0  0  1  0  0  0  0  0  0  0  0  0
  151.0127  143.7689  158.6648 C   0  0  0  0  0  0  0  0  0  0  0  0
  151.0154  144.4620  157.4336 O   0  0  0  0  0  0  0  0  0  0  0  0
  153.0010  142.8474  159.9716 C   0  0  1  0  0  0  0  0  0  0  0  0
  152.2889  142.8252  161.3164 C   0  0  0  0  0  0  0  0  0  0  0  0
  153.4278  142.5176  162.2771 C   0  0  0  0  0  0  0  0  0  0  0  0
  154.2333  141.5794  161.5831 O   0  0  0  0  0  0  0  0  0  0  0  0
  154.0177  141.7112  160.1810 C   0  0  0  0  0  0  0  0  0  0  0  0
  146.7092  136.8649  152.8152 N   0  3  2  0  0  0  0  0  0  0  0  0
  145.9120  137.3399  151.6598 C   0  0  0  0  0  0  0  0  0  0  0  0
  146.1667  135.6311  153.4279 C   0  0  0  0  0  0  0  0  0  0  0  0
  147.6303  135.3209  154.9739 H   0  0  0  0  0  0  0  0  0  0  0  0
  148.0919  137.8894  153.9556 H   0  0  0  0  0  0  0  0  0  0  0  0
  143.7602  134.5836  156.2035 H   0  0  0  0  0  0  0  0  0  0  0  0
  144.0160  134.9911  154.5108 H   0  0  0  0  0  0  0  0  0  0  0  0
  144.1642  136.2417  155.7593 H   0  0  0  0  0  0  0  0  0  0  0  0
  145.4690  137.4234  155.3911 H   0  0  0  0  0  0  0  0  0  0  0  0
  147.0956  137.4366  156.0753 H   0  0  0  0  0  0  0  0  0  0  0  0
  146.2545  139.4388  152.6451 H   0  0  0  0  0  0  0  0  0  0  0  0
  145.4864  139.3789  154.1969 H   0  0  0  0  0  0  0  0  0  0  0  0
  148.6255  141.8686  153.3983 H   0  0  0  0  0  0  0  0  0  0  0  0
  147.7445  140.9917  152.1517 H   0  0  0  0  0  0  0  0  0  0  0  0
  149.1303  140.2341  152.9406 H   0  0  0  0  0  0  0  0  0  0  0  0
  146.5097  139.8837  158.4025 H   0  0  0  0  0  0  0  0  0  0  0  0
  152.2148  141.4193  155.8435 H   0  0  0  0  0  0  0  0  0  0  0  0
  150.7559  141.1086  159.3940 H   0  0  0  0  0  0  0  0  0  0  0  0
  152.2142  140.5026  158.6578 H   0  0  0  0  0  0  0  0  0  0  0  0
  152.7528  142.8483  157.8343 H   0  0  0  0  0  0  0  0  0  0  0  0
  150.0284  143.3291  158.8298 H   0  0  0  0  0  0  0  0  0  0  0  0
  151.1602  144.5163  159.4433 H   0  0  0  0  0  0  0  0  0  0  0  0
  150.2338  144.2300  156.9553 H   0  0  0  0  0  0  0  0  0  0  0  0
  153.5504  143.7876  159.8991 H   0  0  0  0  0  0  0  0  0  0  0  0
  151.8085  143.7681  161.5709 H   0  0  0  0  0  0  0  0  0  0  0  0
  151.5412  142.0312  161.3478 H   0  0  0  0  0  0  0  0  0  0  0  0
  154.0177  143.4151  162.4691 H   0  0  0  0  0  0  0  0  0  0  0  0
  153.0839  142.1265  163.2337 H   0  0  0  0  0  0  0  0  0  0  0  0
  153.6267  140.7610  159.8144 H   0  0  0  0  0  0  0  0  0  0  0  0
  154.9591  141.9069  159.6667 H   0  0  0  0  0  0  0  0  0  0  0  0
  144.9198  137.6726  151.9672 H   0  0  0  0  0  0  0  0  0  0  0  0
  145.7847  136.5323  150.9381 H   0  0  0  0  0  0  0  0  0  0  0  0
  146.4154  138.1565  151.1425 H   0  0  0  0  0  0  0  0  0  0  0  0
  146.5132  134.7366  152.9096 H   0  0  0  0  0  0  0  0  0  0  0  0
  145.0764  135.6474  153.3727 H   0  0  0  0  0  0  0  0  0  0  0  0
  147.6130  136.6116  152.4415 H   0  0  0  0  0  0  0  0  0  0  0  0
  1  2  1  0  0  0  0
  1 32  1  0  0  0  0
  1 33  1  0  0  0  0
  1 34  1  0  0  0  0
  2  3  1  0  0  0  0
  3 30  1  0  0  0  0
  3 29  1  0  0  0  0
  3  4  1  0  0  0  0
  4  5  1  0  0  0  0
  4 35  1  0  0  0  0
  4 36  1  0  0  0  0
  5 31  1  0  0  0  0
  5  6  1  0  0  0  0
  5 27  1  0  0  0  0
  6  7  1  0  0  0  0
  6 37  1  0  0  0  0
  6 38  1  0  0  0  0
  7  8  1  0  0  0  0
  7  9  1  0  0  0  0
  8 39  1  0  0  0  0
  8 40  1  0  0  0  0
  8 41  1  0  0  0  0
  9 14  1  0  0  0  0
  9 10  2  0  0  0  0
 10 11  1  0  0  0  0
 11 12  2  0  0  0  0
 11 42  1  0  0  0  0
 12 13  1  0  0  0  0
 13 17  1  0  0  0  0
 13 14  2  0  0  0  0
 14 15  1  0  0  0  0
 15 16  2  0  0  0  0
 16 17  1  0  0  0  0
 16 43  1  0  0  0  0
 17 18  1  0  0  0  0
 18 19  1  0  0  0  0
 18 44  1  0  0  0  0
 18 45  1  0  0  0  0
 19 20  1  0  0  0  0
 19 22  1  0  0  0  0
 19 46  1  0  0  0  0
 20 21  1  0  0  0  0
 20 47  1  0  0  0  0
 20 48  1  0  0  0  0
 21 49  1  0  0  0  0
 22 26  1  0  0  0  0
 22 23  1  0  0  0  0
 22 50  1  0  0  0  0
 23 24  1  0  0  0  0
 23 51  1  0  0  0  0
 23 52  1  0  0  0  0
 24 25  1  0  0  0  0
 24 53  1  0  0  0  0
 24 54  1  0  0  0  0
 25 26  1  0  0  0  0
 26 55  1  0  0  0  0
 26 56  1  0  0  0  0
 27 28  1  0  0  0  0
 27 29  1  0  0  0  0
 27 62  1  0  0  0  0
 28 57  1  0  0  0  0
 28 58  1  0  0  0  0
 28 59  1  0  0  0  0
 29 60  1  0  0  0  0
 29 61  1  0  0  0  0
M  CHG  1  27   1
M  END
> <s_m_source_file>
AV-unprocessed.smi

> <i_m_source_file_index>
21

> <i_lp_mmshare_version>
43012

> <i_f3d_flags>
0

> <s_epik_input>
W0NIM11PW0NASF0xW0NIMl1bQ0BIXShOKFtDSDNdKVtDSDJdMSlbQ0gyXU4oW0NIM10pYyhuW2NIXW4yKWMoYzIzKW5bY0hdbjNbQ0gyXVtDQEhdKFtDSDJdW09IXSlbQ0BASF00W0NIMl1bQ0gyXU9bQ0gyXTQ=

> <s_epik_cmdline>
J2VwaWtfcHl0aG9uJywgJy1waCcsICc3LjAnLCAnLXRuJywgJzgnLCAnLW1hJywgJzIwMCcsICctbWV0YWxfYmluZGluZycsICctaW1hZScsICc8aW5maWxlLm1hZT4nLCAnLW9tYWUnLCAnPG91dGZpbGUubWFlPic=

> <r_lp_tautomer_probability>
1

> <r_epik_Ionization_Penalty>
0.0157465

> <r_epik_Ionization_Penalty_Charging>
0.015354

> <r_epik_Ionization_Penalty_Neutral>
0.000392529

> <r_epik_State_Penalty>
0.0120612

> <r_epik_Charging_Adjusted_Penalty>
0.0274152

> <i_epik_Tot_Q>
1

> <i_epik_Tot_abs_Q>
1

> <r_epik_Metal_State_Penalty>
0.0121253

> <b_epik_Metal_Only>
0

> <s_lp_Force_Field>
OPLS_2005

> <r_lp_Energy>
61.1925

> <b_lp_Chiralities_Consistent>
1

> <s_lp_Variant>
AV-unprocessed.smi:21-16

> <Gold.Version>
5.8.1

> <Gold.Id.Protein>
6NUR|6NUR_protein|mol2

> <Gold.PLP.Fitness>
48.6476

> <Gold.PLP.PLP>
-39.7579

> <Gold.PLP.part.hbond>
-4.8203

> <Gold.PLP.part.metal>
0.0000

> <Gold.PLP.part.buried>
1.1488

> <Gold.PLP.part.nonpolar>
-35.2093

> <Gold.PLP.part.repulsive>
0.1391

> <Gold.PLP.ligand.clash>
0.0000

> <Gold.PLP.ligand.torsion>
1.8504

> <Gold.PLP.Chemscore.Hbond>
3.8320

> <Gold.PLP.Chemscore.CHOScore>
0.0000

> <Gold.PLP.Chemscore.Metal>
0.0000

> <Gold.Chemscore.Hbonds>
donor molecule, donor type, donor heavy atom, donor atom, acceptor molecule, acceptor atom, score
      L1  H    21    49       P1  8028  0.94
      L1  H    27    62       P1  7948  1.85
      P1  H  7989  7998       L1    15  0.58

> <Gold.PLP.Chemscore.Internal.Correction>
1.0946

> <Gold.Rescore>
     Score         DG    S(hbond)    S(metal)    S(lipo)     H(rot)  DE(clash)    DE(int)     intcor
     13.35     -18.83       2.54        0.00     108.95       3.08       2.50       2.99       ----

> <Gold.Chemscore.Fitness>
13.3481

> <Gold.Chemscore.DG>
-18.8305

> <Gold.Chemscore.ZeroCoef>
-5.4800

> <Gold.Chemscore.Hbond>
2.5383

> <Gold.Chemscore.Metal>
0.0000

> <Gold.Chemscore.Lipo>
108.9459

> <Gold.Chemscore.Internal_Hbond>
0.0000

> <Gold.Chemscore.DEClash>
2.4953

> <Gold.Chemscore.DEInternal>
2.9872

> <Gold.Chemscore.Rot>
3.0758

> <Gold.Chemscore.Internal.Correction>
   9.000000E+99

> <Gold.Chemscore.Hbonds>
donor molecule, donor type, donor heavy atom, donor atom, acceptor molecule, acceptor atom, score
      L1  H    21    49       P1  8028  0.84
      L1  H    27    62       P1  7948  0.89
      P1  H  7989  7998       L1    15  0.11

> <Gold.Chemscore.Hbond.Weighted>
-8.4780

> <Gold.Chemscore.Metal.Weighted>
-0.0000

> <Gold.Chemscore.Lipo.Weighted>
-12.7467

> <Gold.Chemscore.Internal_Hbond.Weighted>
0.0000

> <Gold.Chemscore.DEClash.Weighted>
2.4953

> <Gold.Chemscore.DEInternal.Weighted>
2.9872

> <Gold.Chemscore.Rot.Weighted>
7.8741

> <Gold.Chemscore.Internal.Correction.Weighted>
   9.000000E+99

> <Gold.Protein.RotatedTorsions>
[ 6907 6896 6895 6894 ] final   15.02 input  -60.11 | X-H torsion
[ 7974 7965 7964 7962 ] final  106.75 input  175.53 | X-H torsion
[ 8008 7997 7996 7995 ] final   58.37 input   59.86 | X-H torsion
[ 10167 10162 10161 10158 ] final  -83.52 input  -65.29 | X-H torsion
[ 10718 10713 10712 10709 ] final  -67.15 input   66.30 | X-H torsion
[ 10763 10752 10751 10750 ] final -153.18 input  -60.55 | X-H torsion
[ 11005 11000 10999 10996 ] final  133.16 input  -57.11 | X-H torsion

> <Gold.Protein.ActiveResidues>
 VAL166  LYS551  ARG553  GLY616  TRP617  ASP618  TYR619  PRO620  LYS621  CYS622 
 ASP623  PHE694  ASN695  SER759  ASP760  ASP761  ALA762  ILE779  LEU786  VAL792 
 PHE793  MET794  SER795  GLU796  ALA797  LYS798  CYS799  TRP800  GLU811  SER814 

> <Gold.Protein.RotatedAtoms>
  151.8115  135.0679  160.0413 H   0  0  0  0  0  0  0  0  0  0  0  0  # atno 6907 bound_to 6896
  152.3017  133.5657  159.5631 H   0  0  0  0  0  0  0  0  0  0  0  0  # atno 6908 bound_to 6896
  150.7276  134.0198  159.3739 H   0  0  0  0  0  0  0  0  0  0  0  0  # atno 6909 bound_to 6896
  145.3025  139.2565  143.3806 H   0  0  0  0  0  0  0  0  0  0  0  0  # atno 7974 bound_to 7965
  155.5489  140.3486  155.4464 H   0  0  0  0  0  0  0  0  0  0  0  0  # atno 8008 bound_to 7997
  156.0597  140.1337  156.9981 H   0  0  0  0  0  0  0  0  0  0  0  0  # atno 8009 bound_to 7997
  154.4474  140.0988  156.6484 H   0  0  0  0  0  0  0  0  0  0  0  0  # atno 8010 bound_to 7997
  140.4219  143.2581  151.8879 H   0  0  0  0  0  0  0  0  0  0  0  0  # atno 10167 bound_to 10162
  156.0573  130.4273  150.1812 H   0  0  0  0  0  0  0  0  0  0  0  0  # atno 10718 bound_to 10713
  154.7945  135.3219  154.7700 H   0  0  0  0  0  0  0  0  0  0  0  0  # atno 10763 bound_to 10752
  153.8381  135.6873  153.4810 H   0  0  0  0  0  0  0  0  0  0  0  0  # atno 10764 bound_to 10752
  153.1630  135.4653  154.9739 H   0  0  0  0  0  0  0  0  0  0  0  0  # atno 10765 bound_to 10752
  139.9834  134.9540  156.9685 H   0  0  0  0  0  0  0  0  0  0  0  0  # atno 11005 bound_to 11000
  146.3147  140.3542  142.8659 LP  0  0  0  0  0  0  0  0  0  0  0  0  # atno 17320 bound_to 7965
  144.9082  140.7725  143.5824 LP  0  0  0  0  0  0  0  0  0  0  0  0  # atno 17321 bound_to 7965
  139.4783  144.5428  151.8502 LP  0  0  0  0  0  0  0  0  0  0  0  0  # atno 17342 bound_to 10162
  140.4524  144.1836  150.5898 LP  0  0  0  0  0  0  0  0  0  0  0  0  # atno 17343 bound_to 10162
  156.9886  130.9886  151.3420 LP  0  0  0  0  0  0  0  0  0  0  0  0  # atno 17370 bound_to 10713
  157.5554  130.8210  149.8198 LP  0  0  0  0  0  0  0  0  0  0  0  0  # atno 17371 bound_to 10713
  140.5050  134.1059  155.7258 LP  0  0  0  0  0  0  0  0  0  0  0  0  # atno 17394 bound_to 11000
  141.1503  133.8981  157.2114 LP  0  0  0  0  0  0  0  0  0  0  0  0  # atno 17395 bound_to 11000

$$$$
