AV-unprocessed.smi:158|AV-procd|sdf|1328|dock9
  -GOLD-   2262019 23D 1   1.00000     0.00000
 Structure written by MMmdl.
 31 33  0  0  0  0  0  0  0  0  1 V2000
  154.1138  135.1014  160.5725 N   0  0  0  0  0  0  0  0  0  0  0  0
  154.3058  136.3386  160.0939 C   0  0  0  0  0  0  0  0  0  0  0  0
  155.5693  136.8222  160.0458 N   0  0  0  0  0  0  0  0  0  0  0  0
  155.8055  138.0527  159.5732 C   0  0  0  0  0  0  0  0  0  0  0  0
  157.4522  138.5639  159.5581 Cl  0  0  0  0  0  0  0  0  0  0  0  0
  154.9081  138.9309  159.1118 N   0  0  0  0  0  0  0  0  0  0  0  0
  153.6343  138.4453  159.1608 C   0  0  0  0  0  0  0  0  0  0  0  0
  153.2501  137.1636  159.6354 C   0  0  0  0  0  0  0  0  0  0  0  0
  151.8736  137.0153  159.5326 N   0  0  0  0  0  0  0  0  0  0  0  0
  151.4719  138.1498  159.0231 C   0  0  0  0  0  0  0  0  0  0  0  0
  152.4693  139.0717  158.7772 N   0  0  0  0  0  0  0  0  0  0  0  0
  152.3732  140.4500  158.2019 C   0  0  1  0  0  0  0  0  0  0  0  0
  151.8045  140.3607  156.9292 O   0  0  0  0  0  0  0  0  0  0  0  0
  150.4167  140.6754  157.0032 C   0  0  2  0  0  0  0  0  0  0  0  0
  149.8493  141.0318  155.6185 C   0  0  0  0  0  0  0  0  0  0  0  0
  150.3830  140.1637  154.6418 O   0  0  0  0  0  0  0  0  0  0  0  0
  150.4011  141.8052  158.0400 C   0  0  2  0  0  0  0  0  0  0  0  0
  150.7962  143.0329  157.4513 O   0  0  0  0  0  0  0  0  0  0  0  0
  151.4231  141.3081  159.0529 C   0  0  2  0  0  0  0  0  0  0  0  0
  152.0794  142.2930  159.6691 F   0  0  0  0  0  0  0  0  0  0  0  0
  153.4012  140.8117  158.1560 H   0  0  0  0  0  0  0  0  0  0  0  0
  149.8770  139.8225  157.4198 H   0  0  0  0  0  0  0  0  0  0  0  0
  149.4158  141.9358  158.4884 H   0  0  0  0  0  0  0  0  0  0  0  0
  150.9416  140.6965  159.8179 H   0  0  0  0  0  0  0  0  0  0  0  0
  153.1797  134.7200  160.6170 H   0  0  0  0  0  0  0  0  0  0  0  0
  154.9018  134.5528  160.8850 H   0  0  0  0  0  0  0  0  0  0  0  0
  150.4289  138.3403  158.8145 H   0  0  0  0  0  0  0  0  0  0  0  0
  148.7663  140.9042  155.6117 H   0  0  0  0  0  0  0  0  0  0  0  0
  150.0584  142.0693  155.3560 H   0  0  0  0  0  0  0  0  0  0  0  0
  150.2188  139.2723  154.9093 H   0  0  0  0  0  0  0  0  0  0  0  0
  150.0259  143.4749  157.1285 H   0  0  0  0  0  0  0  0  0  0  0  0
  1  2  1  0  0  0  0
  1 25  1  0  0  0  0
  1 26  1  0  0  0  0
  2  8  1  0  0  0  0
  2  3  2  0  0  0  0
  3  4  1  0  0  0  0
  4  5  1  0  0  0  0
  4  6  2  0  0  0  0
  6  7  1  0  0  0  0
  7 11  1  0  0  0  0
  7  8  2  0  0  0  0
  8  9  1  0  0  0  0
  9 10  2  0  0  0  0
 10 11  1  0  0  0  0
 10 27  1  0  0  0  0
 11 12  1  0  0  0  0
 12 21  1  0  0  0  0
 12 19  1  0  0  0  0
 12 13  1  0  0  0  0
 13 14  1  0  0  0  0
 14 22  1  0  0  0  0
 14 15  1  0  0  0  0
 14 17  1  0  0  0  0
 15 16  1  0  0  0  0
 15 28  1  0  0  0  0
 15 29  1  0  0  0  0
 16 30  1  0  0  0  0
 17 23  1  0  0  0  0
 17 18  1  0  0  0  0
 17 19  1  0  0  0  0
 18 31  1  0  0  0  0
 19 24  1  0  0  0  0
 19 20  1  0  0  0  0
M  END
> <s_m_source_file>
AV-unprocessed.smi

> <i_m_source_file_index>
158

> <i_lp_mmshare_version>
43012

> <i_f3d_flags>
0

> <s_epik_input>
Q2xjKG4xKW5jKFtOSDJdKWMoYzEyKW5bY0hdbjJbQ0BASF0zT1tDQEhdKFtDSDJdW09IXSlbQ0BASF0oW09IXSlbQ0BASF0zRg==

> <s_epik_cmdline>
J2VwaWtfcHl0aG9uJywgJy1waCcsICc3LjAnLCAnLXRuJywgJzgnLCAnLW1hJywgJzIwMCcsICctbWV0YWxfYmluZGluZycsICctaW1hZScsICc8aW5maWxlLm1hZT4nLCAnLW9tYWUnLCAnPG91dGZpbGUubWFlPic=

> <r_lp_tautomer_probability>
1

> <r_epik_Ionization_Penalty>
6.51543e-05

> <r_epik_Ionization_Penalty_Charging>
0

> <r_epik_Ionization_Penalty_Neutral>
6.51543e-05

> <r_epik_State_Penalty>
-0

> <r_epik_Charging_Adjusted_Penalty>
0

> <i_epik_Tot_Q>
0

> <i_epik_Tot_abs_Q>
0

> <r_epik_Metal_State_Penalty>
-0

> <b_epik_Metal_Only>
0

> <s_epik_Chemistry_Notes>
This compound contains an acetal/aminal-like group ( X-CH(R)-Y where X, Y are N, S, or O) that may be acid/base labile, releasing an aldehyde.

> <s_lp_Force_Field>
OPLS_2005

> <r_lp_Energy>
37.0626

> <b_lp_Chiralities_Consistent>
1

> <s_lp_Variant>
AV-unprocessed.smi:158-6

> <Gold.Version>
5.8.1

> <Gold.Id.Protein>
6NUR|6NUR_protein|mol2

> <Gold.PLP.Fitness>
36.7555

> <Gold.PLP.PLP>
-25.8446

> <Gold.PLP.part.hbond>
-3.7511

> <Gold.PLP.part.metal>
0.0000

> <Gold.PLP.part.buried>
-5.2730

> <Gold.PLP.part.nonpolar>
-16.8744

> <Gold.PLP.part.repulsive>
0.0857

> <Gold.PLP.ligand.clash>
0.0000

> <Gold.PLP.ligand.torsion>
0.2241

> <Gold.PLP.Chemscore.Hbond>
3.7800

> <Gold.PLP.Chemscore.CHOScore>
0.0000

> <Gold.PLP.Chemscore.Metal>
0.0000

> <Gold.Chemscore.Hbonds>
donor molecule, donor type, donor heavy atom, donor atom, acceptor molecule, acceptor atom, score
      L1  H    18    31       P1  8028  0.50
      P1  H  6896  6909       L1     9  1.00
      P1  H  7989  7998       L1    16  1.00
      P1  H  7997  8009       L1     6  0.86

> <Gold.PLP.Chemscore.Internal.Correction>
0.0190

> <Gold.Rescore>
     Score         DG    S(hbond)    S(metal)    S(lipo)     H(rot)  DE(clash)    DE(int)     intcor
     11.74     -12.35       3.38        0.00      30.49       3.12       0.00       0.61       ----

> <Gold.Chemscore.Fitness>
11.7413

> <Gold.Chemscore.DG>
-12.3480

> <Gold.Chemscore.ZeroCoef>
-5.4800

> <Gold.Chemscore.Hbond>
3.3821

> <Gold.Chemscore.Metal>
0.0000

> <Gold.Chemscore.Lipo>
30.4855

> <Gold.Chemscore.Internal_Hbond>
0.0000

> <Gold.Chemscore.DEClash>
0.0000

> <Gold.Chemscore.DEInternal>
0.6067

> <Gold.Chemscore.Rot>
3.1230

> <Gold.Chemscore.Internal.Correction>
   9.000000E+99

> <Gold.Chemscore.Hbonds>
donor molecule, donor type, donor heavy atom, donor atom, acceptor molecule, acceptor atom, score
      L1  H    18    31       P1  8028  0.50
      P1  H  6896  6909       L1     9  0.25
      P1  H  7989  7998       L1    16  0.94
      P1  H  7997  8009       L1     6  0.68

> <Gold.Chemscore.Hbond.Weighted>
-11.2962

> <Gold.Chemscore.Metal.Weighted>
-0.0000

> <Gold.Chemscore.Lipo.Weighted>
-3.5668

> <Gold.Chemscore.Internal_Hbond.Weighted>
0.0000

> <Gold.Chemscore.DEClash.Weighted>
0.0000

> <Gold.Chemscore.DEInternal.Weighted>
0.6067

> <Gold.Chemscore.Rot.Weighted>
7.9950

> <Gold.Chemscore.Internal.Correction.Weighted>
   9.000000E+99

> <Gold.Protein.RotatedTorsions>
[ 6907 6896 6895 6894 ] final  127.97 input  -60.11 | X-H torsion
[ 7974 7965 7964 7962 ] final -142.76 input  175.53 | X-H torsion
[ 8008 7997 7996 7995 ] final  110.43 input   59.86 | X-H torsion
[ 10167 10162 10161 10158 ] final   93.08 input  -65.29 | X-H torsion
[ 10718 10713 10712 10709 ] final    5.63 input   66.30 | X-H torsion
[ 10763 10752 10751 10750 ] final  -95.39 input  -60.55 | X-H torsion
[ 11005 11000 10999 10996 ] final  156.56 input  -57.11 | X-H torsion

> <Gold.Protein.ActiveResidues>
 VAL166  LYS551  ARG553  GLY616  TRP617  ASP618  TYR619  PRO620  LYS621  CYS622 
 ASP623  PHE694  ASN695  SER759  ASP760  ASP761  ALA762  ILE779  LEU786  VAL792 
 PHE793  MET794  SER795  GLU796  ALA797  LYS798  CYS799  TRP800  GLU811  SER814 

> <Gold.Protein.RotatedAtoms>
  152.3763  133.6485  159.6125 H   0  0  0  0  0  0  0  0  0  0  0  0  # atno 6907 bound_to 6896
  150.7706  133.9188  159.3400 H   0  0  0  0  0  0  0  0  0  0  0  0  # atno 6908 bound_to 6896
  151.7002  135.0932  160.0301 H   0  0  0  0  0  0  0  0  0  0  0  0  # atno 6909 bound_to 6896
  144.8419  140.5918  143.5447 H   0  0  0  0  0  0  0  0  0  0  0  0  # atno 7974 bound_to 7965
  156.2052  140.3039  155.9611 H   0  0  0  0  0  0  0  0  0  0  0  0  # atno 8008 bound_to 7997
  155.2859  140.0440  157.3036 H   0  0  0  0  0  0  0  0  0  0  0  0  # atno 8009 bound_to 7997
  154.5623  140.2324  155.8325 H   0  0  0  0  0  0  0  0  0  0  0  0  # atno 8010 bound_to 7997
  139.8214  144.6729  150.9514 H   0  0  0  0  0  0  0  0  0  0  0  0  # atno 10167 bound_to 10162
  156.9103  130.5753  149.5647 H   0  0  0  0  0  0  0  0  0  0  0  0  # atno 10718 bound_to 10713
  154.7144  135.5122  153.8715 H   0  0  0  0  0  0  0  0  0  0  0  0  # atno 10763 bound_to 10752
  153.0808  135.6630  154.0059 H   0  0  0  0  0  0  0  0  0  0  0  0  # atno 10764 bound_to 10752
  153.9894  135.3021  155.3393 H   0  0  0  0  0  0  0  0  0  0  0  0  # atno 10765 bound_to 10752
  140.1686  134.8559  157.2663 H   0  0  0  0  0  0  0  0  0  0  0  0  # atno 11005 bound_to 11000
  145.4676  139.1506  143.3832 LP  0  0  0  0  0  0  0  0  0  0  0  0  # atno 17320 bound_to 7965
  146.2710  140.4809  142.8814 LP  0  0  0  0  0  0  0  0  0  0  0  0  # atno 17321 bound_to 7965
  140.7813  143.4088  151.1027 LP  0  0  0  0  0  0  0  0  0  0  0  0  # atno 17342 bound_to 10162
  139.7748  143.8442  152.3127 LP  0  0  0  0  0  0  0  0  0  0  0  0  # atno 17343 bound_to 10162
  156.0539  130.5604  150.9049 LP  0  0  0  0  0  0  0  0  0  0  0  0  # atno 17370 bound_to 10713
  157.5972  131.0942  150.9022 LP  0  0  0  0  0  0  0  0  0  0  0  0  # atno 17371 bound_to 10713
  140.2404  134.3803  155.7483 LP  0  0  0  0  0  0  0  0  0  0  0  0  # atno 17394 bound_to 11000
  141.2215  133.7262  156.8779 LP  0  0  0  0  0  0  0  0  0  0  0  0  # atno 17395 bound_to 11000

$$$$
