AV-unprocessed.smi:1567|AV-procd|sdf|6308|dock3
  -GOLD-   22720 6513D 1   1.00000     0.00000
 Structure written by MMmdl.
 43 45  0  0  0  0  0  0  0  0  2 V2000
  155.5398  138.7275  154.2272 O   0  0  0  0  0  0  0  0  0  0  0  0
  154.4154  137.9468  154.5675 C   0  0  0  0  0  0  0  0  0  0  0  0
  153.1371  138.7842  154.4041 C   0  0  0  0  0  0  0  0  0  0  0  0
  151.8544  138.0431  154.8162 C   0  0  0  0  0  0  0  0  0  0  0  0
  150.6194  138.8387  154.5320 C   0  0  0  0  0  0  0  0  0  0  0  0
  149.5882  138.4451  153.7323 N   0  3  0  0  0  0  0  0  0  0  0  0
  148.6129  139.4420  153.6923 C   0  0  0  0  0  0  0  0  0  0  0  0
  147.3942  139.4967  153.0229 C   0  0  0  0  0  0  0  0  0  0  0  0
  146.6276  140.6673  153.1989 C   0  0  0  0  0  0  0  0  0  0  0  0
  147.0798  141.7250  154.0141 C   0  0  0  0  0  0  0  0  0  0  0  0
  148.3178  141.6584  154.6866 C   0  0  0  0  0  0  0  0  0  0  0  0
  149.0715  140.4982  154.5060 C   0  0  0  0  0  0  0  0  0  0  0  0
  150.3154  140.0844  154.9993 N   0  0  0  0  0  0  0  0  0  0  0  0
  151.0764  140.9769  155.8891 C   0  0  0  0  0  0  0  0  0  0  0  0
  150.6620  140.8468  157.3693 C   0  0  2  0  0  0  0  0  0  0  0  0
  149.2817  141.1146  157.5228 O   0  0  0  0  0  0  0  0  0  0  0  0
  151.5228  141.7218  158.2697 C   0  0  0  0  0  0  0  0  0  0  0  0
  151.4291  143.1272  158.1708 C   0  0  0  0  0  0  0  0  0  0  0  0
  152.2137  143.9538  158.9980 C   0  0  0  0  0  0  0  0  0  0  0  0
  152.1177  145.3004  158.8949 F   0  0  0  0  0  0  0  0  0  0  0  0
  153.0970  143.3806  159.9321 C   0  0  0  0  0  0  0  0  0  0  0  0
  153.1934  141.9804  160.0395 C   0  0  0  0  0  0  0  0  0  0  0  0
  152.4097  141.1512  159.2131 C   0  0  0  0  0  0  0  0  0  0  0  0
  152.5129  139.8058  159.3355 F   0  0  0  0  0  0  0  0  0  0  0  0
  155.6288  138.7356  153.2862 H   0  0  0  0  0  0  0  0  0  0  0  0
  154.3849  137.0679  153.9232 H   0  0  0  0  0  0  0  0  0  0  0  0
  154.5300  137.5980  155.5942 H   0  0  0  0  0  0  0  0  0  0  0  0
  153.2253  139.7064  154.9801 H   0  0  0  0  0  0  0  0  0  0  0  0
  153.0438  139.0864  153.3604 H   0  0  0  0  0  0  0  0  0  0  0  0
  151.7883  137.0989  154.2749 H   0  0  0  0  0  0  0  0  0  0  0  0
  151.8921  137.7851  155.8746 H   0  0  0  0  0  0  0  0  0  0  0  0
  147.0449  138.6867  152.3995 H   0  0  0  0  0  0  0  0  0  0  0  0
  145.6729  140.7552  152.7007 H   0  0  0  0  0  0  0  0  0  0  0  0
  146.4643  142.6056  154.1279 H   0  0  0  0  0  0  0  0  0  0  0  0
  148.6494  142.4720  155.3146 H   0  0  0  0  0  0  0  0  0  0  0  0
  152.1306  140.7226  155.7777 H   0  0  0  0  0  0  0  0  0  0  0  0
  150.9809  142.0027  155.5340 H   0  0  0  0  0  0  0  0  0  0  0  0
  150.8012  139.8083  157.6721 H   0  0  0  0  0  0  0  0  0  0  0  0
  149.1841  141.9620  157.9298 H   0  0  0  0  0  0  0  0  0  0  0  0
  150.7538  143.5795  157.4593 H   0  0  0  0  0  0  0  0  0  0  0  0
  153.6991  144.0144  160.5666 H   0  0  0  0  0  0  0  0  0  0  0  0
  153.8695  141.5409  160.7581 H   0  0  0  0  0  0  0  0  0  0  0  0
  149.5565  137.5567  153.2489 H   0  0  0  0  0  0  0  0  0  0  0  0
  1  2  1  0  0  0  0
  1 25  1  0  0  0  0
  2  3  1  0  0  0  0
  2 26  1  0  0  0  0
  2 27  1  0  0  0  0
  3  4  1  0  0  0  0
  3 28  1  0  0  0  0
  3 29  1  0  0  0  0
  4  5  1  0  0  0  0
  4 30  1  0  0  0  0
  4 31  1  0  0  0  0
  5 13  1  0  0  0  0
  5  6  2  0  0  0  0
  6  7  1  0  0  0  0
  6 43  1  0  0  0  0
  7 12  2  0  0  0  0
  7  8  1  0  0  0  0
  8  9  2  0  0  0  0
  8 32  1  0  0  0  0
  9 10  1  0  0  0  0
  9 33  1  0  0  0  0
 10 11  2  0  0  0  0
 10 34  1  0  0  0  0
 11 12  1  0  0  0  0
 11 35  1  0  0  0  0
 12 13  1  0  0  0  0
 13 14  1  0  0  0  0
 14 15  1  0  0  0  0
 14 36  1  0  0  0  0
 14 37  1  0  0  0  0
 15 16  1  0  0  0  0
 15 17  1  0  0  0  0
 15 38  1  0  0  0  0
 16 39  1  0  0  0  0
 17 23  1  0  0  0  0
 17 18  2  0  0  0  0
 18 19  1  0  0  0  0
 18 40  1  0  0  0  0
 19 20  1  0  0  0  0
 19 21  2  0  0  0  0
 21 22  1  0  0  0  0
 21 41  1  0  0  0  0
 22 23  2  0  0  0  0
 22 42  1  0  0  0  0
 23 24  1  0  0  0  0
M  CHG  1   6   1
M  END
> <s_m_source_file>
AV-unprocessed.smi

> <i_m_source_file_index>
1567

> <i_lp_mmshare_version>
43012

> <i_f3d_flags>
0

> <s_epik_input>
W09IXVtDSDJdW0NIMl1bQ0gyXWMobjEpbihjKGMxMilbY0hdW2NIXVtjSF1bY0hdMilbQ0gyXVtDQEhdKFtPSF0pYzNbY0hdYyhGKVtjSF1bY0hdYzNG

> <s_epik_cmdline>
J2VwaWtfcHl0aG9uJywgJy1waCcsICc3LjAnLCAnLXRuJywgJzgnLCAnLW1hJywgJzIwMCcsICctbWV0YWxfYmluZGluZycsICctaW1hZScsICc8aW5maWxlLm1hZT4nLCAnLW9tYWUnLCAnPG91dGZpbGUubWFlPic=

> <r_epik_Ionization_Penalty>
0.786443

> <r_epik_Ionization_Penalty_Charging>
0.786439

> <r_epik_Ionization_Penalty_Neutral>
3.69699e-06

> <r_epik_State_Penalty>
0.816472

> <r_epik_Charging_Adjusted_Penalty>
1.60291

> <i_epik_Tot_Q>
1

> <i_epik_Tot_abs_Q>
1

> <r_epik_Metal_State_Penalty>
4.73733

> <b_epik_Metal_Only>
0

> <s_lp_Force_Field>
OPLS_2005

> <r_lp_Energy>
17.4114

> <b_lp_Chiralities_Consistent>
1

> <s_lp_Variant>
AV-unprocessed.smi:1567-3

> <Gold.Version>
5.8.1

> <Gold.Id.Protein>
6NUR|6NUR_protein|mol2

> <Gold.PLP.Fitness>
61.6258

> <Gold.PLP.PLP>
-54.2557

> <Gold.PLP.part.hbond>
-3.0000

> <Gold.PLP.part.metal>
0.0000

> <Gold.PLP.part.buried>
3.8026

> <Gold.PLP.part.nonpolar>
-55.1198

> <Gold.PLP.part.repulsive>
0.0618

> <Gold.PLP.ligand.clash>
0.0000

> <Gold.PLP.ligand.torsion>
0.4179

> <Gold.PLP.Chemscore.Hbond>
2.7040

> <Gold.PLP.Chemscore.CHOScore>
0.0000

> <Gold.PLP.Chemscore.Metal>
0.0000

> <Gold.Chemscore.Hbonds>
donor molecule, donor type, donor heavy atom, donor atom, acceptor molecule, acceptor atom, score
      L1  H     6    43       P1  7948  2.00
      P1  H  7997  8008       L1     1  0.70

> <Gold.PLP.Chemscore.Internal.Correction>
0.0940

> <Gold.Rescore>
     Score         DG    S(hbond)    S(metal)    S(lipo)     H(rot)  DE(clash)    DE(int)     intcor
     15.34     -18.58       1.44        0.00     143.25       3.31       2.74       0.50       ----

> <Gold.Chemscore.Fitness>
15.3362

> <Gold.Chemscore.DG>
-18.5800

> <Gold.Chemscore.ZeroCoef>
-5.4800

> <Gold.Chemscore.Hbond>
1.4431

> <Gold.Chemscore.Metal>
0.0000

> <Gold.Chemscore.Lipo>
143.2529

> <Gold.Chemscore.Internal_Hbond>
0.0000

> <Gold.Chemscore.DEClash>
2.7417

> <Gold.Chemscore.DEInternal>
0.5022

> <Gold.Chemscore.Rot>
3.3127

> <Gold.Chemscore.Internal.Correction>
   9.000000E+99

> <Gold.Chemscore.Hbonds>
donor molecule, donor type, donor heavy atom, donor atom, acceptor molecule, acceptor atom, score
      L1  H     6    43       P1  7948  0.83
      P1  H  7997  8008       L1     1  0.45

> <Gold.Chemscore.Hbond.Weighted>
-4.8199

> <Gold.Chemscore.Metal.Weighted>
-0.0000

> <Gold.Chemscore.Lipo.Weighted>
-16.7606

> <Gold.Chemscore.Internal_Hbond.Weighted>
0.0000

> <Gold.Chemscore.DEClash.Weighted>
2.7417

> <Gold.Chemscore.DEInternal.Weighted>
0.5022

> <Gold.Chemscore.Rot.Weighted>
8.4805

> <Gold.Chemscore.Internal.Correction.Weighted>
   9.000000E+99

> <Gold.Protein.RotatedTorsions>
[ 6907 6896 6895 6894 ] final  -39.42 input  -60.11 | X-H torsion
[ 7974 7965 7964 7962 ] final   63.74 input  175.53 | X-H torsion
[ 8008 7997 7996 7995 ] final   60.30 input   59.86 | X-H torsion
[ 10167 10162 10161 10158 ] final -143.08 input  -65.29 | X-H torsion
[ 10718 10713 10712 10709 ] final  -97.35 input   66.30 | X-H torsion
[ 10763 10752 10751 10750 ] final   64.41 input  -60.55 | X-H torsion
[ 11005 11000 10999 10996 ] final  119.76 input  -57.11 | X-H torsion

> <Gold.Protein.ActiveResidues>
 VAL166  LYS551  ARG553  GLY616  TRP617  ASP618  TYR619  PRO620  LYS621  CYS622 
 ASP623  PHE694  ASN695  SER759  ASP760  ASP761  ALA762  ILE779  LEU786  VAL792 
 PHE793  MET794  SER795  GLU796  ALA797  LYS798  CYS799  TRP800  GLU811  SER814 

> <Gold.Protein.RotatedAtoms>
  150.9905  134.9241  159.7896 H   0  0  0  0  0  0  0  0  0  0  0  0  # atno 6907 bound_to 6896
  152.5249  134.3288  159.9185 H   0  0  0  0  0  0  0  0  0  0  0  0  # atno 6908 bound_to 6896
  151.3294  133.3966  159.2695 H   0  0  0  0  0  0  0  0  0  0  0  0  # atno 6909 bound_to 6896
  145.8583  139.3298  143.0834 H   0  0  0  0  0  0  0  0  0  0  0  0  # atno 7974 bound_to 7965
  155.5801  140.3491  155.4538 H   0  0  0  0  0  0  0  0  0  0  0  0  # atno 8008 bound_to 7997
  156.0380  140.1289  157.0212 H   0  0  0  0  0  0  0  0  0  0  0  0  # atno 8009 bound_to 7997
  154.4379  140.1030  156.6181 H   0  0  0  0  0  0  0  0  0  0  0  0  # atno 8010 bound_to 7997
  139.8027  143.7811  152.2659 H   0  0  0  0  0  0  0  0  0  0  0  0  # atno 10167 bound_to 10162
  156.0082  130.5190  150.6361 H   0  0  0  0  0  0  0  0  0  0  0  0  # atno 10718 bound_to 10713
  153.0054  135.5394  154.6505 H   0  0  0  0  0  0  0  0  0  0  0  0  # atno 10763 bound_to 10752
  154.5738  135.2844  155.0803 H   0  0  0  0  0  0  0  0  0  0  0  0  # atno 10764 bound_to 10752
  154.1958  135.6492  153.5125 H   0  0  0  0  0  0  0  0  0  0  0  0  # atno 10765 bound_to 10752
  139.9159  134.9630  156.7704 H   0  0  0  0  0  0  0  0  0  0  0  0  # atno 11005 bound_to 11000
  145.9278  140.9070  143.0372 LP  0  0  0  0  0  0  0  0  0  0  0  0  # atno 17320 bound_to 7965
  144.6727  140.1376  143.7439 LP  0  0  0  0  0  0  0  0  0  0  0  0  # atno 17321 bound_to 7965
  139.7936  144.7401  150.9921 LP  0  0  0  0  0  0  0  0  0  0  0  0  # atno 17342 bound_to 10162
  140.7820  143.4417  151.0542 LP  0  0  0  0  0  0  0  0  0  0  0  0  # atno 17343 bound_to 10162
  157.4150  131.0829  151.1185 LP  0  0  0  0  0  0  0  0  0  0  0  0  # atno 17370 bound_to 10713
  157.1805  130.6307  149.5670 LP  0  0  0  0  0  0  0  0  0  0  0  0  # atno 17371 bound_to 10713
  140.6625  133.9632  155.7812 LP  0  0  0  0  0  0  0  0  0  0  0  0  # atno 17394 bound_to 11000
  141.0633  134.0313  157.3628 LP  0  0  0  0  0  0  0  0  0  0  0  0  # atno 17395 bound_to 11000

$$$$
