AV-unprocessed.smi:1706|AV-procd|sdf|6886|dock7
  -GOLD-   22720 8 93D 1   1.00000     0.00000
 Structure written by MMmdl.
 35 36  0  0  0  0  0  0  0  0  1 V2000
  144.8910  132.4886  151.2890 C   0  0  0  0  0  0  0  0  0  0  0  0
  145.9039  132.9529  152.2124 N   0  0  0  0  0  0  0  0  0  0  0  0
  147.2496  132.6574  152.2314 C   0  0  0  0  0  0  0  0  0  0  0  0
  147.7987  133.3143  153.2965 C   0  0  0  0  0  0  0  0  0  0  0  0
  149.2274  133.3071  153.7734 C   0  0  0  0  0  0  0  0  0  0  0  0
  149.4305  134.1851  155.0195 C   0  0  0  0  0  0  0  0  0  0  0  0
  149.7588  135.5569  154.6454 N   0  0  0  0  0  0  0  0  0  0  0  0
  150.8127  136.2609  155.0890 C   0  0  0  0  0  0  0  0  0  0  0  0
  151.6002  135.8104  155.9220 O   0  0  0  0  0  0  0  0  0  0  0  0
  150.9588  137.4791  154.5109 N   0  0  0  0  0  0  0  0  0  0  0  0
  149.8922  138.3200  153.9466 C   0  0  0  0  0  0  0  0  0  0  0  0
  149.7353  139.5653  154.8378 C   0  0  0  0  0  0  0  0  0  0  0  0
  150.9758  140.2639  154.9091 O   0  0  0  0  0  0  0  0  0  0  0  0
  152.0387  139.4655  155.4241 C   0  0  0  0  0  0  0  0  0  0  0  0
  152.2236  138.2186  154.5409 C   0  0  0  0  0  0  0  0  0  0  0  0
  146.6894  133.9992  153.8698 C   0  0  0  0  0  0  0  0  0  0  0  0
  145.5579  133.7802  153.2200 N   0  0  0  0  0  0  0  0  0  0  0  0
  145.3613  132.0338  150.4168 H   0  0  0  0  0  0  0  0  0  0  0  0
  144.2726  133.3250  150.9615 H   0  0  0  0  0  0  0  0  0  0  0  0
  144.2606  131.7468  151.7800 H   0  0  0  0  0  0  0  0  0  0  0  0
  147.6999  132.0031  151.4993 H   0  0  0  0  0  0  0  0  0  0  0  0
  149.5464  132.2895  154.0017 H   0  0  0  0  0  0  0  0  0  0  0  0
  149.8964  133.6520  152.9846 H   0  0  0  0  0  0  0  0  0  0  0  0
  148.5273  134.1883  155.6304 H   0  0  0  0  0  0  0  0  0  0  0  0
  150.2254  133.7556  155.6319 H   0  0  0  0  0  0  0  0  0  0  0  0
  149.1630  135.9921  153.9567 H   0  0  0  0  0  0  0  0  0  0  0  0
  150.1697  138.6183  152.9345 H   0  0  0  0  0  0  0  0  0  0  0  0
  148.9293  137.8181  153.8524 H   0  0  0  0  0  0  0  0  0  0  0  0
  148.9781  140.2320  154.4252 H   0  0  0  0  0  0  0  0  0  0  0  0
  149.4051  139.2873  155.8400 H   0  0  0  0  0  0  0  0  0  0  0  0
  152.9526  140.0594  155.4352 H   0  0  0  0  0  0  0  0  0  0  0  0
  151.8271  139.1830  156.4566 H   0  0  0  0  0  0  0  0  0  0  0  0
  153.0567  137.6204  154.9124 H   0  0  0  0  0  0  0  0  0  0  0  0
  152.4950  138.5128  153.5260 H   0  0  0  0  0  0  0  0  0  0  0  0
  146.6725  134.6395  154.7395 H   0  0  0  0  0  0  0  0  0  0  0  0
  1  2  1  0  0  0  0
  1 18  1  0  0  0  0
  1 19  1  0  0  0  0
  1 20  1  0  0  0  0
  2 17  1  0  0  0  0
  2  3  1  0  0  0  0
  3  4  2  0  0  0  0
  3 21  1  0  0  0  0
  4  5  1  0  0  0  0
  4 16  1  0  0  0  0
  5  6  1  0  0  0  0
  5 22  1  0  0  0  0
  5 23  1  0  0  0  0
  6  7  1  0  0  0  0
  6 24  1  0  0  0  0
  6 25  1  0  0  0  0
  7  8  1  0  0  0  0
  7 26  1  0  0  0  0
  8  9  2  0  0  0  0
  8 10  1  0  0  0  0
 10 15  1  0  0  0  0
 10 11  1  0  0  0  0
 11 12  1  0  0  0  0
 11 27  1  0  0  0  0
 11 28  1  0  0  0  0
 12 13  1  0  0  0  0
 12 29  1  0  0  0  0
 12 30  1  0  0  0  0
 13 14  1  0  0  0  0
 14 15  1  0  0  0  0
 14 31  1  0  0  0  0
 14 32  1  0  0  0  0
 15 33  1  0  0  0  0
 15 34  1  0  0  0  0
 16 17  2  0  0  0  0
 16 35  1  0  0  0  0
M  END
> <s_m_source_file>
AV-unprocessed.smi

> <i_m_source_file_index>
1706

> <i_lp_mmshare_version>
43012

> <i_f3d_flags>
0

> <s_epik_input>
W0NIM11uMVtjSF1jKFtjSF1uMSlbQ0gyXVtDSDJdW05IXUMoPU8pTjJbQ0gyXVtDSDJdT1tDSDJdW0NIMl0y

> <s_epik_cmdline>
J2VwaWtfcHl0aG9uJywgJy1waCcsICc3LjAnLCAnLXRuJywgJzgnLCAnLW1hJywgJzIwMCcsICctbWV0YWxfYmluZGluZycsICctaW1hZScsICc8aW5maWxlLm1hZT4nLCAnLW9tYWUnLCAnPG91dGZpbGUubWFlPic=

> <r_lp_tautomer_probability>
1

> <r_epik_Ionization_Penalty>
0.000534981

> <r_epik_Ionization_Penalty_Charging>
0

> <r_epik_Ionization_Penalty_Neutral>
0.000534981

> <r_epik_State_Penalty>
-0

> <r_epik_Charging_Adjusted_Penalty>
0

> <i_epik_Tot_Q>
0

> <i_epik_Tot_abs_Q>
0

> <r_epik_Metal_State_Penalty>
-0

> <b_epik_Metal_Only>
0

> <s_lp_Force_Field>
OPLS_2005

> <r_lp_Energy>
25.9186

> <b_lp_Chiralities_Consistent>
1

> <s_lp_Variant>
AV-unprocessed.smi:1706-1

> <Gold.Version>
5.8.1

> <Gold.Id.Protein>
6NUR|6NUR_protein|mol2

> <Gold.PLP.Fitness>
43.0799

> <Gold.PLP.PLP>
-32.6133

> <Gold.PLP.part.hbond>
-3.0000

> <Gold.PLP.part.metal>
0.0000

> <Gold.PLP.part.buried>
-1.3108

> <Gold.PLP.part.nonpolar>
-28.6708

> <Gold.PLP.part.repulsive>
0.2194

> <Gold.PLP.ligand.clash>
0.0000

> <Gold.PLP.ligand.torsion>
0.4314

> <Gold.PLP.Chemscore.Hbond>
2.7680

> <Gold.PLP.Chemscore.CHOScore>
1.0000

> <Gold.PLP.Chemscore.Metal>
0.0000

> <Gold.Chemscore.Hbonds>
donor molecule, donor type, donor heavy atom, donor atom, acceptor molecule, acceptor atom, score
      L1  H     7    26       P1  7948  0.66
      P1  H  7989  7998       L1    13  1.00
      P1  H 10752 10765       L1     9  1.00
      L1  C     3    21       P1 10747  1.00

> <Gold.PLP.Chemscore.Internal.Correction>
0.0254

> <Gold.Rescore>
     Score         DG    S(hbond)    S(metal)    S(lipo)     H(rot)  DE(clash)    DE(int)     intcor
     15.54     -16.64       2.16        0.00      65.31       1.44       0.53       0.57       ----

> <Gold.Chemscore.Fitness>
15.5443

> <Gold.Chemscore.DG>
-16.6428

> <Gold.Chemscore.ZeroCoef>
-5.4800

> <Gold.Chemscore.Hbond>
2.1559

> <Gold.Chemscore.Metal>
0.0000

> <Gold.Chemscore.Lipo>
65.3092

> <Gold.Chemscore.Internal_Hbond>
0.0000

> <Gold.Chemscore.DEClash>
0.5262

> <Gold.Chemscore.DEInternal>
0.5723

> <Gold.Chemscore.Rot>
1.4371

> <Gold.Chemscore.Internal.Correction>
   9.000000E+99

> <Gold.Chemscore.Hbonds>
donor molecule, donor type, donor heavy atom, donor atom, acceptor molecule, acceptor atom, score
      L1  H     7    26       P1  7948  0.59
      P1  H  7989  7998       L1    13  0.33
      P1  H 10752 10765       L1     9  0.50

> <Gold.Chemscore.Hbond.Weighted>
-7.2006

> <Gold.Chemscore.Metal.Weighted>
-0.0000

> <Gold.Chemscore.Lipo.Weighted>
-7.6412

> <Gold.Chemscore.Internal_Hbond.Weighted>
0.0000

> <Gold.Chemscore.DEClash.Weighted>
0.5262

> <Gold.Chemscore.DEInternal.Weighted>
0.5723

> <Gold.Chemscore.Rot.Weighted>
3.6790

> <Gold.Chemscore.Internal.Correction.Weighted>
   9.000000E+99

> <Gold.Protein.RotatedTorsions>
[ 6907 6896 6895 6894 ] final   66.36 input  -60.11 | X-H torsion
[ 7974 7965 7964 7962 ] final   34.86 input  175.53 | X-H torsion
[ 8008 7997 7996 7995 ] final  -59.10 input   59.86 | X-H torsion
[ 10167 10162 10161 10158 ] final  -84.48 input  -65.29 | X-H torsion
[ 10718 10713 10712 10709 ] final -105.37 input   66.30 | X-H torsion
[ 10763 10752 10751 10750 ] final -152.40 input  -60.55 | X-H torsion
[ 11005 11000 10999 10996 ] final   -5.02 input  -57.11 | X-H torsion

> <Gold.Protein.ActiveResidues>
 VAL166  LYS551  ARG553  GLY616  TRP617  ASP618  TYR619  PRO620  LYS621  CYS622 
 ASP623  PHE694  ASN695  SER759  ASP760  ASP761  ALA762  ILE779  LEU786  VAL792 
 PHE793  MET794  SER795  GLU796  ALA797  LYS798  CYS799  TRP800  GLU811  SER814 

> <Gold.Protein.RotatedAtoms>
  152.4475  134.5463  159.9853 H   0  0  0  0  0  0  0  0  0  0  0  0  # atno 6907 bound_to 6896
  151.5544  133.3406  159.2967 H   0  0  0  0  0  0  0  0  0  0  0  0  # atno 6908 bound_to 6896
  150.8395  134.7714  159.6984 H   0  0  0  0  0  0  0  0  0  0  0  0  # atno 6909 bound_to 6896
  146.1324  139.6216  142.9218 H   0  0  0  0  0  0  0  0  0  0  0  0  # atno 7974 bound_to 7965
  154.4337  140.1069  156.6061 H   0  0  0  0  0  0  0  0  0  0  0  0  # atno 8008 bound_to 7997
  155.5859  140.3491  155.4534 H   0  0  0  0  0  0  0  0  0  0  0  0  # atno 8009 bound_to 7997
  156.0283  140.1255  157.0274 H   0  0  0  0  0  0  0  0  0  0  0  0  # atno 8010 bound_to 7997
  140.4128  143.2615  151.8994 H   0  0  0  0  0  0  0  0  0  0  0  0  # atno 10167 bound_to 10162
  156.0343  130.5560  150.7530 H   0  0  0  0  0  0  0  0  0  0  0  0  # atno 10718 bound_to 10713
  154.7996  135.3237  154.7582 H   0  0  0  0  0  0  0  0  0  0  0  0  # atno 10763 bound_to 10752
  153.8252  135.6884  153.4826 H   0  0  0  0  0  0  0  0  0  0  0  0  # atno 10764 bound_to 10752
  153.1706  135.4624  154.9840 H   0  0  0  0  0  0  0  0  0  0  0  0  # atno 10765 bound_to 10752
  140.6866  133.9108  155.8590 H   0  0  0  0  0  0  0  0  0  0  0  0  # atno 11005 bound_to 11000
  145.5232  141.0431  143.2424 LP  0  0  0  0  0  0  0  0  0  0  0  0  # atno 17320 bound_to 7965
  144.7704  139.6748  143.7197 LP  0  0  0  0  0  0  0  0  0  0  0  0  # atno 17321 bound_to 7965
  139.4782  144.5519  151.8373 LP  0  0  0  0  0  0  0  0  0  0  0  0  # atno 17342 bound_to 10162
  140.4619  144.1710  150.5907 LP  0  0  0  0  0  0  0  0  0  0  0  0  # atno 17343 bound_to 10162
  157.5069  131.0923  151.0246 LP  0  0  0  0  0  0  0  0  0  0  0  0  # atno 17370 bound_to 10713
  157.0612  130.5826  149.5386 LP  0  0  0  0  0  0  0  0  0  0  0  0  # atno 17371 bound_to 10713
  141.0275  134.0802  157.4051 LP  0  0  0  0  0  0  0  0  0  0  0  0  # atno 17394 bound_to 11000
  139.8936  135.0131  156.6906 LP  0  0  0  0  0  0  0  0  0  0  0  0  # atno 17395 bound_to 11000

$$$$
