#       Name:                AV-unprocessed.smi:1007
#       Creating user name   scv26
#       Creation time:       Fri Mar 27 02:34:15 2020


#       File generated by GOLD software.
#

@<TRIPOS>MOLECULE
AV-unprocessed.smi:1007
    62    64     1
SMALL
NO_CHARGES


@<TRIPOS>ATOM
      1 ****        -4.8352   1.9372  -3.6287 C.3            1 S1                 0.0000
      2 ****        -5.2931   2.9434  -2.7390 O.3            1 S1                 0.0000
      3 ****        -4.3936   3.2294  -1.6778 C.3            1 S1                 0.0000
      4 ****        -4.4751   2.1616  -0.5704 C.3            1 S1                 0.0000
      5 ****        -3.7394   2.4894   0.6547 N.3            1 S1                 0.0000
      6 ****        -4.0382   1.5772   1.7580 C.3            1 S1                 0.0000
      7 ****        -3.4303   0.1714   1.5707 C.3            1 S1                 0.0000
      8 ****        -1.9590   0.2602   1.3811 N.4            1 S1                 1.0000
      9 ****        -1.3238  -1.0783   1.2656 C.3            1 S1                 0.0000
     10 ****         0.1878  -1.0560   1.5692 C.3            1 S1                 0.0000
     11 ****         0.3841  -0.6700   2.9163 O.3            1 S1                 0.0000
     12 ****         0.8422  -2.4328   1.3393 C.3            1 S1                 0.0000
     13 ****         2.2919  -2.4176   1.5763 N.pl3          1 S1                 0.0000
     14 ****         3.0080  -2.8120   2.6646 C.2            1 S1                 0.0000
     15 ****         4.3236  -2.5853   2.3944 N.pl3          1 S1                 1.0000
     16 ****         4.4498  -2.0418   1.1140 C.ar           1 S1                 0.0000
     17 ****         5.5733  -1.6441   0.3990 C.ar           1 S1                 0.0000
     18 ****         5.3621  -1.1256  -0.8987 C.ar           1 S1                 0.0000
     19 ****         6.5689  -0.6787  -1.7064 C.3            1 S1                 0.0000
     20 ****         4.0541  -1.0211  -1.4395 C.ar           1 S1                 0.0000
     21 ****         3.8393  -0.4649  -2.8370 C.3            1 S1                 0.0000
     22 ****         2.9239  -1.4286  -0.6952 C.ar           1 S1                 0.0000
     23 ****         3.1502  -1.9358   0.5820 C.ar           1 S1                 0.0000
     24 ****        -1.6308   1.1812   0.2595 C.3            1 S1                 0.0000
     25 ****        -2.2857   2.5583   0.4896 C.3            1 S1                 0.0000
     26 ****        -5.5626   1.8021  -4.4291 H              1 S1                 0.0000
     27 ****        -4.7126   0.9770  -3.1283 H              1 S1                 0.0000
     28 ****        -3.8855   2.2177  -4.0862 H              1 S1                 0.0000
     29 ****        -3.3803   3.3431  -2.0639 H              1 S1                 0.0000
     30 ****        -4.6788   4.1962  -1.2621 H              1 S1                 0.0000
     31 ****        -5.5289   2.0384  -0.3175 H              1 S1                 0.0000
     32 ****        -4.1512   1.1983  -0.9605 H              1 S1                 0.0000
     33 ****        -3.6551   2.0056   2.6853 H              1 S1                 0.0000
     34 ****        -5.1177   1.4995   1.8927 H              1 S1                 0.0000
     35 ****        -3.6475  -0.4309   2.4536 H              1 S1                 0.0000
     36 ****        -3.8855  -0.3410   0.7221 H              1 S1                 0.0000
     37 ****        -1.8061  -1.7712   1.9569 H              1 S1                 0.0000
     38 ****        -1.5049  -1.4728   0.2644 H              1 S1                 0.0000
     39 ****         0.6889  -0.3273   0.9339 H              1 S1                 0.0000
     40 ****         0.0107  -1.3311   3.4797 H              1 S1                 0.0000
     41 ****         0.4074  -3.1793   2.0056 H              1 S1                 0.0000
     42 ****         0.6653  -2.7858   0.3225 H              1 S1                 0.0000
     43 ****         2.6071  -3.2244   3.5793 H              1 S1                 0.0000
     44 ****         6.5662  -1.7268   0.8166 H              1 S1                 0.0000
     45 ****         6.4969   0.3824  -1.9458 H              1 S1                 0.0000
     46 ****         6.6370  -1.2411  -2.6378 H              1 S1                 0.0000
     47 ****         7.4974  -0.8337  -1.1560 H              1 S1                 0.0000
     48 ****         2.7834  -0.4666  -3.1097 H              1 S1                 0.0000
     49 ****         4.3734  -1.0641  -3.5750 H              1 S1                 0.0000
     50 ****         4.1978   0.5628  -2.8992 H              1 S1                 0.0000
     51 ****         1.9289  -1.3481  -1.1064 H              1 S1                 0.0000
     52 ****        -0.5534   1.3204   0.1857 H              1 S1                 0.0000
     53 ****        -1.9539   0.7490  -0.6883 H              1 S1                 0.0000
     54 ****        -2.0244   3.2360  -0.3222 H              1 S1                 0.0000
     55 ****        -1.8517   3.0038   1.3858 H              1 S1                 0.0000
     56 ****        -1.5924   0.6810   2.2234 H              1 S1                 0.0000
     57 ****         5.0777  -2.7870   3.0387 H              1 S1                 0.0000
     58 ****        -6.1606   2.6421  -2.3432 LP             1 S1                 0.0000
     59 ****        -5.4392   3.7830  -3.2622 LP             1 S1                 0.0000
     60 ****        -4.0679   3.4074   0.8771 LP             1 S1                 0.0000
     61 ****        -0.0656   0.2074   3.0836 LP             1 S1                 0.0000
     62 ****         1.3629  -0.5836   3.1021 LP             1 S1                 0.0000
@<TRIPOS>BOND
    1    1    2 1     
    2    1   26 1     
    3    1   27 1     
    4    1   28 1     
    5    2    3 1     
    6    3    4 1     
    7    3   29 1     
    8    3   30 1     
    9    4    5 1     
   10    4   31 1     
   11    4   32 1     
   12    5   25 1     
   13    5    6 1     
   14    6    7 1     
   15    6   33 1     
   16    6   34 1     
   17    7    8 1     
   18    7   35 1     
   19    7   36 1     
   20    8    9 1     
   21    8   24 1     
   22    8   56 1     
   23    9   10 1     
   24    9   37 1     
   25    9   38 1     
   26   10   11 1     
   27   10   12 1     
   28   10   39 1     
   29   11   40 1     
   30   12   13 1     
   31   12   41 1     
   32   12   42 1     
   33   13   23 1     
   34   13   14 1     
   35   14   15 2     
   36   14   43 1     
   37   15   16 1     
   38   15   57 1     
   39   16   23 ar    
   40   16   17 ar    
   41   17   18 ar    
   42   17   44 1     
   43   18   19 1     
   44   18   20 ar    
   45   19   45 1     
   46   19   46 1     
   47   19   47 1     
   48   20   21 1     
   49   20   22 ar    
   50   21   48 1     
   51   21   49 1     
   52   21   50 1     
   53   22   23 ar    
   54   22   51 1     
   55   24   25 1     
   56   24   52 1     
   57   24   53 1     
   58   25   54 1     
   59   25   55 1     
   60    2   58 1     
   61    2   59 1     
   62    5   60 1     
   63   11   61 1     
   64   11   62 1     
@<TRIPOS>SUBSTRUCTURE
      1 S1             1
@<TRIPOS>SET
LONE_PAIRS      STATIC     ATOMS    <user>   **** ""
5 58 59 60 61 62
DONOR_HYDROGENS      STATIC     ATOMS    <user>   **** ""
3 56 40 57
ATOM$BLUE        STATIC     ATOMS    COLORGROUP SYSTEM
5 58 59 60 61 62
ATOM$RED        STATIC     ATOMS    COLORGROUP SYSTEM
3 56 40 57
