#       Name:                AV-unprocessed.smi:3249
#       Creating user name   scv26
#       Creation time:       Fri Mar 27 18:30:58 2020


#       File generated by GOLD software.
#

@<TRIPOS>MOLECULE
AV-unprocessed.smi:3249
    47    48     1
SMALL
NO_CHARGES


@<TRIPOS>ATOM
      1 ****        -2.8884   0.6118  -3.9848 C.3            1 S1                 0.0000
      2 ****        -2.7918   0.6504  -2.4870 C.2            1 S1                 0.0000
      3 ****        -3.2351  -0.3309  -1.5560 C.2            1 S1                 0.0000
      4 ****        -2.9890   0.0048  -0.3003 N.2            1 S1                 0.0000
      5 ****        -2.3981   1.2166  -0.3800 N.pl3          1 S1                 0.0000
      6 ****        -1.9530   1.8835   0.8390 C.3            1 S1                 0.0000
      7 ****        -2.5090   3.3194   0.8797 C.3            1 S1                 0.0000
      8 ****        -0.4090   1.8120   0.9686 C.3            1 S1                 0.0000
      9 ****         0.1075   2.4471   2.2734 C.3            1 S1                 0.0000
     10 ****         0.0351   0.4004   0.8866 N.4            1 S1                 1.0000
     11 ****         1.4222   0.1962   0.4201 C.3            1 S1                 0.0000
     12 ****         1.7316  -1.2994   0.2699 C.3            1 S1                 0.0000
     13 ****         3.1042  -1.5399  -0.3880 C.3            1 S1                 0.0000
     14 ****         3.4204  -3.0389  -0.4423 C.3            1 S1                 0.0000
     15 ****         3.2801  -3.6476   0.9567 C.3            1 S1                 0.0000
     16 ****         1.9097  -3.2969   1.5574 C.3            1 S1                 0.0000
     17 ****         1.7327  -1.8833   1.5711 O.3            1 S1                 0.0000
     18 ****        -2.2585   1.6246  -1.6918 C.2            1 S1                 0.0000
     19 ****        -3.5094  -0.2151  -4.3300 H              1 S1                 0.0000
     20 ****        -1.9086   0.4924  -4.4475 H              1 S1                 0.0000
     21 ****        -3.3242   1.5278  -4.3838 H              1 S1                 0.0000
     22 ****        -3.7196  -1.2756  -1.7550 H              1 S1                 0.0000
     23 ****        -2.3899   1.3479   1.6844 H              1 S1                 0.0000
     24 ****        -2.3483   3.7863   1.8510 H              1 S1                 0.0000
     25 ****        -3.5848   3.3256   0.7008 H              1 S1                 0.0000
     26 ****        -2.0432   3.9522   0.1238 H              1 S1                 0.0000
     27 ****         0.0219   2.3545   0.1252 H              1 S1                 0.0000
     28 ****        -0.1242   3.5105   2.3228 H              1 S1                 0.0000
     29 ****         1.1905   2.3626   2.3607 H              1 S1                 0.0000
     30 ****        -0.3332   1.9686   3.1485 H              1 S1                 0.0000
     31 ****        -0.0839  -0.0373   1.7893 H              1 S1                 0.0000
     32 ****         1.5411   0.6902  -0.5452 H              1 S1                 0.0000
     33 ****         2.1281   0.6607   1.1089 H              1 S1                 0.0000
     34 ****         0.9529  -1.7648  -0.3376 H              1 S1                 0.0000
     35 ****         3.1221  -1.1199  -1.3943 H              1 S1                 0.0000
     36 ****         3.8801  -1.0240   0.1795 H              1 S1                 0.0000
     37 ****         2.7341  -3.5350  -1.1298 H              1 S1                 0.0000
     38 ****         4.4262  -3.2029  -0.8300 H              1 S1                 0.0000
     39 ****         3.4087  -4.7295   0.9131 H              1 S1                 0.0000
     40 ****         4.0696  -3.2642   1.6043 H              1 S1                 0.0000
     41 ****         1.1043  -3.7698   0.9933 H              1 S1                 0.0000
     42 ****         1.8431  -3.6696   2.5796 H              1 S1                 0.0000
     43 ****        -1.7922   2.5640  -1.9503 H              1 S1                 0.0000
     44 ****        -0.5718  -0.0666   0.2271 H              1 S1                 0.0000
     45 ****        -3.1948  -0.5217   0.5246 LP             1 S1                 0.0000
     46 ****         0.8587  -1.6776   2.0114 LP             1 S1                 0.0000
     47 ****         2.4767  -1.4759   2.1006 LP             1 S1                 0.0000
@<TRIPOS>BOND
    1    1    2 1     
    2    1   19 1     
    3    1   20 1     
    4    1   21 1     
    5    2   18 2     
    6    2    3 1     
    7    3    4 2     
    8    3   22 1     
    9    4    5 1     
   10    5    6 1     
   11    5   18 1     
   12    6    7 1     
   13    6    8 1     
   14    6   23 1     
   15    7   24 1     
   16    7   25 1     
   17    7   26 1     
   18    8    9 1     
   19    8   10 1     
   20    8   27 1     
   21    9   28 1     
   22    9   29 1     
   23    9   30 1     
   24   10   11 1     
   25   10   31 1     
   26   10   44 1     
   27   11   12 1     
   28   11   32 1     
   29   11   33 1     
   30   12   17 1     
   31   12   13 1     
   32   12   34 1     
   33   13   14 1     
   34   13   35 1     
   35   13   36 1     
   36   14   15 1     
   37   14   37 1     
   38   14   38 1     
   39   15   16 1     
   40   15   39 1     
   41   15   40 1     
   42   16   17 1     
   43   16   41 1     
   44   16   42 1     
   45   18   43 1     
   46    4   45 1     
   47   17   46 1     
   48   17   47 1     
@<TRIPOS>SUBSTRUCTURE
      1 S1             1
@<TRIPOS>SET
LONE_PAIRS      STATIC     ATOMS    <user>   **** ""
3 45 46 47
DONOR_HYDROGENS      STATIC     ATOMS    <user>   **** ""
2 31 44
ATOM$BLUE        STATIC     ATOMS    COLORGROUP SYSTEM
3 45 46 47
ATOM$RED        STATIC     ATOMS    COLORGROUP SYSTEM
2 31 44
