AV-unprocessed.smi:2410|AV-procd|sdf|9527|dock8
  -GOLD-   2272013163D 1   1.00000     0.00000
 Structure written by MMmdl.
 46 48  0  0  0  0  0  0  0  0  1 V2000
  153.4014  142.3973  160.4500 C   0  0  0  0  0  0  0  0  0  0  0  0
  152.5724  142.1146  159.2096 C   0  0  0  0  0  0  0  0  0  0  0  0
  152.4078  140.7772  158.7834 C   0  0  0  0  0  0  0  0  0  0  0  0
  151.6471  140.4719  157.6334 C   0  0  0  0  0  0  0  0  0  0  0  0
  151.3590  139.2534  157.0423 N   0  0  0  0  0  0  0  0  0  0  0  0
  150.6127  139.6278  156.0067 C   0  0  0  0  0  0  0  0  0  0  0  0
  150.3838  140.9467  155.8573 N   0  0  0  0  0  0  0  0  0  0  0  0
  149.6060  141.5954  154.8178 C   0  0  0  0  0  0  0  0  0  0  0  0
  148.1191  141.1940  154.8644 C   0  0  1  0  0  0  0  0  0  0  0  0
  147.4564  142.0475  155.7776 O   0  0  0  0  0  0  0  0  0  0  0  0
  147.4457  141.3240  153.4810 C   0  0  0  0  0  0  0  0  0  0  0  0
  146.9217  140.0356  152.9986 N   0  0  0  0  0  0  0  0  0  0  0  0
  147.1999  139.7119  151.6609 C   0  0  0  0  0  0  0  0  0  0  0  0
  146.7992  138.6015  151.1335 N   0  0  0  0  0  0  0  0  0  0  0  0
  146.0620  137.6923  151.8977 C   0  0  0  0  0  0  0  0  0  0  0  0
  145.6472  136.4188  151.1823 C   0  0  0  0  0  0  0  0  0  0  0  0
  145.7454  137.9532  153.1956 C   0  0  0  0  0  0  0  0  0  0  0  0
  144.9396  137.0048  154.0746 C   0  0  0  0  0  0  0  0  0  0  0  0
  146.1931  139.2141  153.8090 C   0  0  0  0  0  0  0  0  0  0  0  0
  145.9344  139.5201  154.9750 O   0  0  0  0  0  0  0  0  0  0  0  0
  151.0503  141.5500  156.9173 C   0  0  0  0  0  0  0  0  0  0  0  0
  151.2052  142.8846  157.3319 C   0  0  0  0  0  0  0  0  0  0  0  0
  151.9702  143.1722  158.4815 C   0  0  0  0  0  0  0  0  0  0  0  0
  152.1358  144.6170  158.9184 C   0  0  0  0  0  0  0  0  0  0  0  0
  153.7472  141.4747  160.9169 H   0  0  0  0  0  0  0  0  0  0  0  0
  152.8134  142.9435  161.1879 H   0  0  0  0  0  0  0  0  0  0  0  0
  154.2780  142.9932  160.1948 H   0  0  0  0  0  0  0  0  0  0  0  0
  152.8670  139.9716  159.3371 H   0  0  0  0  0  0  0  0  0  0  0  0
  150.2103  138.9015  155.3158 H   0  0  0  0  0  0  0  0  0  0  0  0
  149.7189  142.6766  154.9108 H   0  0  0  0  0  0  0  0  0  0  0  0
  150.0401  141.3172  153.8567 H   0  0  0  0  0  0  0  0  0  0  0  0
  148.0423  140.1689  155.2288 H   0  0  0  0  0  0  0  0  0  0  0  0
  147.7749  142.9283  155.6525 H   0  0  0  0  0  0  0  0  0  0  0  0
  146.6826  142.1051  153.4957 H   0  0  0  0  0  0  0  0  0  0  0  0
  148.1763  141.6822  152.7533 H   0  0  0  0  0  0  0  0  0  0  0  0
  147.7699  140.4586  151.1051 H   0  0  0  0  0  0  0  0  0  0  0  0
  146.0579  135.5448  151.6885 H   0  0  0  0  0  0  0  0  0  0  0  0
  146.0064  136.4066  150.1524 H   0  0  0  0  0  0  0  0  0  0  0  0
  144.5606  136.3306  151.1577 H   0  0  0  0  0  0  0  0  0  0  0  0
  144.0268  137.4937  154.4165 H   0  0  0  0  0  0  0  0  0  0  0  0
  145.5205  136.7208  154.9527 H   0  0  0  0  0  0  0  0  0  0  0  0
  144.6488  136.0884  153.5640 H   0  0  0  0  0  0  0  0  0  0  0  0
  150.7416  143.6798  156.7666 H   0  0  0  0  0  0  0  0  0  0  0  0
  151.6267  145.2996  158.2375 H   0  0  0  0  0  0  0  0  0  0  0  0
  153.1907  144.8915  158.9398 H   0  0  0  0  0  0  0  0  0  0  0  0
  151.7180  144.7653  159.9143 H   0  0  0  0  0  0  0  0  0  0  0  0
  1  2  1  0  0  0  0
  1 25  1  0  0  0  0
  1 26  1  0  0  0  0
  1 27  1  0  0  0  0
  2 23  1  0  0  0  0
  2  3  2  0  0  0  0
  3  4  1  0  0  0  0
  3 28  1  0  0  0  0
  4 21  2  0  0  0  0
  4  5  1  0  0  0  0
  5  6  2  0  0  0  0
  6  7  1  0  0  0  0
  6 29  1  0  0  0  0
  7  8  1  0  0  0  0
  7 21  1  0  0  0  0
  8  9  1  0  0  0  0
  8 30  1  0  0  0  0
  8 31  1  0  0  0  0
  9 10  1  0  0  0  0
  9 11  1  0  0  0  0
  9 32  1  0  0  0  0
 10 33  1  0  0  0  0
 11 12  1  0  0  0  0
 11 34  1  0  0  0  0
 11 35  1  0  0  0  0
 12 19  1  0  0  0  0
 12 13  1  0  0  0  0
 13 14  2  0  0  0  0
 13 36  1  0  0  0  0
 14 15  1  0  0  0  0
 15 16  1  0  0  0  0
 15 17  2  0  0  0  0
 16 37  1  0  0  0  0
 16 38  1  0  0  0  0
 16 39  1  0  0  0  0
 17 18  1  0  0  0  0
 17 19  1  0  0  0  0
 18 40  1  0  0  0  0
 18 41  1  0  0  0  0
 18 42  1  0  0  0  0
 19 20  2  0  0  0  0
 21 22  1  0  0  0  0
 22 23  2  0  0  0  0
 22 43  1  0  0  0  0
 23 24  1  0  0  0  0
 24 44  1  0  0  0  0
 24 45  1  0  0  0  0
 24 46  1  0  0  0  0
M  END
> <s_m_source_file>
AV-unprocessed.smi

> <i_m_source_file_index>
2410

> <i_lp_mmshare_version>
43012

> <i_f3d_flags>
0

> <s_epik_input>
W0NIM11jKFtjSF0xKWMoW0NIM10pW2NIXWMoYzEyKW4oW2NIXW4yKVtDSDJdW0NASF0oW09IXSlbQ0gyXW4zW2NIXW5jKFtDSDNdKWMoW0NIM10pYzM9Tw==

> <s_epik_cmdline>
J2VwaWtfcHl0aG9uJywgJy1waCcsICc3LjAnLCAnLXRuJywgJzgnLCAnLW1hJywgJzIwMCcsICctbWV0YWxfYmluZGluZycsICctaW1hZScsICc8aW5maWxlLm1hZT4nLCAnLW9tYWUnLCAnPG91dGZpbGUubWFlPic=

> <r_lp_tautomer_probability>
1

> <r_epik_Ionization_Penalty>
0.113377

> <r_epik_Ionization_Penalty_Charging>
7.56033e-08

> <r_epik_Ionization_Penalty_Neutral>
0.113377

> <r_epik_State_Penalty>
0.103025

> <r_epik_Charging_Adjusted_Penalty>
0.103025

> <i_epik_Tot_Q>
0

> <i_epik_Tot_abs_Q>
0

> <r_epik_Metal_State_Penalty>
0.0863476

> <b_epik_Metal_Only>
0

> <s_lp_Force_Field>
OPLS_2005

> <r_lp_Energy>
18.3765

> <b_lp_Chiralities_Consistent>
1

> <s_lp_Variant>
AV-unprocessed.smi:2410-2

> <Gold.Version>
5.8.1

> <Gold.Id.Protein>
6NUR|6NUR_protein|mol2

> <Gold.PLP.Fitness>
49.9745

> <Gold.PLP.PLP>
-45.4930

> <Gold.PLP.part.hbond>
-2.0000

> <Gold.PLP.part.metal>
0.0000

> <Gold.PLP.part.buried>
0.6122

> <Gold.PLP.part.nonpolar>
-45.9500

> <Gold.PLP.part.repulsive>
0.4604

> <Gold.PLP.ligand.clash>
0.0000

> <Gold.PLP.ligand.torsion>
1.2339

> <Gold.PLP.Chemscore.Hbond>
1.9913

> <Gold.PLP.Chemscore.CHOScore>
0.3205

> <Gold.PLP.Chemscore.Metal>
0.0000

> <Gold.Chemscore.Hbonds>
donor molecule, donor type, donor heavy atom, donor atom, acceptor molecule, acceptor atom, score
      L1  H    10    33       P1  8028  0.88
      P1  H  7954  7966       L1    14  1.00
      L1  C    13    36       P1  7957  0.31

> <Gold.PLP.Chemscore.Internal.Correction>
0.0140

> <Gold.Rescore>
     Score         DG    S(hbond)    S(metal)    S(lipo)     H(rot)  DE(clash)    DE(int)     intcor
     14.08     -18.78       1.49        0.00     122.44       2.35       2.12       2.58       ----

> <Gold.Chemscore.Fitness>
14.0842

> <Gold.Chemscore.DG>
-18.7818

> <Gold.Chemscore.ZeroCoef>
-5.4800

> <Gold.Chemscore.Hbond>
1.4932

> <Gold.Chemscore.Metal>
0.0000

> <Gold.Chemscore.Lipo>
122.4364

> <Gold.Chemscore.Internal_Hbond>
0.0000

> <Gold.Chemscore.DEClash>
2.1194

> <Gold.Chemscore.DEInternal>
2.5783

> <Gold.Chemscore.Rot>
2.3479

> <Gold.Chemscore.Internal.Correction>
   9.000000E+99

> <Gold.Chemscore.Hbonds>
donor molecule, donor type, donor heavy atom, donor atom, acceptor molecule, acceptor atom, score
      L1  H    10    33       P1  8028  0.47
      P1  H  7954  7966       L1    14  0.71

> <Gold.Chemscore.Hbond.Weighted>
-4.9874

> <Gold.Chemscore.Metal.Weighted>
-0.0000

> <Gold.Chemscore.Lipo.Weighted>
-14.3251

> <Gold.Chemscore.Internal_Hbond.Weighted>
0.0000

> <Gold.Chemscore.DEClash.Weighted>
2.1194

> <Gold.Chemscore.DEInternal.Weighted>
2.5783

> <Gold.Chemscore.Rot.Weighted>
6.0106

> <Gold.Chemscore.Internal.Correction.Weighted>
   9.000000E+99

> <Gold.Protein.RotatedTorsions>
[ 6907 6896 6895 6894 ] final -171.42 input  -60.11 | X-H torsion
[ 7974 7965 7964 7962 ] final  139.68 input  175.53 | X-H torsion
[ 8008 7997 7996 7995 ] final   32.66 input   59.86 | X-H torsion
[ 10167 10162 10161 10158 ] final  -93.39 input  -65.29 | X-H torsion
[ 10718 10713 10712 10709 ] final -134.89 input   66.30 | X-H torsion
[ 10763 10752 10751 10750 ] final  146.55 input  -60.55 | X-H torsion
[ 11005 11000 10999 10996 ] final -108.53 input  -57.11 | X-H torsion

> <Gold.Protein.ActiveResidues>
 VAL166  LYS551  ARG553  GLY616  TRP617  ASP618  TYR619  PRO620  LYS621  CYS622 
 ASP623  PHE694  ASN695  SER759  ASP760  ASP761  ALA762  ILE779  LEU786  VAL792 
 PHE793  MET794  SER795  GLU796  ALA797  LYS798  CYS799  TRP800  GLU811  SER814 

> <Gold.Protein.RotatedAtoms>
  151.5235  133.3462  159.2905 H   0  0  0  0  0  0  0  0  0  0  0  0  # atno 6907 bound_to 6896
  150.8637  134.7998  159.7113 H   0  0  0  0  0  0  0  0  0  0  0  0  # atno 6908 bound_to 6896
  152.4649  134.5109  159.9805 H   0  0  0  0  0  0  0  0  0  0  0  0  # atno 6909 bound_to 6896
  144.9256  139.5112  143.5642 H   0  0  0  0  0  0  0  0  0  0  0  0  # atno 7974 bound_to 7965
  155.1261  140.3253  155.4485 H   0  0  0  0  0  0  0  0  0  0  0  0  # atno 8008 bound_to 7997
  156.2648  140.2018  156.6330 H   0  0  0  0  0  0  0  0  0  0  0  0  # atno 8009 bound_to 7997
  154.6647  140.0543  157.0088 H   0  0  0  0  0  0  0  0  0  0  0  0  # atno 8010 bound_to 7997
  140.3252  143.3026  152.0003 H   0  0  0  0  0  0  0  0  0  0  0  0  # atno 10167 bound_to 10162
  156.2603  130.7206  151.1137 H   0  0  0  0  0  0  0  0  0  0  0  0  # atno 10718 bound_to 10713
  154.0237  135.2904  155.3377 H   0  0  0  0  0  0  0  0  0  0  0  0  # atno 10763 bound_to 10752
  154.7030  135.5180  153.8558 H   0  0  0  0  0  0  0  0  0  0  0  0  # atno 10764 bound_to 10752
  153.0670  135.6634  154.0456 H   0  0  0  0  0  0  0  0  0  0  0  0  # atno 10765 bound_to 10752
  141.0896  133.9078  157.2105 H   0  0  0  0  0  0  0  0  0  0  0  0  # atno 11005 bound_to 11000
  146.3224  139.8168  142.8934 LP  0  0  0  0  0  0  0  0  0  0  0  0  # atno 17320 bound_to 7965
  145.3225  141.0247  143.3492 LP  0  0  0  0  0  0  0  0  0  0  0  0  # atno 17321 bound_to 7965
  139.4866  144.6279  151.7127 LP  0  0  0  0  0  0  0  0  0  0  0  0  # atno 17342 bound_to 10162
  140.5448  144.0522  150.6102 LP  0  0  0  0  0  0  0  0  0  0  0  0  # atno 17343 bound_to 10162
  157.7248  131.0657  150.5980 LP  0  0  0  0  0  0  0  0  0  0  0  0  # atno 17370 bound_to 10713
  156.6067  130.4369  149.5875 LP  0  0  0  0  0  0  0  0  0  0  0  0  # atno 17371 bound_to 10713
  139.9720  135.0125  156.9536 LP  0  0  0  0  0  0  0  0  0  0  0  0  # atno 17394 bound_to 11000
  140.5282  134.0839  155.7309 LP  0  0  0  0  0  0  0  0  0  0  0  0  # atno 17395 bound_to 11000

$$$$
