AV-unprocessed.smi:2526|AV-procd|sdf|9938|dock6
  -GOLD-   2272013583D 1   1.00000     0.00000
 Structure written by MMmdl.
 28 29  0  0  0  0  0  0  0  0  1 V2000
  151.9180  145.6038  159.4137 C   0  0  0  0  0  0  0  0  0  0  0  0
  151.8303  144.1785  159.1784 N   0  0  0  0  0  0  0  0  0  0  0  0
  151.1953  143.5151  158.1512 C   0  0  0  0  0  0  0  0  0  0  0  0
  151.3891  142.1750  158.3406 C   0  0  0  0  0  0  0  0  0  0  0  0
  150.9027  141.0265  157.4878 C   0  0  2  0  0  0  0  0  0  0  0  0
  152.0278  140.1921  157.0545 N   0  0  0  0  0  0  0  0  0  0  0  0
  152.1852  139.5957  155.8590 C   0  0  0  0  0  0  0  0  0  0  0  0
  153.1512  138.8732  155.6251 O   0  0  0  0  0  0  0  0  0  0  0  0
  151.1502  139.8514  154.7543 C   0  0  0  0  0  0  0  0  0  0  0  0
  149.8186  140.4011  155.2862 C   0  0  0  0  0  0  0  0  0  0  0  0
  150.0657  141.5338  156.2891 C   0  0  1  0  0  0  0  0  0  0  0  0
  148.7950  142.0786  156.7327 N   0  0  0  0  0  0  0  0  0  0  0  0
  152.1712  142.1265  159.5321 C   0  0  0  0  0  0  0  0  0  0  0  0
  152.4322  143.3238  160.0298 N   0  0  0  0  0  0  0  0  0  0  0  0
  151.1233  146.1197  158.8742 H   0  0  0  0  0  0  0  0  0  0  0  0
  152.8827  145.9728  159.0652 H   0  0  0  0  0  0  0  0  0  0  0  0
  151.8161  145.8161  160.4787 H   0  0  0  0  0  0  0  0  0  0  0  0
  150.6648  144.0456  157.3740 H   0  0  0  0  0  0  0  0  0  0  0  0
  150.2737  140.3665  158.0877 H   0  0  0  0  0  0  0  0  0  0  0  0
  152.7420  140.0200  157.7473 H   0  0  0  0  0  0  0  0  0  0  0  0
  151.5854  140.5655  154.0543 H   0  0  0  0  0  0  0  0  0  0  0  0
  150.9784  138.9309  154.1951 H   0  0  0  0  0  0  0  0  0  0  0  0
  149.2147  140.7584  154.4511 H   0  0  0  0  0  0  0  0  0  0  0  0
  149.2515  139.5971  155.7583 H   0  0  0  0  0  0  0  0  0  0  0  0
  150.6110  142.3310  155.7812 H   0  0  0  0  0  0  0  0  0  0  0  0
  148.8136  143.0853  156.6548 H   0  0  0  0  0  0  0  0  0  0  0  0
  148.0578  141.7583  156.1212 H   0  0  0  0  0  0  0  0  0  0  0  0
  152.5574  141.2586  160.0462 H   0  0  0  0  0  0  0  0  0  0  0  0
  1  2  1  0  0  0  0
  1 15  1  0  0  0  0
  1 16  1  0  0  0  0
  1 17  1  0  0  0  0
  2 14  1  0  0  0  0
  2  3  1  0  0  0  0
  3  4  2  0  0  0  0
  3 18  1  0  0  0  0
  4  5  1  0  0  0  0
  4 13  1  0  0  0  0
  5 11  1  0  0  0  0
  5  6  1  0  0  0  0
  5 19  1  0  0  0  0
  6  7  1  0  0  0  0
  6 20  1  0  0  0  0
  7  8  2  0  0  0  0
  7  9  1  0  0  0  0
  9 10  1  0  0  0  0
  9 21  1  0  0  0  0
  9 22  1  0  0  0  0
 10 11  1  0  0  0  0
 10 23  1  0  0  0  0
 10 24  1  0  0  0  0
 11 12  1  0  0  0  0
 11 25  1  0  0  0  0
 12 26  1  0  0  0  0
 12 27  1  0  0  0  0
 13 14  2  0  0  0  0
 13 28  1  0  0  0  0
M  END
> <s_m_source_file>
AV-unprocessed.smi

> <i_m_source_file_index>
2526

> <i_lp_mmshare_version>
43012

> <i_f3d_flags>
0

> <s_epik_input>
W0NIM11uMVtjSF1jKFtjSF1uMSlbQ0BASF0yW05IXUMoPU8pW0NIMl1bQ0gyXVtDQEhdMltOSDJd

> <s_epik_cmdline>
J2VwaWtfcHl0aG9uJywgJy1waCcsICc3LjAnLCAnLXRuJywgJzgnLCAnLW1hJywgJzIwMCcsICctbWV0YWxfYmluZGluZycsICctaW1hZScsICc8aW5maWxlLm1hZT4nLCAnLW9tYWUnLCAnPG91dGZpbGUubWFlPic=

> <r_lp_tautomer_probability>
1

> <r_epik_Ionization_Penalty>
2.50279

> <r_epik_Ionization_Penalty_Charging>
0

> <r_epik_Ionization_Penalty_Neutral>
2.50279

> <r_epik_State_Penalty>
2.66754

> <r_epik_Charging_Adjusted_Penalty>
2.66754

> <i_epik_Tot_Q>
0

> <i_epik_Tot_abs_Q>
0

> <r_epik_Metal_State_Penalty>
2.66721

> <b_epik_Metal_Only>
0

> <s_lp_Force_Field>
OPLS_2005

> <r_lp_Energy>
8.43832

> <b_lp_Chiralities_Consistent>
1

> <s_lp_Variant>
AV-unprocessed.smi:2526-5

> <Gold.Version>
5.8.1

> <Gold.Id.Protein>
6NUR|6NUR_protein|mol2

> <Gold.PLP.Fitness>
38.2335

> <Gold.PLP.PLP>
-29.5430

> <Gold.PLP.part.hbond>
-2.0000

> <Gold.PLP.part.metal>
0.0000

> <Gold.PLP.part.buried>
-0.7847

> <Gold.PLP.part.nonpolar>
-27.1059

> <Gold.PLP.part.repulsive>
0.1217

> <Gold.PLP.ligand.clash>
0.0000

> <Gold.PLP.ligand.torsion>
0.0177

> <Gold.PLP.Chemscore.Hbond>
1.9000

> <Gold.PLP.Chemscore.CHOScore>
1.0000

> <Gold.PLP.Chemscore.Metal>
0.0000

> <Gold.Chemscore.Hbonds>
donor molecule, donor type, donor heavy atom, donor atom, acceptor molecule, acceptor atom, score
      L1  H    12    26       P1  8028  1.00
      P1  H  7997  8008       L1     8  0.83
      L1  C     3    18       P1  8028  0.99

> <Gold.PLP.Chemscore.Internal.Correction>
0.0258

> <Gold.Rescore>
     Score         DG    S(hbond)    S(metal)    S(lipo)     H(rot)  DE(clash)    DE(int)     intcor
     14.18     -14.22       1.00        0.00      68.14       1.00       0.03       0.01       ----

> <Gold.Chemscore.Fitness>
14.1776

> <Gold.Chemscore.DG>
-14.2173

> <Gold.Chemscore.ZeroCoef>
-5.4800

> <Gold.Chemscore.Hbond>
0.9956

> <Gold.Chemscore.Metal>
0.0000

> <Gold.Chemscore.Lipo>
68.1381

> <Gold.Chemscore.Internal_Hbond>
0.0000

> <Gold.Chemscore.DEClash>
0.0268

> <Gold.Chemscore.DEInternal>
0.0129

> <Gold.Chemscore.Rot>
1.0000

> <Gold.Chemscore.Internal.Correction>
   9.000000E+99

> <Gold.Chemscore.Hbonds>
donor molecule, donor type, donor heavy atom, donor atom, acceptor molecule, acceptor atom, score
      L1  H    12    26       P1  8028  0.88
      P1  H  7997  8008       L1     8  0.14

> <Gold.Chemscore.Hbond.Weighted>
-3.3252

> <Gold.Chemscore.Metal.Weighted>
-0.0000

> <Gold.Chemscore.Lipo.Weighted>
-7.9722

> <Gold.Chemscore.Internal_Hbond.Weighted>
0.0000

> <Gold.Chemscore.DEClash.Weighted>
0.0268

> <Gold.Chemscore.DEInternal.Weighted>
0.0129

> <Gold.Chemscore.Rot.Weighted>
2.5600

> <Gold.Chemscore.Internal.Correction.Weighted>
   9.000000E+99

> <Gold.Protein.RotatedTorsions>
[ 6907 6896 6895 6894 ] final    9.87 input  -60.11 | X-H torsion
[ 7974 7965 7964 7962 ] final    9.93 input  175.53 | X-H torsion
[ 8008 7997 7996 7995 ] final  -15.70 input   59.86 | X-H torsion
[ 10167 10162 10161 10158 ] final  -78.52 input  -65.29 | X-H torsion
[ 10718 10713 10712 10709 ] final   93.27 input   66.30 | X-H torsion
[ 10763 10752 10751 10750 ] final  -70.24 input  -60.55 | X-H torsion
[ 11005 11000 10999 10996 ] final  147.54 input  -57.11 | X-H torsion

> <Gold.Protein.ActiveResidues>
 VAL166  LYS551  ARG553  GLY616  TRP617  ASP618  TYR619  PRO620  LYS621  CYS622 
 ASP623  PHE694  ASN695  SER759  ASP760  ASP761  ALA762  ILE779  LEU786  VAL792 
 PHE793  MET794  SER795  GLU796  ALA797  LYS798  CYS799  TRP800  GLU811  SER814 

> <Gold.Protein.RotatedAtoms>
  151.7291  135.0878  160.0296 H   0  0  0  0  0  0  0  0  0  0  0  0  # atno 6907 bound_to 6896
  152.3553  133.6225  159.5983 H   0  0  0  0  0  0  0  0  0  0  0  0  # atno 6908 bound_to 6896
  150.7567  133.9426  159.3502 H   0  0  0  0  0  0  0  0  0  0  0  0  # atno 6909 bound_to 6896
  146.2396  139.9710  142.8447 H   0  0  0  0  0  0  0  0  0  0  0  0  # atno 7974 bound_to 7965
  154.5110  140.2189  155.9156 H   0  0  0  0  0  0  0  0  0  0  0  0  # atno 8008 bound_to 7997
  156.1552  140.3153  155.8680 H   0  0  0  0  0  0  0  0  0  0  0  0  # atno 8009 bound_to 7997
  155.3860  140.0475  157.3033 H   0  0  0  0  0  0  0  0  0  0  0  0  # atno 8010 bound_to 7997
  140.4675  143.2436  151.8255 H   0  0  0  0  0  0  0  0  0  0  0  0  # atno 10167 bound_to 10162
  157.6955  131.0472  150.4009 H   0  0  0  0  0  0  0  0  0  0  0  0  # atno 10718 bound_to 10713
  154.4149  135.6000  153.5975 H   0  0  0  0  0  0  0  0  0  0  0  0  # atno 10763 bound_to 10752
  152.9791  135.5938  154.4025 H   0  0  0  0  0  0  0  0  0  0  0  0  # atno 10764 bound_to 10752
  154.3842  135.2841  155.2171 H   0  0  0  0  0  0  0  0  0  0  0  0  # atno 10765 bound_to 10752
  140.0884  134.9055  157.1612 H   0  0  0  0  0  0  0  0  0  0  0  0  # atno 11005 bound_to 11000
  145.1681  140.9707  143.4338 LP  0  0  0  0  0  0  0  0  0  0  0  0  # atno 17320 bound_to 7965
  145.0054  139.3559  143.6147 LP  0  0  0  0  0  0  0  0  0  0  0  0  # atno 17321 bound_to 7965
  139.4814  144.4932  151.9157 LP  0  0  0  0  0  0  0  0  0  0  0  0  # atno 17342 bound_to 10162
  140.4018  144.2483  150.5892 LP  0  0  0  0  0  0  0  0  0  0  0  0  # atno 17343 bound_to 10162
  156.4403  130.3990  149.6702 LP  0  0  0  0  0  0  0  0  0  0  0  0  # atno 17370 bound_to 10713
  156.3888  130.7616  151.2616 LP  0  0  0  0  0  0  0  0  0  0  0  0  # atno 17371 bound_to 10713
  140.3387  134.2728  155.7215 LP  0  0  0  0  0  0  0  0  0  0  0  0  # atno 17394 bound_to 11000
  141.2070  133.7817  157.0144 LP  0  0  0  0  0  0  0  0  0  0  0  0  # atno 17395 bound_to 11000

$$$$
