AV-unprocessed.smi:3161|AV-procd|sdf|12062|dock5
  -GOLD-   2272017493D 1   1.00000     0.00000
 Structure written by MMmdl.
 40 41  0  0  0  0  0  0  0  0  1 V2000
  145.7187  142.9690  154.0796 C   0  0  0  0  0  0  0  0  0  0  0  0
  146.7004  141.8374  154.1811 C   0  0  0  0  0  0  0  0  0  0  0  0
  146.4261  140.4406  154.2109 C   0  0  0  0  0  0  0  0  0  0  0  0
  147.5201  139.7032  154.3041 N   0  0  0  0  0  0  0  0  0  0  0  0
  148.5298  140.5988  154.3458 N   0  0  0  0  0  0  0  0  0  0  0  0
  149.9052  140.1370  154.4483 C   0  0  0  0  0  0  0  0  0  0  0  0
  150.4114  139.9851  155.9057 C   0  0  1  0  0  0  0  0  0  0  0  0
  151.7324  139.2045  155.9892 C   0  0  0  0  0  0  0  0  0  0  0  0
  150.5620  141.2679  156.6016 N   0  0  0  0  0  0  0  0  0  0  0  0
  151.3722  141.2357  157.8180 C   0  0  0  0  0  0  0  0  0  0  0  0
  151.1984  142.5297  158.6251 C   0  0  1  0  0  0  0  0  0  0  0  0
  152.3378  142.7187  159.6453 C   0  0  0  0  0  0  0  0  0  0  0  0
  152.1973  144.0623  160.3699 C   0  0  0  0  0  0  0  0  0  0  0  0
  152.0850  145.1929  159.3421 C   0  0  0  0  0  0  0  0  0  0  0  0
  150.9700  144.8846  158.3305 C   0  0  0  0  0  0  0  0  0  0  0  0
  151.2131  143.6254  157.7112 O   0  0  0  0  0  0  0  0  0  0  0  0
  148.0628  141.8941  154.2663 C   0  0  0  0  0  0  0  0  0  0  0  0
  144.6903  142.6108  154.0267 H   0  0  0  0  0  0  0  0  0  0  0  0
  145.8937  143.5744  153.1901 H   0  0  0  0  0  0  0  0  0  0  0  0
  145.7824  143.6347  154.9406 H   0  0  0  0  0  0  0  0  0  0  0  0
  145.4683  139.9435  154.1658 H   0  0  0  0  0  0  0  0  0  0  0  0
  150.0108  139.2083  153.8878 H   0  0  0  0  0  0  0  0  0  0  0  0
  150.5346  140.8594  153.9271 H   0  0  0  0  0  0  0  0  0  0  0  0
  149.6655  139.3962  156.4409 H   0  0  0  0  0  0  0  0  0  0  0  0
  151.6516  138.2419  155.4838 H   0  0  0  0  0  0  0  0  0  0  0  0
  152.0049  139.0078  157.0264 H   0  0  0  0  0  0  0  0  0  0  0  0
  152.5562  139.7539  155.5323 H   0  0  0  0  0  0  0  0  0  0  0  0
  150.9438  141.9584  155.9629 H   0  0  0  0  0  0  0  0  0  0  0  0
  151.0719  140.3930  158.4399 H   0  0  0  0  0  0  0  0  0  0  0  0
  152.4255  141.0902  157.5749 H   0  0  0  0  0  0  0  0  0  0  0  0
  150.2434  142.5020  159.1539 H   0  0  0  0  0  0  0  0  0  0  0  0
  152.3357  141.9038  160.3699 H   0  0  0  0  0  0  0  0  0  0  0  0
  153.3003  142.6791  159.1336 H   0  0  0  0  0  0  0  0  0  0  0  0
  151.3074  144.0492  161.0004 H   0  0  0  0  0  0  0  0  0  0  0  0
  153.0486  144.2304  161.0301 H   0  0  0  0  0  0  0  0  0  0  0  0
  151.8908  146.1417  159.8429 H   0  0  0  0  0  0  0  0  0  0  0  0
  153.0336  145.3043  158.8152 H   0  0  0  0  0  0  0  0  0  0  0  0
  149.9926  144.8814  158.8154 H   0  0  0  0  0  0  0  0  0  0  0  0
  150.9403  145.6551  157.5599 H   0  0  0  0  0  0  0  0  0  0  0  0
  148.7328  142.7411  154.2810 H   0  0  0  0  0  0  0  0  0  0  0  0
  1  2  1  0  0  0  0
  1 18  1  0  0  0  0
  1 19  1  0  0  0  0
  1 20  1  0  0  0  0
  2 17  2  0  0  0  0
  2  3  1  0  0  0  0
  3  4  2  0  0  0  0
  3 21  1  0  0  0  0
  4  5  1  0  0  0  0
  5  6  1  0  0  0  0
  5 17  1  0  0  0  0
  6  7  1  0  0  0  0
  6 22  1  0  0  0  0
  6 23  1  0  0  0  0
  7  8  1  0  0  0  0
  7  9  1  0  0  0  0
  7 24  1  0  0  0  0
  8 25  1  0  0  0  0
  8 26  1  0  0  0  0
  8 27  1  0  0  0  0
  9 10  1  0  0  0  0
  9 28  1  0  0  0  0
 10 11  1  0  0  0  0
 10 29  1  0  0  0  0
 10 30  1  0  0  0  0
 11 16  1  0  0  0  0
 11 12  1  0  0  0  0
 11 31  1  0  0  0  0
 12 13  1  0  0  0  0
 12 32  1  0  0  0  0
 12 33  1  0  0  0  0
 13 14  1  0  0  0  0
 13 34  1  0  0  0  0
 13 35  1  0  0  0  0
 14 15  1  0  0  0  0
 14 36  1  0  0  0  0
 14 37  1  0  0  0  0
 15 16  1  0  0  0  0
 15 38  1  0  0  0  0
 15 39  1  0  0  0  0
 17 40  1  0  0  0  0
M  END
> <s_m_source_file>
AV-unprocessed.smi

> <i_m_source_file_index>
3161

> <i_lp_mmshare_version>
43012

> <i_f3d_flags>
0

> <s_epik_input>
W0NIM11jMVtjSF1ubihbY0hdMSlbQ0gyXVtDQEhdKFtDSDNdKVtOSF1bQ0gyXVtDQEBIXTJbQ0gyXVtDSDJdW0NIMl1bQ0gyXU8y

> <s_epik_cmdline>
J2VwaWtfcHl0aG9uJywgJy1waCcsICc3LjAnLCAnLXRuJywgJzgnLCAnLW1hJywgJzIwMCcsICctbWV0YWxfYmluZGluZycsICctaW1hZScsICc8aW5maWxlLm1hZT4nLCAnLW9tYWUnLCAnPG91dGZpbGUubWFlPic=

> <r_lp_tautomer_probability>
1

> <r_epik_Ionization_Penalty>
2.51986

> <r_epik_Ionization_Penalty_Charging>
0

> <r_epik_Ionization_Penalty_Neutral>
2.51986

> <r_epik_State_Penalty>
2.68614

> <r_epik_Charging_Adjusted_Penalty>
2.68614

> <i_epik_Tot_Q>
0

> <i_epik_Tot_abs_Q>
0

> <r_epik_Metal_State_Penalty>
2.68606

> <b_epik_Metal_Only>
0

> <s_lp_Force_Field>
OPLS_2005

> <r_lp_Energy>
14.0123

> <b_lp_Chiralities_Consistent>
1

> <s_lp_Variant>
AV-unprocessed.smi:3161-8

> <Gold.Version>
5.8.1

> <Gold.Id.Protein>
6NUR|6NUR_protein|mol2

> <Gold.PLP.Fitness>
43.3348

> <Gold.PLP.PLP>
-38.9043

> <Gold.PLP.part.hbond>
0.0000

> <Gold.PLP.part.metal>
0.0000

> <Gold.PLP.part.buried>
-1.6633

> <Gold.PLP.part.nonpolar>
-37.4586

> <Gold.PLP.part.repulsive>
0.2619

> <Gold.PLP.ligand.clash>
0.0000

> <Gold.PLP.ligand.torsion>
0.8064

> <Gold.PLP.Chemscore.Hbond>
0.0000

> <Gold.PLP.Chemscore.CHOScore>
1.9901

> <Gold.PLP.Chemscore.Metal>
0.0000

> <Gold.Chemscore.Hbonds>
donor molecule, donor type, donor heavy atom, donor atom, acceptor molecule, acceptor atom, score
      L1  C     3    21       P1 10175  0.88
      L1  C    17    40       P1  8028  1.00

> <Gold.PLP.Chemscore.Internal.Correction>
0.0730

> <Gold.Rescore>
     Score         DG    S(hbond)    S(metal)    S(lipo)     H(rot)  DE(clash)    DE(int)     intcor
     13.80     -14.38       0.00        0.00     108.95       1.50       0.03       0.54       ----

> <Gold.Chemscore.Fitness>
13.8048

> <Gold.Chemscore.DG>
-14.3790

> <Gold.Chemscore.ZeroCoef>
-5.4800

> <Gold.Chemscore.Hbond>
0.0000

> <Gold.Chemscore.Metal>
0.0000

> <Gold.Chemscore.Lipo>
108.9465

> <Gold.Chemscore.Internal_Hbond>
0.0000

> <Gold.Chemscore.DEClash>
0.0294

> <Gold.Chemscore.DEInternal>
0.5447

> <Gold.Chemscore.Rot>
1.5030

> <Gold.Chemscore.Internal.Correction>
   9.000000E+99

> <Gold.Chemscore.Hbond.Weighted>
-0.0000

> <Gold.Chemscore.Metal.Weighted>
-0.0000

> <Gold.Chemscore.Lipo.Weighted>
-12.7467

> <Gold.Chemscore.Internal_Hbond.Weighted>
0.0000

> <Gold.Chemscore.DEClash.Weighted>
0.0294

> <Gold.Chemscore.DEInternal.Weighted>
0.5447

> <Gold.Chemscore.Rot.Weighted>
3.8477

> <Gold.Chemscore.Internal.Correction.Weighted>
   9.000000E+99

> <Gold.Protein.RotatedTorsions>
[ 6907 6896 6895 6894 ] final -139.85 input  -60.11 | X-H torsion
[ 7974 7965 7964 7962 ] final  130.84 input  175.53 | X-H torsion
[ 8008 7997 7996 7995 ] final -133.60 input   59.86 | X-H torsion
[ 10167 10162 10161 10158 ] final -147.57 input  -65.29 | X-H torsion
[ 10718 10713 10712 10709 ] final  -38.66 input   66.30 | X-H torsion
[ 10763 10752 10751 10750 ] final    9.39 input  -60.55 | X-H torsion
[ 11005 11000 10999 10996 ] final  129.02 input  -57.11 | X-H torsion

> <Gold.Protein.ActiveResidues>
 VAL166  LYS551  ARG553  GLY616  TRP617  ASP618  TYR619  PRO620  LYS621  CYS622 
 ASP623  PHE694  ASN695  SER759  ASP760  ASP761  ALA762  ILE779  LEU786  VAL792 
 PHE793  MET794  SER795  GLU796  ALA797  LYS798  CYS799  TRP800  GLU811  SER814 

> <Gold.Protein.RotatedAtoms>
  151.0531  133.5607  159.2640 H   0  0  0  0  0  0  0  0  0  0  0  0  # atno 6907 bound_to 6896
  151.2611  135.0653  159.9108 H   0  0  0  0  0  0  0  0  0  0  0  0  # atno 6908 bound_to 6896
  152.5385  134.0276  159.8064 H   0  0  0  0  0  0  0  0  0  0  0  0  # atno 6909 bound_to 6896
  145.0137  139.4197  143.5232 H   0  0  0  0  0  0  0  0  0  0  0  0  # atno 7974 bound_to 7965
  155.3481  140.0476  157.3046 H   0  0  0  0  0  0  0  0  0  0  0  0  # atno 8008 bound_to 7997
  154.5242  140.2235  155.8885 H   0  0  0  0  0  0  0  0  0  0  0  0  # atno 8009 bound_to 7997
  156.1721  140.3093  155.8999 H   0  0  0  0  0  0  0  0  0  0  0  0  # atno 8010 bound_to 7997
  139.7610  143.8377  152.2607 H   0  0  0  0  0  0  0  0  0  0  0  0  # atno 10167 bound_to 10162
  156.3012  130.4240  149.8141 H   0  0  0  0  0  0  0  0  0  0  0  0  # atno 10718 bound_to 10713
  153.2145  135.6873  153.8073 H   0  0  0  0  0  0  0  0  0  0  0  0  # atno 10763 bound_to 10752
  153.7294  135.3255  155.3284 H   0  0  0  0  0  0  0  0  0  0  0  0  # atno 10764 bound_to 10752
  154.8239  135.4632  154.0967 H   0  0  0  0  0  0  0  0  0  0  0  0  # atno 10765 bound_to 10752
  139.9592  134.9606  156.9087 H   0  0  0  0  0  0  0  0  0  0  0  0  # atno 11005 bound_to 11000
  146.3474  139.9595  142.8719 LP  0  0  0  0  0  0  0  0  0  0  0  0  # atno 17320 bound_to 7965
  145.1989  140.9845  143.4167 LP  0  0  0  0  0  0  0  0  0  0  0  0  # atno 17321 bound_to 7965
  139.8383  144.7222  150.9363 LP  0  0  0  0  0  0  0  0  0  0  0  0  # atno 17342 bound_to 10162
  140.7807  143.4006  151.1155 LP  0  0  0  0  0  0  0  0  0  0  0  0  # atno 17343 bound_to 10162
  156.5519  130.8345  151.3302 LP  0  0  0  0  0  0  0  0  0  0  0  0  # atno 17370 bound_to 10713
  157.7368  130.9785  150.2158 LP  0  0  0  0  0  0  0  0  0  0  0  0  # atno 17371 bound_to 10713
  140.5539  134.0601  155.7377 LP  0  0  0  0  0  0  0  0  0  0  0  0  # atno 17394 bound_to 11000
  141.1267  133.9370  157.2620 LP  0  0  0  0  0  0  0  0  0  0  0  0  # atno 17395 bound_to 11000

$$$$
