AV-unprocessed.smi:2964|AV-procd|sdf|11321|dock8
  -GOLD-   2272016223D 1   1.00000     0.00000
 Structure written by MMmdl.
 35 36  0  0  0  0  0  0  0  0  1 V2000
  149.5930  140.8369  157.6734 O   0  0  0  0  0  0  0  0  0  0  0  0
  150.3118  140.4632  156.7452 C   0  0  0  0  0  0  0  0  0  0  0  0
  151.8418  140.4815  156.8743 C   0  0  0  0  0  0  0  0  0  0  0  0
  152.3173  141.1127  158.1173 N   0  0  0  0  0  0  0  0  0  0  0  0
  151.7953  142.3830  158.4324 C   0  0  0  0  0  0  0  0  0  0  0  0
  152.1538  143.0684  159.5356 C   0  0  0  0  0  0  0  0  0  0  0  0
  151.5688  144.4289  159.8798 C   0  0  0  0  0  0  0  0  0  0  0  0
  151.9143  145.3276  158.9580 F   0  0  0  0  0  0  0  0  0  0  0  0
  150.2385  144.3585  159.9057 F   0  0  0  0  0  0  0  0  0  0  0  0
  151.9891  144.8639  161.0686 F   0  0  0  0  0  0  0  0  0  0  0  0
  153.1089  142.4246  160.4141 C   0  0  0  0  0  0  0  0  0  0  0  0
  153.6192  141.2113  160.1268 C   0  0  0  0  0  0  0  0  0  0  0  0
  153.2300  140.4833  158.9168 C   0  0  0  0  0  0  0  0  0  0  0  0
  153.6937  139.3768  158.6403 O   0  0  0  0  0  0  0  0  0  0  0  0
  149.8272  140.0033  155.5819 N   0  0  0  0  0  0  0  0  0  0  0  0
  148.4095  139.9004  155.2470 C   0  0  0  0  0  0  0  0  0  0  0  0
  148.1936  139.3649  153.8161 C   0  0  0  0  0  0  0  0  0  0  0  0
  147.1854  140.3086  153.1590 C   0  0  0  0  0  0  0  0  0  0  0  0
  147.4320  141.6520  153.8372 C   0  0  0  0  0  0  0  0  0  0  0  0
  147.7399  141.2864  155.2898 C   0  0  0  0  0  0  0  0  0  0  0  0
  152.2004  139.4536  156.8062 H   0  0  0  0  0  0  0  0  0  0  0  0
  152.2696  140.9892  156.0077 H   0  0  0  0  0  0  0  0  0  0  0  0
  151.0867  142.7652  157.7119 H   0  0  0  0  0  0  0  0  0  0  0  0
  153.4221  142.9291  161.3164 H   0  0  0  0  0  0  0  0  0  0  0  0
  154.3321  140.7632  160.8033 H   0  0  0  0  0  0  0  0  0  0  0  0
  150.4857  139.7108  154.8745 H   0  0  0  0  0  0  0  0  0  0  0  0
  147.9155  139.2494  155.9709 H   0  0  0  0  0  0  0  0  0  0  0  0
  149.1260  139.3941  153.2499 H   0  0  0  0  0  0  0  0  0  0  0  0
  147.8475  138.3307  153.8122 H   0  0  0  0  0  0  0  0  0  0  0  0
  147.2991  140.3565  152.0758 H   0  0  0  0  0  0  0  0  0  0  0  0
  146.1709  139.9701  153.3736 H   0  0  0  0  0  0  0  0  0  0  0  0
  148.2993  142.1366  153.3864 H   0  0  0  0  0  0  0  0  0  0  0  0
  146.5844  142.3316  153.7454 H   0  0  0  0  0  0  0  0  0  0  0  0
  146.8046  141.2157  155.8467 H   0  0  0  0  0  0  0  0  0  0  0  0
  148.3471  142.0469  155.7826 H   0  0  0  0  0  0  0  0  0  0  0  0
  1  2  2  0  0  0  0
  2  3  1  0  0  0  0
  2 15  1  0  0  0  0
  3  4  1  0  0  0  0
  3 21  1  0  0  0  0
  3 22  1  0  0  0  0
  4 13  1  0  0  0  0
  4  5  1  0  0  0  0
  5  6  2  0  0  0  0
  5 23  1  0  0  0  0
  6  7  1  0  0  0  0
  6 11  1  0  0  0  0
  7  8  1  0  0  0  0
  7  9  1  0  0  0  0
  7 10  1  0  0  0  0
 11 12  2  0  0  0  0
 11 24  1  0  0  0  0
 12 13  1  0  0  0  0
 12 25  1  0  0  0  0
 13 14  2  0  0  0  0
 15 16  1  0  0  0  0
 15 26  1  0  0  0  0
 16 20  1  0  0  0  0
 16 17  1  0  0  0  0
 16 27  1  0  0  0  0
 17 18  1  0  0  0  0
 17 28  1  0  0  0  0
 17 29  1  0  0  0  0
 18 19  1  0  0  0  0
 18 30  1  0  0  0  0
 18 31  1  0  0  0  0
 19 20  1  0  0  0  0
 19 32  1  0  0  0  0
 19 33  1  0  0  0  0
 20 34  1  0  0  0  0
 20 35  1  0  0  0  0
M  END
> <s_m_source_file>
AV-unprocessed.smi

> <i_m_source_file_index>
2964

> <i_lp_mmshare_version>
43012

> <i_f3d_flags>
0

> <s_epik_input>
W0NIMl0xW0NIMl1bQ0gyXVtDSDJdW0NIXTFbTkhdQyg9TylbQ0gyXW4yW2NIXWMoQyhGKShGKUYpW2NIXVtjSF1jMj1P

> <s_epik_cmdline>
J2VwaWtfcHl0aG9uJywgJy1waCcsICc3LjAnLCAnLXRuJywgJzgnLCAnLW1hJywgJzIwMCcsICctbWV0YWxfYmluZGluZycsICctaW1hZScsICc8aW5maWxlLm1hZT4nLCAnLW9tYWUnLCAnPG91dGZpbGUubWFlPic=

> <r_lp_tautomer_probability>
1

> <r_epik_Ionization_Penalty>
3.84201e-08

> <r_epik_Ionization_Penalty_Charging>
1.91184e-08

> <r_epik_Ionization_Penalty_Neutral>
1.93017e-08

> <r_epik_State_Penalty>
-0

> <r_epik_Charging_Adjusted_Penalty>
1.91184e-08

> <i_epik_Tot_Q>
0

> <i_epik_Tot_abs_Q>
0

> <r_epik_Metal_State_Penalty>
-0

> <b_epik_Metal_Only>
0

> <s_lp_Force_Field>
OPLS_2005

> <r_lp_Energy>
29.7678

> <b_lp_Chiralities_Consistent>
1

> <s_lp_Variant>
AV-unprocessed.smi:2964-1

> <Gold.Version>
5.8.1

> <Gold.Id.Protein>
6NUR|6NUR_protein|mol2

> <Gold.PLP.Fitness>
44.0174

> <Gold.PLP.PLP>
-42.2613

> <Gold.PLP.part.hbond>
-1.0000

> <Gold.PLP.part.metal>
0.0000

> <Gold.PLP.part.buried>
-3.6608

> <Gold.PLP.part.nonpolar>
-37.0607

> <Gold.PLP.part.repulsive>
0.1007

> <Gold.PLP.ligand.clash>
0.0000

> <Gold.PLP.ligand.torsion>
0.1798

> <Gold.PLP.Chemscore.Hbond>
0.7000

> <Gold.PLP.Chemscore.CHOScore>
0.0000

> <Gold.PLP.Chemscore.Metal>
0.0000

> <Gold.Chemscore.Hbonds>
donor molecule, donor type, donor heavy atom, donor atom, acceptor molecule, acceptor atom, score
      P1  H  7997  8010       L1    14  0.75

> <Gold.PLP.Chemscore.Internal.Correction>
0.0157

> <Gold.Rescore>
     Score         DG    S(hbond)    S(metal)    S(lipo)     H(rot)  DE(clash)    DE(int)     intcor
     11.81     -13.55       0.60        0.00      85.95       1.56       0.17       1.57       ----

> <Gold.Chemscore.Fitness>
11.8059

> <Gold.Chemscore.DG>
-13.5502

> <Gold.Chemscore.ZeroCoef>
-5.4800

> <Gold.Chemscore.Hbond>
0.5986

> <Gold.Chemscore.Metal>
0.0000

> <Gold.Chemscore.Lipo>
85.9496

> <Gold.Chemscore.Internal_Hbond>
0.0000

> <Gold.Chemscore.DEClash>
0.1720

> <Gold.Chemscore.DEInternal>
1.5722

> <Gold.Chemscore.Rot>
1.5568

> <Gold.Chemscore.Internal.Correction>
   9.000000E+99

> <Gold.Chemscore.Hbonds>
donor molecule, donor type, donor heavy atom, donor atom, acceptor molecule, acceptor atom, score
      P1  H  7997  8010       L1    14  0.09

> <Gold.Chemscore.Hbond.Weighted>
-1.9995

> <Gold.Chemscore.Metal.Weighted>
-0.0000

> <Gold.Chemscore.Lipo.Weighted>
-10.0561

> <Gold.Chemscore.Internal_Hbond.Weighted>
0.0000

> <Gold.Chemscore.DEClash.Weighted>
0.1720

> <Gold.Chemscore.DEInternal.Weighted>
1.5722

> <Gold.Chemscore.Rot.Weighted>
3.9854

> <Gold.Chemscore.Internal.Correction.Weighted>
   9.000000E+99

> <Gold.Protein.RotatedTorsions>
[ 6907 6896 6895 6894 ] final -109.36 input  -60.11 | X-H torsion
[ 7974 7965 7964 7962 ] final -173.62 input  175.53 | X-H torsion
[ 8008 7997 7996 7995 ] final   13.18 input   59.86 | X-H torsion
[ 10167 10162 10161 10158 ] final  143.69 input  -65.29 | X-H torsion
[ 10718 10713 10712 10709 ] final -115.62 input   66.30 | X-H torsion
[ 10763 10752 10751 10750 ] final   80.92 input  -60.55 | X-H torsion
[ 11005 11000 10999 10996 ] final   82.45 input  -57.11 | X-H torsion

> <Gold.Protein.ActiveResidues>
 VAL166  LYS551  ARG553  GLY616  TRP617  ASP618  TYR619  PRO620  LYS621  CYS622 
 ASP623  PHE694  ASN695  SER759  ASP760  ASP761  ALA762  ILE779  LEU786  VAL792 
 PHE793  MET794  SER795  GLU796  ALA797  LYS798  CYS799  TRP800  GLU811  SER814 

> <Gold.Protein.RotatedAtoms>
  150.7557  133.9541  159.3494 H   0  0  0  0  0  0  0  0  0  0  0  0  # atno 6907 bound_to 6896
  151.7461  135.0841  160.0333 H   0  0  0  0  0  0  0  0  0  0  0  0  # atno 6908 bound_to 6896
  152.3497  133.6127  159.5971 H   0  0  0  0  0  0  0  0  0  0  0  0  # atno 6909 bound_to 6896
  144.7137  140.1594  143.6377 H   0  0  0  0  0  0  0  0  0  0  0  0  # atno 7974 bound_to 7965
  154.8308  140.2899  155.5723 H   0  0  0  0  0  0  0  0  0  0  0  0  # atno 8008 bound_to 7997
  156.3005  140.2532  156.3164 H   0  0  0  0  0  0  0  0  0  0  0  0  # atno 8009 bound_to 7997
  154.9233  140.0385  157.1999 H   0  0  0  0  0  0  0  0  0  0  0  0  # atno 8010 bound_to 7997
  139.4964  144.6023  151.6454 H   0  0  0  0  0  0  0  0  0  0  0  0  # atno 10167 bound_to 10162
  156.0908  130.6091  150.8929 H   0  0  0  0  0  0  0  0  0  0  0  0  # atno 10718 bound_to 10713
  153.1073  135.4784  154.8974 H   0  0  0  0  0  0  0  0  0  0  0  0  # atno 10763 bound_to 10752
  154.7444  135.3090  154.8673 H   0  0  0  0  0  0  0  0  0  0  0  0  # atno 10764 bound_to 10752
  153.9272  135.6848  153.4800 H   0  0  0  0  0  0  0  0  0  0  0  0  # atno 10765 bound_to 10752
  139.9063  134.8072  156.2176 H   0  0  0  0  0  0  0  0  0  0  0  0  # atno 11005 bound_to 11000
  145.9044  139.2449  143.1474 LP  0  0  0  0  0  0  0  0  0  0  0  0  # atno 17320 bound_to 7965
  145.9778  140.8707  143.0129 LP  0  0  0  0  0  0  0  0  0  0  0  0  # atno 17321 bound_to 7965
  140.5676  144.0164  150.6200 LP  0  0  0  0  0  0  0  0  0  0  0  0  # atno 17342 bound_to 10162
  140.3270  143.3101  152.0726 LP  0  0  0  0  0  0  0  0  0  0  0  0  # atno 17343 bound_to 10162
  157.6056  131.0939  150.8884 LP  0  0  0  0  0  0  0  0  0  0  0  0  # atno 17370 bound_to 10713
  156.9033  130.5254  149.5282 LP  0  0  0  0  0  0  0  0  0  0  0  0  # atno 17371 bound_to 10713
  141.0426  133.6930  156.1625 LP  0  0  0  0  0  0  0  0  0  0  0  0  # atno 17394 bound_to 11000
  140.6933  134.4643  157.5588 LP  0  0  0  0  0  0  0  0  0  0  0  0  # atno 17395 bound_to 11000

$$$$
