AV-unprocessed.smi:2690|AV-procd|sdf|10389|dock7
  -GOLD-   2272014423D 1   1.00000     0.00000
 Structure written by MMmdl.
 47 49  0  0  0  0  0  0  0  0  1 V2000
  152.0339  145.1311  159.0871 C   0  0  0  0  0  0  0  0  0  0  0  0
  151.6584  143.6525  159.2583 C   0  0  2  0  0  0  0  0  0  0  0  0
  152.8948  142.7418  159.1370 C   0  0  0  0  0  0  0  0  0  0  0  0
  152.5219  141.2562  159.2861 C   0  0  0  0  0  0  0  0  0  0  0  0
  151.4317  140.8128  158.2842 C   0  0  2  0  0  0  0  0  0  0  0  0
  151.0155  139.5214  158.6878 O   0  0  0  0  0  0  0  0  0  0  0  0
  151.9905  140.6943  156.8390 C   0  0  0  0  0  0  0  0  0  0  0  0
  151.1406  139.9389  155.9289 N   0  0  0  0  0  0  0  0  0  0  0  0
  151.3197  138.6345  155.5228 C   0  0  0  0  0  0  0  0  0  0  0  0
  150.4196  138.1772  154.6953 N   0  0  0  0  0  0  0  0  0  0  0  0
  149.5600  139.2517  154.5086 C   0  0  0  0  0  0  0  0  0  0  0  0
  148.3821  139.4463  153.7414 C   0  0  0  0  0  0  0  0  0  0  0  0
  147.8748  138.4509  152.9801 N   0  0  0  0  0  0  0  0  0  0  0  0
  146.4856  138.4670  152.5297 C   0  0  0  0  0  0  0  0  0  0  0  0
  145.8025  137.1108  152.7725 C   0  0  0  0  0  0  0  0  0  0  0  0
  146.4219  138.8535  151.0464 C   0  0  0  0  0  0  0  0  0  0  0  0
  147.7884  140.6677  153.7946 N   0  0  0  0  0  0  0  0  0  0  0  0
  148.3130  141.6354  154.5528 C   0  0  0  0  0  0  0  0  0  0  0  0
  149.4041  141.5950  155.3206 N   0  0  0  0  0  0  0  0  0  0  0  0
  150.0013  140.3699  155.2702 C   0  0  0  0  0  0  0  0  0  0  0  0
  150.2014  141.7435  158.4068 C   0  0  0  0  0  0  0  0  0  0  0  0
  150.5735  143.2287  158.2508 C   0  0  0  0  0  0  0  0  0  0  0  0
  152.4532  145.3216  158.0988 H   0  0  0  0  0  0  0  0  0  0  0  0
  152.7737  145.4366  159.8275 H   0  0  0  0  0  0  0  0  0  0  0  0
  151.1618  145.7743  159.2080 H   0  0  0  0  0  0  0  0  0  0  0  0
  151.2490  143.5313  160.2622 H   0  0  0  0  0  0  0  0  0  0  0  0
  153.3872  142.9082  158.1787 H   0  0  0  0  0  0  0  0  0  0  0  0
  153.6256  143.0080  159.9015 H   0  0  0  0  0  0  0  0  0  0  0  0
  153.4139  140.6381  159.1760 H   0  0  0  0  0  0  0  0  0  0  0  0
  152.1676  141.0948  160.3056 H   0  0  0  0  0  0  0  0  0  0  0  0
  151.7249  138.9162  158.5346 H   0  0  0  0  0  0  0  0  0  0  0  0
  152.1496  141.6819  156.4067 H   0  0  0  0  0  0  0  0  0  0  0  0
  152.9710  140.2166  156.8544 H   0  0  0  0  0  0  0  0  0  0  0  0
  152.1434  138.0255  155.8657 H   0  0  0  0  0  0  0  0  0  0  0  0
  148.4075  137.6305  152.7288 H   0  0  0  0  0  0  0  0  0  0  0  0
  145.9443  139.2344  153.0842 H   0  0  0  0  0  0  0  0  0  0  0  0
  144.7645  137.1313  152.4395 H   0  0  0  0  0  0  0  0  0  0  0  0
  145.7986  136.8454  153.8299 H   0  0  0  0  0  0  0  0  0  0  0  0
  146.3084  136.3104  152.2319 H   0  0  0  0  0  0  0  0  0  0  0  0
  145.3896  138.9090  150.6997 H   0  0  0  0  0  0  0  0  0  0  0  0
  146.9439  138.1271  150.4225 H   0  0  0  0  0  0  0  0  0  0  0  0
  146.8780  139.8291  150.8755 H   0  0  0  0  0  0  0  0  0  0  0  0
  147.7821  142.5759  154.5428 H   0  0  0  0  0  0  0  0  0  0  0  0
  149.4307  141.4734  157.6846 H   0  0  0  0  0  0  0  0  0  0  0  0
  149.7429  141.6094  159.3880 H   0  0  0  0  0  0  0  0  0  0  0  0
  149.6810  143.8402  158.3878 H   0  0  0  0  0  0  0  0  0  0  0  0
  150.9210  143.4215  157.2363 H   0  0  0  0  0  0  0  0  0  0  0  0
  1  2  1  0  0  0  0
  1 23  1  0  0  0  0
  1 24  1  0  0  0  0
  1 25  1  0  0  0  0
  2 22  1  0  0  0  0
  2  3  1  0  0  0  0
  2 26  1  0  0  0  0
  3  4  1  0  0  0  0
  3 27  1  0  0  0  0
  3 28  1  0  0  0  0
  4  5  1  0  0  0  0
  4 29  1  0  0  0  0
  4 30  1  0  0  0  0
  5  6  1  0  0  0  0
  5  7  1  0  0  0  0
  5 21  1  0  0  0  0
  6 31  1  0  0  0  0
  7  8  1  0  0  0  0
  7 32  1  0  0  0  0
  7 33  1  0  0  0  0
  8 20  1  0  0  0  0
  8  9  1  0  0  0  0
  9 10  2  0  0  0  0
  9 34  1  0  0  0  0
 10 11  1  0  0  0  0
 11 20  2  0  0  0  0
 11 12  1  0  0  0  0
 12 13  1  0  0  0  0
 12 17  2  0  0  0  0
 13 14  1  0  0  0  0
 13 35  1  0  0  0  0
 14 15  1  0  0  0  0
 14 16  1  0  0  0  0
 14 36  1  0  0  0  0
 15 37  1  0  0  0  0
 15 38  1  0  0  0  0
 15 39  1  0  0  0  0
 16 40  1  0  0  0  0
 16 41  1  0  0  0  0
 16 42  1  0  0  0  0
 17 18  1  0  0  0  0
 18 19  2  0  0  0  0
 18 43  1  0  0  0  0
 19 20  1  0  0  0  0
 21 22  1  0  0  0  0
 21 44  1  0  0  0  0
 21 45  1  0  0  0  0
 22 46  1  0  0  0  0
 22 47  1  0  0  0  0
M  END
> <s_m_source_file>
AV-unprocessed.smi

> <i_m_source_file_index>
2690

> <i_lp_mmshare_version>
43012

> <i_f3d_flags>
0

> <s_epik_input>
W0NIMl0xW0NIMl1bQ0BIXShbQ0gzXSlbQ0gyXVtDSDJdW0NAQF0xKFtPSF0pW0NIMl1uKFtjSF1uMiljKGMyMyluW2NIXW5jM1tOSF1bQ0hdKFtDSDNdKVtDSDNd

> <s_epik_cmdline>
J2VwaWtfcHl0aG9uJywgJy1waCcsICc3LjAnLCAnLXRuJywgJzgnLCAnLW1hJywgJzIwMCcsICctbWV0YWxfYmluZGluZycsICctaW1hZScsICc8aW5maWxlLm1hZT4nLCAnLW9tYWUnLCAnPG91dGZpbGUubWFlPic=

> <r_lp_tautomer_probability>
1

> <r_epik_Ionization_Penalty>
0.00225104

> <r_epik_Ionization_Penalty_Charging>
0

> <r_epik_Ionization_Penalty_Neutral>
0.00225104

> <r_epik_State_Penalty>
-0

> <r_epik_Charging_Adjusted_Penalty>
0

> <i_epik_Tot_Q>
0

> <i_epik_Tot_abs_Q>
0

> <r_epik_Metal_State_Penalty>
-0

> <b_epik_Metal_Only>
0

> <s_lp_Force_Field>
OPLS_2005

> <r_lp_Energy>
15.1009

> <b_lp_Chiralities_Consistent>
1

> <s_lp_Variant>
AV-unprocessed.smi:2690-2

> <Gold.Version>
5.8.1

> <Gold.Id.Protein>
6NUR|6NUR_protein|mol2

> <Gold.PLP.Fitness>
46.3893

> <Gold.PLP.PLP>
-42.0443

> <Gold.PLP.part.hbond>
-2.0000

> <Gold.PLP.part.metal>
0.0000

> <Gold.PLP.part.buried>
-0.1134

> <Gold.PLP.part.nonpolar>
-40.4082

> <Gold.PLP.part.repulsive>
0.4989

> <Gold.PLP.ligand.clash>
0.0000

> <Gold.PLP.ligand.torsion>
0.6546

> <Gold.PLP.Chemscore.Hbond>
1.0000

> <Gold.PLP.Chemscore.CHOScore>
0.8721

> <Gold.PLP.Chemscore.Metal>
0.0000

> <Gold.Chemscore.Hbonds>
donor molecule, donor type, donor heavy atom, donor atom, acceptor molecule, acceptor atom, score
      L1  H    13    35       P1  7948  1.00
      L1  C    18    43       P1  8028  0.63

> <Gold.PLP.Chemscore.Internal.Correction>
0.0378

> <Gold.Rescore>
     Score         DG    S(hbond)    S(metal)    S(lipo)     H(rot)  DE(clash)    DE(int)     intcor
     13.68     -14.95       0.97        0.00      98.21       2.05       0.71       0.57       ----

> <Gold.Chemscore.Fitness>
13.6751

> <Gold.Chemscore.DG>
-14.9531

> <Gold.Chemscore.ZeroCoef>
-5.4800

> <Gold.Chemscore.Hbond>
0.9693

> <Gold.Chemscore.Metal>
0.0000

> <Gold.Chemscore.Lipo>
98.2084

> <Gold.Chemscore.Internal_Hbond>
0.0000

> <Gold.Chemscore.DEClash>
0.7061

> <Gold.Chemscore.DEInternal>
0.5720

> <Gold.Chemscore.Rot>
2.0526

> <Gold.Chemscore.Internal.Correction>
   9.000000E+99

> <Gold.Chemscore.Hbonds>
donor molecule, donor type, donor heavy atom, donor atom, acceptor molecule, acceptor atom, score
      L1  H    13    35       P1  7948  1.00

> <Gold.Chemscore.Hbond.Weighted>
-3.2373

> <Gold.Chemscore.Metal.Weighted>
-0.0000

> <Gold.Chemscore.Lipo.Weighted>
-11.4904

> <Gold.Chemscore.Internal_Hbond.Weighted>
0.0000

> <Gold.Chemscore.DEClash.Weighted>
0.7061

> <Gold.Chemscore.DEInternal.Weighted>
0.5720

> <Gold.Chemscore.Rot.Weighted>
5.2546

> <Gold.Chemscore.Internal.Correction.Weighted>
   9.000000E+99

> <Gold.Protein.RotatedTorsions>
[ 6907 6896 6895 6894 ] final  113.16 input  -60.11 | X-H torsion
[ 7974 7965 7964 7962 ] final   -0.11 input  175.53 | X-H torsion
[ 8008 7997 7996 7995 ] final    6.53 input   59.86 | X-H torsion
[ 10167 10162 10161 10158 ] final  -31.24 input  -65.29 | X-H torsion
[ 10718 10713 10712 10709 ] final  116.48 input   66.30 | X-H torsion
[ 10763 10752 10751 10750 ] final  150.28 input  -60.55 | X-H torsion
[ 11005 11000 10999 10996 ] final -142.89 input  -57.11 | X-H torsion

> <Gold.Protein.ActiveResidues>
 VAL166  LYS551  ARG553  GLY616  TRP617  ASP618  TYR619  PRO620  LYS621  CYS622 
 ASP623  PHE694  ASN695  SER759  ASP760  ASP761  ALA762  ILE779  LEU786  VAL792 
 PHE793  MET794  SER795  GLU796  ALA797  LYS798  CYS799  TRP800  GLU811  SER814 

> <Gold.Protein.RotatedAtoms>
  152.4876  133.8414  159.7154 H   0  0  0  0  0  0  0  0  0  0  0  0  # atno 6907 bound_to 6896
  150.8976  133.7151  159.2894 H   0  0  0  0  0  0  0  0  0  0  0  0  # atno 6908 bound_to 6896
  151.4603  135.1041  159.9775 H   0  0  0  0  0  0  0  0  0  0  0  0  # atno 6909 bound_to 6896
  146.2430  140.1221  142.8340 H   0  0  0  0  0  0  0  0  0  0  0  0  # atno 7974 bound_to 7965
  154.7422  140.2751  155.6364 H   0  0  0  0  0  0  0  0  0  0  0  0  # atno 8008 bound_to 7997
  156.2876  140.2695  156.2078 H   0  0  0  0  0  0  0  0  0  0  0  0  # atno 8009 bound_to 7997
  155.0244  140.0371  157.2440 H   0  0  0  0  0  0  0  0  0  0  0  0  # atno 8010 bound_to 7997
  140.7239  143.3786  151.1643 H   0  0  0  0  0  0  0  0  0  0  0  0  # atno 10167 bound_to 10162
  157.6157  131.1026  150.7479 H   0  0  0  0  0  0  0  0  0  0  0  0  # atno 10718 bound_to 10713
  154.0849  135.2856  155.3283 H   0  0  0  0  0  0  0  0  0  0  0  0  # atno 10763 bound_to 10752
  154.6659  135.5317  153.8079 H   0  0  0  0  0  0  0  0  0  0  0  0  # atno 10764 bound_to 10752
  153.0435  135.6545  154.1022 H   0  0  0  0  0  0  0  0  0  0  0  0  # atno 10765 bound_to 10752
  140.8180  134.2665  157.4913 H   0  0  0  0  0  0  0  0  0  0  0  0  # atno 11005 bound_to 11000
  145.0398  140.8936  143.5059 LP  0  0  0  0  0  0  0  0  0  0  0  0  # atno 17320 bound_to 7965
  145.1299  139.2638  143.5544 LP  0  0  0  0  0  0  0  0  0  0  0  0  # atno 17321 bound_to 7965
  139.7371  143.8983  152.3038 LP  0  0  0  0  0  0  0  0  0  0  0  0  # atno 17342 bound_to 10162
  139.8791  144.7027  150.8898 LP  0  0  0  0  0  0  0  0  0  0  0  0  # atno 17343 bound_to 10162
  156.7847  130.4870  149.5395 LP  0  0  0  0  0  0  0  0  0  0  0  0  # atno 17370 bound_to 10713
  156.1279  130.6157  151.0290 LP  0  0  0  0  0  0  0  0  0  0  0  0  # atno 17371 bound_to 10713
  139.8710  134.9519  156.4100 LP  0  0  0  0  0  0  0  0  0  0  0  0  # atno 17394 bound_to 11000
  140.9129  133.7699  155.9813 LP  0  0  0  0  0  0  0  0  0  0  0  0  # atno 17395 bound_to 11000

$$$$
