#       Name:                AV-unprocessed.smi:1744
#       Creating user name   scv26
#       Creation time:       Fri Mar 27 08:24:43 2020


#       File generated by GOLD software.
#

@<TRIPOS>MOLECULE
AV-unprocessed.smi:1744
    49    50     1
SMALL
NO_CHARGES


@<TRIPOS>ATOM
      1 ****        -6.9158  -1.6243   0.1941 C.3            1 S1                 0.0000
      2 ****        -6.2975  -1.1181   1.5031 C.3            1 S1                 0.0000
      3 ****        -5.0591  -0.4008   1.2708 N.pl3          1 S1                 0.0000
      4 ****        -3.7655  -0.8447   1.4609 C.2            1 S1                 0.0000
      5 ****        -2.9598   0.1919   1.0962 C.2            1 S1                 0.0000
      6 ****        -1.5430   0.1663   1.1267 N.am           1 S1                 0.0000
      7 ****        -0.7069   1.1614   0.7887 C.2            1 S1                 0.0000
      8 ****        -1.0541   2.2829   0.4195 O.2            1 S1                 0.0000
      9 ****         0.5745   0.7830   0.9024 N.am           1 S1                 0.0000
     10 ****         1.7327   1.6273   0.6091 C.3            1 S1                 0.0000
     11 ****         1.9925   1.7386  -0.9063 C.3            1 S1                 0.0000
     12 ****         2.5157   0.4188  -1.4995 C.3            1 S1                 0.0000
     13 ****         3.7409  -0.0400  -0.7909 N.4            1 S1                 1.0000
     14 ****         4.3587  -1.2397  -1.4090 C.3            1 S1                 0.0000
     15 ****         5.1365  -0.8474  -2.6697 C.2            1 S1                 0.0000
     16 ****         4.6449  -1.4301  -3.7796 N.pl3          1 S1                -1.0000
     17 ****         6.0826  -0.0674  -2.5818 O.2            1 S1                 0.0000
     18 ****         3.4979  -0.2182   0.6632 C.3            1 S1                 0.0000
     19 ****         2.9893   1.0834   1.3104 C.3            1 S1                 0.0000
     20 ****        -3.8344   1.2411   0.6944 C.2            1 S1                 0.0000
     21 ****        -5.1015   0.8718   0.8050 N.2            1 S1                 0.0000
     22 ****        -7.8439  -2.1627   0.3865 H              1 S1                 0.0000
     23 ****        -6.2383  -2.3030  -0.3249 H              1 S1                 0.0000
     24 ****        -7.1448  -0.7985  -0.4802 H              1 S1                 0.0000
     25 ****        -6.9939  -0.4576   2.0213 H              1 S1                 0.0000
     26 ****        -6.0964  -1.9549   2.1728 H              1 S1                 0.0000
     27 ****        -3.5390  -1.8352   1.8270 H              1 S1                 0.0000
     28 ****        -1.1247  -0.7018   1.4271 H              1 S1                 0.0000
     29 ****         0.7634  -0.1569   1.2185 H              1 S1                 0.0000
     30 ****         1.5299   2.6242   1.0052 H              1 S1                 0.0000
     31 ****         1.0894   2.0524  -1.4308 H              1 S1                 0.0000
     32 ****         2.7295   2.5227  -1.0851 H              1 S1                 0.0000
     33 ****         1.7473  -0.3534  -1.4405 H              1 S1                 0.0000
     34 ****         2.7261   0.5684  -2.5588 H              1 S1                 0.0000
     35 ****         5.0802  -1.6830  -0.7212 H              1 S1                 0.0000
     36 ****         3.6015  -2.0037  -1.5986 H              1 S1                 0.0000
     37 ****         5.0965  -1.2332  -4.6808 H              1 S1                 0.0000
     38 ****         2.7809  -1.0261   0.8158 H              1 S1                 0.0000
     39 ****         4.4229  -0.5210   1.1556 H              1 S1                 0.0000
     40 ****         3.7785   1.8351   1.2603 H              1 S1                 0.0000
     41 ****         2.7918   0.9236   2.3711 H              1 S1                 0.0000
     42 ****        -3.6102   2.2330   0.3318 H              1 S1                 0.0000
     43 ****         4.4261   0.6972  -0.8787 H              1 S1                 0.0000
     44 ****        -2.0260   2.5089   0.3533 LP             1 S1                 0.0000
     45 ****        -0.3644   2.9681   0.1857 LP             1 S1                 0.0000
     46 ****         3.8559  -2.0423  -3.7275 LP             1 S1                 0.0000
     47 ****         6.3407   0.3072  -1.6913 LP             1 S1                 0.0000
     48 ****         6.5941   0.1924  -3.4009 LP             1 S1                 0.0000
     49 ****        -5.9139   1.4143   0.5911 LP             1 S1                 0.0000
@<TRIPOS>BOND
    1    1    2 1     
    2    1   22 1     
    3    1   23 1     
    4    1   24 1     
    5    2    3 1     
    6    2   25 1     
    7    2   26 1     
    8    3   21 1     
    9    3    4 1     
   10    4    5 2     
   11    4   27 1     
   12    5    6 1     
   13    5   20 1     
   14    6    7 am    
   15    6   28 1     
   16    7    8 2     
   17    7    9 am    
   18    9   10 1     
   19    9   29 1     
   20   10   19 1     
   21   10   11 1     
   22   10   30 1     
   23   11   12 1     
   24   11   31 1     
   25   11   32 1     
   26   12   13 1     
   27   12   33 1     
   28   12   34 1     
   29   13   14 1     
   30   13   18 1     
   31   13   43 1     
   32   14   15 1     
   33   14   35 1     
   34   14   36 1     
   35   15   16 1     
   36   15   17 2     
   37   16   37 1     
   38   18   19 1     
   39   18   38 1     
   40   18   39 1     
   41   19   40 1     
   42   19   41 1     
   43   20   21 2     
   44   20   42 1     
   45    8   44 1     
   46    8   45 1     
   47   16   46 1     
   48   17   47 1     
   49   17   48 1     
   50   21   49 1     
@<TRIPOS>SUBSTRUCTURE
      1 S1             1
@<TRIPOS>SET
LONE_PAIRS      STATIC     ATOMS    <user>   **** ""
6 44 45 46 47 48 49
DONOR_HYDROGENS      STATIC     ATOMS    <user>   **** ""
4 28 29 43 37
ATOM$BLUE        STATIC     ATOMS    COLORGROUP SYSTEM
6 44 45 46 47 48 49
ATOM$RED        STATIC     ATOMS    COLORGROUP SYSTEM
4 28 29 43 37
