#       Name:                AV-unprocessed.smi:747
#       Creating user name   scv26
#       Creation time:       Fri Mar 27 00:57:31 2020


#       File generated by GOLD software.
#

@<TRIPOS>MOLECULE
AV-unprocessed.smi:747
    56    57     1
SMALL
NO_CHARGES


@<TRIPOS>ATOM
      1 ****        -5.1283   2.7093   0.8534 C.3            1 S1                 0.0000
      2 ****        -4.6327   2.0068  -0.3117 N.am           1 S1                 0.0000
      3 ****        -5.1566   2.3258  -1.5881 C.2            1 S1                 0.0000
      4 ****        -6.0283   3.1792  -1.7554 O.2            1 S1                 0.0000
      5 ****        -4.5773   1.5600  -2.6857 C.2            1 S1                 0.0000
      6 ****        -3.6206   0.6336  -2.4580 C.2            1 S1                 0.0000
      7 ****        -3.1261   0.3424  -1.1997 N.am           1 S1                 0.0000
      8 ****        -2.0699  -0.6649  -1.0446 C.3            1 S1                 0.0000
      9 ****        -0.6895  -0.0237  -0.8653 C.2            1 S1                 0.0000
     10 ****        -0.3317   0.8930  -1.6053 O.2            1 S1                 0.0000
     11 ****         0.0716  -0.5253   0.1202 N.am           1 S1                 0.0000
     12 ****         1.3889  -0.0297   0.5337 C.3            1 S1                 0.0000
     13 ****         1.2918   0.5340   1.9776 C.3            1 S1                 0.0000
     14 ****         0.2462   1.6445   2.1558 C.2            1 S1                 0.0000
     15 ****        -0.5784   1.5430   3.2010 N.am           1 S1                 0.0000
     16 ****         0.1846   2.5822   1.3633 O.2            1 S1                 0.0000
     17 ****         2.4498  -1.1575   0.3796 C.3            1 S1                 0.0000
     18 ****         3.8759  -0.6874   0.7589 C.3            1 S1                 0.0000
     19 ****         4.9248  -1.7984   0.5890 C.3            1 S1                 0.0000
     20 ****         4.9207  -2.3591  -0.8382 C.3            1 S1                 0.0000
     21 ****         3.5212  -2.8570  -1.2188 C.3            1 S1                 0.0000
     22 ****         2.4709  -1.7471  -1.0545 C.3            1 S1                 0.0000
     23 ****        -3.6335   1.0367  -0.0802 C.2            1 S1                 0.0000
     24 ****        -3.2117   0.7982   1.0548 O.2            1 S1                 0.0000
     25 ****        -5.9068   3.4231   0.5869 H              1 S1                 0.0000
     26 ****        -4.2803   3.2337   1.2977 H              1 S1                 0.0000
     27 ****        -5.5346   1.9597   1.5349 H              1 S1                 0.0000
     28 ****        -4.9174   1.7394  -3.6951 H              1 S1                 0.0000
     29 ****        -3.2200   0.0972  -3.3059 H              1 S1                 0.0000
     30 ****        -2.2992  -1.3203  -0.2020 H              1 S1                 0.0000
     31 ****        -2.0339  -1.3124  -1.9216 H              1 S1                 0.0000
     32 ****        -0.3107  -1.2874   0.6611 H              1 S1                 0.0000
     33 ****         1.6944   0.7896  -0.1200 H              1 S1                 0.0000
     34 ****         1.0843  -0.2787   2.6755 H              1 S1                 0.0000
     35 ****         2.2430   0.9668   2.2835 H              1 S1                 0.0000
     36 ****        -1.2773   2.2525   3.3657 H              1 S1                 0.0000
     37 ****        -0.4927   0.7572   3.8295 H              1 S1                 0.0000
     38 ****         2.1769  -1.9648   1.0613 H              1 S1                 0.0000
     39 ****         4.1542   0.1722   0.1477 H              1 S1                 0.0000
     40 ****         3.9112  -0.3546   1.7951 H              1 S1                 0.0000
     41 ****         5.9154  -1.4133   0.8324 H              1 S1                 0.0000
     42 ****         4.7232  -2.6019   1.2986 H              1 S1                 0.0000
     43 ****         5.2398  -1.5860  -1.5383 H              1 S1                 0.0000
     44 ****         5.6421  -3.1722  -0.9217 H              1 S1                 0.0000
     45 ****         3.5229  -3.2161  -2.2483 H              1 S1                 0.0000
     46 ****         3.2529  -3.7099  -0.5939 H              1 S1                 0.0000
     47 ****         1.4980  -2.1612  -1.3187 H              1 S1                 0.0000
     48 ****         2.6692  -0.9510  -1.7735 H              1 S1                 0.0000
     49 ****        -6.3953   3.6795  -0.9712 LP             1 S1                 0.0000
     50 ****        -6.3692   3.3720  -2.6755 LP             1 S1                 0.0000
     51 ****        -0.9425   1.2212  -2.3259 LP             1 S1                 0.0000
     52 ****         0.5696   1.3093  -1.4857 LP             1 S1                 0.0000
     53 ****         0.8197   2.6277   0.5922 LP             1 S1                 0.0000
     54 ****        -0.5006   3.2995   1.4897 LP             1 S1                 0.0000
     55 ****        -3.5784   1.2977   1.8397 LP             1 S1                 0.0000
     56 ****        -2.5032   0.1055   1.1896 LP             1 S1                 0.0000
@<TRIPOS>BOND
    1    1    2 1     
    2    1   25 1     
    3    1   26 1     
    4    1   27 1     
    5    2   23 am    
    6    2    3 am    
    7    3    4 2     
    8    3    5 1     
    9    5    6 2     
   10    5   28 1     
   11    6    7 1     
   12    6   29 1     
   13    7    8 1     
   14    7   23 am    
   15    8    9 1     
   16    8   30 1     
   17    8   31 1     
   18    9   10 2     
   19    9   11 am    
   20   11   12 1     
   21   11   32 1     
   22   12   13 1     
   23   12   17 1     
   24   12   33 1     
   25   13   14 1     
   26   13   34 1     
   27   13   35 1     
   28   14   15 am    
   29   14   16 2     
   30   15   36 1     
   31   15   37 1     
   32   17   22 1     
   33   17   18 1     
   34   17   38 1     
   35   18   19 1     
   36   18   39 1     
   37   18   40 1     
   38   19   20 1     
   39   19   41 1     
   40   19   42 1     
   41   20   21 1     
   42   20   43 1     
   43   20   44 1     
   44   21   22 1     
   45   21   45 1     
   46   21   46 1     
   47   22   47 1     
   48   22   48 1     
   49   23   24 2     
   50    4   49 1     
   51    4   50 1     
   52   10   51 1     
   53   10   52 1     
   54   16   53 1     
   55   16   54 1     
   56   24   55 1     
   57   24   56 1     
@<TRIPOS>SUBSTRUCTURE
      1 S1             1
@<TRIPOS>SET
LONE_PAIRS      STATIC     ATOMS    <user>   **** ""
8 49 50 51 52 53 54 55 56
DONOR_HYDROGENS      STATIC     ATOMS    <user>   **** ""
3 32 36 37
ATOM$BLUE        STATIC     ATOMS    COLORGROUP SYSTEM
8 49 50 51 52 53 54 55 56
ATOM$RED        STATIC     ATOMS    COLORGROUP SYSTEM
3 32 36 37
