AV-unprocessed.smi:385|AV-procd|sdf|2472|dock8
  -GOLD-   2262022413D 1   1.00000     0.00000
 Structure written by MMmdl.
 38 39  0  0  0  0  0  0  0  0  3 V2000
  149.0731  141.4549  153.7600 O   0  0  0  0  0  0  0  0  0  0  0  0
  148.9853  140.3695  154.3340 C   0  0  0  0  0  0  0  0  0  0  0  0
  149.6913  140.0599  155.4324 N   0  0  0  0  0  0  0  0  0  0  0  0
  150.6428  140.9443  156.0999 C   0  0  0  0  0  0  0  0  0  0  0  0
  150.2744  141.2377  157.5692 C   0  0  0  0  0  0  0  0  0  0  0  0
  150.9900  142.4457  158.1487 C   0  0  0  0  0  0  0  0  0  0  0  0
  151.8912  142.3365  159.2306 C   0  0  0  0  0  0  0  0  0  0  0  0
  152.5289  143.4969  159.7161 C   0  0  0  0  0  0  0  0  0  0  0  0
  152.2528  144.7403  159.1108 C   0  0  0  0  0  0  0  0  0  0  0  0
  151.3432  144.7922  158.0347 C   0  0  0  0  0  0  0  0  0  0  0  0
  150.7521  143.6581  157.5983 N   0  3  0  0  0  0  0  0  0  0  0  0
  148.0235  139.2944  153.8120 C   0  0  0  0  0  0  0  0  0  0  0  0
  147.5476  139.6187  152.3805 C   0  0  0  0  0  0  0  0  0  0  0  0
  146.5426  138.5672  151.8803 C   0  0  0  0  0  0  0  0  0  0  0  0
  145.3978  138.4533  152.8096 N   0  3  0  0  0  0  0  0  0  0  0  0
  145.8073  138.1103  154.1890 C   0  0  0  0  0  0  0  0  0  0  0  0
  146.7985  139.1504  154.7391 C   0  0  0  0  0  0  0  0  0  0  0  0
  149.5625  139.1431  155.8359 H   0  0  0  0  0  0  0  0  0  0  0  0
  151.6159  140.4538  156.0639 H   0  0  0  0  0  0  0  0  0  0  0  0
  150.7481  141.8752  155.5407 H   0  0  0  0  0  0  0  0  0  0  0  0
  149.1976  141.3877  157.6547 H   0  0  0  0  0  0  0  0  0  0  0  0
  150.5030  140.3677  158.1860 H   0  0  0  0  0  0  0  0  0  0  0  0
  152.0943  141.3757  159.6813 H   0  0  0  0  0  0  0  0  0  0  0  0
  153.2214  143.4335  160.5429 H   0  0  0  0  0  0  0  0  0  0  0  0
  152.7304  145.6411  159.4681 H   0  0  0  0  0  0  0  0  0  0  0  0
  151.0721  145.6992  157.5141 H   0  0  0  0  0  0  0  0  0  0  0  0
  148.5504  138.3386  153.7893 H   0  0  0  0  0  0  0  0  0  0  0  0
  147.0795  140.6042  152.3503 H   0  0  0  0  0  0  0  0  0  0  0  0
  148.3999  139.6613  151.7010 H   0  0  0  0  0  0  0  0  0  0  0  0
  146.1724  138.8381  150.8912 H   0  0  0  0  0  0  0  0  0  0  0  0
  147.0266  137.5943  151.7839 H   0  0  0  0  0  0  0  0  0  0  0  0
  144.9113  139.3385  152.8294 H   0  0  0  0  0  0  0  0  0  0  0  0
  144.9204  138.0610  154.8213 H   0  0  0  0  0  0  0  0  0  0  0  0
  146.2576  137.1168  154.1939 H   0  0  0  0  0  0  0  0  0  0  0  0
  147.1168  138.8577  155.7407 H   0  0  0  0  0  0  0  0  0  0  0  0
  146.2892  140.1099  154.8456 H   0  0  0  0  0  0  0  0  0  0  0  0
  144.7666  137.7425  152.4679 H   0  0  0  0  0  0  0  0  0  0  0  0
  150.0969  143.7195  156.8184 H   0  0  0  0  0  0  0  0  0  0  0  0
  1  2  2  0  0  0  0
  2  3  1  0  0  0  0
  2 12  1  0  0  0  0
  3  4  1  0  0  0  0
  3 18  1  0  0  0  0
  4  5  1  0  0  0  0
  4 19  1  0  0  0  0
  4 20  1  0  0  0  0
  5  6  1  0  0  0  0
  5 21  1  0  0  0  0
  5 22  1  0  0  0  0
  6 11  1  0  0  0  0
  6  7  2  0  0  0  0
  7  8  1  0  0  0  0
  7 23  1  0  0  0  0
  8  9  2  0  0  0  0
  8 24  1  0  0  0  0
  9 10  1  0  0  0  0
  9 25  1  0  0  0  0
 10 11  2  0  0  0  0
 10 26  1  0  0  0  0
 11 38  1  0  0  0  0
 12 17  1  0  0  0  0
 12 13  1  0  0  0  0
 12 27  1  0  0  0  0
 13 14  1  0  0  0  0
 13 28  1  0  0  0  0
 13 29  1  0  0  0  0
 14 15  1  0  0  0  0
 14 30  1  0  0  0  0
 14 31  1  0  0  0  0
 15 16  1  0  0  0  0
 15 32  1  0  0  0  0
 15 37  1  0  0  0  0
 16 17  1  0  0  0  0
 16 33  1  0  0  0  0
 16 34  1  0  0  0  0
 17 35  1  0  0  0  0
 17 36  1  0  0  0  0
M  CHG  1  11   1
M  CHG  1  15   1
M  END
> <s_m_source_file>
AV-unprocessed.smi

> <i_m_source_file_index>
385

> <i_lp_mmshare_version>
43012

> <i_f3d_flags>
0

> <s_epik_input>
W0NIMl0xW0NIMl1bTkhdW0NIMl1bQ0gyXVtDSF0xQyg9TylbTkhdW0NIMl1bQ0gyXWMyW2NIXVtjSF1bY0hdW2NIXW4y

> <s_epik_cmdline>
J2VwaWtfcHl0aG9uJywgJy1waCcsICc3LjAnLCAnLXRuJywgJzgnLCAnLW1hJywgJzIwMCcsICctbWV0YWxfYmluZGluZycsICctaW1hZScsICc8aW5maWxlLm1hZT4nLCAnLW9tYWUnLCAnPG91dGZpbGUubWFlPic=

> <r_epik_Ionization_Penalty>
1.95053

> <r_epik_Ionization_Penalty_Charging>
1.95053

> <r_epik_Ionization_Penalty_Neutral>
3.30626e-08

> <r_epik_State_Penalty>
2.07441

> <r_epik_Charging_Adjusted_Penalty>
4.02494

> <i_epik_Tot_Q>
2

> <i_epik_Tot_abs_Q>
2

> <r_epik_Metal_State_Penalty>
2.09624

> <b_epik_Metal_Only>
0

> <s_lp_Force_Field>
OPLS_2005

> <r_lp_Energy>
22.1472

> <b_lp_Chiralities_Consistent>
1

> <s_lp_Variant>
AV-unprocessed.smi:385-2

> <Gold.Version>
5.8.1

> <Gold.Id.Protein>
6NUR|6NUR_protein|mol2

> <Gold.PLP.Fitness>
47.8753

> <Gold.PLP.PLP>
-34.3491

> <Gold.PLP.part.hbond>
-3.6724

> <Gold.PLP.part.metal>
0.0000

> <Gold.PLP.part.buried>
-1.4774

> <Gold.PLP.part.nonpolar>
-31.2382

> <Gold.PLP.part.repulsive>
0.7611

> <Gold.PLP.ligand.clash>
0.0000

> <Gold.PLP.ligand.torsion>
0.3945

> <Gold.PLP.Chemscore.Hbond>
4.7680

> <Gold.PLP.Chemscore.CHOScore>
0.0000

> <Gold.PLP.Chemscore.Metal>
0.0000

> <Gold.Chemscore.Hbonds>
donor molecule, donor type, donor heavy atom, donor atom, acceptor molecule, acceptor atom, score
      L1  H    11    38       P1  8028  2.00
      L1  H    15    32       P1 10175  2.00
      P1  H  8011  8017       L1     1  0.78

> <Gold.PLP.Chemscore.Internal.Correction>
0.0112

> <Gold.Rescore>
     Score         DG    S(hbond)    S(metal)    S(lipo)     H(rot)  DE(clash)    DE(int)     intcor
     19.19     -21.62       2.68        0.00      98.07       1.67       1.86       0.57       ----

> <Gold.Chemscore.Fitness>
19.1926

> <Gold.Chemscore.DG>
-21.6237

> <Gold.Chemscore.ZeroCoef>
-5.4800

> <Gold.Chemscore.Hbond>
2.6786

> <Gold.Chemscore.Metal>
0.0000

> <Gold.Chemscore.Lipo>
98.0712

> <Gold.Chemscore.Internal_Hbond>
0.0000

> <Gold.Chemscore.DEClash>
1.8635

> <Gold.Chemscore.DEInternal>
0.5676

> <Gold.Chemscore.Rot>
1.6708

> <Gold.Chemscore.Internal.Correction>
   9.000000E+99

> <Gold.Chemscore.Hbonds>
donor molecule, donor type, donor heavy atom, donor atom, acceptor molecule, acceptor atom, score
      L1  H    11    38       P1  8028  0.94
      L1  H    15    32       P1 10175  0.99
      P1  H  8011  8017       L1     1  0.78

> <Gold.Chemscore.Hbond.Weighted>
-8.9466

> <Gold.Chemscore.Metal.Weighted>
-0.0000

> <Gold.Chemscore.Lipo.Weighted>
-11.4743

> <Gold.Chemscore.Internal_Hbond.Weighted>
0.0000

> <Gold.Chemscore.DEClash.Weighted>
1.8635

> <Gold.Chemscore.DEInternal.Weighted>
0.5676

> <Gold.Chemscore.Rot.Weighted>
4.2772

> <Gold.Chemscore.Internal.Correction.Weighted>
   9.000000E+99

> <Gold.Protein.RotatedTorsions>
[ 6907 6896 6895 6894 ] final  118.97 input  -60.11 | X-H torsion
[ 7974 7965 7964 7962 ] final -122.88 input  175.53 | X-H torsion
[ 8008 7997 7996 7995 ] final   27.06 input   59.86 | X-H torsion
[ 10167 10162 10161 10158 ] final   39.48 input  -65.29 | X-H torsion
[ 10718 10713 10712 10709 ] final    8.62 input   66.30 | X-H torsion
[ 10763 10752 10751 10750 ] final   99.08 input  -60.55 | X-H torsion
[ 11005 11000 10999 10996 ] final -147.76 input  -57.11 | X-H torsion

> <Gold.Protein.ActiveResidues>
 VAL166  LYS551  ARG553  GLY616  TRP617  ASP618  TYR619  PRO620  LYS621  CYS622 
 ASP623  PHE694  ASN695  SER759  ASP760  ASP761  ALA762  ILE779  LEU786  VAL792 
 PHE793  MET794  SER795  GLU796  ALA797  LYS798  CYS799  TRP800  GLU811  SER814 

> <Gold.Protein.RotatedAtoms>
  152.4505  133.7620  159.6751 H   0  0  0  0  0  0  0  0  0  0  0  0  # atno 6907 bound_to 6896
  150.8416  133.7917  159.3065 H   0  0  0  0  0  0  0  0  0  0  0  0  # atno 6908 bound_to 6896
  151.5540  135.1069  160.0008 H   0  0  0  0  0  0  0  0  0  0  0  0  # atno 6909 bound_to 6896
  145.0246  140.8017  143.4360 H   0  0  0  0  0  0  0  0  0  0  0  0  # atno 7974 bound_to 7965
  155.0370  140.3165  155.4738 H   0  0  0  0  0  0  0  0  0  0  0  0  # atno 8008 bound_to 7997
  156.2862  140.2170  156.5436 H   0  0  0  0  0  0  0  0  0  0  0  0  # atno 8009 bound_to 7997
  154.7322  140.0480  157.0724 H   0  0  0  0  0  0  0  0  0  0  0  0  # atno 8010 bound_to 7997
  140.3835  144.1948  150.6130 H   0  0  0  0  0  0  0  0  0  0  0  0  # atno 10167 bound_to 10162
  156.9544  130.5909  149.5658 H   0  0  0  0  0  0  0  0  0  0  0  0  # atno 10718 bound_to 10713
  153.2970  135.4126  155.1218 H   0  0  0  0  0  0  0  0  0  0  0  0  # atno 10763 bound_to 10752
  154.8538  135.3532  154.5904 H   0  0  0  0  0  0  0  0  0  0  0  0  # atno 10764 bound_to 10752
  153.6328  135.7060  153.5327 H   0  0  0  0  0  0  0  0  0  0  0  0  # atno 10765 bound_to 10752
  140.7683  134.3218  157.5082 H   0  0  0  0  0  0  0  0  0  0  0  0  # atno 11005 bound_to 11000
  145.1850  139.2331  143.5272 LP  0  0  0  0  0  0  0  0  0  0  0  0  # atno 17320 bound_to 7965
  146.3490  140.1632  142.8590 LP  0  0  0  0  0  0  0  0  0  0  0  0  # atno 17321 bound_to 7965
  140.4913  143.2346  151.8814 LP  0  0  0  0  0  0  0  0  0  0  0  0  # atno 17342 bound_to 10162
  139.4793  144.5162  151.8864 LP  0  0  0  0  0  0  0  0  0  0  0  0  # atno 17343 bound_to 10162
  156.0349  130.5437  150.8628 LP  0  0  0  0  0  0  0  0  0  0  0  0  # atno 17370 bound_to 10713
  157.5700  131.0946  150.9431 LP  0  0  0  0  0  0  0  0  0  0  0  0  # atno 17371 bound_to 10713
  139.8759  134.9245  156.3351 LP  0  0  0  0  0  0  0  0  0  0  0  0  # atno 17394 bound_to 11000
  140.9598  133.7396  156.0385 LP  0  0  0  0  0  0  0  0  0  0  0  0  # atno 17395 bound_to 11000

$$$$
