#       Name:                AV-unprocessed.smi:2936
#       Creating user name   scv26
#       Creation time:       Fri Mar 27 16:15:09 2020


#       File generated by GOLD software.
#

@<TRIPOS>MOLECULE
AV-unprocessed.smi:2936
    29    30     1
SMALL
NO_CHARGES


@<TRIPOS>ATOM
      1 ****        -3.0678   2.8905  -0.0132 O.2            1 S1                 0.0000
      2 ****        -2.7241   1.7101  -0.0106 C.2            1 S1                 0.0000
      3 ****        -3.6362   0.7088  -0.0138 N.am           1 S1                 0.0000
      4 ****        -3.3727  -0.6399  -0.0136 N.2            1 S1                 0.0000
      5 ****        -2.1417  -1.0224  -0.0078 C.2            1 S1                 0.0000
      6 ****        -1.0258  -0.0892  -0.0013 C.2            1 S1                 0.0000
      7 ****         0.2768  -0.5643   0.0068 N.pl3          1 S1                 0.0000
      8 ****         1.0366  -0.8023   1.2254 C.3            1 S1                 0.0000
      9 ****         2.3669  -0.0296   1.1840 C.3            1 S1                 0.0000
     10 ****         3.0874  -0.3836   0.0063 O.3            1 S1                 0.0000
     11 ****         2.3680  -0.0656  -1.1823 C.3            1 S1                 0.0000
     12 ****         1.0387  -0.8410  -1.2021 C.3            1 S1                 0.0000
     13 ****        -1.3320   1.2389  -0.0036 C.2            1 S1                 0.0000
     14 ****        -0.0853   2.4397   0.0003 Cl             1 S1                 0.0000
     15 ****        -4.6196   0.9383  -0.0173 H              1 S1                 0.0000
     16 ****        -1.8706  -2.0785  -0.0069 H              1 S1                 0.0000
     17 ****         0.4531  -0.5013   2.0961 H              1 S1                 0.0000
     18 ****         1.2247  -1.8722   1.3210 H              1 S1                 0.0000
     19 ****         2.1974   1.0475   1.2092 H              1 S1                 0.0000
     20 ****         2.9707  -0.2758   2.0575 H              1 S1                 0.0000
     21 ****         2.1965   1.0101  -1.2396 H              1 S1                 0.0000
     22 ****         2.9734  -0.3369  -2.0472 H              1 S1                 0.0000
     23 ****         1.2279  -1.9131  -1.2634 H              1 S1                 0.0000
     24 ****         0.4567  -0.5680  -2.0831 H              1 S1                 0.0000
     25 ****        -2.3761   3.6127  -0.0105 LP             1 S1                 0.0000
     26 ****        -4.0390   3.1284  -0.0180 LP             1 S1                 0.0000
     27 ****        -4.1170  -1.3077  -0.0179 LP             1 S1                 0.0000
     28 ****         3.2653  -1.3676   0.0213 LP             1 S1                 0.0000
     29 ****         3.9560   0.1120  -0.0009 LP             1 S1                 0.0000
@<TRIPOS>BOND
    1    1    2 2     
    2    2   13 1     
    3    2    3 am    
    4    3   15 1     
    5    3    4 1     
    6    4    5 2     
    7    5    6 1     
    8    5   16 1     
    9    6    7 1     
   10    6   13 2     
   11    7   12 1     
   12    7    8 1     
   13    8    9 1     
   14    8   17 1     
   15    8   18 1     
   16    9   10 1     
   17    9   19 1     
   18    9   20 1     
   19   10   11 1     
   20   11   12 1     
   21   11   21 1     
   22   11   22 1     
   23   12   23 1     
   24   12   24 1     
   25   13   14 1     
   26    1   25 1     
   27    1   26 1     
   28    4   27 1     
   29   10   28 1     
   30   10   29 1     
@<TRIPOS>SUBSTRUCTURE
      1 S1             1
@<TRIPOS>SET
LONE_PAIRS      STATIC     ATOMS    <user>   **** ""
5 25 26 27 28 29
DONOR_HYDROGENS      STATIC     ATOMS    <user>   **** ""
1 15
ATOM$BLUE        STATIC     ATOMS    COLORGROUP SYSTEM
5 25 26 27 28 29
ATOM$RED        STATIC     ATOMS    COLORGROUP SYSTEM
1 15
