AV-unprocessed.smi:350|AV-procd|sdf|2399|dock2
  -GOLD-   2262022333D 1   1.00000     0.00000
 Structure written by MMmdl.
 35 36  0  0  0  0  0  0  0  0  1 V2000
  147.8687  141.6094  154.0190 C   0  0  0  0  0  0  0  0  0  0  0  0
  149.1018  141.0278  154.6560 C   0  0  0  0  0  0  0  0  0  0  0  0
  149.8646  141.8483  155.3003 N   0  0  0  0  0  0  0  0  0  0  0  0
  151.0232  141.4203  155.9173 N   0  0  0  0  0  0  0  0  0  0  0  0
  151.7661  142.4901  156.5954 C   0  0  0  0  0  0  0  0  0  0  0  0
  150.8927  143.2596  157.6107 C   0  0  1  0  0  0  0  0  0  0  0  0
  149.6103  142.6645  157.6497 O   0  0  0  0  0  0  0  0  0  0  0  0
  151.5380  143.2703  158.9883 C   0  0  0  0  0  0  0  0  0  0  0  0
  151.0537  144.1253  160.0032 C   0  0  0  0  0  0  0  0  0  0  0  0
  151.6513  144.1239  161.2785 C   0  0  0  0  0  0  0  0  0  0  0  0
  152.7358  143.2668  161.5477 C   0  0  0  0  0  0  0  0  0  0  0  0
  153.4682  143.2644  163.1099 Cl  0  0  0  0  0  0  0  0  0  0  0  0
  153.2206  142.4098  160.5407 C   0  0  0  0  0  0  0  0  0  0  0  0
  152.6226  142.4104  159.2655 C   0  0  0  0  0  0  0  0  0  0  0  0
  151.4733  140.1330  155.9170 C   0  0  0  0  0  0  0  0  0  0  0  0
  152.5174  139.7960  156.4775 O   0  0  0  0  0  0  0  0  0  0  0  0
  150.6026  139.2071  155.1887 C   0  0  0  0  0  0  0  0  0  0  0  0
  151.0368  137.8475  155.1643 C   0  0  0  0  0  0  0  0  0  0  0  0
  151.4081  136.7512  155.1480 N   0  0  0  0  0  0  0  0  0  0  0  0
  149.4622  139.6158  154.5779 C   0  0  0  0  0  0  0  0  0  0  0  0
  148.5239  138.6955  153.8091 C   0  0  0  0  0  0  0  0  0  0  0  0
  147.8845  141.4603  152.9394 H   0  0  0  0  0  0  0  0  0  0  0  0
  147.7843  142.6819  154.2007 H   0  0  0  0  0  0  0  0  0  0  0  0
  146.9690  141.1373  154.4139 H   0  0  0  0  0  0  0  0  0  0  0  0
  152.6630  142.1001  157.0811 H   0  0  0  0  0  0  0  0  0  0  0  0
  152.1365  143.1822  155.8365 H   0  0  0  0  0  0  0  0  0  0  0  0
  150.7635  144.2931  157.2873 H   0  0  0  0  0  0  0  0  0  0  0  0
  149.0211  143.1900  157.1304 H   0  0  0  0  0  0  0  0  0  0  0  0
  150.2202  144.7839  159.8072 H   0  0  0  0  0  0  0  0  0  0  0  0
  151.2756  144.7807  162.0494 H   0  0  0  0  0  0  0  0  0  0  0  0
  154.0512  141.7502  160.7452 H   0  0  0  0  0  0  0  0  0  0  0  0
  153.0001  141.7464  158.5017 H   0  0  0  0  0  0  0  0  0  0  0  0
  148.8848  137.6679  153.7808 H   0  0  0  0  0  0  0  0  0  0  0  0
  148.4156  139.0319  152.7776 H   0  0  0  0  0  0  0  0  0  0  0  0
  147.5370  138.6837  154.2729 H   0  0  0  0  0  0  0  0  0  0  0  0
  1  2  1  0  0  0  0
  1 22  1  0  0  0  0
  1 23  1  0  0  0  0
  1 24  1  0  0  0  0
  2 20  1  0  0  0  0
  2  3  2  0  0  0  0
  3  4  1  0  0  0  0
  4  5  1  0  0  0  0
  4 15  1  0  0  0  0
  5  6  1  0  0  0  0
  5 25  1  0  0  0  0
  5 26  1  0  0  0  0
  6  7  1  0  0  0  0
  6  8  1  0  0  0  0
  6 27  1  0  0  0  0
  7 28  1  0  0  0  0
  8 14  1  0  0  0  0
  8  9  2  0  0  0  0
  9 10  1  0  0  0  0
  9 29  1  0  0  0  0
 10 11  2  0  0  0  0
 10 30  1  0  0  0  0
 11 12  1  0  0  0  0
 11 13  1  0  0  0  0
 13 14  2  0  0  0  0
 13 31  1  0  0  0  0
 14 32  1  0  0  0  0
 15 16  2  0  0  0  0
 15 17  1  0  0  0  0
 17 18  1  0  0  0  0
 17 20  2  0  0  0  0
 18 19  3  0  0  0  0
 20 21  1  0  0  0  0
 21 33  1  0  0  0  0
 21 34  1  0  0  0  0
 21 35  1  0  0  0  0
M  END
> <s_m_source_file>
AV-unprocessed.smi

> <i_m_source_file_index>
350

> <i_lp_mmshare_version>
43012

> <i_f3d_flags>
0

> <s_epik_input>
TiNDYyhjMVtDSDNdKWMoPU8pbihuYzFbQ0gzXSlbQ0gyXVtDQEhdKFtPSF0pYzJbY0hdW2NIXWMoQ2wpW2NIXVtjSF0y

> <s_epik_cmdline>
J2VwaWtfcHl0aG9uJywgJy1waCcsICc3LjAnLCAnLXRuJywgJzgnLCAnLW1hJywgJzIwMCcsICctbWV0YWxfYmluZGluZycsICctaW1hZScsICc8aW5maWxlLm1hZT4nLCAnLW9tYWUnLCAnPG91dGZpbGUubWFlPic=

> <r_lp_tautomer_probability>
1

> <r_epik_Ionization_Penalty>
1.17315e-07

> <r_epik_Ionization_Penalty_Charging>
1.40848e-10

> <r_epik_Ionization_Penalty_Neutral>
1.17174e-07

> <r_epik_State_Penalty>
-0

> <r_epik_Charging_Adjusted_Penalty>
1.40848e-10

> <i_epik_Tot_Q>
0

> <i_epik_Tot_abs_Q>
0

> <r_epik_Metal_State_Penalty>
-0

> <b_epik_Metal_Only>
0

> <s_lp_Force_Field>
OPLS_2005

> <r_lp_Energy>
28.138

> <b_lp_Chiralities_Consistent>
1

> <s_lp_Variant>
AV-unprocessed.smi:350-2

> <Gold.Version>
5.8.1

> <Gold.Id.Protein>
6NUR|6NUR_protein|mol2

> <Gold.PLP.Fitness>
52.1511

> <Gold.PLP.PLP>
-45.3731

> <Gold.PLP.part.hbond>
-3.4726

> <Gold.PLP.part.metal>
0.0000

> <Gold.PLP.part.buried>
-1.8369

> <Gold.PLP.part.nonpolar>
-38.0722

> <Gold.PLP.part.repulsive>
0.6542

> <Gold.PLP.ligand.clash>
0.0000

> <Gold.PLP.ligand.torsion>
1.0309

> <Gold.PLP.Chemscore.Hbond>
2.9425

> <Gold.PLP.Chemscore.CHOScore>
0.0000

> <Gold.PLP.Chemscore.Metal>
0.0000

> <Gold.Chemscore.Hbonds>
donor molecule, donor type, donor heavy atom, donor atom, acceptor molecule, acceptor atom, score
      L1  H     7    28       P1  8028  0.71
      P1  H  7997  8009       L1    16  1.00
      P1  H 10752 10764       L1    19  1.00

> <Gold.PLP.Chemscore.Internal.Correction>
0.0123

> <Gold.Rescore>
     Score         DG    S(hbond)    S(metal)    S(lipo)     H(rot)  DE(clash)    DE(int)     intcor
     22.49     -25.62       2.89        0.00     131.27       1.90       2.32       0.81       ----

> <Gold.Chemscore.Fitness>
22.4945

> <Gold.Chemscore.DG>
-25.6236

> <Gold.Chemscore.ZeroCoef>
-5.4800

> <Gold.Chemscore.Hbond>
2.8926

> <Gold.Chemscore.Metal>
0.0000

> <Gold.Chemscore.Lipo>
131.2669

> <Gold.Chemscore.Internal_Hbond>
0.0000

> <Gold.Chemscore.DEClash>
2.3182

> <Gold.Chemscore.DEInternal>
0.8110

> <Gold.Chemscore.Rot>
1.9047

> <Gold.Chemscore.Internal.Correction>
   9.000000E+99

> <Gold.Chemscore.Hbonds>
donor molecule, donor type, donor heavy atom, donor atom, acceptor molecule, acceptor atom, score
      L1  H     7    28       P1  8028  0.51
      P1  H  7997  8009       L1    16  1.00
      P1  H 10752 10764       L1    19  0.96

> <Gold.Chemscore.Hbond.Weighted>
-9.6615

> <Gold.Chemscore.Metal.Weighted>
-0.0000

> <Gold.Chemscore.Lipo.Weighted>
-15.3582

> <Gold.Chemscore.Internal_Hbond.Weighted>
0.0000

> <Gold.Chemscore.DEClash.Weighted>
2.3182

> <Gold.Chemscore.DEInternal.Weighted>
0.8110

> <Gold.Chemscore.Rot.Weighted>
4.8760

> <Gold.Chemscore.Internal.Correction.Weighted>
   9.000000E+99

> <Gold.Protein.RotatedTorsions>
[ 6907 6896 6895 6894 ] final   25.21 input  -60.11 | X-H torsion
[ 7974 7965 7964 7962 ] final   78.69 input  175.53 | X-H torsion
[ 8008 7997 7996 7995 ] final -172.63 input   59.86 | X-H torsion
[ 10167 10162 10161 10158 ] final  166.00 input  -65.29 | X-H torsion
[ 10718 10713 10712 10709 ] final -113.79 input   66.30 | X-H torsion
[ 10763 10752 10751 10750 ] final  -63.70 input  -60.55 | X-H torsion
[ 11005 11000 10999 10996 ] final  -87.49 input  -57.11 | X-H torsion

> <Gold.Protein.ActiveResidues>
 VAL166  LYS551  ARG553  GLY616  TRP617  ASP618  TYR619  PRO620  LYS621  CYS622 
 ASP623  PHE694  ASN695  SER759  ASP760  ASP761  ALA762  ILE779  LEU786  VAL792 
 PHE793  MET794  SER795  GLU796  ALA797  LYS798  CYS799  TRP800  GLU811  SER814 

> <Gold.Protein.RotatedAtoms>
  151.9691  135.0085  160.0551 H   0  0  0  0  0  0  0  0  0  0  0  0  # atno 6907 bound_to 6896
  152.1799  133.4695  159.4961 H   0  0  0  0  0  0  0  0  0  0  0  0  # atno 6908 bound_to 6896
  150.6915  134.1764  159.4274 H   0  0  0  0  0  0  0  0  0  0  0  0  # atno 6909 bound_to 6896
  145.6738  139.2504  143.1853 H   0  0  0  0  0  0  0  0  0  0  0  0  # atno 7974 bound_to 7965
  155.9470  140.1119  157.1008 H   0  0  0  0  0  0  0  0  0  0  0  0  # atno 8008 bound_to 7997
  154.4101  140.1208  156.5069 H   0  0  0  0  0  0  0  0  0  0  0  0  # atno 8009 bound_to 7997
  155.6890  140.3472  155.4888 H   0  0  0  0  0  0  0  0  0  0  0  0  # atno 8010 bound_to 7997
  139.4916  144.4073  151.9340 H   0  0  0  0  0  0  0  0  0  0  0  0  # atno 10167 bound_to 10162
  156.0789  130.5992  150.8689 H   0  0  0  0  0  0  0  0  0  0  0  0  # atno 10718 bound_to 10713
  154.3190  135.6200  153.5499 H   0  0  0  0  0  0  0  0  0  0  0  0  # atno 10763 bound_to 10752
  152.9822  135.5719  154.5091 H   0  0  0  0  0  0  0  0  0  0  0  0  # atno 10764 bound_to 10752
  154.4755  135.2861  155.1587 H   0  0  0  0  0  0  0  0  0  0  0  0  # atno 10765 bound_to 10752
  141.1616  133.7514  156.9314 H   0  0  0  0  0  0  0  0  0  0  0  0  # atno 11005 bound_to 11000
  146.1022  140.7530  142.9543 LP  0  0  0  0  0  0  0  0  0  0  0  0  # atno 17320 bound_to 7965
  144.7048  140.3806  143.7127 LP  0  0  0  0  0  0  0  0  0  0  0  0  # atno 17321 bound_to 7965
  140.3514  144.3084  150.5948 LP  0  0  0  0  0  0  0  0  0  0  0  0  # atno 17342 bound_to 10162
  140.5482  143.2211  151.7972 LP  0  0  0  0  0  0  0  0  0  0  0  0  # atno 17343 bound_to 10162
  157.5897  131.0945  150.9139 LP  0  0  0  0  0  0  0  0  0  0  0  0  # atno 17370 bound_to 10713
  156.9317  130.5352  149.5279 LP  0  0  0  0  0  0  0  0  0  0  0  0  # atno 17371 bound_to 10713
  140.1384  134.9310  157.2433 LP  0  0  0  0  0  0  0  0  0  0  0  0  # atno 17394 bound_to 11000
  140.2867  134.3288  155.7327 LP  0  0  0  0  0  0  0  0  0  0  0  0  # atno 17395 bound_to 11000

$$$$
