AV-unprocessed.smi:86|AV-procd|sdf|818|dock1
  -GOLD-   2262017223D 1   1.00000     0.00000
 Structure written by MMmdl.
 51 55  0  0  0  0  0  0  0  0  1 V2000
  144.6229  138.0332  152.5948 O   0  0  0  0  0  0  0  0  0  0  0  0
  146.0000  137.7502  152.7393 C   0  0  0  0  0  0  0  0  0  0  0  0
  146.5661  138.3638  154.0315 C   0  0  0  0  0  0  0  0  0  0  0  0
  146.9161  139.8499  153.8112 C   0  0  0  0  0  0  0  0  0  0  0  0
  148.1256  140.2735  154.5010 N   0  0  0  0  0  0  0  0  0  0  0  0
  149.4235  140.0287  154.1130 C   0  0  0  0  0  0  0  0  0  0  0  0
  150.3419  140.5176  154.9002 N   0  0  0  0  0  0  0  0  0  0  0  0
  149.6251  141.1387  155.9153 C   0  0  0  0  0  0  0  0  0  0  0  0
  149.9799  141.8635  157.0884 C   0  0  0  0  0  0  0  0  0  0  0  0
  151.2408  142.1230  157.4919 N   0  0  0  0  0  0  0  0  0  0  0  0
  151.7338  141.3758  158.6388 C   0  0  0  0  0  0  0  0  0  0  0  0
  152.9440  142.1795  159.1060 C   0  0  2  0  0  0  0  0  0  0  0  0
  153.4868  141.8471  160.5100 C   0  0  0  0  0  0  0  0  0  0  0  0
  152.6273  142.4256  161.6424 C   0  0  0  0  0  0  0  0  0  0  0  0
  152.4197  143.9340  161.4447 C   0  0  2  0  0  0  0  0  0  0  0  0
  151.6378  144.4423  162.5049 O   0  0  0  0  0  0  0  0  0  0  0  0
  151.7055  144.2009  160.1126 C   0  0  0  0  0  0  0  0  0  0  0  0
  152.4817  143.6328  158.9038 C   0  0  2  0  0  0  0  0  0  0  0  0
  151.5784  143.5340  157.6596 C   0  0  0  0  0  0  0  0  0  0  0  0
  148.9801  142.3242  157.8786 N   0  0  0  0  0  0  0  0  0  0  0  0
  147.7063  142.1005  157.5431 C   0  0  0  0  0  0  0  0  0  0  0  0
  147.2243  141.4504  156.4816 N   0  0  0  0  0  0  0  0  0  0  0  0
  148.2289  140.9826  155.6862 C   0  0  0  0  0  0  0  0  0  0  0  0
  145.7742  138.0367  155.3050 C   0  0  0  0  0  0  0  0  0  0  0  0
  146.7121  137.0104  155.6930 O   0  0  0  0  0  0  0  0  0  0  0  0
  147.6463  137.5122  154.7145 C   0  0  0  0  0  0  0  0  0  0  0  0
  144.4822  138.9485  152.7837 H   0  0  0  0  0  0  0  0  0  0  0  0
  146.1167  136.6660  152.7459 H   0  0  0  0  0  0  0  0  0  0  0  0
  146.5328  138.1051  151.8575 H   0  0  0  0  0  0  0  0  0  0  0  0
  147.0246  140.0738  152.7495 H   0  0  0  0  0  0  0  0  0  0  0  0
  146.1013  140.4866  154.1587 H   0  0  0  0  0  0  0  0  0  0  0  0
  149.6724  139.4726  153.2212 H   0  0  0  0  0  0  0  0  0  0  0  0
  150.9814  141.3104  159.4243 H   0  0  0  0  0  0  0  0  0  0  0  0
  152.0129  140.3616  158.3522 H   0  0  0  0  0  0  0  0  0  0  0  0
  153.7453  141.9825  158.3914 H   0  0  0  0  0  0  0  0  0  0  0  0
  153.5884  140.7678  160.6271 H   0  0  0  0  0  0  0  0  0  0  0  0
  154.4937  142.2567  160.5984 H   0  0  0  0  0  0  0  0  0  0  0  0
  151.6638  141.9148  161.6731 H   0  0  0  0  0  0  0  0  0  0  0  0
  153.1099  142.2347  162.6016 H   0  0  0  0  0  0  0  0  0  0  0  0
  153.3827  144.4460  161.4580 H   0  0  0  0  0  0  0  0  0  0  0  0
  152.0517  145.2254  162.8342 H   0  0  0  0  0  0  0  0  0  0  0  0
  150.7124  143.7551  160.1553 H   0  0  0  0  0  0  0  0  0  0  0  0
  151.5507  145.2719  159.9761 H   0  0  0  0  0  0  0  0  0  0  0  0
  153.3420  144.2742  158.7087 H   0  0  0  0  0  0  0  0  0  0  0  0
  152.1235  143.8577  156.7724 H   0  0  0  0  0  0  0  0  0  0  0  0
  150.6939  144.1675  157.7456 H   0  0  0  0  0  0  0  0  0  0  0  0
  146.9674  142.5002  158.2219 H   0  0  0  0  0  0  0  0  0  0  0  0
  145.7431  138.8512  156.0304 H   0  0  0  0  0  0  0  0  0  0  0  0
  144.7741  137.6428  155.1208 H   0  0  0  0  0  0  0  0  0  0  0  0
  148.0591  136.7248  154.0826 H   0  0  0  0  0  0  0  0  0  0  0  0
  148.4421  138.0906  155.1854 H   0  0  0  0  0  0  0  0  0  0  0  0
  1  2  1  0  0  0  0
  1 27  1  0  0  0  0
  2  3  1  0  0  0  0
  2 28  1  0  0  0  0
  2 29  1  0  0  0  0
  3 26  1  0  0  0  0
  3  4  1  0  0  0  0
  3 24  1  0  0  0  0
  4  5  1  0  0  0  0
  4 30  1  0  0  0  0
  4 31  1  0  0  0  0
  5 23  1  0  0  0  0
  5  6  1  0  0  0  0
  6  7  2  0  0  0  0
  6 32  1  0  0  0  0
  7  8  1  0  0  0  0
  8 23  2  0  0  0  0
  8  9  1  0  0  0  0
  9 10  1  0  0  0  0
  9 20  2  0  0  0  0
 10 19  1  0  0  0  0
 10 11  1  0  0  0  0
 11 12  1  0  0  0  0
 11 33  1  0  0  0  0
 11 34  1  0  0  0  0
 12 18  1  0  0  0  0
 12 13  1  0  0  0  0
 12 35  1  0  0  0  0
 13 14  1  0  0  0  0
 13 36  1  0  0  0  0
 13 37  1  0  0  0  0
 14 15  1  0  0  0  0
 14 38  1  0  0  0  0
 14 39  1  0  0  0  0
 15 16  1  0  0  0  0
 15 17  1  0  0  0  0
 15 40  1  0  0  0  0
 16 41  1  0  0  0  0
 17 18  1  0  0  0  0
 17 42  1  0  0  0  0
 17 43  1  0  0  0  0
 18 19  1  0  0  0  0
 18 44  1  0  0  0  0
 19 45  1  0  0  0  0
 19 46  1  0  0  0  0
 20 21  1  0  0  0  0
 21 22  2  0  0  0  0
 21 47  1  0  0  0  0
 22 23  1  0  0  0  0
 24 25  1  0  0  0  0
 24 48  1  0  0  0  0
 24 49  1  0  0  0  0
 25 26  1  0  0  0  0
 26 50  1  0  0  0  0
 26 51  1  0  0  0  0
M  END
> <s_m_source_file>
AV-unprocessed.smi

> <i_m_source_file_index>
86

> <i_lp_mmshare_version>
43012

> <i_f3d_flags>
0

> <s_epik_input>
W0NIMl0xT1tDSDJdQzEoW0NIMl1bT0hdKVtDSDJdbihbY0hdbjIpYyhjMjMpbltjSF1uYzNOKFtDSDJdNClbQ0gyXVtDQEBIXShbQ0BIXTQ1KVtDSDJdW0NASF0oW09IXSlbQ0gyXVtDSDJdNQ==

> <s_epik_cmdline>
J2VwaWtfcHl0aG9uJywgJy1waCcsICc3LjAnLCAnLXRuJywgJzgnLCAnLW1hJywgJzIwMCcsICctbWV0YWxfYmluZGluZycsICctaW1hZScsICc8aW5maWxlLm1hZT4nLCAnLW9tYWUnLCAnPG91dGZpbGUubWFlPic=

> <r_lp_tautomer_probability>
1

> <r_epik_Ionization_Penalty>
0.00425795

> <r_epik_Ionization_Penalty_Charging>
0

> <r_epik_Ionization_Penalty_Neutral>
0.00425795

> <r_epik_State_Penalty>
0.00299946

> <r_epik_Charging_Adjusted_Penalty>
0.00299946

> <i_epik_Tot_Q>
0

> <i_epik_Tot_abs_Q>
0

> <r_epik_Metal_State_Penalty>
-0

> <b_epik_Metal_Only>
0

> <s_lp_Force_Field>
OPLS_2005

> <r_lp_Energy>
56.4675

> <b_lp_Chiralities_Consistent>
1

> <s_lp_Variant>
AV-unprocessed.smi:86-7

> <Gold.Version>
5.8.1

> <Gold.Id.Protein>
6NUR|6NUR_protein|mol2

> <Gold.PLP.Fitness>
52.7253

> <Gold.PLP.PLP>
-47.0648

> <Gold.PLP.part.hbond>
-4.6892

> <Gold.PLP.part.metal>
0.0000

> <Gold.PLP.part.buried>
-6.3497

> <Gold.PLP.part.nonpolar>
-38.3687

> <Gold.PLP.part.repulsive>
0.4161

> <Gold.PLP.ligand.clash>
0.0000

> <Gold.PLP.ligand.torsion>
1.5163

> <Gold.PLP.Chemscore.Hbond>
1.7440

> <Gold.PLP.Chemscore.CHOScore>
1.0000

> <Gold.PLP.Chemscore.Metal>
0.0000

> <Gold.Chemscore.Hbonds>
donor molecule, donor type, donor heavy atom, donor atom, acceptor molecule, acceptor atom, score
      L1  H     1    27       P1 10175  0.99
      P1  H  7989  7998       L1     7  0.78
      L1  C     6    32       P1  7957  1.00

> <Gold.PLP.Chemscore.Internal.Correction>
0.4611

> <Gold.Rescore>
     Score         DG    S(hbond)    S(metal)    S(lipo)     H(rot)  DE(clash)    DE(int)     intcor
     10.58     -14.57       1.19        0.00     111.36       3.09       2.57       1.42       ----

> <Gold.Chemscore.Fitness>
10.5829

> <Gold.Chemscore.DG>
-14.5708

> <Gold.Chemscore.ZeroCoef>
-5.4800

> <Gold.Chemscore.Hbond>
1.1887

> <Gold.Chemscore.Metal>
0.0000

> <Gold.Chemscore.Lipo>
111.3589

> <Gold.Chemscore.Internal_Hbond>
0.0000

> <Gold.Chemscore.DEClash>
2.5667

> <Gold.Chemscore.DEInternal>
1.4212

> <Gold.Chemscore.Rot>
3.0892

> <Gold.Chemscore.Internal.Correction>
   9.000000E+99

> <Gold.Chemscore.Hbonds>
donor molecule, donor type, donor heavy atom, donor atom, acceptor molecule, acceptor atom, score
      L1  H     1    27       P1 10175  0.94
      P1  H  7989  7998       L1     7  0.11

> <Gold.Chemscore.Hbond.Weighted>
-3.9701

> <Gold.Chemscore.Metal.Weighted>
-0.0000

> <Gold.Chemscore.Lipo.Weighted>
-13.0290

> <Gold.Chemscore.Internal_Hbond.Weighted>
0.0000

> <Gold.Chemscore.DEClash.Weighted>
2.5667

> <Gold.Chemscore.DEInternal.Weighted>
1.4212

> <Gold.Chemscore.Rot.Weighted>
7.9083

> <Gold.Chemscore.Internal.Correction.Weighted>
   9.000000E+99

> <Gold.Protein.RotatedTorsions>
[ 6907 6896 6895 6894 ] final -131.81 input  -60.11 | X-H torsion
[ 7974 7965 7964 7962 ] final  -82.84 input  175.53 | X-H torsion
[ 8008 7997 7996 7995 ] final  -94.22 input   59.86 | X-H torsion
[ 10167 10162 10161 10158 ] final -123.69 input  -65.29 | X-H torsion
[ 10718 10713 10712 10709 ] final -118.81 input   66.30 | X-H torsion
[ 10763 10752 10751 10750 ] final -150.92 input  -60.55 | X-H torsion
[ 11005 11000 10999 10996 ] final   11.01 input  -57.11 | X-H torsion

> <Gold.Protein.ActiveResidues>
 VAL166  LYS551  ARG553  GLY616  TRP617  ASP618  TYR619  PRO620  LYS621  CYS622 
 ASP623  PHE694  ASN695  SER759  ASP760  ASP761  ALA762  ILE779  LEU786  VAL792 
 PHE793  MET794  SER795  GLU796  ALA797  LYS798  CYS799  TRP800  GLU811  SER814 

> <Gold.Protein.RotatedAtoms>
  150.9552  133.6505  159.2764 H   0  0  0  0  0  0  0  0  0  0  0  0  # atno 6907 bound_to 6896
  151.3847  135.0944  159.9517 H   0  0  0  0  0  0  0  0  0  0  0  0  # atno 6908 bound_to 6896
  152.5126  133.9079  159.7528 H   0  0  0  0  0  0  0  0  0  0  0  0  # atno 6909 bound_to 6896
  145.5279  140.9524  143.1619 H   0  0  0  0  0  0  0  0  0  0  0  0  # atno 7974 bound_to 7965
  154.7457  140.0491  157.0850 H   0  0  0  0  0  0  0  0  0  0  0  0  # atno 8008 bound_to 7997
  155.0121  140.3137  155.4806 H   0  0  0  0  0  0  0  0  0  0  0  0  # atno 8009 bound_to 7997
  156.2874  140.2182  156.5236 H   0  0  0  0  0  0  0  0  0  0  0  0  # atno 8010 bound_to 7997
  140.0008  143.5542  152.2304 H   0  0  0  0  0  0  0  0  0  0  0  0  # atno 10167 bound_to 10162
  156.1134  130.6267  150.9338 H   0  0  0  0  0  0  0  0  0  0  0  0  # atno 10718 bound_to 10713
  154.8089  135.3272  154.7357 H   0  0  0  0  0  0  0  0  0  0  0  0  # atno 10763 bound_to 10752
  153.8010  135.6903  153.4860 H   0  0  0  0  0  0  0  0  0  0  0  0  # atno 10764 bound_to 10752
  153.1854  135.4571  155.0027 H   0  0  0  0  0  0  0  0  0  0  0  0  # atno 10765 bound_to 10752
  140.5081  134.0679  155.7811 H   0  0  0  0  0  0  0  0  0  0  0  0  # atno 11005 bound_to 11000
  144.7641  139.6886  143.7222 LP  0  0  0  0  0  0  0  0  0  0  0  0  # atno 17320 bound_to 7965
  146.2063  139.5390  142.9710 LP  0  0  0  0  0  0  0  0  0  0  0  0  # atno 17321 bound_to 7965
  139.6273  144.7639  151.2612 LP  0  0  0  0  0  0  0  0  0  0  0  0  # atno 17342 bound_to 10162
  140.7419  143.6542  150.8222 LP  0  0  0  0  0  0  0  0  0  0  0  0  # atno 17343 bound_to 10162
  157.6316  131.0920  150.8429 LP  0  0  0  0  0  0  0  0  0  0  0  0  # atno 17370 bound_to 10713
  156.8536  130.5089  149.5309 LP  0  0  0  0  0  0  0  0  0  0  0  0  # atno 17371 bound_to 10713
  141.1400  133.9154  157.2347 LP  0  0  0  0  0  0  0  0  0  0  0  0  # atno 17394 bound_to 11000
  139.9675  135.0138  156.9424 LP  0  0  0  0  0  0  0  0  0  0  0  0  # atno 17395 bound_to 11000

$$$$
