AV-unprocessed.smi:2708|AV-procd|sdf|10459|dock2
  -GOLD-   2272014493D 1   1.00000     0.00000
 Structure written by MMmdl.
 35 35  0  0  0  0  0  0  0  0  2 V2000
  151.0697  136.5094  155.4794 C   0  0  0  0  0  0  0  0  0  0  0  0
  151.4450  137.9914  155.6518 C   0  0  1  0  0  0  0  0  0  0  0  0
  151.8004  138.2115  157.0519 N   0  0  0  0  0  0  0  0  0  0  0  0
  152.1516  139.3876  157.5968 C   0  0  0  0  0  0  0  0  0  0  0  0
  152.2016  140.4444  156.9670 O   0  0  0  0  0  0  0  0  0  0  0  0
  152.4931  139.3685  159.0872 C   0  0  0  0  0  0  0  0  0  0  0  0
  152.6135  140.7720  159.6056 C   0  0  0  0  0  0  0  0  0  0  0  0
  153.4621  141.2167  160.5876 C   0  0  0  0  0  0  0  0  0  0  0  0
  153.2861  142.9252  160.8722 S   0  0  0  0  0  0  0  0  0  0  0  0
  152.0340  142.9842  159.6260 C   0  0  0  0  0  0  0  0  0  0  0  0
  151.3013  144.2305  159.1910 C   0  0  0  0  0  0  0  0  0  0  0  0
  151.7755  145.4324  160.0309 C   0  0  0  0  0  0  0  0  0  0  0  0
  149.7776  144.0859  159.3962 C   0  0  0  0  0  0  0  0  0  0  0  0
  151.5458  144.4858  157.6910 C   0  0  0  0  0  0  0  0  0  0  0  0
  151.8056  141.7850  159.0789 N   0  0  0  0  0  0  0  0  0  0  0  0
  152.6435  138.2997  154.7402 C   0  0  0  0  0  0  0  0  0  0  0  0
  153.0474  137.3728  154.0044 O   0  0  0  0  0  0  0  0  0  0  0  0
  153.1391  139.4481  154.7949 O   0  5  0  0  0  0  0  0  0  0  0  0
  150.5946  138.6177  155.3748 H   0  0  0  0  0  0  0  0  0  0  0  0
  150.8100  136.2851  154.4440 H   0  0  0  0  0  0  0  0  0  0  0  0
  150.2049  136.2552  156.0933 H   0  0  0  0  0  0  0  0  0  0  0  0
  151.8850  135.8448  155.7701 H   0  0  0  0  0  0  0  0  0  0  0  0
  151.7989  137.3973  157.6488 H   0  0  0  0  0  0  0  0  0  0  0  0
  151.7254  138.8165  159.6312 H   0  0  0  0  0  0  0  0  0  0  0  0
  153.4258  138.8223  159.2338 H   0  0  0  0  0  0  0  0  0  0  0  0
  154.1829  140.6448  161.1529 H   0  0  0  0  0  0  0  0  0  0  0  0
  151.2512  146.3465  159.7502 H   0  0  0  0  0  0  0  0  0  0  0  0
  152.8425  145.6166  159.8991 H   0  0  0  0  0  0  0  0  0  0  0  0
  151.6009  145.2655  161.0943 H   0  0  0  0  0  0  0  0  0  0  0  0
  149.5257  143.9233  160.4448 H   0  0  0  0  0  0  0  0  0  0  0  0
  149.3720  143.2516  158.8223 H   0  0  0  0  0  0  0  0  0  0  0  0
  149.2476  144.9836  159.0757 H   0  0  0  0  0  0  0  0  0  0  0  0
  151.0132  145.3727  157.3459 H   0  0  0  0  0  0  0  0  0  0  0  0
  151.2106  143.6427  157.0855 H   0  0  0  0  0  0  0  0  0  0  0  0
  152.6043  144.6419  157.4794 H   0  0  0  0  0  0  0  0  0  0  0  0
  1  2  1  0  0  0  0
  1 20  1  0  0  0  0
  1 21  1  0  0  0  0
  1 22  1  0  0  0  0
  2 19  1  0  0  0  0
  2  3  1  0  0  0  0
  2 16  1  0  0  0  0
  3  4  1  0  0  0  0
  3 23  1  0  0  0  0
  4  5  2  0  0  0  0
  4  6  1  0  0  0  0
  6  7  1  0  0  0  0
  6 24  1  0  0  0  0
  6 25  1  0  0  0  0
  7 15  1  0  0  0  0
  7  8  2  0  0  0  0
  8  9  1  0  0  0  0
  8 26  1  0  0  0  0
  9 10  1  0  0  0  0
 10 11  1  0  0  0  0
 10 15  2  0  0  0  0
 11 12  1  0  0  0  0
 11 13  1  0  0  0  0
 11 14  1  0  0  0  0
 12 27  1  0  0  0  0
 12 28  1  0  0  0  0
 12 29  1  0  0  0  0
 13 30  1  0  0  0  0
 13 31  1  0  0  0  0
 13 32  1  0  0  0  0
 14 33  1  0  0  0  0
 14 34  1  0  0  0  0
 14 35  1  0  0  0  0
 16 17  2  0  0  0  0
 16 18  1  0  0  0  0
M  CHG  1  18  -1
M  END
> <s_m_source_file>
AV-unprocessed.smi

> <i_m_source_file_index>
2708

> <i_lp_mmshare_version>
43012

> <i_f3d_flags>
0

> <s_epik_input>
Tz1DKFtPSF0pW0NASF0oW0NIM10pW05IXUMoPU8pW0NIMl1jMVtjSF1zYyhuMSlDKFtDSDNdKShbQ0gzXSlbQ0gzXQ==

> <s_epik_cmdline>
J2VwaWtfcHl0aG9uJywgJy1waCcsICc3LjAnLCAnLXRuJywgJzgnLCAnLW1hJywgJzIwMCcsICctbWV0YWxfYmluZGluZycsICctaW1hZScsICc8aW5maWxlLm1hZT4nLCAnLW9tYWUnLCAnPG91dGZpbGUubWFlPic=

> <r_lp_tautomer_probability>
1

> <r_epik_Ionization_Penalty>
0.000214174

> <r_epik_Ionization_Penalty_Charging>
0.000167453

> <r_epik_Ionization_Penalty_Neutral>
4.67216e-05

> <r_epik_State_Penalty>
-0

> <r_epik_Charging_Adjusted_Penalty>
0.000167453

> <i_epik_Tot_Q>
-1

> <i_epik_Tot_abs_Q>
1

> <r_epik_Metal_State_Penalty>
-0

> <b_epik_Metal_Only>
0

> <s_lp_Force_Field>
OPLS_2005

> <r_lp_Energy>
-5.21837

> <b_lp_Chiralities_Consistent>
1

> <s_lp_Variant>
AV-unprocessed.smi:2708-2

> <Gold.Version>
5.8.1

> <Gold.Id.Protein>
6NUR|6NUR_protein|mol2

> <Gold.PLP.Fitness>
48.1836

> <Gold.PLP.PLP>
-38.3510

> <Gold.PLP.part.hbond>
-3.2103

> <Gold.PLP.part.metal>
0.0000

> <Gold.PLP.part.buried>
-4.3790

> <Gold.PLP.part.nonpolar>
-29.6218

> <Gold.PLP.part.repulsive>
0.2026

> <Gold.PLP.ligand.clash>
0.0000

> <Gold.PLP.ligand.torsion>
0.4876

> <Gold.PLP.Chemscore.Hbond>
3.5858

> <Gold.PLP.Chemscore.CHOScore>
0.0000

> <Gold.PLP.Chemscore.Metal>
0.0000

> <Gold.Chemscore.Hbonds>
donor molecule, donor type, donor heavy atom, donor atom, acceptor molecule, acceptor atom, score
      P1  H  7989  7998       L1    18  0.02
      P1  H  7997  8008       L1    18  2.00
      P1  H 10752 10764       L1    17  0.86

> <Gold.PLP.Chemscore.Internal.Correction>
0.0506

> <Gold.Rescore>
     Score         DG    S(hbond)    S(metal)    S(lipo)     H(rot)  DE(clash)    DE(int)     intcor
     12.89     -16.77       1.65        0.00      98.59       2.25       0.52       3.36       ----

> <Gold.Chemscore.Fitness>
12.8874

> <Gold.Chemscore.DG>
-16.7707

> <Gold.Chemscore.ZeroCoef>
-5.4800

> <Gold.Chemscore.Hbond>
1.6498

> <Gold.Chemscore.Metal>
0.0000

> <Gold.Chemscore.Lipo>
98.5884

> <Gold.Chemscore.Internal_Hbond>
0.0000

> <Gold.Chemscore.DEClash>
0.5230

> <Gold.Chemscore.DEInternal>
3.3604

> <Gold.Chemscore.Rot>
2.2478

> <Gold.Chemscore.Internal.Correction>
   9.000000E+99

> <Gold.Chemscore.Hbonds>
donor molecule, donor type, donor heavy atom, donor atom, acceptor molecule, acceptor atom, score
      P1  H  7989  7998       L1    18  0.02
      P1  H  7997  8008       L1    18  1.00
      P1  H 10752 10764       L1    17  0.42

> <Gold.Chemscore.Hbond.Weighted>
-5.5103

> <Gold.Chemscore.Metal.Weighted>
-0.0000

> <Gold.Chemscore.Lipo.Weighted>
-11.5348

> <Gold.Chemscore.Internal_Hbond.Weighted>
0.0000

> <Gold.Chemscore.DEClash.Weighted>
0.5230

> <Gold.Chemscore.DEInternal.Weighted>
3.3604

> <Gold.Chemscore.Rot.Weighted>
5.7544

> <Gold.Chemscore.Internal.Correction.Weighted>
   9.000000E+99

> <Gold.Protein.RotatedTorsions>
[ 6907 6896 6895 6894 ] final -106.73 input  -60.11 | X-H torsion
[ 7974 7965 7964 7962 ] final -109.25 input  175.53 | X-H torsion
[ 8008 7997 7996 7995 ] final   -6.13 input   59.86 | X-H torsion
[ 10167 10162 10161 10158 ] final  129.49 input  -65.29 | X-H torsion
[ 10718 10713 10712 10709 ] final  -64.07 input   66.30 | X-H torsion
[ 10763 10752 10751 10750 ] final -102.74 input  -60.55 | X-H torsion
[ 11005 11000 10999 10996 ] final   -5.62 input  -57.11 | X-H torsion

> <Gold.Protein.ActiveResidues>
 VAL166  LYS551  ARG553  GLY616  TRP617  ASP618  TYR619  PRO620  LYS621  CYS622 
 ASP623  PHE694  ASN695  SER759  ASP760  ASP761  ALA762  ILE779  LEU786  VAL792 
 PHE793  MET794  SER795  GLU796  ALA797  LYS798  CYS799  TRP800  GLU811  SER814 

> <Gold.Protein.RotatedAtoms>
  150.7405  133.9932  159.3613 H   0  0  0  0  0  0  0  0  0  0  0  0  # atno 6907 bound_to 6896
  151.7882  135.0741  160.0393 H   0  0  0  0  0  0  0  0  0  0  0  0  # atno 6908 bound_to 6896
  152.3227  133.5834  159.5791 H   0  0  0  0  0  0  0  0  0  0  0  0  # atno 6909 bound_to 6896
  145.1828  140.8979  143.3470 H   0  0  0  0  0  0  0  0  0  0  0  0  # atno 7974 bound_to 7965
  154.5969  140.2441  155.7845 H   0  0  0  0  0  0  0  0  0  0  0  0  # atno 8008 bound_to 7997
  156.2285  140.2974  156.0081 H   0  0  0  0  0  0  0  0  0  0  0  0  # atno 8009 bound_to 7997
  155.2278  140.0402  157.2948 H   0  0  0  0  0  0  0  0  0  0  0  0  # atno 8010 bound_to 7997
  139.5475  144.6786  151.4427 H   0  0  0  0  0  0  0  0  0  0  0  0  # atno 10167 bound_to 10162
  156.0751  130.4229  150.1368 H   0  0  0  0  0  0  0  0  0  0  0  0  # atno 10718 bound_to 10713
  154.7756  135.4849  153.9737 H   0  0  0  0  0  0  0  0  0  0  0  0  # atno 10763 bound_to 10752
  153.1424  135.6775  153.9014 H   0  0  0  0  0  0  0  0  0  0  0  0  # atno 10764 bound_to 10752
  153.8684  135.3146  155.3419 H   0  0  0  0  0  0  0  0  0  0  0  0  # atno 10765 bound_to 10752
  140.6931  133.9054  155.8632 H   0  0  0  0  0  0  0  0  0  0  0  0  # atno 11005 bound_to 11000
  145.0119  139.3502  143.6116 LP  0  0  0  0  0  0  0  0  0  0  0  0  # atno 17320 bound_to 7965
  146.3450  139.9385  142.8744 LP  0  0  0  0  0  0  0  0  0  0  0  0  # atno 17321 bound_to 7965
  140.6728  143.8256  150.7020 LP  0  0  0  0  0  0  0  0  0  0  0  0  # atno 17342 bound_to 10162
  140.1686  143.4214  152.2017 LP  0  0  0  0  0  0  0  0  0  0  0  0  # atno 17343 bound_to 10162
  156.9411  130.9744  151.3516 LP  0  0  0  0  0  0  0  0  0  0  0  0  # atno 17370 bound_to 10713
  157.5843  130.8398  149.8567 LP  0  0  0  0  0  0  0  0  0  0  0  0  # atno 17371 bound_to 10713
  141.0225  134.0869  157.4105 LP  0  0  0  0  0  0  0  0  0  0  0  0  # atno 17394 bound_to 11000
  139.8918  135.0120  156.6809 LP  0  0  0  0  0  0  0  0  0  0  0  0  # atno 17395 bound_to 11000

$$$$
