AV-unprocessed.smi:11|AV-procd|sdf|60|dock7
  -GOLD-   2262015183D 1   1.00000     0.00000
 Structure written by MMmdl.
 33 35  0  0  0  0  0  0  0  0  1 V2000
  151.3201  138.0221  154.4894 C   0  0  0  0  0  0  0  0  0  0  0  0
  150.7632  137.6345  155.8687 C   0  0  0  0  0  0  0  0  0  0  0  0
  151.8316  137.3756  156.9600 C   0  0  2  0  0  0  0  0  0  0  0  0
  152.6395  136.2853  156.5614 O   0  0  0  0  0  0  0  0  0  0  0  0
  151.1946  137.0831  158.3221 C   0  0  0  0  0  0  0  0  0  0  0  0
  150.9757  138.4715  158.9325 C   0  0  0  0  0  0  0  0  0  0  0  0
  151.9424  139.3608  158.2943 N   0  0  0  0  0  0  0  0  0  0  0  0
  151.4581  140.6487  157.9803 C   0  0  0  0  0  0  0  0  0  0  0  0
  150.6392  140.8185  156.9108 N   0  0  0  0  0  0  0  0  0  0  0  0
  150.1803  142.0713  156.6598 C   0  0  0  0  0  0  0  0  0  0  0  0
  150.4390  143.2086  157.3520 N   0  0  0  0  0  0  0  0  0  0  0  0
  151.2664  143.0607  158.4290 C   0  0  0  0  0  0  0  0  0  0  0  0
  151.6913  143.9976  159.2707 N   0  0  0  0  0  0  0  0  0  0  0  0
  152.4920  143.3752  160.1534 C   0  0  0  0  0  0  0  0  0  0  0  0
  152.6216  141.9541  159.9078 C   0  0  0  0  0  0  0  0  0  0  0  0
  151.7869  141.7879  158.7617 C   0  0  0  0  0  0  0  0  0  0  0  0
  152.6938  138.5999  157.2976 C   0  0  0  0  0  0  0  0  0  0  0  0
  150.5090  138.1476  153.7723 H   0  0  0  0  0  0  0  0  0  0  0  0
  151.9881  137.2555  154.0965 H   0  0  0  0  0  0  0  0  0  0  0  0
  151.8686  138.9626  154.5236 H   0  0  0  0  0  0  0  0  0  0  0  0
  150.0821  138.4200  156.1980 H   0  0  0  0  0  0  0  0  0  0  0  0
  150.1482  136.7411  155.7539 H   0  0  0  0  0  0  0  0  0  0  0  0
  152.7567  135.7126  157.3040 H   0  0  0  0  0  0  0  0  0  0  0  0
  150.2767  136.4976  158.2580 H   0  0  0  0  0  0  0  0  0  0  0  0
  151.8927  136.5291  158.9519 H   0  0  0  0  0  0  0  0  0  0  0  0
  149.9580  138.8100  158.7310 H   0  0  0  0  0  0  0  0  0  0  0  0
  151.1144  138.4501  160.0133 H   0  0  0  0  0  0  0  0  0  0  0  0
  149.5294  142.1740  155.8041 H   0  0  0  0  0  0  0  0  0  0  0  0
  152.9766  143.9215  160.9530 H   0  0  0  0  0  0  0  0  0  0  0  0
  153.2017  141.2191  160.4509 H   0  0  0  0  0  0  0  0  0  0  0  0
  153.6179  138.2805  157.7815 H   0  0  0  0  0  0  0  0  0  0  0  0
  152.9969  139.1638  156.4171 H   0  0  0  0  0  0  0  0  0  0  0  0
  150.0281  144.0802  157.0488 H   0  0  0  0  0  0  0  0  0  0  0  0
  1  2  1  0  0  0  0
  1 18  1  0  0  0  0
  1 19  1  0  0  0  0
  1 20  1  0  0  0  0
  2  3  1  0  0  0  0
  2 21  1  0  0  0  0
  2 22  1  0  0  0  0
  3 17  1  0  0  0  0
  3  4  1  0  0  0  0
  3  5  1  0  0  0  0
  4 23  1  0  0  0  0
  5  6  1  0  0  0  0
  5 24  1  0  0  0  0
  5 25  1  0  0  0  0
  6  7  1  0  0  0  0
  6 26  1  0  0  0  0
  6 27  1  0  0  0  0
  7  8  1  0  0  0  0
  7 17  1  0  0  0  0
  8 16  2  0  0  0  0
  8  9  1  0  0  0  0
  9 10  2  0  0  0  0
 10 11  1  0  0  0  0
 10 28  1  0  0  0  0
 11 12  1  0  0  0  0
 11 33  1  0  0  0  0
 12 16  1  0  0  0  0
 12 13  2  0  0  0  0
 13 14  1  0  0  0  0
 14 15  2  0  0  0  0
 14 29  1  0  0  0  0
 15 16  1  0  0  0  0
 15 30  1  0  0  0  0
 17 31  1  0  0  0  0
 17 32  1  0  0  0  0
M  END
> <s_m_source_file>
AV-unprocessed.smi

> <i_m_source_file_index>
11

> <i_lp_mmshare_version>
43012

> <i_f3d_flags>
0

> <s_epik_input>
W0NIM11bQ0gyXVtDQEBdMShbT0hdKVtDSDJdW0NIMl1OKFtDSDJdMSljKG5bY0hdbjIpYyhjMjMpW2NIXVtjSF1bbkhdMw==

> <s_epik_cmdline>
J2VwaWtfcHl0aG9uJywgJy1waCcsICc3LjAnLCAnLXRuJywgJzgnLCAnLW1hJywgJzIwMCcsICctbWV0YWxfYmluZGluZycsICctaW1hZScsICc8aW5maWxlLm1hZT4nLCAnLW9tYWUnLCAnPG91dGZpbGUubWFlPic=

> <r_lp_tautomer_probability>
1.75997e-05

> <r_epik_Ionization_Penalty>
5.31594

> <r_epik_Ionization_Penalty_Charging>
0

> <r_epik_Ionization_Penalty_Neutral>
5.31594

> <r_epik_State_Penalty>
7.79803

> <r_epik_Charging_Adjusted_Penalty>
7.79803

> <i_epik_Tot_Q>
0

> <i_epik_Tot_abs_Q>
0

> <r_epik_Metal_State_Penalty>
4.83511

> <b_epik_Metal_Only>
1

> <s_lp_Force_Field>
OPLS_2005

> <r_lp_Energy>
41.8975

> <b_lp_Chiralities_Consistent>
1

> <s_lp_Variant>
AV-unprocessed.smi:11-6

> <Gold.Version>
5.8.1

> <Gold.Id.Protein>
6NUR|6NUR_protein|mol2

> <Gold.PLP.Fitness>
34.3593

> <Gold.PLP.PLP>
-27.8767

> <Gold.PLP.part.hbond>
-2.0000

> <Gold.PLP.part.metal>
0.0000

> <Gold.PLP.part.buried>
-4.1541

> <Gold.PLP.part.nonpolar>
-21.5097

> <Gold.PLP.part.repulsive>
0.0469

> <Gold.PLP.ligand.clash>
0.0000

> <Gold.PLP.ligand.torsion>
0.2345

> <Gold.PLP.Chemscore.Hbond>
1.6560

> <Gold.PLP.Chemscore.CHOScore>
0.6023

> <Gold.PLP.Chemscore.Metal>
0.0000

> <Gold.Chemscore.Hbonds>
donor molecule, donor type, donor heavy atom, donor atom, acceptor molecule, acceptor atom, score
      L1  H    11    33       P1  8028  0.80
      P1  H 10752 10764       L1     4  1.00
      L1  C    10    28       P1  8028  0.40

> <Gold.PLP.Chemscore.Internal.Correction>
0.1767

> <Gold.Rescore>
     Score         DG    S(hbond)    S(metal)    S(lipo)     H(rot)  DE(clash)    DE(int)     intcor
     14.18     -14.48       1.93        0.00      61.72       1.83       0.01       0.29       ----

> <Gold.Chemscore.Fitness>
14.1844

> <Gold.Chemscore.DG>
-14.4796

> <Gold.Chemscore.ZeroCoef>
-5.4800

> <Gold.Chemscore.Hbond>
1.9322

> <Gold.Chemscore.Metal>
0.0000

> <Gold.Chemscore.Lipo>
61.7211

> <Gold.Chemscore.Internal_Hbond>
0.0000

> <Gold.Chemscore.DEClash>
0.0075

> <Gold.Chemscore.DEInternal>
0.2877

> <Gold.Chemscore.Rot>
1.8263

> <Gold.Chemscore.Internal.Correction>
   9.000000E+99

> <Gold.Chemscore.Hbonds>
donor molecule, donor type, donor heavy atom, donor atom, acceptor molecule, acceptor atom, score
      L1  H    11    33       P1  8028  0.70
      P1  H 10752 10764       L1     4  0.73

> <Gold.Chemscore.Hbond.Weighted>
-6.4534

> <Gold.Chemscore.Metal.Weighted>
-0.0000

> <Gold.Chemscore.Lipo.Weighted>
-7.2214

> <Gold.Chemscore.Internal_Hbond.Weighted>
0.0000

> <Gold.Chemscore.DEClash.Weighted>
0.0075

> <Gold.Chemscore.DEInternal.Weighted>
0.2877

> <Gold.Chemscore.Rot.Weighted>
4.6752

> <Gold.Chemscore.Internal.Correction.Weighted>
   9.000000E+99

> <Gold.Protein.RotatedTorsions>
[ 6907 6896 6895 6894 ] final  175.77 input  -60.11 | X-H torsion
[ 7974 7965 7964 7962 ] final  128.28 input  175.53 | X-H torsion
[ 8008 7997 7996 7995 ] final -178.35 input   59.86 | X-H torsion
[ 10167 10162 10161 10158 ] final   40.64 input  -65.29 | X-H torsion
[ 10718 10713 10712 10709 ] final  145.09 input   66.30 | X-H torsion
[ 10763 10752 10751 10750 ] final  -28.77 input  -60.55 | X-H torsion
[ 11005 11000 10999 10996 ] final  115.10 input  -57.11 | X-H torsion

> <Gold.Protein.ActiveResidues>
 VAL166  LYS551  ARG553  GLY616  TRP617  ASP618  TYR619  PRO620  LYS621  CYS622 
 ASP623  PHE694  ASN695  SER759  ASP760  ASP761  ALA762  ILE779  LEU786  VAL792 
 PHE793  MET794  SER795  GLU796  ALA797  LYS798  CYS799  TRP800  GLU811  SER814 

> <Gold.Protein.RotatedAtoms>
  151.7309  133.3318  159.3339 H   0  0  0  0  0  0  0  0  0  0  0  0  # atno 6907 bound_to 6896
  150.7613  134.6364  159.6223 H   0  0  0  0  0  0  0  0  0  0  0  0  # atno 6908 bound_to 6896
  152.3592  134.6899  160.0264 H   0  0  0  0  0  0  0  0  0  0  0  0  # atno 6909 bound_to 6896
  145.0412  139.3961  143.5101 H   0  0  0  0  0  0  0  0  0  0  0  0  # atno 7974 bound_to 7965
  156.0177  140.1254  157.0389 H   0  0  0  0  0  0  0  0  0  0  0  0  # atno 8008 bound_to 7997
  154.4299  140.1075  156.5989 H   0  0  0  0  0  0  0  0  0  0  0  0  # atno 8009 bound_to 7997
  155.5989  140.3470  155.4590 H   0  0  0  0  0  0  0  0  0  0  0  0  # atno 8010 bound_to 7997
  140.3722  144.2090  150.6133 H   0  0  0  0  0  0  0  0  0  0  0  0  # atno 10167 bound_to 10162
  157.3494  131.0948  151.1013 H   0  0  0  0  0  0  0  0  0  0  0  0  # atno 10718 bound_to 10713
  153.7538  135.6924  153.4940 H   0  0  0  0  0  0  0  0  0  0  0  0  # atno 10763 bound_to 10752
  153.1985  135.4445  155.0236 H   0  0  0  0  0  0  0  0  0  0  0  0  # atno 10764 bound_to 10752
  154.8178  135.3407  154.7057 H   0  0  0  0  0  0  0  0  0  0  0  0  # atno 10765 bound_to 10752
  139.9000  134.9578  156.6993 H   0  0  0  0  0  0  0  0  0  0  0  0  # atno 11005 bound_to 11000
  146.3509  140.0014  142.8676 LP  0  0  0  0  0  0  0  0  0  0  0  0  # atno 17320 bound_to 7965
  145.1645  140.9689  143.4358 LP  0  0  0  0  0  0  0  0  0  0  0  0  # atno 17321 bound_to 7965
  140.5022  143.2314  151.8661 LP  0  0  0  0  0  0  0  0  0  0  0  0  # atno 17342 bound_to 10162
  139.4803  144.5046  151.9015 LP  0  0  0  0  0  0  0  0  0  0  0  0  # atno 17343 bound_to 10162
  157.2195  130.6475  149.5805 LP  0  0  0  0  0  0  0  0  0  0  0  0  # atno 17370 bound_to 10713
  155.9719  130.4634  150.6179 LP  0  0  0  0  0  0  0  0  0  0  0  0  # atno 17371 bound_to 10713
  140.7163  133.9179  155.8117 LP  0  0  0  0  0  0  0  0  0  0  0  0  # atno 17394 bound_to 11000
  141.0262  134.0820  157.4066 LP  0  0  0  0  0  0  0  0  0  0  0  0  # atno 17395 bound_to 11000

$$$$
