AV-unprocessed.smi:1782|AV-procd|sdf|7190|dock2
  -GOLD-   22720 8433D 1   1.00000     0.00000
 Structure written by MMmdl.
 42 44  0  0  0  0  0  0  0  0  2 V2000
  148.9893  140.4773  156.5925 O   0  0  0  0  0  0  0  0  0  0  0  0
  150.1918  140.4535  156.3348 C   0  0  0  0  0  0  0  0  0  0  0  0
  150.9820  141.7743  156.3304 C   0  0  0  0  0  0  0  0  0  0  0  0
  151.5338  142.1785  157.6375 N   0  0  0  0  0  0  0  0  0  0  0  0
  151.1120  143.4194  158.1473 C   0  0  0  0  0  0  0  0  0  0  0  0
  151.5525  143.8857  159.3235 C   0  0  0  0  0  0  0  0  0  0  0  0
  152.4847  143.0779  160.0716 C   0  0  0  0  0  0  0  0  0  0  0  0
  152.9124  141.8818  159.6055 C   0  0  0  0  0  0  0  0  0  0  0  0
  153.9035  141.0170  160.3813 C   0  0  0  0  0  0  0  0  0  0  0  0
  153.9779  141.4134  161.6523 F   0  0  0  0  0  0  0  0  0  0  0  0
  153.5209  139.7394  160.3644 F   0  0  0  0  0  0  0  0  0  0  0  0
  155.1299  141.0817  159.8608 F   0  0  0  0  0  0  0  0  0  0  0  0
  152.4208  141.3777  158.3069 C   0  0  0  0  0  0  0  0  0  0  0  0
  152.7905  140.3018  157.8340 O   0  0  0  0  0  0  0  0  0  0  0  0
  150.8498  139.3150  156.0587 N   0  0  0  0  0  0  0  0  0  0  0  0
  150.2559  137.9841  156.0507 C   0  0  2  0  0  0  0  0  0  0  0  0
  151.2249  136.8570  155.7061 C   0  0  0  0  0  0  0  0  0  0  0  0
  150.2818  135.7348  155.2593 C   0  0  0  0  0  0  0  0  0  0  0  0
  149.0721  136.3913  154.7037 N   0  3  1  0  0  0  0  0  0  0  0  0
  147.8035  135.8138  155.1987 C   0  0  0  0  0  0  0  0  0  0  0  0
  147.4157  134.5264  154.5112 C   0  0  0  0  0  0  0  0  0  0  0  0
  146.6993  135.8148  154.1684 C   0  0  0  0  0  0  0  0  0  0  0  0
  149.1993  137.8438  154.9556 C   0  0  0  0  0  0  0  0  0  0  0  0
  151.7835  141.6821  155.5960 H   0  0  0  0  0  0  0  0  0  0  0  0
  150.3354  142.5607  155.9371 H   0  0  0  0  0  0  0  0  0  0  0  0
  150.4173  143.9639  157.5240 H   0  0  0  0  0  0  0  0  0  0  0  0
  151.2201  144.8418  159.7007 H   0  0  0  0  0  0  0  0  0  0  0  0
  152.8403  143.4517  161.0203 H   0  0  0  0  0  0  0  0  0  0  0  0
  151.8361  139.3789  155.8516 H   0  0  0  0  0  0  0  0  0  0  0  0
  149.7925  137.7836  157.0190 H   0  0  0  0  0  0  0  0  0  0  0  0
  151.8723  137.1528  154.8787 H   0  0  0  0  0  0  0  0  0  0  0  0
  151.8591  136.5665  156.5443 H   0  0  0  0  0  0  0  0  0  0  0  0
  150.7454  135.0784  154.5226 H   0  0  0  0  0  0  0  0  0  0  0  0
  150.0139  135.1225  156.1223 H   0  0  0  0  0  0  0  0  0  0  0  0
  147.5775  135.9686  156.2526 H   0  0  0  0  0  0  0  0  0  0  0  0
  148.0956  134.1148  153.7671 H   0  0  0  0  0  0  0  0  0  0  0  0
  146.8653  133.7912  155.0951 H   0  0  0  0  0  0  0  0  0  0  0  0
  145.6781  135.9280  154.5268 H   0  0  0  0  0  0  0  0  0  0  0  0
  146.9024  136.2596  153.1956 H   0  0  0  0  0  0  0  0  0  0  0  0
  148.2523  138.3124  155.2282 H   0  0  0  0  0  0  0  0  0  0  0  0
  149.5434  138.3133  154.0326 H   0  0  0  0  0  0  0  0  0  0  0  0
  149.0856  136.2642  153.7018 H   0  0  0  0  0  0  0  0  0  0  0  0
  1  2  2  0  0  0  0
  2  3  1  0  0  0  0
  2 15  1  0  0  0  0
  3  4  1  0  0  0  0
  3 24  1  0  0  0  0
  3 25  1  0  0  0  0
  4 13  1  0  0  0  0
  4  5  1  0  0  0  0
  5  6  2  0  0  0  0
  5 26  1  0  0  0  0
  6  7  1  0  0  0  0
  6 27  1  0  0  0  0
  7  8  2  0  0  0  0
  7 28  1  0  0  0  0
  8  9  1  0  0  0  0
  8 13  1  0  0  0  0
  9 10  1  0  0  0  0
  9 11  1  0  0  0  0
  9 12  1  0  0  0  0
 13 14  2  0  0  0  0
 15 16  1  0  0  0  0
 15 29  1  0  0  0  0
 16 23  1  0  0  0  0
 16 17  1  0  0  0  0
 16 30  1  0  0  0  0
 17 18  1  0  0  0  0
 17 31  1  0  0  0  0
 17 32  1  0  0  0  0
 18 19  1  0  0  0  0
 18 33  1  0  0  0  0
 18 34  1  0  0  0  0
 19 20  1  0  0  0  0
 19 23  1  0  0  0  0
 19 42  1  0  0  0  0
 20 22  1  0  0  0  0
 20 21  1  0  0  0  0
 20 35  1  0  0  0  0
 21 22  1  0  0  0  0
 21 36  1  0  0  0  0
 21 37  1  0  0  0  0
 22 38  1  0  0  0  0
 22 39  1  0  0  0  0
 23 40  1  0  0  0  0
 23 41  1  0  0  0  0
M  CHG  1  19   1
M  END
> <s_m_source_file>
AV-unprocessed.smi

> <i_m_source_file_index>
1782

> <i_lp_mmshare_version>
43012

> <i_f3d_flags>
0

> <s_epik_input>
W0NIMl0xW0NIMl1bQ0hdMU4oW0NIMl0yKVtDSDJdW0NIMl1bQ0BIXTJbTkhdQyg9TylbQ0gyXW4zW2NIXVtjSF1bY0hdYyhDKEYpKEYpRiljMz1P

> <s_epik_cmdline>
J2VwaWtfcHl0aG9uJywgJy1waCcsICc3LjAnLCAnLXRuJywgJzgnLCAnLW1hJywgJzIwMCcsICctbWV0YWxfYmluZGluZycsICctaW1hZScsICc8aW5maWxlLm1hZT4nLCAnLW9tYWUnLCAnPG91dGZpbGUubWFlPic=

> <r_lp_tautomer_probability>
1

> <r_epik_Ionization_Penalty>
0.00106789

> <r_epik_Ionization_Penalty_Charging>
0.00106781

> <r_epik_Ionization_Penalty_Neutral>
8.2288e-08

> <r_epik_State_Penalty>
0.000699156

> <r_epik_Charging_Adjusted_Penalty>
0.00176697

> <i_epik_Tot_Q>
1

> <i_epik_Tot_abs_Q>
1

> <r_epik_Metal_State_Penalty>
-0

> <b_epik_Metal_Only>
0

> <s_lp_Force_Field>
OPLS_2005

> <r_lp_Energy>
47.5501

> <b_lp_Chiralities_Consistent>
1

> <s_lp_Variant>
AV-unprocessed.smi:1782-3

> <Gold.Version>
5.8.1

> <Gold.Id.Protein>
6NUR|6NUR_protein|mol2

> <Gold.PLP.Fitness>
47.5819

> <Gold.PLP.PLP>
-37.8663

> <Gold.PLP.part.hbond>
-2.0000

> <Gold.PLP.part.metal>
0.0000

> <Gold.PLP.part.buried>
-3.7929

> <Gold.PLP.part.nonpolar>
-30.7055

> <Gold.PLP.part.repulsive>
0.1006

> <Gold.PLP.ligand.clash>
0.4200

> <Gold.PLP.ligand.torsion>
1.6521

> <Gold.PLP.Chemscore.Hbond>
2.9440

> <Gold.PLP.Chemscore.CHOScore>
1.0000

> <Gold.PLP.Chemscore.Metal>
0.0000

> <Gold.Chemscore.Hbonds>
donor molecule, donor type, donor heavy atom, donor atom, acceptor molecule, acceptor atom, score
      L1  H    19    42       P1  7948  2.00
      P1  H  7997  8008       L1    14  0.93
      L1  C     5    26       P1  8028  1.00

> <Gold.PLP.Chemscore.Internal.Correction>
1.6079

> <Gold.Rescore>
     Score         DG    S(hbond)    S(metal)    S(lipo)     H(rot)  DE(clash)    DE(int)     intcor
     13.55     -16.54       1.97        0.00      77.97       1.81       0.06       2.93       ----

> <Gold.Chemscore.Fitness>
13.5507

> <Gold.Chemscore.DG>
-16.5360

> <Gold.Chemscore.ZeroCoef>
-5.4800

> <Gold.Chemscore.Hbond>
1.9664

> <Gold.Chemscore.Metal>
0.0000

> <Gold.Chemscore.Lipo>
77.9658

> <Gold.Chemscore.Internal_Hbond>
0.0000

> <Gold.Chemscore.DEClash>
0.0586

> <Gold.Chemscore.DEInternal>
2.9266

> <Gold.Chemscore.Rot>
1.8101

> <Gold.Chemscore.Internal.Correction>
   9.000000E+99

> <Gold.Chemscore.Hbonds>
donor molecule, donor type, donor heavy atom, donor atom, acceptor molecule, acceptor atom, score
      L1  H    19    42       P1  7948  0.97
      P1  H  7997  8008       L1    14  0.89

> <Gold.Chemscore.Hbond.Weighted>
-6.5677

> <Gold.Chemscore.Metal.Weighted>
-0.0000

> <Gold.Chemscore.Lipo.Weighted>
-9.1220

> <Gold.Chemscore.Internal_Hbond.Weighted>
0.0000

> <Gold.Chemscore.DEClash.Weighted>
0.0586

> <Gold.Chemscore.DEInternal.Weighted>
2.9266

> <Gold.Chemscore.Rot.Weighted>
4.6338

> <Gold.Chemscore.Internal.Correction.Weighted>
   9.000000E+99

> <Gold.Protein.RotatedTorsions>
[ 6907 6896 6895 6894 ] final -171.24 input  -60.11 | X-H torsion
[ 7974 7965 7964 7962 ] final -100.99 input  175.53 | X-H torsion
[ 8008 7997 7996 7995 ] final  -69.60 input   59.86 | X-H torsion
[ 10167 10162 10161 10158 ] final  171.99 input  -65.29 | X-H torsion
[ 10718 10713 10712 10709 ] final  -74.06 input   66.30 | X-H torsion
[ 10763 10752 10751 10750 ] final  -21.43 input  -60.55 | X-H torsion
[ 11005 11000 10999 10996 ] final  174.88 input  -57.11 | X-H torsion

> <Gold.Protein.ActiveResidues>
 VAL166  LYS551  ARG553  GLY616  TRP617  ASP618  TYR619  PRO620  LYS621  CYS622 
 ASP623  PHE694  ASN695  SER759  ASP760  ASP761  ALA762  ILE779  LEU786  VAL792 
 PHE793  MET794  SER795  GLU796  ALA797  LYS798  CYS799  TRP800  GLU811  SER814 

> <Gold.Protein.RotatedAtoms>
  151.5206  133.3467  159.2900 H   0  0  0  0  0  0  0  0  0  0  0  0  # atno 6907 bound_to 6896
  150.8654  134.8019  159.7126 H   0  0  0  0  0  0  0  0  0  0  0  0  # atno 6908 bound_to 6896
  152.4661  134.5082  159.9797 H   0  0  0  0  0  0  0  0  0  0  0  0  # atno 6909 bound_to 6896
  145.2874  140.9343  143.2897 H   0  0  0  0  0  0  0  0  0  0  0  0  # atno 7974 bound_to 7965
  154.4950  140.0850  156.7677 H   0  0  0  0  0  0  0  0  0  0  0  0  # atno 8008 bound_to 7997
  155.4138  140.3442  155.4247 H   0  0  0  0  0  0  0  0  0  0  0  0  # atno 8009 bound_to 7997
  156.1382  140.1521  156.8950 H   0  0  0  0  0  0  0  0  0  0  0  0  # atno 8010 bound_to 7997
  139.5063  144.3423  152.0005 H   0  0  0  0  0  0  0  0  0  0  0  0  # atno 10167 bound_to 10162
  156.0257  130.4408  150.2835 H   0  0  0  0  0  0  0  0  0  0  0  0  # atno 10718 bound_to 10713
  153.6360  135.6987  153.5258 H   0  0  0  0  0  0  0  0  0  0  0  0  # atno 10763 bound_to 10752
  153.2821  135.4182  155.1088 H   0  0  0  0  0  0  0  0  0  0  0  0  # atno 10764 bound_to 10752
  154.8511  135.3604  154.5903 H   0  0  0  0  0  0  0  0  0  0  0  0  # atno 10765 bound_to 10752
  140.3562  134.7153  157.4301 H   0  0  0  0  0  0  0  0  0  0  0  0  # atno 11005 bound_to 11000
  144.9202  139.4421  143.6545 LP  0  0  0  0  0  0  0  0  0  0  0  0  # atno 17320 bound_to 7965
  146.3196  139.8058  142.8956 LP  0  0  0  0  0  0  0  0  0  0  0  0  # atno 17321 bound_to 7965
  140.2861  144.3805  150.6103 LP  0  0  0  0  0  0  0  0  0  0  0  0  # atno 17342 bound_to 10162
  140.5981  143.2167  151.7124 LP  0  0  0  0  0  0  0  0  0  0  0  0  # atno 17343 bound_to 10162
  157.0939  131.0177  151.3111 LP  0  0  0  0  0  0  0  0  0  0  0  0  # atno 17370 bound_to 10713
  157.4833  130.7778  149.7435 LP  0  0  0  0  0  0  0  0  0  0  0  0  # atno 17371 bound_to 10713
  140.0663  134.5924  155.8691 LP  0  0  0  0  0  0  0  0  0  0  0  0  # atno 17394 bound_to 11000
  141.1998  133.6608  156.5861 LP  0  0  0  0  0  0  0  0  0  0  0  0  # atno 17395 bound_to 11000

$$$$
