AV-unprocessed.smi:1867|AV-procd|sdf|7572|dock9
  -GOLD-   22720 9283D 1   1.00000     0.00000
 Structure written by MMmdl.
 53 56  0  0  0  0  0  0  0  0  3 V2000
  145.3465  138.1445  153.6654 O   0  0  0  0  0  0  0  0  0  0  0  0
  146.2556  137.5776  153.0644 C   0  0  0  0  0  0  0  0  0  0  0  0
  147.5650  137.8644  153.2065 N   0  0  0  0  0  0  0  0  0  0  0  0
  148.1725  138.8817  153.9919 C   0  0  0  0  0  0  0  0  0  0  0  0
  149.5730  139.0393  154.1459 C   0  0  0  0  0  0  0  0  0  0  0  0
  150.0697  140.0751  154.9634 C   0  0  0  0  0  0  0  0  0  0  0  0
  149.1639  140.9340  155.6278 C   0  0  0  0  0  0  0  0  0  0  0  0
  149.5566  141.9963  156.4543 N   0  0  0  0  0  0  0  0  0  0  0  0
  149.0968  141.9249  157.8319 C   0  0  0  0  0  0  0  0  0  0  0  0
  149.9766  142.9068  158.6101 C   0  0  0  0  0  0  0  0  0  0  0  0
  151.2297  143.0860  157.7450 C   0  0  0  0  0  0  0  0  0  0  0  0
  150.9941  142.1979  156.5205 C   0  0  0  0  0  0  0  0  0  0  0  0
  147.8370  140.7424  155.4624 N   0  3  0  0  0  0  0  0  0  0  0  0
  147.3198  139.7640  154.6882 C   0  0  0  0  0  0  0  0  0  0  0  0
  145.9981  136.5713  152.2097 N   0  0  0  0  0  0  0  0  0  0  0  0
  144.6988  136.0121  151.8297 C   0  0  2  0  0  0  0  0  0  0  0  0
  143.9182  135.4606  153.0162 C   0  0  0  0  0  0  0  0  0  0  0  0
  142.8890  134.5390  152.3551 C   0  0  0  0  0  0  0  0  0  0  0  0
  143.4867  134.0758  151.0790 N   0  3  2  0  0  0  0  0  0  0  0  0
  143.5632  132.5957  150.9511 C   0  0  0  0  0  0  0  0  0  0  0  0
  144.5200  132.1903  149.8205 C   0  0  0  0  0  0  0  0  0  0  0  0
  145.9565  132.6729  150.0963 C   0  0  0  0  0  0  0  0  0  0  0  0
  146.0005  133.8788  151.0542 C   0  0  0  0  0  0  0  0  0  0  0  0
  144.7719  134.8043  150.8739 C   0  0  2  0  0  0  0  0  0  0  0  0
  148.2056  137.2581  152.7159 H   0  0  0  0  0  0  0  0  0  0  0  0
  150.2800  138.3821  153.6644 H   0  0  0  0  0  0  0  0  0  0  0  0
  151.1368  140.2023  155.0733 H   0  0  0  0  0  0  0  0  0  0  0  0
  148.0415  142.1898  157.9061 H   0  0  0  0  0  0  0  0  0  0  0  0
  149.2186  140.9184  158.2332 H   0  0  0  0  0  0  0  0  0  0  0  0
  149.4665  143.8638  158.7276 H   0  0  0  0  0  0  0  0  0  0  0  0
  150.2109  142.5317  159.6068 H   0  0  0  0  0  0  0  0  0  0  0  0
  151.3275  144.1300  157.4444 H   0  0  0  0  0  0  0  0  0  0  0  0
  152.1417  142.8059  158.2726 H   0  0  0  0  0  0  0  0  0  0  0  0
  151.5070  141.2429  156.6437 H   0  0  0  0  0  0  0  0  0  0  0  0
  151.3675  142.6659  155.6090 H   0  0  0  0  0  0  0  0  0  0  0  0
  146.2410  139.7217  154.6470 H   0  0  0  0  0  0  0  0  0  0  0  0
  146.8026  136.1381  151.7785 H   0  0  0  0  0  0  0  0  0  0  0  0
  144.0835  136.7908  151.3740 H   0  0  0  0  0  0  0  0  0  0  0  0
  144.5742  134.8764  153.6636 H   0  0  0  0  0  0  0  0  0  0  0  0
  143.4570  136.2410  153.6223 H   0  0  0  0  0  0  0  0  0  0  0  0
  142.5973  133.7221  153.0166 H   0  0  0  0  0  0  0  0  0  0  0  0
  141.9851  135.1003  152.1159 H   0  0  0  0  0  0  0  0  0  0  0  0
  143.9082  132.1541  151.8877 H   0  0  0  0  0  0  0  0  0  0  0  0
  142.5627  132.2035  150.7669 H   0  0  0  0  0  0  0  0  0  0  0  0
  144.5112  131.1089  149.6810 H   0  0  0  0  0  0  0  0  0  0  0  0
  144.1636  132.6207  148.8837 H   0  0  0  0  0  0  0  0  0  0  0  0
  146.5487  131.8621  150.5220 H   0  0  0  0  0  0  0  0  0  0  0  0
  146.4322  132.9295  149.1491 H   0  0  0  0  0  0  0  0  0  0  0  0
  146.0322  133.5193  152.0838 H   0  0  0  0  0  0  0  0  0  0  0  0
  146.9318  134.4228  150.8955 H   0  0  0  0  0  0  0  0  0  0  0  0
  144.7876  135.1705  149.8463 H   0  0  0  0  0  0  0  0  0  0  0  0
  142.8687  134.3946  150.3462 H   0  0  0  0  0  0  0  0  0  0  0  0
  147.1937  141.3680  155.9484 H   0  0  0  0  0  0  0  0  0  0  0  0
  1  2  2  0  0  0  0
  2  3  1  0  0  0  0
  2 15  1  0  0  0  0
  3  4  1  0  0  0  0
  3 25  1  0  0  0  0
  4 14  1  0  0  0  0
  4  5  2  0  0  0  0
  5  6  1  0  0  0  0
  5 26  1  0  0  0  0
  6  7  2  0  0  0  0
  6 27  1  0  0  0  0
  7  8  1  0  0  0  0
  7 13  1  0  0  0  0
  8 12  1  0  0  0  0
  8  9  1  0  0  0  0
  9 10  1  0  0  0  0
  9 28  1  0  0  0  0
  9 29  1  0  0  0  0
 10 11  1  0  0  0  0
 10 30  1  0  0  0  0
 10 31  1  0  0  0  0
 11 12  1  0  0  0  0
 11 32  1  0  0  0  0
 11 33  1  0  0  0  0
 12 34  1  0  0  0  0
 12 35  1  0  0  0  0
 13 14  2  0  0  0  0
 13 53  1  0  0  0  0
 14 36  1  0  0  0  0
 15 16  1  0  0  0  0
 15 37  1  0  0  0  0
 16 24  1  0  0  0  0
 16 17  1  0  0  0  0
 16 38  1  0  0  0  0
 17 18  1  0  0  0  0
 17 39  1  0  0  0  0
 17 40  1  0  0  0  0
 18 19  1  0  0  0  0
 18 41  1  0  0  0  0
 18 42  1  0  0  0  0
 19 24  1  0  0  0  0
 19 20  1  0  0  0  0
 19 52  1  0  0  0  0
 20 21  1  0  0  0  0
 20 43  1  0  0  0  0
 20 44  1  0  0  0  0
 21 22  1  0  0  0  0
 21 45  1  0  0  0  0
 21 46  1  0  0  0  0
 22 23  1  0  0  0  0
 22 47  1  0  0  0  0
 22 48  1  0  0  0  0
 23 24  1  0  0  0  0
 23 49  1  0  0  0  0
 23 50  1  0  0  0  0
 24 51  1  0  0  0  0
M  CHG  1  13   1
M  CHG  1  19   1
M  END
> <s_m_source_file>
AV-unprocessed.smi

> <i_m_source_file_index>
1867

> <i_lp_mmshare_version>
43012

> <i_f3d_flags>
0

> <s_epik_input>
W0NIMl0xW0NIMl1bQ0gyXVtDSDJdW0NASF0oTjEyKVtDQEBIXShbQ0gyXVtDSDJdMilbTkhdQyg9TylbTkhdYzNbY0hdW2NIXWMobltjSF0zKU40W0NIMl1bQ0gyXVtDSDJdW0NIMl00

> <s_epik_cmdline>
J2VwaWtfcHl0aG9uJywgJy1waCcsICc3LjAnLCAnLXRuJywgJzgnLCAnLW1hJywgJzIwMCcsICctbWV0YWxfYmluZGluZycsICctaW1hZScsICc8aW5maWxlLm1hZT4nLCAnLW9tYWUnLCAnPG91dGZpbGUubWFlPic=

> <r_lp_tautomer_probability>
0.999994

> <r_epik_Ionization_Penalty>
1.27347

> <r_epik_Ionization_Penalty_Charging>
1.27345

> <r_epik_Ionization_Penalty_Neutral>
1.96458e-05

> <r_epik_State_Penalty>
1.34393

> <r_epik_Charging_Adjusted_Penalty>
2.61738

> <i_epik_Tot_Q>
2

> <i_epik_Tot_abs_Q>
2

> <r_epik_Metal_State_Penalty>
1.41094

> <b_epik_Metal_Only>
0

> <s_lp_Force_Field>
OPLS_2005

> <r_lp_Energy>
89.9373

> <b_lp_Chiralities_Consistent>
1

> <s_lp_Variant>
AV-unprocessed.smi:1867-13

> <Gold.Version>
5.8.1

> <Gold.Id.Protein>
6NUR|6NUR_protein|mol2

> <Gold.PLP.Fitness>
50.8144

> <Gold.PLP.PLP>
-39.9930

> <Gold.PLP.part.hbond>
-2.9789

> <Gold.PLP.part.metal>
0.0000

> <Gold.PLP.part.buried>
-6.8615

> <Gold.PLP.part.nonpolar>
-32.3507

> <Gold.PLP.part.repulsive>
1.8910

> <Gold.PLP.ligand.clash>
0.0000

> <Gold.PLP.ligand.torsion>
0.0207

> <Gold.PLP.Chemscore.Hbond>
3.6145

> <Gold.PLP.Chemscore.CHOScore>
0.0000

> <Gold.PLP.Chemscore.Metal>
0.0000

> <Gold.Chemscore.Hbonds>
donor molecule, donor type, donor heavy atom, donor atom, acceptor molecule, acceptor atom, score
      L1  H     3    25       P1  7948  0.98
      L1  H    15    37       P1  7948  0.62
      L1  H    19    52       P1 10186  1.95

> <Gold.PLP.Chemscore.Internal.Correction>
0.0195

> <Gold.Rescore>
     Score         DG    S(hbond)    S(metal)    S(lipo)     H(rot)  DE(clash)    DE(int)     intcor
     19.75     -21.76       2.25        0.00     101.11       1.20       0.52       1.49       ----

> <Gold.Chemscore.Fitness>
19.7450

> <Gold.Chemscore.DG>
-21.7632

> <Gold.Chemscore.ZeroCoef>
-5.4800

> <Gold.Chemscore.Hbond>
2.2492

> <Gold.Chemscore.Metal>
0.0000

> <Gold.Chemscore.Lipo>
101.1121

> <Gold.Chemscore.Internal_Hbond>
0.0000

> <Gold.Chemscore.DEClash>
0.5240

> <Gold.Chemscore.DEInternal>
1.4942

> <Gold.Chemscore.Rot>
1.1950

> <Gold.Chemscore.Internal.Correction>
   9.000000E+99

> <Gold.Chemscore.Hbonds>
donor molecule, donor type, donor heavy atom, donor atom, acceptor molecule, acceptor atom, score
      L1  H     3    25       P1  7948  0.92
      L1  H    15    37       P1  7948  0.61
      L1  H    19    52       P1 10186  0.66

> <Gold.Chemscore.Hbond.Weighted>
-7.5124

> <Gold.Chemscore.Metal.Weighted>
-0.0000

> <Gold.Chemscore.Lipo.Weighted>
-11.8301

> <Gold.Chemscore.Internal_Hbond.Weighted>
0.0000

> <Gold.Chemscore.DEClash.Weighted>
0.5240

> <Gold.Chemscore.DEInternal.Weighted>
1.4942

> <Gold.Chemscore.Rot.Weighted>
3.0593

> <Gold.Chemscore.Internal.Correction.Weighted>
   9.000000E+99

> <Gold.Protein.RotatedTorsions>
[ 6907 6896 6895 6894 ] final -116.45 input  -60.11 | X-H torsion
[ 7974 7965 7964 7962 ] final  108.46 input  175.53 | X-H torsion
[ 8008 7997 7996 7995 ] final   24.86 input   59.86 | X-H torsion
[ 10167 10162 10161 10158 ] final  -44.22 input  -65.29 | X-H torsion
[ 10718 10713 10712 10709 ] final  -23.91 input   66.30 | X-H torsion
[ 10763 10752 10751 10750 ] final  176.98 input  -60.55 | X-H torsion
[ 11005 11000 10999 10996 ] final   12.90 input  -57.11 | X-H torsion

> <Gold.Protein.ActiveResidues>
 VAL166  LYS551  ARG553  GLY616  TRP617  ASP618  TYR619  PRO620  LYS621  CYS622 
 ASP623  PHE694  ASN695  SER759  ASP760  ASP761  ALA762  ILE779  LEU786  VAL792 
 PHE793  MET794  SER795  GLU796  ALA797  LYS798  CYS799  TRP800  GLU811  SER814 

> <Gold.Protein.RotatedAtoms>
  150.8057  133.8515  159.3206 H   0  0  0  0  0  0  0  0  0  0  0  0  # atno 6907 bound_to 6896
  151.6315  135.1020  160.0132 H   0  0  0  0  0  0  0  0  0  0  0  0  # atno 6908 bound_to 6896
  152.4147  133.6979  159.6463 H   0  0  0  0  0  0  0  0  0  0  0  0  # atno 6909 bound_to 6896
  145.2804  139.2635  143.3918 H   0  0  0  0  0  0  0  0  0  0  0  0  # atno 7974 bound_to 7965
  155.0028  140.3127  155.4860 H   0  0  0  0  0  0  0  0  0  0  0  0  # atno 8008 bound_to 7997
  156.2922  140.2229  156.5080 H   0  0  0  0  0  0  0  0  0  0  0  0  # atno 8009 bound_to 7997
  154.7603  140.0459  157.0956 H   0  0  0  0  0  0  0  0  0  0  0  0  # atno 8010 bound_to 7997
  140.6905  143.2941  151.3464 H   0  0  0  0  0  0  0  0  0  0  0  0  # atno 10167 bound_to 10162
  156.4847  130.4553  149.6791 H   0  0  0  0  0  0  0  0  0  0  0  0  # atno 10718 bound_to 10713
  154.4884  135.2778  155.1516 H   0  0  0  0  0  0  0  0  0  0  0  0  # atno 10763 bound_to 10752
  154.3198  135.6212  153.5506 H   0  0  0  0  0  0  0  0  0  0  0  0  # atno 10764 bound_to 10752
  152.9884  135.5740  154.5300 H   0  0  0  0  0  0  0  0  0  0  0  0  # atno 10765 bound_to 10752
  140.4868  134.0880  155.7762 H   0  0  0  0  0  0  0  0  0  0  0  0  # atno 11005 bound_to 11000
  146.3218  140.3270  142.8637 LP  0  0  0  0  0  0  0  0  0  0  0  0  # atno 17320 bound_to 7965
  144.9258  140.7919  143.5720 LP  0  0  0  0  0  0  0  0  0  0  0  0  # atno 17321 bound_to 7965
  139.6303  144.0734  152.2470 LP  0  0  0  0  0  0  0  0  0  0  0  0  # atno 17342 bound_to 10162
  140.0206  144.6155  150.7569 LP  0  0  0  0  0  0  0  0  0  0  0  0  # atno 17343 bound_to 10162
  156.3486  130.7420  151.2376 LP  0  0  0  0  0  0  0  0  0  0  0  0  # atno 17370 bound_to 10713
  157.7480  131.0383  150.4498 LP  0  0  0  0  0  0  0  0  0  0  0  0  # atno 17371 bound_to 10713
  141.1504  133.8979  157.2112 LP  0  0  0  0  0  0  0  0  0  0  0  0  # atno 17394 bound_to 11000
  139.9793  135.0103  156.9710 LP  0  0  0  0  0  0  0  0  0  0  0  0  # atno 17395 bound_to 11000

$$$$
