AV-unprocessed.smi:109|AV-procd|sdf|1060|dock9
  -GOLD-   2262018133D 1   1.00000     0.00000
 Structure written by MMmdl.
 58 61  0  0  0  0  0  0  0  0  1 V2000
  151.3293  136.7619  159.1024 O   0  0  0  0  0  0  0  0  0  0  0  0
  152.4999  137.3455  158.5727 C   0  0  0  0  0  0  0  0  0  0  0  0
  152.5208  138.8497  158.8870 C   0  0  0  0  0  0  0  0  0  0  0  0
  151.3915  139.6296  158.1775 C   0  0  1  0  0  0  0  0  0  0  0  0
  150.1097  138.9638  158.4082 N   0  0  0  0  0  0  0  0  0  0  0  0
  149.0063  139.2802  157.6939 C   0  0  0  0  0  0  0  0  0  0  0  0
  148.2416  140.3567  158.0128 N   0  0  0  0  0  0  0  0  0  0  0  0
  147.1610  140.6480  157.2833 C   0  0  0  0  0  0  0  0  0  0  0  0
  146.6796  140.0098  156.2147 N   0  0  0  0  0  0  0  0  0  0  0  0
  147.4435  138.9279  155.8867 C   0  0  0  0  0  0  0  0  0  0  0  0
  148.6123  138.4993  156.5767 C   0  0  0  0  0  0  0  0  0  0  0  0
  149.1262  137.3607  155.9712 N   0  0  0  0  0  0  0  0  0  0  0  0
  148.3088  137.1359  154.9782 C   0  0  0  0  0  0  0  0  0  0  0  0
  147.2690  138.0303  154.8504 N   0  0  0  0  0  0  0  0  0  0  0  0
  146.1955  138.0222  153.8025 C   0  0  2  0  0  0  0  0  0  0  0  0
  145.8511  136.7024  153.4962 O   0  0  0  0  0  0  0  0  0  0  0  0
  146.0870  136.4292  152.1148 C   0  0  1  0  0  0  0  0  0  0  0  0
  145.0663  135.3991  151.6077 C   0  0  0  0  0  0  0  0  0  0  0  0
  145.1198  135.3171  150.1994 O   0  0  0  0  0  0  0  0  0  0  0  0
  145.9417  137.8082  151.4690 C   0  0  2  0  0  0  0  0  0  0  0  0
  146.5295  137.8947  150.1850 O   0  0  0  0  0  0  0  0  0  0  0  0
  146.6110  138.7157  152.4911 C   0  0  2  0  0  0  0  0  0  0  0  0
  148.0169  138.7977  152.3103 O   0  0  0  0  0  0  0  0  0  0  0  0
  151.3130  141.1304  158.5724 C   0  0  0  0  0  0  0  0  0  0  0  0
  151.0274  142.0522  157.3665 C   0  0  0  0  0  0  0  0  0  0  0  0
  150.8551  143.5155  157.8055 C   0  0  0  0  0  0  0  0  0  0  0  0
  152.0837  144.0094  158.5851 C   0  0  0  0  0  0  0  0  0  0  0  0
  152.3776  143.0999  159.7882 C   0  0  0  0  0  0  0  0  0  0  0  0
  152.5486  141.6353  159.3521 C   0  0  0  0  0  0  0  0  0  0  0  0
  145.3412  138.5030  154.2808 H   0  0  0  0  0  0  0  0  0  0  0  0
  147.1086  136.0705  151.9776 H   0  0  0  0  0  0  0  0  0  0  0  0
  144.8842  138.0674  151.3939 H   0  0  0  0  0  0  0  0  0  0  0  0
  146.2021  139.7262  152.4659 H   0  0  0  0  0  0  0  0  0  0  0  0
  150.6613  136.7694  158.4340 H   0  0  0  0  0  0  0  0  0  0  0  0
  153.3692  136.8503  159.0063 H   0  0  0  0  0  0  0  0  0  0  0  0
  152.5255  137.1691  157.4971 H   0  0  0  0  0  0  0  0  0  0  0  0
  152.4590  138.9974  159.9659 H   0  0  0  0  0  0  0  0  0  0  0  0
  153.4909  139.2398  158.5823 H   0  0  0  0  0  0  0  0  0  0  0  0
  151.6128  139.5849  157.1104 H   0  0  0  0  0  0  0  0  0  0  0  0
  150.0911  138.3100  159.1778 H   0  0  0  0  0  0  0  0  0  0  0  0
  146.6037  141.5179  157.5984 H   0  0  0  0  0  0  0  0  0  0  0  0
  148.4452  136.3041  154.3024 H   0  0  0  0  0  0  0  0  0  0  0  0
  145.2364  134.4184  152.0529 H   0  0  0  0  0  0  0  0  0  0  0  0
  144.0558  135.7071  151.8780 H   0  0  0  0  0  0  0  0  0  0  0  0
  146.0109  135.1376  149.9417 H   0  0  0  0  0  0  0  0  0  0  0  0
  145.8899  138.2597  149.5920 H   0  0  0  0  0  0  0  0  0  0  0  0
  148.3545  137.9233  152.1903 H   0  0  0  0  0  0  0  0  0  0  0  0
  150.4553  141.2387  159.2379 H   0  0  0  0  0  0  0  0  0  0  0  0
  151.8384  141.9986  156.6410 H   0  0  0  0  0  0  0  0  0  0  0  0
  150.1271  141.7195  156.8490 H   0  0  0  0  0  0  0  0  0  0  0  0
  150.6903  144.1480  156.9328 H   0  0  0  0  0  0  0  0  0  0  0  0
  149.9644  143.6090  158.4282 H   0  0  0  0  0  0  0  0  0  0  0  0
  152.9511  144.0321  157.9242 H   0  0  0  0  0  0  0  0  0  0  0  0
  151.9242  145.0338  158.9225 H   0  0  0  0  0  0  0  0  0  0  0  0
  153.2764  143.4420  160.3018 H   0  0  0  0  0  0  0  0  0  0  0  0
  151.5628  143.1739  160.5095 H   0  0  0  0  0  0  0  0  0  0  0  0
  152.7198  141.0152  160.2325 H   0  0  0  0  0  0  0  0  0  0  0  0
  153.4438  141.5522  158.7353 H   0  0  0  0  0  0  0  0  0  0  0  0
  1  2  1  0  0  0  0
  1 34  1  0  0  0  0
  2  3  1  0  0  0  0
  2 35  1  0  0  0  0
  2 36  1  0  0  0  0
  3  4  1  0  0  0  0
  3 37  1  0  0  0  0
  3 38  1  0  0  0  0
  4  5  1  0  0  0  0
  4 24  1  0  0  0  0
  4 39  1  0  0  0  0
  5  6  1  0  0  0  0
  5 40  1  0  0  0  0
  6 11  1  0  0  0  0
  6  7  2  0  0  0  0
  7  8  1  0  0  0  0
  8  9  2  0  0  0  0
  8 41  1  0  0  0  0
  9 10  1  0  0  0  0
 10 14  1  0  0  0  0
 10 11  2  0  0  0  0
 11 12  1  0  0  0  0
 12 13  2  0  0  0  0
 13 14  1  0  0  0  0
 13 42  1  0  0  0  0
 14 15  1  0  0  0  0
 15 30  1  0  0  0  0
 15 22  1  0  0  0  0
 15 16  1  0  0  0  0
 16 17  1  0  0  0  0
 17 31  1  0  0  0  0
 17 18  1  0  0  0  0
 17 20  1  0  0  0  0
 18 19  1  0  0  0  0
 18 43  1  0  0  0  0
 18 44  1  0  0  0  0
 19 45  1  0  0  0  0
 20 32  1  0  0  0  0
 20 21  1  0  0  0  0
 20 22  1  0  0  0  0
 21 46  1  0  0  0  0
 22 33  1  0  0  0  0
 22 23  1  0  0  0  0
 23 47  1  0  0  0  0
 24 29  1  0  0  0  0
 24 25  1  0  0  0  0
 24 48  1  0  0  0  0
 25 26  1  0  0  0  0
 25 49  1  0  0  0  0
 25 50  1  0  0  0  0
 26 27  1  0  0  0  0
 26 51  1  0  0  0  0
 26 52  1  0  0  0  0
 27 28  1  0  0  0  0
 27 53  1  0  0  0  0
 27 54  1  0  0  0  0
 28 29  1  0  0  0  0
 28 55  1  0  0  0  0
 28 56  1  0  0  0  0
 29 57  1  0  0  0  0
 29 58  1  0  0  0  0
M  END
> <s_m_source_file>
AV-unprocessed.smi

> <i_m_source_file_index>
109

> <i_lp_mmshare_version>
43012

> <i_f3d_flags>
0

> <s_epik_input>
W0NIMl0xW0NIMl1bQ0gyXVtDSDJdW0NIMl1bQ0hdMVtDQEhdKFtDSDJdW0NIMl1bT0hdKVtOSF1jKG5bY0hdbjIpYyhjMjMpbltjSF1uM1tDQEBIXTRPW0NASF0oW0NIMl1bT0hdKVtDQEBIXShbT0hdKVtDQEhdNFtPSF0=

> <s_epik_cmdline>
J2VwaWtfcHl0aG9uJywgJy1waCcsICc3LjAnLCAnLXRuJywgJzgnLCAnLW1hJywgJzIwMCcsICctbWV0YWxfYmluZGluZycsICctaW1hZScsICc8aW5maWxlLm1hZT4nLCAnLW9tYWUnLCAnPG91dGZpbGUubWFlPic=

> <r_lp_tautomer_probability>
1

> <r_epik_Ionization_Penalty>
0.000793976

> <r_epik_Ionization_Penalty_Charging>
0

> <r_epik_Ionization_Penalty_Neutral>
0.000793976

> <r_epik_State_Penalty>
-0

> <r_epik_Charging_Adjusted_Penalty>
0

> <i_epik_Tot_Q>
0

> <i_epik_Tot_abs_Q>
0

> <r_epik_Metal_State_Penalty>
-0

> <b_epik_Metal_Only>
0

> <s_epik_Chemistry_Notes>
This compound contains an acetal/aminal-like group ( X-CH(R)-Y where X, Y are N, S, or O) that may be acid/base labile, releasing an aldehyde.

> <s_lp_Force_Field>
OPLS_2005

> <r_lp_Energy>
62.1287

> <b_lp_Chiralities_Consistent>
1

> <s_lp_Variant>
AV-unprocessed.smi:109-30

> <Gold.Version>
5.8.1

> <Gold.Id.Protein>
6NUR|6NUR_protein|mol2

> <Gold.PLP.Fitness>
48.6042

> <Gold.PLP.PLP>
-40.3003

> <Gold.PLP.part.hbond>
-6.0335

> <Gold.PLP.part.metal>
0.0000

> <Gold.PLP.part.buried>
-1.8536

> <Gold.PLP.part.nonpolar>
-32.6141

> <Gold.PLP.part.repulsive>
0.3245

> <Gold.PLP.ligand.clash>
0.0000

> <Gold.PLP.ligand.torsion>
2.7747

> <Gold.PLP.Chemscore.Hbond>
3.4825

> <Gold.PLP.Chemscore.CHOScore>
0.9987

> <Gold.PLP.Chemscore.Metal>
0.0000

> <Gold.Chemscore.Hbonds>
donor molecule, donor type, donor heavy atom, donor atom, acceptor molecule, acceptor atom, score
      L1  H    19    45       P1  7921  0.06
      L1  H    21    46       P1 10171  0.66
      L1  H    23    47       P1  7948  1.00
      P1  H  6896  6909       L1     1  1.00
      P1  H  7954  7966       L1    21  0.75
      L1  C    13    42       P1  7948  1.00

> <Gold.PLP.Chemscore.Internal.Correction>
0.4094

> <Gold.Rescore>
     Score         DG    S(hbond)    S(metal)    S(lipo)     H(rot)  DE(clash)    DE(int)     intcor
     10.44     -14.23       3.37        0.00      98.26       5.47       1.03       2.76       ----

> <Gold.Chemscore.Fitness>
10.4360

> <Gold.Chemscore.DG>
-14.2257

> <Gold.Chemscore.ZeroCoef>
-5.4800

> <Gold.Chemscore.Hbond>
3.3660

> <Gold.Chemscore.Metal>
0.0000

> <Gold.Chemscore.Lipo>
98.2632

> <Gold.Chemscore.Internal_Hbond>
0.0000

> <Gold.Chemscore.DEClash>
1.0332

> <Gold.Chemscore.DEInternal>
2.7565

> <Gold.Chemscore.Rot>
5.4662

> <Gold.Chemscore.Internal.Correction>
   9.000000E+99

> <Gold.Chemscore.Hbonds>
donor molecule, donor type, donor heavy atom, donor atom, acceptor molecule, acceptor atom, score
      L1  H    19    45       P1  7921  0.05
      L1  H    21    46       P1 10171  0.62
      L1  H    23    47       P1  7948  1.00
      P1  H  6896  6909       L1     1  0.62
      P1  H  7954  7966       L1    21  0.73

> <Gold.Chemscore.Hbond.Weighted>
-11.2425

> <Gold.Chemscore.Metal.Weighted>
-0.0000

> <Gold.Chemscore.Lipo.Weighted>
-11.4968

> <Gold.Chemscore.Internal_Hbond.Weighted>
0.0000

> <Gold.Chemscore.DEClash.Weighted>
1.0332

> <Gold.Chemscore.DEInternal.Weighted>
2.7565

> <Gold.Chemscore.Rot.Weighted>
13.9935

> <Gold.Chemscore.Internal.Correction.Weighted>
   9.000000E+99

> <Gold.Protein.RotatedTorsions>
[ 6907 6896 6895 6894 ] final  103.64 input  -60.11 | X-H torsion
[ 7974 7965 7964 7962 ] final   92.10 input  175.53 | X-H torsion
[ 8008 7997 7996 7995 ] final -125.48 input   59.86 | X-H torsion
[ 10167 10162 10161 10158 ] final -134.17 input  -65.29 | X-H torsion
[ 10718 10713 10712 10709 ] final    9.33 input   66.30 | X-H torsion
[ 10763 10752 10751 10750 ] final  172.96 input  -60.55 | X-H torsion
[ 11005 11000 10999 10996 ] final -151.89 input  -57.11 | X-H torsion

> <Gold.Protein.ActiveResidues>
 VAL166  LYS551  ARG553  GLY616  TRP617  ASP618  TYR619  PRO620  LYS621  CYS622 
 ASP623  PHE694  ASN695  SER759  ASP760  ASP761  ALA762  ILE779  LEU786  VAL792 
 PHE793  MET794  SER795  GLU796  ALA797  LYS798  CYS799  TRP800  GLU811  SER814 

> <Gold.Protein.RotatedAtoms>
  152.5289  133.9795  159.7799 H   0  0  0  0  0  0  0  0  0  0  0  0  # atno 6907 bound_to 6896
  151.0051  133.6010  159.2697 H   0  0  0  0  0  0  0  0  0  0  0  0  # atno 6908 bound_to 6896
  151.3105  135.0799  159.9324 H   0  0  0  0  0  0  0  0  0  0  0  0  # atno 6909 bound_to 6896
  145.4968  139.2276  143.2799 H   0  0  0  0  0  0  0  0  0  0  0  0  # atno 7974 bound_to 7965
  155.2140  140.0420  157.2938 H   0  0  0  0  0  0  0  0  0  0  0  0  # atno 8008 bound_to 7997
  154.5993  140.2448  155.7785 H   0  0  0  0  0  0  0  0  0  0  0  0  # atno 8009 bound_to 7997
  156.2310  140.2938  156.0198 H   0  0  0  0  0  0  0  0  0  0  0  0  # atno 8010 bound_to 7997
  139.8908  143.6725  152.2612 H   0  0  0  0  0  0  0  0  0  0  0  0  # atno 10167 bound_to 10162
  156.9647  130.5946  149.5664 H   0  0  0  0  0  0  0  0  0  0  0  0  # atno 10718 bound_to 10713
  154.4334  135.2760  155.1897 H   0  0  0  0  0  0  0  0  0  0  0  0  # atno 10763 bound_to 10752
  154.3793  135.6091  153.5785 H   0  0  0  0  0  0  0  0  0  0  0  0  # atno 10764 bound_to 10752
  152.9837  135.5876  154.4650 H   0  0  0  0  0  0  0  0  0  0  0  0  # atno 10765 bound_to 10752
  140.7247  134.3688  157.5177 H   0  0  0  0  0  0  0  0  0  0  0  0  # atno 11005 bound_to 11000
  146.2250  140.5766  142.9000 LP  0  0  0  0  0  0  0  0  0  0  0  0  # atno 17320 bound_to 7965
  144.7802  140.5825  143.6610 LP  0  0  0  0  0  0  0  0  0  0  0  0  # atno 17321 bound_to 7965
  139.7111  144.7620  151.1110 LP  0  0  0  0  0  0  0  0  0  0  0  0  # atno 17342 bound_to 10162
  140.7727  143.5329  150.9402 LP  0  0  0  0  0  0  0  0  0  0  0  0  # atno 17343 bound_to 10162
  156.0307  130.5399  150.8527 LP  0  0  0  0  0  0  0  0  0  0  0  0  # atno 17370 bound_to 10713
  157.5633  131.0946  150.9526 LP  0  0  0  0  0  0  0  0  0  0  0  0  # atno 17371 bound_to 10713
  139.8840  134.8978  156.2732 LP  0  0  0  0  0  0  0  0  0  0  0  0  # atno 17394 bound_to 11000
  140.9973  133.7172  156.0906 LP  0  0  0  0  0  0  0  0  0  0  0  0  # atno 17395 bound_to 11000

$$$$
