AV-unprocessed.smi:3326|AV-procd|sdf|12786|dock9
  -GOLD-   2272019133D 1   1.00000     0.00000
 Structure written by MMmdl.
 30 31  0  0  0  0  0  0  0  0  1 V2000
  151.6218  144.9891  160.6364 F   0  0  0  0  0  0  0  0  0  0  0  0
  151.5235  144.3093  159.4934 C   0  0  0  0  0  0  0  0  0  0  0  0
  150.2288  144.1470  159.2196 F   0  0  0  0  0  0  0  0  0  0  0  0
  152.0814  145.0410  158.5285 F   0  0  0  0  0  0  0  0  0  0  0  0
  152.2133  142.9499  159.5827 C   0  0  0  0  0  0  0  0  0  0  0  0
  153.0283  142.6324  160.6932 C   0  0  0  0  0  0  0  0  0  0  0  0
  153.6550  141.3744  160.7525 C   0  0  0  0  0  0  0  0  0  0  0  0
  153.4443  140.4743  159.6930 C   0  0  0  0  0  0  0  0  0  0  0  0
  152.6694  140.7601  158.6268 N   0  0  0  0  0  0  0  0  0  0  0  0
  152.0624  141.9703  158.5663 C   0  0  0  0  0  0  0  0  0  0  0  0
  151.2591  142.2435  157.4483 N   0  0  0  0  0  0  0  0  0  0  0  0
  150.3697  141.2350  156.8899 C   0  0  0  0  0  0  0  0  0  0  0  0
  150.8487  140.7647  155.5099 C   0  0  1  0  0  0  0  0  0  0  0  0
  152.1553  139.9760  155.5281 C   0  0  0  0  0  0  0  0  0  0  0  0
  152.0979  139.2299  154.2096 C   0  0  0  0  0  0  0  0  0  0  0  0
  150.5961  139.0790  153.9457 C   0  0  0  0  0  0  0  0  0  0  0  0
  149.9356  139.8261  154.9634 O   0  0  0  0  0  0  0  0  0  0  0  0
  153.1789  143.3374  161.4970 H   0  0  0  0  0  0  0  0  0  0  0  0
  154.2824  141.1063  161.5896 H   0  0  0  0  0  0  0  0  0  0  0  0
  153.9091  139.4994  159.7014 H   0  0  0  0  0  0  0  0  0  0  0  0
  151.2748  143.1622  157.0296 H   0  0  0  0  0  0  0  0  0  0  0  0
  150.2988  140.3874  157.5726 H   0  0  0  0  0  0  0  0  0  0  0  0
  149.3698  141.6612  156.8005 H   0  0  0  0  0  0  0  0  0  0  0  0
  150.9266  141.6094  154.8225 H   0  0  0  0  0  0  0  0  0  0  0  0
  153.0368  140.6109  155.6203 H   0  0  0  0  0  0  0  0  0  0  0  0
  152.1579  139.2658  156.3562 H   0  0  0  0  0  0  0  0  0  0  0  0
  152.5566  139.8264  153.4201 H   0  0  0  0  0  0  0  0  0  0  0  0
  152.6167  138.2719  154.2528 H   0  0  0  0  0  0  0  0  0  0  0  0
  150.3330  139.4726  152.9631 H   0  0  0  0  0  0  0  0  0  0  0  0
  150.2771  138.0373  153.9896 H   0  0  0  0  0  0  0  0  0  0  0  0
  1  2  1  0  0  0  0
  2  3  1  0  0  0  0
  2  4  1  0  0  0  0
  2  5  1  0  0  0  0
  5 10  1  0  0  0  0
  5  6  2  0  0  0  0
  6  7  1  0  0  0  0
  6 18  1  0  0  0  0
  7  8  2  0  0  0  0
  7 19  1  0  0  0  0
  8  9  1  0  0  0  0
  8 20  1  0  0  0  0
  9 10  2  0  0  0  0
 10 11  1  0  0  0  0
 11 12  1  0  0  0  0
 11 21  1  0  0  0  0
 12 13  1  0  0  0  0
 12 22  1  0  0  0  0
 12 23  1  0  0  0  0
 13 17  1  0  0  0  0
 13 14  1  0  0  0  0
 13 24  1  0  0  0  0
 14 15  1  0  0  0  0
 14 25  1  0  0  0  0
 14 26  1  0  0  0  0
 15 16  1  0  0  0  0
 15 27  1  0  0  0  0
 15 28  1  0  0  0  0
 16 17  1  0  0  0  0
 16 29  1  0  0  0  0
 16 30  1  0  0  0  0
M  END
> <s_m_source_file>
AV-unprocessed.smi

> <i_m_source_file_index>
3326

> <i_lp_mmshare_version>
43012

> <i_f3d_flags>
0

> <s_epik_input>
RkMoRikoRiljMVtjSF1bY0hdW2NIXW5jMVtOSF1bQ0gyXVtDQEBIXTJbQ0gyXVtDSDJdW0NIMl1PMg==

> <s_epik_cmdline>
J2VwaWtfcHl0aG9uJywgJy1waCcsICc3LjAnLCAnLXRuJywgJzgnLCAnLW1hJywgJzIwMCcsICctbWV0YWxfYmluZGluZycsICctaW1hZScsICc8aW5maWxlLm1hZT4nLCAnLW9tYWUnLCAnPG91dGZpbGUubWFlPic=

> <r_lp_tautomer_probability>
1

> <r_epik_Ionization_Penalty>
0.000820218

> <r_epik_Ionization_Penalty_Charging>
0

> <r_epik_Ionization_Penalty_Neutral>
0.000820218

> <r_epik_State_Penalty>
0.000527207

> <r_epik_Charging_Adjusted_Penalty>
0.000527207

> <i_epik_Tot_Q>
0

> <i_epik_Tot_abs_Q>
0

> <r_epik_Metal_State_Penalty>
-0

> <b_epik_Metal_Only>
0

> <s_lp_Force_Field>
OPLS_2005

> <r_lp_Energy>
21.9295

> <b_lp_Chiralities_Consistent>
1

> <s_lp_Variant>
AV-unprocessed.smi:3326-2

> <Gold.Version>
5.8.1

> <Gold.Id.Protein>
6NUR|6NUR_protein|mol2

> <Gold.PLP.Fitness>
45.7464

> <Gold.PLP.PLP>
-46.7402

> <Gold.PLP.part.hbond>
0.0000

> <Gold.PLP.part.metal>
0.0000

> <Gold.PLP.part.buried>
-4.6064

> <Gold.PLP.part.nonpolar>
-41.3382

> <Gold.PLP.part.repulsive>
0.1046

> <Gold.PLP.ligand.clash>
0.1768

> <Gold.PLP.ligand.torsion>
0.6519

> <Gold.PLP.Chemscore.Hbond>
0.0000

> <Gold.PLP.Chemscore.CHOScore>
0.0000

> <Gold.PLP.Chemscore.Metal>
0.0000

> <Gold.PLP.Chemscore.Internal.Correction>
0.4868

> <Gold.Rescore>
     Score         DG    S(hbond)    S(metal)    S(lipo)     H(rot)  DE(clash)    DE(int)     intcor
      9.92     -12.77       0.00        0.00      89.68       1.25       0.16       2.70       ----

> <Gold.Chemscore.Fitness>
9.9156

> <Gold.Chemscore.DG>
-12.7696

> <Gold.Chemscore.ZeroCoef>
-5.4800

> <Gold.Chemscore.Hbond>
0.0000

> <Gold.Chemscore.Metal>
0.0000

> <Gold.Chemscore.Lipo>
89.6842

> <Gold.Chemscore.Internal_Hbond>
0.0000

> <Gold.Chemscore.DEClash>
0.1560

> <Gold.Chemscore.DEInternal>
2.6979

> <Gold.Chemscore.Rot>
1.2514

> <Gold.Chemscore.Internal.Correction>
   9.000000E+99

> <Gold.Chemscore.Hbond.Weighted>
-0.0001

> <Gold.Chemscore.Metal.Weighted>
-0.0000

> <Gold.Chemscore.Lipo.Weighted>
-10.4931

> <Gold.Chemscore.Internal_Hbond.Weighted>
0.0000

> <Gold.Chemscore.DEClash.Weighted>
0.1560

> <Gold.Chemscore.DEInternal.Weighted>
2.6979

> <Gold.Chemscore.Rot.Weighted>
3.2036

> <Gold.Chemscore.Internal.Correction.Weighted>
   9.000000E+99

> <Gold.Protein.RotatedTorsions>
[ 6907 6896 6895 6894 ] final  -29.12 input  -60.11 | X-H torsion
[ 7974 7965 7964 7962 ] final  162.09 input  175.53 | X-H torsion
[ 8008 7997 7996 7995 ] final  148.62 input   59.86 | X-H torsion
[ 10167 10162 10161 10158 ] final   95.81 input  -65.29 | X-H torsion
[ 10718 10713 10712 10709 ] final -167.51 input   66.30 | X-H torsion
[ 10763 10752 10751 10750 ] final -135.69 input  -60.55 | X-H torsion
[ 11005 11000 10999 10996 ] final -168.14 input  -57.11 | X-H torsion

> <Gold.Protein.ActiveResidues>
 VAL166  LYS551  ARG553  GLY616  TRP617  ASP618  TYR619  PRO620  LYS621  CYS622 
 ASP623  PHE694  ASN695  SER759  ASP760  ASP761  ALA762  ILE779  LEU786  VAL792 
 PHE793  MET794  SER795  GLU796  ALA797  LYS798  CYS799  TRP800  GLU811  SER814 

> <Gold.Protein.RotatedAtoms>
  151.1235  135.0092  159.8549 H   0  0  0  0  0  0  0  0  0  0  0  0  # atno 6907 bound_to 6896
  152.5448  134.1694  159.8601 H   0  0  0  0  0  0  0  0  0  0  0  0  # atno 6908 bound_to 6896
  151.1755  133.4713  159.2627 H   0  0  0  0  0  0  0  0  0  0  0  0  # atno 6909 bound_to 6896
  144.7653  139.7990  143.6317 H   0  0  0  0  0  0  0  0  0  0  0  0  # atno 7974 bound_to 7965
  156.2784  140.2123  156.5728 H   0  0  0  0  0  0  0  0  0  0  0  0  # atno 8008 bound_to 7997
  154.7122  140.0511  157.0583 H   0  0  0  0  0  0  0  0  0  0  0  0  # atno 8009 bound_to 7997
  155.0591  140.3164  155.4669 H   0  0  0  0  0  0  0  0  0  0  0  0  # atno 8010 bound_to 7997
  139.7953  144.6836  150.9837 H   0  0  0  0  0  0  0  0  0  0  0  0  # atno 10167 bound_to 10162
  156.6834  130.9131  151.3060 H   0  0  0  0  0  0  0  0  0  0  0  0  # atno 10718 bound_to 10713
  154.8698  135.3695  154.4939 H   0  0  0  0  0  0  0  0  0  0  0  0  # atno 10763 bound_to 10752
  153.5584  135.7023  153.5563 H   0  0  0  0  0  0  0  0  0  0  0  0  # atno 10764 bound_to 10752
  153.3650  135.4036  155.1710 H   0  0  0  0  0  0  0  0  0  0  0  0  # atno 10765 bound_to 10752
  140.5453  134.5482  157.5109 H   0  0  0  0  0  0  0  0  0  0  0  0  # atno 11005 bound_to 11000
  146.1755  139.4924  142.9900 LP  0  0  0  0  0  0  0  0  0  0  0  0  # atno 17320 bound_to 7965
  145.6488  141.0268  143.1771 LP  0  0  0  0  0  0  0  0  0  0  0  0  # atno 17321 bound_to 7965
  140.7820  143.4338  151.0655 LP  0  0  0  0  0  0  0  0  0  0  0  0  # atno 17342 bound_to 10162
  139.8012  143.8081  152.3163 LP  0  0  0  0  0  0  0  0  0  0  0  0  # atno 17343 bound_to 10162
  157.7035  130.9359  150.0858 LP  0  0  0  0  0  0  0  0  0  0  0  0  # atno 17370 bound_to 10713
  156.1850  130.3652  149.8984 LP  0  0  0  0  0  0  0  0  0  0  0  0  # atno 17371 bound_to 10713
  139.9483  134.7663  156.0510 LP  0  0  0  0  0  0  0  0  0  0  0  0  # atno 17394 bound_to 11000
  141.1203  133.6615  156.3198 LP  0  0  0  0  0  0  0  0  0  0  0  0  # atno 17395 bound_to 11000

$$$$
