#       Name:                AV-unprocessed.smi:1540
#       Creating user name   scv26
#       Creation time:       Fri Mar 27 06:36:39 2020


#       File generated by GOLD software.
#

@<TRIPOS>MOLECULE
AV-unprocessed.smi:1540
    39    39     1
SMALL
NO_CHARGES


@<TRIPOS>ATOM
      1 ****        -4.5901  -0.1691  -2.8857 C.2            1 S1                 0.0000
      2 ****        -3.8460  -0.6591  -1.8830 C.2            1 S1                 0.0000
      3 ****        -2.3497  -0.4785  -1.7580 C.3            1 S1                 0.0000
      4 ****        -1.7035  -1.7452  -1.7309 O.3            1 S1                 0.0000
      5 ****        -0.2784  -1.7084  -1.7309 C.3            1 S1                 0.0000
      6 ****         0.2196  -3.1366  -1.9972 C.3            1 S1                 0.0000
      7 ****         0.2457  -1.1755  -0.3873 C.2            1 S1                 0.0000
      8 ****         0.0447  -1.8227   0.6401 O.2            1 S1                 0.0000
      9 ****         0.9089  -0.0038  -0.4494 N.am           1 S1                 0.0000
     10 ****         1.4679   0.7600   0.5888 C.2            1 S1                 0.0000
     11 ****         1.1461   0.6368   1.9032 C.2            1 S1                 0.0000
     12 ****         1.7569   1.4669   2.9281 C.2            1 S1                 0.0000
     13 ****         1.3451   1.3586   4.3885 C.3            1 S1                 0.0000
     14 ****         1.5184   2.5156   5.0290 F              1 S1                 0.0000
     15 ****         0.0636   1.0077   4.4979 F              1 S1                 0.0000
     16 ****         2.0816   0.4314   4.9991 F              1 S1                 0.0000
     17 ****         2.6414   2.3889   2.5053 C.2            1 S1                 0.0000
     18 ****         2.9769   2.5226   1.1561 N.am           1 S1                 0.0000
     19 ****         2.4467   1.7740   0.1631 C.2            1 S1                 0.0000
     20 ****         2.7867   1.9605  -1.0048 O.2            1 S1                 0.0000
     21 ****         3.6551   3.2326   0.9198 H              1 S1                 0.0000
     22 ****        -4.1458   0.4019  -3.6877 H              1 S1                 0.0000
     23 ****        -5.6570  -0.3342  -2.9166 H              1 S1                 0.0000
     24 ****        -4.3241  -1.2256  -1.0972 H              1 S1                 0.0000
     25 ****        -1.9801   0.1154  -2.5955 H              1 S1                 0.0000
     26 ****        -2.1524   0.0821  -0.8441 H              1 S1                 0.0000
     27 ****         0.0657  -1.0686  -2.5459 H              1 S1                 0.0000
     28 ****         1.3093  -3.1826  -1.9982 H              1 S1                 0.0000
     29 ****        -0.1252  -3.4900  -2.9692 H              1 S1                 0.0000
     30 ****        -0.1455  -3.8372  -1.2450 H              1 S1                 0.0000
     31 ****         1.0614   0.3721  -1.3744 H              1 S1                 0.0000
     32 ****         0.4092  -0.0786   2.2295 H              1 S1                 0.0000
     33 ****         3.1481   3.0887   3.1536 H              1 S1                 0.0000
     34 ****        -1.9983  -2.2585  -2.5369 LP             1 S1                 0.0000
     35 ****        -1.9992  -2.2240  -0.9043 LP             1 S1                 0.0000
     36 ****        -0.4558  -2.6874   0.5965 LP             1 S1                 0.0000
     37 ****         0.3818  -1.4839   1.5184 LP             1 S1                 0.0000
     38 ****         2.3912   1.4041  -1.7356 LP             1 S1                 0.0000
     39 ****         3.4584   2.6684  -1.2231 LP             1 S1                 0.0000
@<TRIPOS>BOND
    1    1    2 2     
    2    1   22 1     
    3    1   23 1     
    4    2    3 1     
    5    2   24 1     
    6    3    4 1     
    7    3   25 1     
    8    3   26 1     
    9    4    5 1     
   10    5    6 1     
   11    5    7 1     
   12    5   27 1     
   13    6   28 1     
   14    6   29 1     
   15    6   30 1     
   16    7    8 2     
   17    7    9 am    
   18    9   10 1     
   19    9   31 1     
   20   10   19 1     
   21   10   11 2     
   22   11   12 1     
   23   11   32 1     
   24   12   13 1     
   25   12   17 2     
   26   13   14 1     
   27   13   15 1     
   28   13   16 1     
   29   17   18 1     
   30   17   33 1     
   31   18   21 1     
   32   18   19 am    
   33   19   20 2     
   34    4   34 1     
   35    4   35 1     
   36    8   36 1     
   37    8   37 1     
   38   20   38 1     
   39   20   39 1     
@<TRIPOS>SUBSTRUCTURE
      1 S1             1
@<TRIPOS>SET
LONE_PAIRS      STATIC     ATOMS    <user>   **** ""
6 34 35 36 37 38 39
DONOR_HYDROGENS      STATIC     ATOMS    <user>   **** ""
2 31 21
ATOM$BLUE        STATIC     ATOMS    COLORGROUP SYSTEM
6 34 35 36 37 38 39
ATOM$RED        STATIC     ATOMS    COLORGROUP SYSTEM
2 31 21
