#       Name:                AV-unprocessed.smi:2367
#       Creating user name   scv26
#       Creation time:       Fri Mar 27 13:06:04 2020


#       File generated by GOLD software.
#

@<TRIPOS>MOLECULE
AV-unprocessed.smi:2367
    39    40     1
SMALL
NO_CHARGES


@<TRIPOS>ATOM
      1 ****        -2.0094   0.5434  -2.1952 C.3            1 S1                 0.0000
      2 ****        -2.2478  -0.2337  -1.0287 O.3            1 S1                 0.0000
      3 ****        -1.7012  -1.5529  -1.0324 C.3            1 S1                 0.0000
      4 ****        -0.1654  -1.5366  -1.0281 C.3            1 S1                 0.0000
      5 ****         0.3451  -0.8198   0.1365 N.am           1 S1                 0.0000
      6 ****         1.1261   0.2686   0.1012 C.2            1 S1                 0.0000
      7 ****         1.5313   0.7901  -0.9379 O.2            1 S1                 0.0000
      8 ****         1.3847   0.7253   1.3375 N.am           1 S1                 0.0000
      9 ****         2.1565   1.8670   1.6728 C.ar           1 S1                 0.0000
     10 ****         1.6618   2.7455   2.6587 C.ar           1 S1                 0.0000
     11 ****         2.4331   3.8717   3.0089 C.ar           1 S1                 0.0000
     12 ****         3.6350   4.1481   2.4598 N.ar           1 S1                 0.0000
     13 ****         4.1179   3.2906   1.5351 C.ar           1 S1                 0.0000
     14 ****         3.4294   2.1353   1.1128 C.ar           1 S1                 0.0000
     15 ****         4.0032   1.3001   0.2135 F              1 S1                 0.0000
     16 ****        -2.4132  -2.3658   0.0658 C.3            1 S1                 0.0000
     17 ****        -2.5773  -3.5078  -0.9388 C.3            1 S1                 0.0000
     18 ****        -2.4304  -2.4606  -2.0438 C.3            1 S1                 0.0000
     19 ****        -2.5585   1.4814  -2.1173 H              1 S1                 0.0000
     20 ****        -2.3476   0.0378  -3.0998 H              1 S1                 0.0000
     21 ****        -0.9553   0.7940  -2.3083 H              1 S1                 0.0000
     22 ****         0.2203  -2.5550  -0.9755 H              1 S1                 0.0000
     23 ****         0.2256  -1.1314  -1.9619 H              1 S1                 0.0000
     24 ****         0.0581  -1.1675   1.0396 H              1 S1                 0.0000
     25 ****         0.8864   0.2868   2.0977 H              1 S1                 0.0000
     26 ****         0.7059   2.5704   3.1307 H              1 S1                 0.0000
     27 ****         2.0751   4.5686   3.7524 H              1 S1                 0.0000
     28 ****         5.0902   3.5253   1.1278 H              1 S1                 0.0000
     29 ****        -1.7971  -2.6132   0.9307 H              1 S1                 0.0000
     30 ****        -3.3700  -1.9361   0.3682 H              1 S1                 0.0000
     31 ****        -1.7499  -4.2185  -0.9136 H              1 S1                 0.0000
     32 ****        -3.5453  -4.0086  -0.9086 H              1 S1                 0.0000
     33 ****        -3.3942  -2.0634  -2.3672 H              1 S1                 0.0000
     34 ****        -1.8243  -2.7801  -2.8921 H              1 S1                 0.0000
     35 ****        -3.2376  -0.3130  -0.9111 LP             1 S1                 0.0000
     36 ****        -1.8578   0.2568  -0.2494 LP             1 S1                 0.0000
     37 ****         1.2793   0.4010  -1.8239 LP             1 S1                 0.0000
     38 ****         2.1125   1.6029  -0.8959 LP             1 S1                 0.0000
     39 ****         4.1509   4.9614   2.7290 LP             1 S1                 0.0000
@<TRIPOS>BOND
    1    1    2 1     
    2    1   19 1     
    3    1   20 1     
    4    1   21 1     
    5    2    3 1     
    6    3   18 1     
    7    3    4 1     
    8    3   16 1     
    9    4    5 1     
   10    4   22 1     
   11    4   23 1     
   12    5    6 am    
   13    5   24 1     
   14    6    7 2     
   15    6    8 am    
   16    8    9 1     
   17    8   25 1     
   18    9   14 ar    
   19    9   10 ar    
   20   10   11 ar    
   21   10   26 1     
   22   11   12 ar    
   23   11   27 1     
   24   12   13 ar    
   25   13   14 ar    
   26   13   28 1     
   27   14   15 1     
   28   16   17 1     
   29   16   29 1     
   30   16   30 1     
   31   17   18 1     
   32   17   31 1     
   33   17   32 1     
   34   18   33 1     
   35   18   34 1     
   36    2   35 1     
   37    2   36 1     
   38    7   37 1     
   39    7   38 1     
   40   12   39 1     
@<TRIPOS>SUBSTRUCTURE
      1 S1             1
@<TRIPOS>SET
LONE_PAIRS      STATIC     ATOMS    <user>   **** ""
5 35 36 37 38 39
DONOR_HYDROGENS      STATIC     ATOMS    <user>   **** ""
2 24 25
ATOM$BLUE        STATIC     ATOMS    COLORGROUP SYSTEM
5 35 36 37 38 39
ATOM$RED        STATIC     ATOMS    COLORGROUP SYSTEM
2 24 25
