AV-unprocessed.smi:580|AV-procd|sdf|2990|dock3
  -GOLD-   2262023493D 1   1.00000     0.00000
 Structure written by MMmdl.
 36 37  0  0  0  0  0  0  0  0  1 V2000
  150.5252  136.2837  155.0387 C   0  0  0  0  0  0  0  0  0  0  0  0
  150.7487  136.7835  156.4248 C   0  0  0  0  0  0  0  0  0  0  0  0
  151.1866  137.9782  156.9236 C   0  0  0  0  0  0  0  0  0  0  0  0
  151.1618  137.7667  158.3278 C   0  0  0  0  0  0  0  0  0  0  0  0
  151.5561  138.7920  159.2248 N   0  0  0  0  0  0  0  0  0  0  0  0
  152.6117  139.6163  159.1142 C   0  0  0  0  0  0  0  0  0  0  0  0
  153.4312  139.6005  158.1953 O   0  0  0  0  0  0  0  0  0  0  0  0
  152.6704  140.4712  160.1456 N   0  0  0  0  0  0  0  0  0  0  0  0
  153.6952  141.4957  160.3418 C   0  0  2  0  0  0  0  0  0  0  0  0
  153.4935  142.2467  161.6747 C   0  0  0  0  0  0  0  0  0  0  0  0
  152.2451  143.1463  161.6528 C   0  0  0  0  0  0  0  0  0  0  0  0
  152.2788  144.1366  160.4731 C   0  0  2  0  0  0  0  0  0  0  0  0
  151.0306  145.0300  160.4533 C   0  0  0  0  0  0  0  0  0  0  0  0
  152.4518  143.3819  159.1412 C   0  0  0  0  0  0  0  0  0  0  0  0
  153.6989  142.4794  159.1557 C   0  0  0  0  0  0  0  0  0  0  0  0
  150.7474  136.5527  158.6567 N   0  0  0  0  0  0  0  0  0  0  0  0
  150.4809  135.9162  157.4387 O   0  0  0  0  0  0  0  0  0  0  0  0
  150.4708  137.1110  154.3308 H   0  0  0  0  0  0  0  0  0  0  0  0
  149.5928  135.7228  154.9737 H   0  0  0  0  0  0  0  0  0  0  0  0
  151.3384  135.6269  154.7298 H   0  0  0  0  0  0  0  0  0  0  0  0
  151.4766  138.8592  156.3704 H   0  0  0  0  0  0  0  0  0  0  0  0
  150.9701  138.9118  160.0377 H   0  0  0  0  0  0  0  0  0  0  0  0
  151.9545  140.4091  160.8544 H   0  0  0  0  0  0  0  0  0  0  0  0
  154.6677  141.0005  160.3655 H   0  0  0  0  0  0  0  0  0  0  0  0
  153.4320  141.5427  162.5054 H   0  0  0  0  0  0  0  0  0  0  0  0
  154.3710  142.8642  161.8707 H   0  0  0  0  0  0  0  0  0  0  0  0
  151.3490  142.5275  161.5917 H   0  0  0  0  0  0  0  0  0  0  0  0
  152.1755  143.6919  162.5946 H   0  0  0  0  0  0  0  0  0  0  0  0
  153.1451  144.7865  160.6055 H   0  0  0  0  0  0  0  0  0  0  0  0
  150.1226  144.4402  160.3232 H   0  0  0  0  0  0  0  0  0  0  0  0
  151.0779  145.7527  159.6382 H   0  0  0  0  0  0  0  0  0  0  0  0
  150.9336  145.5899  161.3840 H   0  0  0  0  0  0  0  0  0  0  0  0
  151.5651  142.7793  158.9403 H   0  0  0  0  0  0  0  0  0  0  0  0
  152.5296  144.0934  158.3185 H   0  0  0  0  0  0  0  0  0  0  0  0
  154.5891  143.1069  159.2167 H   0  0  0  0  0  0  0  0  0  0  0  0
  153.7779  141.9352  158.2139 H   0  0  0  0  0  0  0  0  0  0  0  0
  1  2  1  0  0  0  0
  1 18  1  0  0  0  0
  1 19  1  0  0  0  0
  1 20  1  0  0  0  0
  2 17  1  0  0  0  0
  2  3  2  0  0  0  0
  3  4  1  0  0  0  0
  3 21  1  0  0  0  0
  4  5  1  0  0  0  0
  4 16  2  0  0  0  0
  5  6  1  0  0  0  0
  5 22  1  0  0  0  0
  6  7  2  0  0  0  0
  6  8  1  0  0  0  0
  8  9  1  0  0  0  0
  8 23  1  0  0  0  0
  9 15  1  0  0  0  0
  9 10  1  0  0  0  0
  9 24  1  0  0  0  0
 10 11  1  0  0  0  0
 10 25  1  0  0  0  0
 10 26  1  0  0  0  0
 11 12  1  0  0  0  0
 11 27  1  0  0  0  0
 11 28  1  0  0  0  0
 12 13  1  0  0  0  0
 12 14  1  0  0  0  0
 12 29  1  0  0  0  0
 13 30  1  0  0  0  0
 13 31  1  0  0  0  0
 13 32  1  0  0  0  0
 14 15  1  0  0  0  0
 14 33  1  0  0  0  0
 14 34  1  0  0  0  0
 15 35  1  0  0  0  0
 15 36  1  0  0  0  0
 16 17  1  0  0  0  0
M  END
> <s_m_source_file>
AV-unprocessed.smi

> <i_m_source_file_index>
580

> <i_lp_mmshare_version>
43012

> <i_f3d_flags>
0

> <s_epik_input>
W0NIM11jMVtjSF1jKG5vMSlbTkhdQyg9TylbTkhdW0NAQEhdMltDSDJdW0NIMl1bQ0BASF0oW0NIM10pW0NIMl1bQ0gyXTI=

> <s_epik_cmdline>
J2VwaWtfcHl0aG9uJywgJy1waCcsICc3LjAnLCAnLXRuJywgJzgnLCAnLW1hJywgJzIwMCcsICctbWV0YWxfYmluZGluZycsICctaW1hZScsICc8aW5maWxlLm1hZT4nLCAnLW9tYWUnLCAnPG91dGZpbGUubWFlPic=

> <r_lp_tautomer_probability>
1

> <r_epik_Ionization_Penalty>
2.357e-05

> <r_epik_Ionization_Penalty_Charging>
0

> <r_epik_Ionization_Penalty_Neutral>
2.357e-05

> <r_epik_State_Penalty>
-0

> <r_epik_Charging_Adjusted_Penalty>
0

> <i_epik_Tot_Q>
0

> <i_epik_Tot_abs_Q>
0

> <r_epik_Metal_State_Penalty>
-0

> <b_epik_Metal_Only>
0

> <s_lp_Force_Field>
OPLS_2005

> <r_lp_Energy>
6.11035

> <b_lp_Chiralities_Consistent>
1

> <s_lp_Variant>
AV-unprocessed.smi:580-2

> <Gold.Version>
5.8.1

> <Gold.Id.Protein>
6NUR|6NUR_protein|mol2

> <Gold.PLP.Fitness>
36.6636

> <Gold.PLP.PLP>
-31.5289

> <Gold.PLP.part.hbond>
-2.5432

> <Gold.PLP.part.metal>
0.0000

> <Gold.PLP.part.buried>
-4.7558

> <Gold.PLP.part.nonpolar>
-24.7826

> <Gold.PLP.part.repulsive>
0.2751

> <Gold.PLP.ligand.clash>
0.0000

> <Gold.PLP.ligand.torsion>
0.3517

> <Gold.PLP.Chemscore.Hbond>
1.9440

> <Gold.PLP.Chemscore.CHOScore>
0.0000

> <Gold.PLP.Chemscore.Metal>
0.0000

> <Gold.Chemscore.Hbonds>
donor molecule, donor type, donor heavy atom, donor atom, acceptor molecule, acceptor atom, score
      P1  H  6896  6907       L1    16  0.94
      P1  H  7997  8009       L1     7  1.00

> <Gold.PLP.Chemscore.Internal.Correction>
0.0061

> <Gold.Rescore>
     Score         DG    S(hbond)    S(metal)    S(lipo)     H(rot)  DE(clash)    DE(int)     intcor
     18.36     -19.20       1.55        0.00      94.76       1.00       0.39       0.44       ----

> <Gold.Chemscore.Fitness>
18.3634

> <Gold.Chemscore.DG>
-19.1971

> <Gold.Chemscore.ZeroCoef>
-5.4800

> <Gold.Chemscore.Hbond>
1.5541

> <Gold.Chemscore.Metal>
0.0000

> <Gold.Chemscore.Lipo>
94.7550

> <Gold.Chemscore.Internal_Hbond>
0.0000

> <Gold.Chemscore.DEClash>
0.3921

> <Gold.Chemscore.DEInternal>
0.4417

> <Gold.Chemscore.Rot>
1.0000

> <Gold.Chemscore.Internal.Correction>
   9.000000E+99

> <Gold.Chemscore.Hbonds>
donor molecule, donor type, donor heavy atom, donor atom, acceptor molecule, acceptor atom, score
      P1  H  6896  6907       L1    16  0.32
      P1  H  7997  8009       L1     7  0.98

> <Gold.Chemscore.Hbond.Weighted>
-5.1907

> <Gold.Chemscore.Metal.Weighted>
-0.0000

> <Gold.Chemscore.Lipo.Weighted>
-11.0863

> <Gold.Chemscore.Internal_Hbond.Weighted>
0.0000

> <Gold.Chemscore.DEClash.Weighted>
0.3921

> <Gold.Chemscore.DEInternal.Weighted>
0.4417

> <Gold.Chemscore.Rot.Weighted>
2.5600

> <Gold.Chemscore.Internal.Correction.Weighted>
   9.000000E+99

> <Gold.Protein.RotatedTorsions>
[ 6907 6896 6895 6894 ] final  -28.23 input  -60.11 | X-H torsion
[ 7974 7965 7964 7962 ] final -141.76 input  175.53 | X-H torsion
[ 8008 7997 7996 7995 ] final  137.16 input   59.86 | X-H torsion
[ 10167 10162 10161 10158 ] final  138.16 input  -65.29 | X-H torsion
[ 10718 10713 10712 10709 ] final  -43.39 input   66.30 | X-H torsion
[ 10763 10752 10751 10750 ] final   38.10 input  -60.55 | X-H torsion
[ 11005 11000 10999 10996 ] final   23.41 input  -57.11 | X-H torsion

> <Gold.Protein.ActiveResidues>
 VAL166  LYS551  ARG553  GLY616  TRP617  ASP618  TYR619  PRO620  LYS621  CYS622 
 ASP623  PHE694  ASN695  SER759  ASP760  ASP761  ALA762  ILE779  LEU786  VAL792 
 PHE793  MET794  SER795  GLU796  ALA797  LYS798  CYS799  TRP800  GLU811  SER814 

> <Gold.Protein.RotatedAtoms>
  151.1359  135.0154  159.8603 H   0  0  0  0  0  0  0  0  0  0  0  0  # atno 6907 bound_to 6896
  152.5452  134.1556  159.8546 H   0  0  0  0  0  0  0  0  0  0  0  0  # atno 6908 bound_to 6896
  151.1627  133.4789  159.2627 H   0  0  0  0  0  0  0  0  0  0  0  0  # atno 6909 bound_to 6896
  144.8495  140.6040  143.5400 H   0  0  0  0  0  0  0  0  0  0  0  0  # atno 7974 bound_to 7965
  156.3003  140.2426  156.3864 H   0  0  0  0  0  0  0  0  0  0  0  0  # atno 8008 bound_to 7997
  154.8654  140.0418  157.1711 H   0  0  0  0  0  0  0  0  0  0  0  0  # atno 8009 bound_to 7997
  154.8852  140.2955  155.5406 H   0  0  0  0  0  0  0  0  0  0  0  0  # atno 8010 bound_to 7997
  139.5120  144.6369  151.5673 H   0  0  0  0  0  0  0  0  0  0  0  0  # atno 10167 bound_to 10162
  156.2495  130.4187  149.8666 H   0  0  0  0  0  0  0  0  0  0  0  0  # atno 10718 bound_to 10713
  153.0013  135.6259  154.2250 H   0  0  0  0  0  0  0  0  0  0  0  0  # atno 10763 bound_to 10752
  154.1993  135.2805  155.2998 H   0  0  0  0  0  0  0  0  0  0  0  0  # atno 10764 bound_to 10752
  154.5696  135.5680  153.7142 H   0  0  0  0  0  0  0  0  0  0  0  0  # atno 10765 bound_to 10752
  140.3699  134.2034  155.7667 H   0  0  0  0  0  0  0  0  0  0  0  0  # atno 11005 bound_to 11000
  145.4529  139.1521  143.3908 LP  0  0  0  0  0  0  0  0  0  0  0  0  # atno 17320 bound_to 7965
  146.2772  140.4656  142.8790 LP  0  0  0  0  0  0  0  0  0  0  0  0  # atno 17321 bound_to 7965
  140.6121  143.9417  150.6461 LP  0  0  0  0  0  0  0  0  0  0  0  0  # atno 17342 bound_to 10162
  140.2663  143.3488  152.1278 LP  0  0  0  0  0  0  0  0  0  0  0  0  # atno 17343 bound_to 10162
  156.6219  130.8630  151.3477 LP  0  0  0  0  0  0  0  0  0  0  0  0  # atno 17370 bound_to 10713
  157.7209  130.9557  150.1434 LP  0  0  0  0  0  0  0  0  0  0  0  0  # atno 17371 bound_to 10713
  141.1958  133.8097  157.0700 LP  0  0  0  0  0  0  0  0  0  0  0  0  # atno 17394 bound_to 11000
  140.0560  134.9780  157.1221 LP  0  0  0  0  0  0  0  0  0  0  0  0  # atno 17395 bound_to 11000

$$$$
