AV-unprocessed.smi:1662|AV-procd|sdf|6659|dock9
  -GOLD-   22720 7373D 1   1.00000     0.00000
 Structure written by MMmdl.
 47 48  0  0  0  0  0  0  0  0  1 V2000
  153.9049  142.0651  159.7201 C   0  0  0  0  0  0  0  0  0  0  0  0
  153.7868  140.5710  159.8553 C   0  0  0  0  0  0  0  0  0  0  0  0
  153.5435  139.9078  158.7728 N   0  0  0  0  0  0  0  0  0  0  0  0
  153.4098  138.5328  158.7863 N   0  0  0  0  0  0  0  0  0  0  0  0
  153.1208  137.9448  157.4699 C   0  0  0  0  0  0  0  0  0  0  0  0
  152.5960  138.9648  156.4489 C   0  0  0  0  0  0  0  0  0  0  0  0
  153.3258  139.3964  155.5551 O   0  0  0  0  0  0  0  0  0  0  0  0
  151.3120  139.3274  156.5902 N   0  0  0  0  0  0  0  0  0  0  0  0
  150.5967  140.2732  155.7350 C   0  0  2  0  0  0  0  0  0  0  0  0
  149.9952  141.3926  156.6076 C   0  0  0  0  0  0  0  0  0  0  0  0
  149.1927  142.3872  155.7643 C   0  0  0  0  0  0  0  0  0  0  0  0
  148.0898  141.6642  154.9844 C   0  0  0  0  0  0  0  0  0  0  0  0
  148.6600  140.5531  154.0803 C   0  0  2  0  0  0  0  0  0  0  0  0
  147.5112  139.8876  153.2997 C   0  0  0  0  0  0  0  0  0  0  0  0
  149.5089  139.5409  154.9019 C   0  0  1  0  0  0  0  0  0  0  0  0
  150.1382  138.4530  154.0036 C   0  0  0  0  0  0  0  0  0  0  0  0
  153.5208  137.7524  159.9002 C   0  0  0  0  0  0  0  0  0  0  0  0
  153.3950  136.5273  159.8660 O   0  0  0  0  0  0  0  0  0  0  0  0
  153.7993  138.5104  161.1220 C   0  0  0  0  0  0  0  0  0  0  0  0
  153.9199  137.7323  162.3126 C   0  0  0  0  0  0  0  0  0  0  0  0
  154.0003  137.1115  163.2866 N   0  0  0  0  0  0  0  0  0  0  0  0
  153.9327  139.8604  161.1216 C   0  0  0  0  0  0  0  0  0  0  0  0
  154.2210  140.6926  162.3635 C   0  0  0  0  0  0  0  0  0  0  0  0
  154.9206  142.3935  159.9407 H   0  0  0  0  0  0  0  0  0  0  0  0
  153.2283  142.5718  160.4084 H   0  0  0  0  0  0  0  0  0  0  0  0
  153.6598  142.4032  158.7123 H   0  0  0  0  0  0  0  0  0  0  0  0
  154.0202  137.4859  157.0552 H   0  0  0  0  0  0  0  0  0  0  0  0
  152.4005  137.1313  157.5767 H   0  0  0  0  0  0  0  0  0  0  0  0
  150.7873  138.9182  157.3498 H   0  0  0  0  0  0  0  0  0  0  0  0
  151.3050  140.7236  155.0365 H   0  0  0  0  0  0  0  0  0  0  0  0
  149.3481  140.9597  157.3719 H   0  0  0  0  0  0  0  0  0  0  0  0
  150.7859  141.9242  157.1383 H   0  0  0  0  0  0  0  0  0  0  0  0
  148.7548  143.1513  156.4069 H   0  0  0  0  0  0  0  0  0  0  0  0
  149.8568  142.9060  155.0719 H   0  0  0  0  0  0  0  0  0  0  0  0
  147.3695  141.2378  155.6841 H   0  0  0  0  0  0  0  0  0  0  0  0
  147.5412  142.3905  154.3837 H   0  0  0  0  0  0  0  0  0  0  0  0
  149.3170  141.0293  153.3508 H   0  0  0  0  0  0  0  0  0  0  0  0
  146.8607  139.3161  153.9622 H   0  0  0  0  0  0  0  0  0  0  0  0
  147.8791  139.2153  152.5257 H   0  0  0  0  0  0  0  0  0  0  0  0
  146.8962  140.6348  152.7977 H   0  0  0  0  0  0  0  0  0  0  0  0
  148.8384  139.0387  155.6017 H   0  0  0  0  0  0  0  0  0  0  0  0
  150.7804  138.8947  153.2410 H   0  0  0  0  0  0  0  0  0  0  0  0
  149.3804  137.8560  153.4981 H   0  0  0  0  0  0  0  0  0  0  0  0
  150.7435  137.7506  154.5762 H   0  0  0  0  0  0  0  0  0  0  0  0
  154.4225  140.0732  163.2367 H   0  0  0  0  0  0  0  0  0  0  0  0
  153.3684  141.3295  162.5998 H   0  0  0  0  0  0  0  0  0  0  0  0
  155.0935  141.3281  162.2094 H   0  0  0  0  0  0  0  0  0  0  0  0
  1  2  1  0  0  0  0
  1 24  1  0  0  0  0
  1 25  1  0  0  0  0
  1 26  1  0  0  0  0
  2 22  1  0  0  0  0
  2  3  2  0  0  0  0
  3  4  1  0  0  0  0
  4  5  1  0  0  0  0
  4 17  1  0  0  0  0
  5  6  1  0  0  0  0
  5 27  1  0  0  0  0
  5 28  1  0  0  0  0
  6  7  2  0  0  0  0
  6  8  1  0  0  0  0
  8  9  1  0  0  0  0
  8 29  1  0  0  0  0
  9 15  1  0  0  0  0
  9 10  1  0  0  0  0
  9 30  1  0  0  0  0
 10 11  1  0  0  0  0
 10 31  1  0  0  0  0
 10 32  1  0  0  0  0
 11 12  1  0  0  0  0
 11 33  1  0  0  0  0
 11 34  1  0  0  0  0
 12 13  1  0  0  0  0
 12 35  1  0  0  0  0
 12 36  1  0  0  0  0
 13 14  1  0  0  0  0
 13 15  1  0  0  0  0
 13 37  1  0  0  0  0
 14 38  1  0  0  0  0
 14 39  1  0  0  0  0
 14 40  1  0  0  0  0
 15 16  1  0  0  0  0
 15 41  1  0  0  0  0
 16 42  1  0  0  0  0
 16 43  1  0  0  0  0
 16 44  1  0  0  0  0
 17 18  2  0  0  0  0
 17 19  1  0  0  0  0
 19 20  1  0  0  0  0
 19 22  2  0  0  0  0
 20 21  3  0  0  0  0
 22 23  1  0  0  0  0
 23 45  1  0  0  0  0
 23 46  1  0  0  0  0
 23 47  1  0  0  0  0
M  END
> <s_m_source_file>
AV-unprocessed.smi

> <i_m_source_file_index>
1662

> <i_lp_mmshare_version>
43012

> <i_f3d_flags>
0

> <s_epik_input>
TiNDYyhjMVtDSDNdKWMoPU8pbihuYzFbQ0gzXSlbQ0gyXUMoPU8pW05IXVtDQEBIXTJbQ0gyXVtDSDJdW0NIMl1bQ0BASF0oW0NIM10pW0NASF0yW0NIM10=

> <s_epik_cmdline>
J2VwaWtfcHl0aG9uJywgJy1waCcsICc3LjAnLCAnLXRuJywgJzgnLCAnLW1hJywgJzIwMCcsICctbWV0YWxfYmluZGluZycsICctaW1hZScsICc8aW5maWxlLm1hZT4nLCAnLW9tYWUnLCAnPG91dGZpbGUubWFlPic=

> <r_lp_tautomer_probability>
1

> <r_epik_Ionization_Penalty>
1.90709e-08

> <r_epik_Ionization_Penalty_Charging>
2.37982e-11

> <r_epik_Ionization_Penalty_Neutral>
1.90471e-08

> <r_epik_State_Penalty>
-0

> <r_epik_Charging_Adjusted_Penalty>
2.37982e-11

> <i_epik_Tot_Q>
0

> <i_epik_Tot_abs_Q>
0

> <r_epik_Metal_State_Penalty>
-0

> <b_epik_Metal_Only>
0

> <s_lp_Force_Field>
OPLS_2005

> <r_lp_Energy>
27.4579

> <b_lp_Chiralities_Consistent>
1

> <s_lp_Variant>
AV-unprocessed.smi:1662-3

> <Gold.Version>
5.8.1

> <Gold.Id.Protein>
6NUR|6NUR_protein|mol2

> <Gold.PLP.Fitness>
39.6236

> <Gold.PLP.PLP>
-32.3552

> <Gold.PLP.part.hbond>
-2.8547

> <Gold.PLP.part.metal>
0.0000

> <Gold.PLP.part.buried>
3.6447

> <Gold.PLP.part.nonpolar>
-32.5736

> <Gold.PLP.part.repulsive>
0.0864

> <Gold.PLP.ligand.clash>
0.0000

> <Gold.PLP.ligand.torsion>
0.5094

> <Gold.PLP.Chemscore.Hbond>
2.7600

> <Gold.PLP.Chemscore.CHOScore>
0.0000

> <Gold.PLP.Chemscore.Metal>
0.0000

> <Gold.Chemscore.Hbonds>
donor molecule, donor type, donor heavy atom, donor atom, acceptor molecule, acceptor atom, score
      P1  H  6896  6908       L1    18  0.73
      P1  H  7997  8009       L1     3  0.40
      P1  H  7997  8010       L1     7  0.81

> <Gold.PLP.Chemscore.Internal.Correction>
0.0071

> <Gold.Rescore>
     Score         DG    S(hbond)    S(metal)    S(lipo)     H(rot)  DE(clash)    DE(int)     intcor
     18.94     -19.93       2.46        0.00      85.02       1.45       0.38       0.61       ----

> <Gold.Chemscore.Fitness>
18.9359

> <Gold.Chemscore.DG>
-19.9270

> <Gold.Chemscore.ZeroCoef>
-5.4800

> <Gold.Chemscore.Hbond>
2.4589

> <Gold.Chemscore.Metal>
0.0000

> <Gold.Chemscore.Lipo>
85.0182

> <Gold.Chemscore.Internal_Hbond>
0.0000

> <Gold.Chemscore.DEClash>
0.3766

> <Gold.Chemscore.DEInternal>
0.6145

> <Gold.Chemscore.Rot>
1.4504

> <Gold.Chemscore.Internal.Correction>
   9.000000E+99

> <Gold.Chemscore.Hbonds>
donor molecule, donor type, donor heavy atom, donor atom, acceptor molecule, acceptor atom, score
      P1  H  6896  6908       L1    18  0.71
      P1  H  7997  8009       L1     3  0.07
      P1  H  7997  8010       L1     7  0.78

> <Gold.Chemscore.Hbond.Weighted>
-8.2128

> <Gold.Chemscore.Metal.Weighted>
-0.0000

> <Gold.Chemscore.Lipo.Weighted>
-9.9471

> <Gold.Chemscore.Internal_Hbond.Weighted>
0.0000

> <Gold.Chemscore.DEClash.Weighted>
0.3766

> <Gold.Chemscore.DEInternal.Weighted>
0.6145

> <Gold.Chemscore.Rot.Weighted>
3.7129

> <Gold.Chemscore.Internal.Correction.Weighted>
   9.000000E+99

> <Gold.Protein.RotatedTorsions>
[ 6907 6896 6895 6894 ] final  -56.41 input  -60.11 | X-H torsion
[ 7974 7965 7964 7962 ] final  -27.21 input  175.53 | X-H torsion
[ 8008 7997 7996 7995 ] final  114.88 input   59.86 | X-H torsion
[ 10167 10162 10161 10158 ] final  136.52 input  -65.29 | X-H torsion
[ 10718 10713 10712 10709 ] final  -28.44 input   66.30 | X-H torsion
[ 10763 10752 10751 10750 ] final  -36.47 input  -60.55 | X-H torsion
[ 11005 11000 10999 10996 ] final -156.09 input  -57.11 | X-H torsion

> <Gold.Protein.ActiveResidues>
 VAL166  LYS551  ARG553  GLY616  TRP617  ASP618  TYR619  PRO620  LYS621  CYS622 
 ASP623  PHE694  ASN695  SER759  ASP760  ASP761  ALA762  ILE779  LEU786  VAL792 
 PHE793  MET794  SER795  GLU796  ALA797  LYS798  CYS799  TRP800  GLU811  SER814 

> <Gold.Protein.RotatedAtoms>
  150.8170  134.7357  159.6738 H   0  0  0  0  0  0  0  0  0  0  0  0  # atno 6907 bound_to 6896
  152.4288  134.5815  159.9959 H   0  0  0  0  0  0  0  0  0  0  0  0  # atno 6908 bound_to 6896
  151.6009  133.3319  159.3083 H   0  0  0  0  0  0  0  0  0  0  0  0  # atno 6909 bound_to 6896
  146.1373  140.5122  142.8667 H   0  0  0  0  0  0  0  0  0  0  0  0  # atno 7974 bound_to 7965
  156.2348  140.2950  156.0283 H   0  0  0  0  0  0  0  0  0  0  0  0  # atno 8008 bound_to 7997
  155.2123  140.0413  157.2952 H   0  0  0  0  0  0  0  0  0  0  0  0  # atno 8009 bound_to 7997
  154.6059  140.2439  155.7739 H   0  0  0  0  0  0  0  0  0  0  0  0  # atno 8010 bound_to 7997
  139.5177  144.6460  151.5438 H   0  0  0  0  0  0  0  0  0  0  0  0  # atno 10167 bound_to 10162
  156.4252  130.4434  149.7156 H   0  0  0  0  0  0  0  0  0  0  0  0  # atno 10718 bound_to 10713
  153.8802  135.6822  153.4767 H   0  0  0  0  0  0  0  0  0  0  0  0  # atno 10763 bound_to 10752
  153.1238  135.4728  154.9236 H   0  0  0  0  0  0  0  0  0  0  0  0  # atno 10764 bound_to 10752
  154.7672  135.3228  154.8214 H   0  0  0  0  0  0  0  0  0  0  0  0  # atno 10765 bound_to 10752
  140.6794  134.4161  157.5227 H   0  0  0  0  0  0  0  0  0  0  0  0  # atno 11005 bound_to 11000
  144.7754  140.5727  143.6642 LP  0  0  0  0  0  0  0  0  0  0  0  0  # atno 17320 bound_to 7965
  145.5127  139.1479  143.3596 LP  0  0  0  0  0  0  0  0  0  0  0  0  # atno 17321 bound_to 7965
  140.6245  143.9195  150.6553 LP  0  0  0  0  0  0  0  0  0  0  0  0  # atno 17342 bound_to 10162
  140.2479  143.3615  152.1431 LP  0  0  0  0  0  0  0  0  0  0  0  0  # atno 17343 bound_to 10162
  156.4081  130.7708  151.2720 LP  0  0  0  0  0  0  0  0  0  0  0  0  # atno 17370 bound_to 10713
  157.7508  131.0220  150.3772 LP  0  0  0  0  0  0  0  0  0  0  0  0  # atno 17371 bound_to 10713
  139.8956  134.8678  156.2123 LP  0  0  0  0  0  0  0  0  0  0  0  0  # atno 17394 bound_to 11000
  141.0329  133.6979  156.1462 LP  0  0  0  0  0  0  0  0  0  0  0  0  # atno 17395 bound_to 11000

$$$$
