AV-unprocessed.smi:3147|AV-procd|sdf|11990|dock4
  -GOLD-   2272017393D 1   1.00000     0.00000
 Structure written by MMmdl.
 36 37  0  0  0  0  0  0  0  0  1 V2000
  151.7355  144.9096  160.7844 C   0  0  0  0  0  0  0  0  0  0  0  0
  151.6047  143.9823  159.6150 C   0  0  0  0  0  0  0  0  0  0  0  0
  150.9419  144.3901  158.4599 N   0  0  0  0  0  0  0  0  0  0  0  0
  151.0222  143.3374  157.6588 C   0  0  0  0  0  0  0  0  0  0  0  0
  151.6687  142.2876  158.1832 N   0  0  0  0  0  0  0  0  0  0  0  0
  151.9048  141.0063  157.5341 C   0  0  0  0  0  0  0  0  0  0  0  0
  150.8245  140.6493  156.5055 C   0  0  0  0  0  0  0  0  0  0  0  0
  151.1008  140.5035  155.3137 O   0  0  0  0  0  0  0  0  0  0  0  0
  149.5830  140.5044  156.9922 N   0  0  0  0  0  0  0  0  0  0  0  0
  148.4060  140.1591  156.2031 C   0  0  0  0  0  0  0  0  0  0  0  0
  147.7449  141.4050  155.5903 C   0  0  1  0  0  0  0  0  0  0  0  0
  147.1290  141.1615  154.2160 C   0  0  0  0  0  0  0  0  0  0  0  0
  146.1577  142.3165  154.1136 C   0  0  0  0  0  0  0  0  0  0  0  0
  145.6665  142.4659  155.5538 C   0  0  0  0  0  0  0  0  0  0  0  0
  146.6429  141.8359  156.3813 O   0  0  0  0  0  0  0  0  0  0  0  0
  152.0609  142.6886  159.4597 C   0  0  0  0  0  0  0  0  0  0  0  0
  152.8268  141.8046  160.3922 C   0  0  0  0  0  0  0  0  0  0  0  0
  152.2669  144.4476  161.6154 H   0  0  0  0  0  0  0  0  0  0  0  0
  150.7561  145.2151  161.1527 H   0  0  0  0  0  0  0  0  0  0  0  0
  152.2809  145.8124  160.5086 H   0  0  0  0  0  0  0  0  0  0  0  0
  150.5984  143.3294  156.6653 H   0  0  0  0  0  0  0  0  0  0  0  0
  152.8798  141.0260  157.0464 H   0  0  0  0  0  0  0  0  0  0  0  0
  151.9486  140.2317  158.3013 H   0  0  0  0  0  0  0  0  0  0  0  0
  149.4409  140.6461  157.9818 H   0  0  0  0  0  0  0  0  0  0  0  0
  148.6835  139.4549  155.4170 H   0  0  0  0  0  0  0  0  0  0  0  0
  147.6990  139.6382  156.8495 H   0  0  0  0  0  0  0  0  0  0  0  0
  148.4605  142.2261  155.5191 H   0  0  0  0  0  0  0  0  0  0  0  0
  147.8674  141.1498  153.4137 H   0  0  0  0  0  0  0  0  0  0  0  0
  146.5872  140.2147  154.1989 H   0  0  0  0  0  0  0  0  0  0  0  0
  146.6872  143.2186  153.8041 H   0  0  0  0  0  0  0  0  0  0  0  0
  145.3502  142.1360  153.4036 H   0  0  0  0  0  0  0  0  0  0  0  0
  145.5369  143.5126  155.8301 H   0  0  0  0  0  0  0  0  0  0  0  0
  144.7116  141.9586  155.6941 H   0  0  0  0  0  0  0  0  0  0  0  0
  153.0990  142.3268  161.3084 H   0  0  0  0  0  0  0  0  0  0  0  0
  153.7482  141.4555  159.9256 H   0  0  0  0  0  0  0  0  0  0  0  0
  152.2368  140.9311  160.6698 H   0  0  0  0  0  0  0  0  0  0  0  0
  1  2  1  0  0  0  0
  1 18  1  0  0  0  0
  1 19  1  0  0  0  0
  1 20  1  0  0  0  0
  2 16  2  0  0  0  0
  2  3  1  0  0  0  0
  3  4  2  0  0  0  0
  4  5  1  0  0  0  0
  4 21  1  0  0  0  0
  5  6  1  0  0  0  0
  5 16  1  0  0  0  0
  6  7  1  0  0  0  0
  6 22  1  0  0  0  0
  6 23  1  0  0  0  0
  7  8  2  0  0  0  0
  7  9  1  0  0  0  0
  9 10  1  0  0  0  0
  9 24  1  0  0  0  0
 10 11  1  0  0  0  0
 10 25  1  0  0  0  0
 10 26  1  0  0  0  0
 11 15  1  0  0  0  0
 11 12  1  0  0  0  0
 11 27  1  0  0  0  0
 12 13  1  0  0  0  0
 12 28  1  0  0  0  0
 12 29  1  0  0  0  0
 13 14  1  0  0  0  0
 13 30  1  0  0  0  0
 13 31  1  0  0  0  0
 14 15  1  0  0  0  0
 14 32  1  0  0  0  0
 14 33  1  0  0  0  0
 16 17  1  0  0  0  0
 17 34  1  0  0  0  0
 17 35  1  0  0  0  0
 17 36  1  0  0  0  0
M  END
> <s_m_source_file>
AV-unprocessed.smi

> <i_m_source_file_index>
3147

> <i_lp_mmshare_version>
43012

> <i_f3d_flags>
0

> <s_epik_input>
W0NIM11jMW5bY0hdbihjMVtDSDNdKVtDSDJdQyg9TylbTkhdW0NIMl1bQ0BASF0yW0NIMl1bQ0gyXVtDSDJdTzI=

> <s_epik_cmdline>
J2VwaWtfcHl0aG9uJywgJy1waCcsICc3LjAnLCAnLXRuJywgJzgnLCAnLW1hJywgJzIwMCcsICctbWV0YWxfYmluZGluZycsICctaW1hZScsICc8aW5maWxlLm1hZT4nLCAnLW9tYWUnLCAnPG91dGZpbGUubWFlPic=

> <r_lp_tautomer_probability>
1

> <r_epik_Ionization_Penalty>
0.957393

> <r_epik_Ionization_Penalty_Charging>
0.957393

> <r_epik_Ionization_Penalty_Neutral>
1.43432e-07

> <r_epik_State_Penalty>
1.0022

> <r_epik_Charging_Adjusted_Penalty>
1.9596

> <i_epik_Tot_Q>
0

> <i_epik_Tot_abs_Q>
0

> <r_epik_Metal_State_Penalty>
0.374967

> <b_epik_Metal_Only>
0

> <s_lp_Force_Field>
OPLS_2005

> <r_lp_Energy>
18.0511

> <b_lp_Chiralities_Consistent>
1

> <s_lp_Variant>
AV-unprocessed.smi:3147-4

> <Gold.Version>
5.8.1

> <Gold.Id.Protein>
6NUR|6NUR_protein|mol2

> <Gold.PLP.Fitness>
39.5790

> <Gold.PLP.PLP>
-36.1572

> <Gold.PLP.part.hbond>
-1.0000

> <Gold.PLP.part.metal>
0.0000

> <Gold.PLP.part.buried>
-5.2408

> <Gold.PLP.part.nonpolar>
-29.5611

> <Gold.PLP.part.repulsive>
0.3677

> <Gold.PLP.ligand.clash>
0.0000

> <Gold.PLP.ligand.torsion>
1.0510

> <Gold.PLP.Chemscore.Hbond>
0.9760

> <Gold.PLP.Chemscore.CHOScore>
0.8567

> <Gold.PLP.Chemscore.Metal>
0.0000

> <Gold.Chemscore.Hbonds>
donor molecule, donor type, donor heavy atom, donor atom, acceptor molecule, acceptor atom, score
      P1  H  7989  7998       L1     8  0.94
      L1  C     4    21       P1  8028  1.00

> <Gold.PLP.Chemscore.Internal.Correction>
0.0257

> <Gold.Rescore>
     Score         DG    S(hbond)    S(metal)    S(lipo)     H(rot)  DE(clash)    DE(int)     intcor
     12.12     -13.34       0.98        0.00      76.49       1.70       0.05       1.17       ----

> <Gold.Chemscore.Fitness>
12.1177

> <Gold.Chemscore.DG>
-13.3359

> <Gold.Chemscore.ZeroCoef>
-5.4800

> <Gold.Chemscore.Hbond>
0.9783

> <Gold.Chemscore.Metal>
0.0000

> <Gold.Chemscore.Lipo>
76.4884

> <Gold.Chemscore.Internal_Hbond>
0.0000

> <Gold.Chemscore.DEClash>
0.0459

> <Gold.Chemscore.DEInternal>
1.1723

> <Gold.Chemscore.Rot>
1.7034

> <Gold.Chemscore.Internal.Correction>
   9.000000E+99

> <Gold.Chemscore.Hbonds>
donor molecule, donor type, donor heavy atom, donor atom, acceptor molecule, acceptor atom, score
      P1  H  7989  7998       L1     8  0.91

> <Gold.Chemscore.Hbond.Weighted>
-3.2674

> <Gold.Chemscore.Metal.Weighted>
-0.0000

> <Gold.Chemscore.Lipo.Weighted>
-8.9491

> <Gold.Chemscore.Internal_Hbond.Weighted>
0.0000

> <Gold.Chemscore.DEClash.Weighted>
0.0459

> <Gold.Chemscore.DEInternal.Weighted>
1.1723

> <Gold.Chemscore.Rot.Weighted>
4.3607

> <Gold.Chemscore.Internal.Correction.Weighted>
   9.000000E+99

> <Gold.Protein.RotatedTorsions>
[ 6907 6896 6895 6894 ] final  124.60 input  -60.11 | X-H torsion
[ 7974 7965 7964 7962 ] final  -29.46 input  175.53 | X-H torsion
[ 8008 7997 7996 7995 ] final   99.68 input   59.86 | X-H torsion
[ 10167 10162 10161 10158 ] final   94.45 input  -65.29 | X-H torsion
[ 10718 10713 10712 10709 ] final  -92.50 input   66.30 | X-H torsion
[ 10763 10752 10751 10750 ] final   55.98 input  -60.55 | X-H torsion
[ 11005 11000 10999 10996 ] final   22.96 input  -57.11 | X-H torsion

> <Gold.Protein.ActiveResidues>
 VAL166  LYS551  ARG553  GLY616  TRP617  ASP618  TYR619  PRO620  LYS621  CYS622 
 ASP623  PHE694  ASN695  SER759  ASP760  ASP761  ALA762  ILE779  LEU786  VAL792 
 PHE793  MET794  SER795  GLU796  ALA797  LYS798  CYS799  TRP800  GLU811  SER814 

> <Gold.Protein.RotatedAtoms>
  152.4064  133.6896  159.6359 H   0  0  0  0  0  0  0  0  0  0  0  0  # atno 6907 bound_to 6896
  150.7949  133.8701  159.3265 H   0  0  0  0  0  0  0  0  0  0  0  0  # atno 6908 bound_to 6896
  151.6454  135.1009  160.0201 H   0  0  0  0  0  0  0  0  0  0  0  0  # atno 6909 bound_to 6896
  146.1214  140.5415  142.8733 H   0  0  0  0  0  0  0  0  0  0  0  0  # atno 7974 bound_to 7965
  156.1129  140.3225  155.8097 H   0  0  0  0  0  0  0  0  0  0  0  0  # atno 8008 bound_to 7997
  155.4642  140.0541  157.3004 H   0  0  0  0  0  0  0  0  0  0  0  0  # atno 8009 bound_to 7997
  154.4772  140.2037  155.9863 H   0  0  0  0  0  0  0  0  0  0  0  0  # atno 8010 bound_to 7997
  139.8083  144.6784  150.9674 H   0  0  0  0  0  0  0  0  0  0  0  0  # atno 10167 bound_to 10162
  156.0003  130.4989  150.5635 H   0  0  0  0  0  0  0  0  0  0  0  0  # atno 10718 bound_to 10713
  152.9825  135.5692  154.5154 H   0  0  0  0  0  0  0  0  0  0  0  0  # atno 10763 bound_to 10752
  154.4651  135.2783  155.1686 H   0  0  0  0  0  0  0  0  0  0  0  0  # atno 10764 bound_to 10752
  154.3258  135.6259  153.5582 H   0  0  0  0  0  0  0  0  0  0  0  0  # atno 10765 bound_to 10752
  140.3748  134.1983  155.7665 H   0  0  0  0  0  0  0  0  0  0  0  0  # atno 11005 bound_to 11000
  144.7601  140.5402  143.6741 LP  0  0  0  0  0  0  0  0  0  0  0  0  # atno 17320 bound_to 7965
  145.5457  139.1476  143.3422 LP  0  0  0  0  0  0  0  0  0  0  0  0  # atno 17321 bound_to 7965
  140.7818  143.4211  151.0840 LP  0  0  0  0  0  0  0  0  0  0  0  0  # atno 17342 bound_to 10162
  139.7879  143.8260  152.3147 LP  0  0  0  0  0  0  0  0  0  0  0  0  # atno 17343 bound_to 10162
  157.3540  131.0738  151.1690 LP  0  0  0  0  0  0  0  0  0  0  0  0  # atno 17370 bound_to 10713
  157.2497  130.6608  149.5926 LP  0  0  0  0  0  0  0  0  0  0  0  0  # atno 17371 bound_to 10713
  141.1943  133.8132  157.0764 LP  0  0  0  0  0  0  0  0  0  0  0  0  # atno 17394 bound_to 11000
  140.0523  134.9799  157.1159 LP  0  0  0  0  0  0  0  0  0  0  0  0  # atno 17395 bound_to 11000

$$$$
