#       Name:                AV-unprocessed.smi:2751
#       Creating user name   scv26
#       Creation time:       Fri Mar 27 15:05:15 2020


#       File generated by GOLD software.
#

@<TRIPOS>MOLECULE
AV-unprocessed.smi:2751
    41    42     1
SMALL
NO_CHARGES


@<TRIPOS>ATOM
      1 ****        -1.6554   1.3446   0.9877 O.2            1 S1                 0.0000
      2 ****        -2.2060   0.2396   1.0261 C.2            1 S1                 0.0000
      3 ****        -1.4934  -0.8970   1.0446 N.am           1 S1                 0.0000
      4 ****        -0.0372  -0.9846   1.0228 C.3            1 S1                 0.0000
      5 ****         0.5162  -0.8516  -0.4064 C.3            1 S1                 0.0000
      6 ****         2.0459  -0.9865  -0.4696 C.3            1 S1                 0.0000
      7 ****         2.5642  -0.9829  -1.9212 C.3            1 S1                 0.0000
      8 ****         4.0960  -1.0380  -1.9487 C.3            1 S1                 0.0000
      9 ****         4.6698   0.0808  -1.0729 C.3            1 S1                 0.0000
     10 ****         4.0469   0.0312   0.3312 C.3            1 S1                 0.0000
     11 ****         2.6280   0.1092   0.2346 O.3            1 S1                 0.0000
     12 ****        -3.5625  -0.0514   1.0529 N.2            1 S1                 0.0000
     13 ****        -4.4288   0.9138   1.0254 C.2            1 S1                 0.0000
     14 ****        -5.8106   0.8095   1.0427 N.pl3          1 S1                 0.0000
     15 ****        -6.3336   2.0722   0.9980 C.2            1 S1                 0.0000
     16 ****        -5.3243   2.9371   0.9555 C.2            1 S1                 0.0000
     17 ****        -4.1431   2.2589   0.9712 O.3            1 S1                 0.0000
     18 ****        -2.0010  -1.7694   1.0749 H              1 S1                 0.0000
     19 ****         0.3937  -0.2247   1.6768 H              1 S1                 0.0000
     20 ****         0.2475  -1.9499   1.4418 H              1 S1                 0.0000
     21 ****         0.0632  -1.6213  -1.0328 H              1 S1                 0.0000
     22 ****         0.2183   0.1063  -0.8344 H              1 S1                 0.0000
     23 ****         2.3366  -1.9203   0.0151 H              1 S1                 0.0000
     24 ****         2.1524  -1.8286  -2.4725 H              1 S1                 0.0000
     25 ****         2.2239  -0.0810  -2.4319 H              1 S1                 0.0000
     26 ****         4.4353  -2.0057  -1.5773 H              1 S1                 0.0000
     27 ****         4.4625  -0.9473  -2.9716 H              1 S1                 0.0000
     28 ****         5.7547  -0.0071  -1.0095 H              1 S1                 0.0000
     29 ****         4.4601   1.0486  -1.5299 H              1 S1                 0.0000
     30 ****         4.3370  -0.8812   0.8544 H              1 S1                 0.0000
     31 ****         4.4055   0.8685   0.9301 H              1 S1                 0.0000
     32 ****        -6.3746  -0.0274   1.0787 H              1 S1                 0.0000
     33 ****        -7.4033   2.2206   1.0006 H              1 S1                 0.0000
     34 ****        -5.2827   4.0155   0.9120 H              1 S1                 0.0000
     35 ****        -2.2077   2.1781   0.9721 LP             1 S1                 0.0000
     36 ****        -0.6574   1.4057   0.9723 LP             1 S1                 0.0000
     37 ****         2.2481   0.1291   1.1595 LP             1 S1                 0.0000
     38 ****         2.3889   0.9551  -0.2421 LP             1 S1                 0.0000
     39 ****        -3.8712  -1.0017   1.0933 LP             1 S1                 0.0000
     40 ****        -3.6232   2.4627   0.1417 LP             1 S1                 0.0000
     41 ****        -3.6089   2.5254   1.7734 LP             1 S1                 0.0000
@<TRIPOS>BOND
    1    1    2 2     
    2    2   12 1     
    3    2    3 am    
    4    3    4 1     
    5    3   18 1     
    6    4    5 1     
    7    4   19 1     
    8    4   20 1     
    9    5    6 1     
   10    5   21 1     
   11    5   22 1     
   12    6   11 1     
   13    6    7 1     
   14    6   23 1     
   15    7    8 1     
   16    7   24 1     
   17    7   25 1     
   18    8    9 1     
   19    8   26 1     
   20    8   27 1     
   21    9   10 1     
   22    9   28 1     
   23    9   29 1     
   24   10   11 1     
   25   10   30 1     
   26   10   31 1     
   27   12   13 2     
   28   13   17 1     
   29   13   14 1     
   30   14   32 1     
   31   14   15 1     
   32   15   33 1     
   33   15   16 2     
   34   16   34 1     
   35   16   17 1     
   36    1   35 1     
   37    1   36 1     
   38   11   37 1     
   39   11   38 1     
   40   12   39 1     
   41   17   40 1     
   42   17   41 1     
@<TRIPOS>SUBSTRUCTURE
      1 S1             1
@<TRIPOS>SET
LONE_PAIRS      STATIC     ATOMS    <user>   **** ""
7 35 36 37 38 39 40 41
DONOR_HYDROGENS      STATIC     ATOMS    <user>   **** ""
2 18 32
ATOM$BLUE        STATIC     ATOMS    COLORGROUP SYSTEM
7 35 36 37 38 39 40 41
ATOM$RED        STATIC     ATOMS    COLORGROUP SYSTEM
2 18 32
