AV-unprocessed.smi:243|AV-procd|sdf|1856|dock5
  -GOLD-   2262020483D 1   1.00000     0.00000
 Structure written by MMmdl.
 58 61  0  0  0  0  0  0  0  0  2 V2000
  151.7517  144.7110  160.9514 C   0  0  0  0  0  0  0  0  0  0  0  0
  152.0058  144.9697  159.4589 C   0  0  0  0  0  0  0  0  0  0  0  0
  151.9295  143.7321  158.6415 N   0  3  2  0  0  0  0  0  0  0  0  0
  150.5924  143.5543  158.0223 C   0  0  0  0  0  0  0  0  0  0  0  0
  150.5937  142.3712  157.0451 C   0  0  0  0  0  0  0  0  0  0  0  0
  151.0464  141.0703  157.7434 C   0  0  1  0  0  0  0  0  0  0  0  0
  150.9968  139.8978  156.8558 N   0  0  0  0  0  0  0  0  0  0  0  0
  151.8165  139.9102  155.6496 C   0  0  0  0  0  0  0  0  0  0  0  0
  150.7370  138.6481  157.3205 C   0  0  0  0  0  0  0  0  0  0  0  0
  150.4271  138.4514  158.6284 N   0  0  0  0  0  0  0  0  0  0  0  0
  150.1814  137.2205  159.0868 C   0  0  0  0  0  0  0  0  0  0  0  0
  150.1903  136.0650  158.4204 N   0  0  0  0  0  0  0  0  0  0  0  0
  150.5050  136.2542  157.1070 C   0  0  0  0  0  0  0  0  0  0  0  0
  150.7907  137.5002  156.4812 C   0  0  0  0  0  0  0  0  0  0  0  0
  151.0503  137.3025  155.1307 N   0  0  0  0  0  0  0  0  0  0  0  0
  150.9285  136.0135  154.9680 C   0  0  0  0  0  0  0  0  0  0  0  0
  150.6113  135.3048  156.1051 N   0  0  0  0  0  0  0  0  0  0  0  0
  150.4127  133.8673  156.2132 C   0  0  0  0  0  0  0  0  0  0  0  0
  149.2472  133.3335  155.3468 C   0  0  1  0  0  0  0  0  0  0  0  0
  148.0493  133.9923  155.7206 O   0  0  0  0  0  0  0  0  0  0  0  0
  149.4705  133.5565  153.8562 C   0  0  0  0  0  0  0  0  0  0  0  0
  148.6979  132.4065  153.2245 C   0  0  0  0  0  0  0  0  0  0  0  0
  148.9734  131.3247  154.0978 O   0  0  0  0  0  0  0  0  0  0  0  0
  149.0163  131.8106  155.4367 C   0  0  0  0  0  0  0  0  0  0  0  0
  152.4085  141.2758  158.4597 C   0  0  2  0  0  0  0  0  0  0  0  0
  152.8322  140.0388  159.2722 C   0  0  0  0  0  0  0  0  0  0  0  0
  152.3441  142.5114  159.3817 C   0  0  0  0  0  0  0  0  0  0  0  0
  151.9224  145.6187  161.5308 H   0  0  0  0  0  0  0  0  0  0  0  0
  152.4214  143.9427  161.3388 H   0  0  0  0  0  0  0  0  0  0  0  0
  150.7272  144.3957  161.1458 H   0  0  0  0  0  0  0  0  0  0  0  0
  151.3113  145.7175  159.0734 H   0  0  0  0  0  0  0  0  0  0  0  0
  153.0042  145.3989  159.3651 H   0  0  0  0  0  0  0  0  0  0  0  0
  149.8438  143.4021  158.8016 H   0  0  0  0  0  0  0  0  0  0  0  0
  150.3095  144.4591  157.4827 H   0  0  0  0  0  0  0  0  0  0  0  0
  149.5934  142.2475  156.6288 H   0  0  0  0  0  0  0  0  0  0  0  0
  151.2451  142.6140  156.2067 H   0  0  0  0  0  0  0  0  0  0  0  0
  150.3166  140.8665  158.5284 H   0  0  0  0  0  0  0  0  0  0  0  0
  152.6534  139.2162  155.7397 H   0  0  0  0  0  0  0  0  0  0  0  0
  152.2248  140.9031  155.4610 H   0  0  0  0  0  0  0  0  0  0  0  0
  151.2262  139.6263  154.7786 H   0  0  0  0  0  0  0  0  0  0  0  0
  149.9446  137.1508  160.1382 H   0  0  0  0  0  0  0  0  0  0  0  0
  151.0656  135.5431  154.0053 H   0  0  0  0  0  0  0  0  0  0  0  0
  151.3442  133.3716  155.9361 H   0  0  0  0  0  0  0  0  0  0  0  0
  150.2414  133.6270  157.2633 H   0  0  0  0  0  0  0  0  0  0  0  0
  147.3684  133.3445  155.8186 H   0  0  0  0  0  0  0  0  0  0  0  0
  149.1464  134.5370  153.5047 H   0  0  0  0  0  0  0  0  0  0  0  0
  150.5283  133.4493  153.6122 H   0  0  0  0  0  0  0  0  0  0  0  0
  147.6260  132.6102  153.2182 H   0  0  0  0  0  0  0  0  0  0  0  0
  149.0156  132.1922  152.2040 H   0  0  0  0  0  0  0  0  0  0  0  0
  149.8282  131.2984  155.9517 H   0  0  0  0  0  0  0  0  0  0  0  0
  148.0905  131.5616  155.9576 H   0  0  0  0  0  0  0  0  0  0  0  0
  153.1860  141.4706  157.7213 H   0  0  0  0  0  0  0  0  0  0  0  0
  152.0873  139.7870  160.0276 H   0  0  0  0  0  0  0  0  0  0  0  0
  153.7790  140.2120  159.7844 H   0  0  0  0  0  0  0  0  0  0  0  0
  152.9674  139.1641  158.6362 H   0  0  0  0  0  0  0  0  0  0  0  0
  153.3253  142.6630  159.8300 H   0  0  0  0  0  0  0  0  0  0  0  0
  151.6489  142.3342  160.2042 H   0  0  0  0  0  0  0  0  0  0  0  0
  152.5810  143.8522  157.8789 H   0  0  0  0  0  0  0  0  0  0  0  0
  1  2  1  0  0  0  0
  1 28  1  0  0  0  0
  1 29  1  0  0  0  0
  1 30  1  0  0  0  0
  2  3  1  0  0  0  0
  2 31  1  0  0  0  0
  2 32  1  0  0  0  0
  3 27  1  0  0  0  0
  3  4  1  0  0  0  0
  3 58  1  0  0  0  0
  4  5  1  0  0  0  0
  4 33  1  0  0  0  0
  4 34  1  0  0  0  0
  5  6  1  0  0  0  0
  5 35  1  0  0  0  0
  5 36  1  0  0  0  0
  6  7  1  0  0  0  0
  6 25  1  0  0  0  0
  6 37  1  0  0  0  0
  7  8  1  0  0  0  0
  7  9  1  0  0  0  0
  8 38  1  0  0  0  0
  8 39  1  0  0  0  0
  8 40  1  0  0  0  0
  9 14  1  0  0  0  0
  9 10  2  0  0  0  0
 10 11  1  0  0  0  0
 11 12  2  0  0  0  0
 11 41  1  0  0  0  0
 12 13  1  0  0  0  0
 13 17  1  0  0  0  0
 13 14  2  0  0  0  0
 14 15  1  0  0  0  0
 15 16  2  0  0  0  0
 16 17  1  0  0  0  0
 16 42  1  0  0  0  0
 17 18  1  0  0  0  0
 18 19  1  0  0  0  0
 18 43  1  0  0  0  0
 18 44  1  0  0  0  0
 19 24  1  0  0  0  0
 19 20  1  0  0  0  0
 19 21  1  0  0  0  0
 20 45  1  0  0  0  0
 21 22  1  0  0  0  0
 21 46  1  0  0  0  0
 21 47  1  0  0  0  0
 22 23  1  0  0  0  0
 22 48  1  0  0  0  0
 22 49  1  0  0  0  0
 23 24  1  0  0  0  0
 24 50  1  0  0  0  0
 24 51  1  0  0  0  0
 25 26  1  0  0  0  0
 25 27  1  0  0  0  0
 25 52  1  0  0  0  0
 26 53  1  0  0  0  0
 26 54  1  0  0  0  0
 26 55  1  0  0  0  0
 27 56  1  0  0  0  0
 27 57  1  0  0  0  0
M  CHG  1   3   1
M  END
> <s_m_source_file>
AV-unprocessed.smi

> <i_m_source_file_index>
243

> <i_lp_mmshare_version>
43012

> <i_f3d_flags>
0

> <s_epik_input>
W0NIM11bQ0gyXU4xW0NIMl1bQ0gyXVtDQEhdKFtDQEBIXShbQ0gzXSlbQ0gyXTEpTihbQ0gzXSljKG5bY0hdbjIpYyhjMjMpbltjSF1uM1tDSDJdW0NAQF00KFtPSF0pW0NIMl1bQ0gyXU9bQ0gyXTQ=

> <s_epik_cmdline>
J2VwaWtfcHl0aG9uJywgJy1waCcsICc3LjAnLCAnLXRuJywgJzgnLCAnLW1hJywgJzIwMCcsICctbWV0YWxfYmluZGluZycsICctaW1hZScsICc8aW5maWxlLm1hZT4nLCAnLW9tYWUnLCAnPG91dGZpbGUubWFlPic=

> <r_lp_tautomer_probability>
1

> <r_epik_Ionization_Penalty>
0.00253099

> <r_epik_Ionization_Penalty_Charging>
0.00137877

> <r_epik_Ionization_Penalty_Neutral>
0.00115221

> <r_epik_State_Penalty>
-0

> <r_epik_Charging_Adjusted_Penalty>
0.00137877

> <i_epik_Tot_Q>
1

> <i_epik_Tot_abs_Q>
1

> <r_epik_Metal_State_Penalty>
-0

> <b_epik_Metal_Only>
0

> <s_lp_Force_Field>
OPLS_2005

> <r_lp_Energy>
45.5206

> <b_lp_Chiralities_Consistent>
1

> <s_lp_Variant>
AV-unprocessed.smi:243-9

> <Gold.Version>
5.8.1

> <Gold.Id.Protein>
6NUR|6NUR_protein|mol2

> <Gold.PLP.Fitness>
48.1795

> <Gold.PLP.PLP>
-43.3067

> <Gold.PLP.part.hbond>
-1.0000

> <Gold.PLP.part.metal>
0.0000

> <Gold.PLP.part.buried>
-4.1042

> <Gold.PLP.part.nonpolar>
-37.9941

> <Gold.PLP.part.repulsive>
0.1870

> <Gold.PLP.ligand.clash>
0.0709

> <Gold.PLP.ligand.torsion>
0.9359

> <Gold.PLP.Chemscore.Hbond>
0.9920

> <Gold.PLP.Chemscore.CHOScore>
0.9575

> <Gold.PLP.Chemscore.Metal>
0.0000

> <Gold.Chemscore.Hbonds>
donor molecule, donor type, donor heavy atom, donor atom, acceptor molecule, acceptor atom, score
      P1  H  6896  6908       L1    12  0.98
      L1  C    16    42       P1  7949  0.91

> <Gold.PLP.Chemscore.Internal.Correction>
0.9671

> <Gold.Rescore>
     Score         DG    S(hbond)    S(metal)    S(lipo)     H(rot)  DE(clash)    DE(int)     intcor
     13.21     -15.43       0.84        0.00     109.96       2.24       0.03       2.19       ----

> <Gold.Chemscore.Fitness>
13.2062

> <Gold.Chemscore.DG>
-15.4284

> <Gold.Chemscore.ZeroCoef>
-5.4800

> <Gold.Chemscore.Hbond>
0.8419

> <Gold.Chemscore.Metal>
0.0000

> <Gold.Chemscore.Lipo>
109.9616

> <Gold.Chemscore.Internal_Hbond>
0.0000

> <Gold.Chemscore.DEClash>
0.0282

> <Gold.Chemscore.DEInternal>
2.1940

> <Gold.Chemscore.Rot>
2.2379

> <Gold.Chemscore.Internal.Correction>
   9.000000E+99

> <Gold.Chemscore.Hbonds>
donor molecule, donor type, donor heavy atom, donor atom, acceptor molecule, acceptor atom, score
      P1  H  6896  6908       L1    12  0.47

> <Gold.Chemscore.Hbond.Weighted>
-2.8120

> <Gold.Chemscore.Metal.Weighted>
-0.0000

> <Gold.Chemscore.Lipo.Weighted>
-12.8655

> <Gold.Chemscore.Internal_Hbond.Weighted>
0.0000

> <Gold.Chemscore.DEClash.Weighted>
0.0282

> <Gold.Chemscore.DEInternal.Weighted>
2.1940

> <Gold.Chemscore.Rot.Weighted>
5.7291

> <Gold.Chemscore.Internal.Correction.Weighted>
   9.000000E+99

> <Gold.Protein.RotatedTorsions>
[ 6907 6896 6895 6894 ] final -175.60 input  -60.11 | X-H torsion
[ 7974 7965 7964 7962 ] final  -74.17 input  175.53 | X-H torsion
[ 8008 7997 7996 7995 ] final  146.22 input   59.86 | X-H torsion
[ 10167 10162 10161 10158 ] final   43.64 input  -65.29 | X-H torsion
[ 10718 10713 10712 10709 ] final -115.77 input   66.30 | X-H torsion
[ 10763 10752 10751 10750 ] final   -7.06 input  -60.55 | X-H torsion
[ 11005 11000 10999 10996 ] final  -12.23 input  -57.11 | X-H torsion

> <Gold.Protein.ActiveResidues>
 VAL166  LYS551  ARG553  GLY616  TRP617  ASP618  TYR619  PRO620  LYS621  CYS622 
 ASP623  PHE694  ASN695  SER759  ASP760  ASP761  ALA762  ILE779  LEU786  VAL792 
 PHE793  MET794  SER795  GLU796  ALA797  LYS798  CYS799  TRP800  GLU811  SER814 

> <Gold.Protein.RotatedAtoms>
  151.5911  133.3366  159.3027 H   0  0  0  0  0  0  0  0  0  0  0  0  # atno 6907 bound_to 6896
  150.8259  134.7493  159.6824 H   0  0  0  0  0  0  0  0  0  0  0  0  # atno 6908 bound_to 6896
  152.4349  134.5713  159.9973 H   0  0  0  0  0  0  0  0  0  0  0  0  # atno 6909 bound_to 6896
  145.6425  140.9306  143.1028 H   0  0  0  0  0  0  0  0  0  0  0  0  # atno 7974 bound_to 7965
  156.2861  140.2188  156.5342 H   0  0  0  0  0  0  0  0  0  0  0  0  # atno 8008 bound_to 7997
  154.7424  140.0486  157.0844 H   0  0  0  0  0  0  0  0  0  0  0  0  # atno 8009 bound_to 7997
  155.0214  140.3124  155.4795 H   0  0  0  0  0  0  0  0  0  0  0  0  # atno 8010 bound_to 7997
  140.3423  144.2455  150.6154 H   0  0  0  0  0  0  0  0  0  0  0  0  # atno 10167 bound_to 10162
  156.0918  130.6099  150.8949 H   0  0  0  0  0  0  0  0  0  0  0  0  # atno 10718 bound_to 10713
  153.4210  135.7010  153.6294 H   0  0  0  0  0  0  0  0  0  0  0  0  # atno 10763 bound_to 10752
  153.4748  135.3706  155.2411 H   0  0  0  0  0  0  0  0  0  0  0  0  # atno 10764 bound_to 10752
  154.8722  135.4052  154.3578 H   0  0  0  0  0  0  0  0  0  0  0  0  # atno 10765 bound_to 10752
  140.7635  133.8495  155.9145 H   0  0  0  0  0  0  0  0  0  0  0  0  # atno 11005 bound_to 11000
  144.7152  139.8223  143.7401 LP  0  0  0  0  0  0  0  0  0  0  0  0  # atno 17320 bound_to 7965
  146.1269  139.4297  143.0193 LP  0  0  0  0  0  0  0  0  0  0  0  0  # atno 17321 bound_to 7965
  140.5297  143.2246  151.8258 LP  0  0  0  0  0  0  0  0  0  0  0  0  # atno 17342 bound_to 10162
  139.4838  144.4735  151.9395 LP  0  0  0  0  0  0  0  0  0  0  0  0  # atno 17343 bound_to 10162
  157.6069  131.0938  150.8864 LP  0  0  0  0  0  0  0  0  0  0  0  0  # atno 17370 bound_to 10713
  156.9011  130.5247  149.5283 LP  0  0  0  0  0  0  0  0  0  0  0  0  # atno 17371 bound_to 10713
  140.9641  134.1618  157.4630 LP  0  0  0  0  0  0  0  0  0  0  0  0  # atno 17394 bound_to 11000
  139.8767  134.9955  156.5747 LP  0  0  0  0  0  0  0  0  0  0  0  0  # atno 17395 bound_to 11000

$$$$
