AV-unprocessed.smi:2768|AV-procd|sdf|10652|dock1
  -GOLD-   2272015103D 1   1.00000     0.00000
 Structure written by MMmdl.
 34 35  0  0  0  0  0  0  0  0  2 V2000
  151.7666  140.2542  155.1625 O   0  0  0  0  0  0  0  0  0  0  0  0
  150.7793  140.3490  155.9009 C   0  0  0  0  0  0  0  0  0  0  0  0
  150.6158  141.0661  157.0499 N   0  5  0  0  0  0  0  0  0  0  0  0
  151.6797  141.8229  157.7132 C   0  0  2  0  0  0  0  0  0  0  0  0
  151.9308  141.2278  159.1213 C   0  0  0  0  0  0  0  0  0  0  0  0
  152.9365  142.0474  159.9684 C   0  0  0  0  0  0  0  0  0  0  0  0
  152.5182  143.5245  160.1165 C   0  0  0  0  0  0  0  0  0  0  0  0
  152.2831  144.1354  158.7196 C   0  0  0  0  0  0  0  0  0  0  0  0
  151.2759  143.3169  157.8677 C   0  0  1  0  0  0  0  0  0  0  0  0
  151.1836  143.9254  156.5941 O   0  0  0  0  0  0  0  0  0  0  0  0
  149.5133  139.5471  155.5286 C   0  0  0  0  0  0  0  0  0  0  0  0
  149.7378  138.7962  154.4444 F   0  0  0  0  0  0  0  0  0  0  0  0
  149.2279  138.7147  156.5332 F   0  0  0  0  0  0  0  0  0  0  0  0
  148.3289  140.4856  155.3053 C   0  0  0  0  0  0  0  0  0  0  0  0
  148.3279  141.4010  154.2278 C   0  0  0  0  0  0  0  0  0  0  0  0
  147.2106  142.2395  154.0532 C   0  0  0  0  0  0  0  0  0  0  0  0
  146.1363  142.1359  154.9568 C   0  0  0  0  0  0  0  0  0  0  0  0
  146.2281  141.1921  155.9985 C   0  0  0  0  0  0  0  0  0  0  0  0
  147.2950  140.3846  156.1753 N   0  0  0  0  0  0  0  0  0  0  0  0
  152.6238  141.7832  157.1663 H   0  0  0  0  0  0  0  0  0  0  0  0
  150.2940  143.3817  158.3397 H   0  0  0  0  0  0  0  0  0  0  0  0
  150.9867  141.1672  159.6653 H   0  0  0  0  0  0  0  0  0  0  0  0
  152.2914  140.2027  159.0268 H   0  0  0  0  0  0  0  0  0  0  0  0
  153.0277  141.5970  160.9573 H   0  0  0  0  0  0  0  0  0  0  0  0
  153.9327  141.9942  159.5247 H   0  0  0  0  0  0  0  0  0  0  0  0
  151.6026  143.5906  160.7057 H   0  0  0  0  0  0  0  0  0  0  0  0
  153.2828  144.0857  160.6542 H   0  0  0  0  0  0  0  0  0  0  0  0
  151.9185  145.1569  158.8336 H   0  0  0  0  0  0  0  0  0  0  0  0
  153.2406  144.2177  158.2007 H   0  0  0  0  0  0  0  0  0  0  0  0
  150.2994  144.2396  156.4837 H   0  0  0  0  0  0  0  0  0  0  0  0
  149.1627  141.4536  153.5445 H   0  0  0  0  0  0  0  0  0  0  0  0
  147.1780  142.9482  153.2390 H   0  0  0  0  0  0  0  0  0  0  0  0
  145.2628  142.7621  154.8532 H   0  0  0  0  0  0  0  0  0  0  0  0
  145.4234  141.0842  156.7107 H   0  0  0  0  0  0  0  0  0  0  0  0
  1  2  2  0  0  0  0
  2  3  1  0  0  0  0
  2 11  1  0  0  0  0
  3  4  1  0  0  0  0
  4 20  1  0  0  0  0
  4  9  1  0  0  0  0
  4  5  1  0  0  0  0
  5  6  1  0  0  0  0
  5 22  1  0  0  0  0
  5 23  1  0  0  0  0
  6  7  1  0  0  0  0
  6 24  1  0  0  0  0
  6 25  1  0  0  0  0
  7  8  1  0  0  0  0
  7 26  1  0  0  0  0
  7 27  1  0  0  0  0
  8  9  1  0  0  0  0
  8 28  1  0  0  0  0
  8 29  1  0  0  0  0
  9 21  1  0  0  0  0
  9 10  1  0  0  0  0
 10 30  1  0  0  0  0
 11 12  1  0  0  0  0
 11 13  1  0  0  0  0
 11 14  1  0  0  0  0
 14 19  1  0  0  0  0
 14 15  2  0  0  0  0
 15 16  1  0  0  0  0
 15 31  1  0  0  0  0
 16 17  2  0  0  0  0
 16 32  1  0  0  0  0
 17 18  1  0  0  0  0
 17 33  1  0  0  0  0
 18 19  2  0  0  0  0
 18 34  1  0  0  0  0
M  CHG  1   3  -1
M  END
> <s_m_source_file>
AV-unprocessed.smi

> <i_m_source_file_index>
2768

> <i_lp_mmshare_version>
43012

> <i_f3d_flags>
0

> <s_epik_input>
bjFbY0hdW2NIXVtjSF1bY0hdYzFDKEYpKEYpQyg9TylbTkhdW0NAQEhdMltDSDJdW0NIMl1bQ0gyXVtDSDJdW0NASF0yW09IXQ==

> <s_epik_cmdline>
J2VwaWtfcHl0aG9uJywgJy1waCcsICc3LjAnLCAnLXRuJywgJzgnLCAnLW1hJywgJzIwMCcsICctbWV0YWxfYmluZGluZycsICctaW1hZScsICc8aW5maWxlLm1hZT4nLCAnLW9tYWUnLCAnPG91dGZpbGUubWFlPic=

> <r_lp_tautomer_probability>
1

> <r_epik_Ionization_Penalty>
5.70553

> <r_epik_Ionization_Penalty_Charging>
5.70553

> <r_epik_Ionization_Penalty_Neutral>
5.5493e-06

> <r_epik_State_Penalty>
5.70549

> <r_epik_Charging_Adjusted_Penalty>
11.411

> <i_epik_Tot_Q>
-1

> <i_epik_Tot_abs_Q>
1

> <r_epik_Metal_State_Penalty>
1.6859

> <b_epik_Metal_Only>
1

> <s_lp_Force_Field>
OPLS_2005

> <r_lp_Energy>
26.6713

> <b_lp_Chiralities_Consistent>
1

> <s_lp_Variant>
AV-unprocessed.smi:2768-5

> <Gold.Version>
5.8.1

> <Gold.Id.Protein>
6NUR|6NUR_protein|mol2

> <Gold.PLP.Fitness>
44.2730

> <Gold.PLP.PLP>
-38.8125

> <Gold.PLP.part.hbond>
-2.0000

> <Gold.PLP.part.metal>
0.0000

> <Gold.PLP.part.buried>
-5.4705

> <Gold.PLP.part.nonpolar>
-31.2157

> <Gold.PLP.part.repulsive>
0.0908

> <Gold.PLP.ligand.clash>
0.0000

> <Gold.PLP.ligand.torsion>
0.0860

> <Gold.PLP.Chemscore.Hbond>
1.8640

> <Gold.PLP.Chemscore.CHOScore>
0.0000

> <Gold.PLP.Chemscore.Metal>
0.0000

> <Gold.Chemscore.Hbonds>
donor molecule, donor type, donor heavy atom, donor atom, acceptor molecule, acceptor atom, score
      L1  H    10    30       P1  8028  1.00
      P1  H  7989  7998       L1     1  0.86

> <Gold.PLP.Chemscore.Internal.Correction>
0.0404

> <Gold.Rescore>
     Score         DG    S(hbond)    S(metal)    S(lipo)     H(rot)  DE(clash)    DE(int)     intcor
     17.75     -17.92       1.85        0.00      96.13       1.95       0.02       0.15       ----

> <Gold.Chemscore.Fitness>
17.7534

> <Gold.Chemscore.DG>
-17.9226

> <Gold.Chemscore.ZeroCoef>
-5.4800

> <Gold.Chemscore.Hbond>
1.8526

> <Gold.Chemscore.Metal>
0.0000

> <Gold.Chemscore.Lipo>
96.1347

> <Gold.Chemscore.Internal_Hbond>
0.0000

> <Gold.Chemscore.DEClash>
0.0237

> <Gold.Chemscore.DEInternal>
0.1455

> <Gold.Chemscore.Rot>
1.9503

> <Gold.Chemscore.Internal.Correction>
   9.000000E+99

> <Gold.Chemscore.Hbonds>
donor molecule, donor type, donor heavy atom, donor atom, acceptor molecule, acceptor atom, score
      L1  H    10    30       P1  8028  0.99
      P1  H  7989  7998       L1     1  0.82

> <Gold.Chemscore.Hbond.Weighted>
-6.1876

> <Gold.Chemscore.Metal.Weighted>
-0.0000

> <Gold.Chemscore.Lipo.Weighted>
-11.2478

> <Gold.Chemscore.Internal_Hbond.Weighted>
0.0000

> <Gold.Chemscore.DEClash.Weighted>
0.0237

> <Gold.Chemscore.DEInternal.Weighted>
0.1455

> <Gold.Chemscore.Rot.Weighted>
4.9928

> <Gold.Chemscore.Internal.Correction.Weighted>
   9.000000E+99

> <Gold.Protein.RotatedTorsions>
[ 6907 6896 6895 6894 ] final  -74.89 input  -60.11 | X-H torsion
[ 7974 7965 7964 7962 ] final   34.44 input  175.53 | X-H torsion
[ 8008 7997 7996 7995 ] final   97.42 input   59.86 | X-H torsion
[ 10167 10162 10161 10158 ] final   70.61 input  -65.29 | X-H torsion
[ 10718 10713 10712 10709 ] final  -29.87 input   66.30 | X-H torsion
[ 10763 10752 10751 10750 ] final -152.25 input  -60.55 | X-H torsion
[ 11005 11000 10999 10996 ] final   37.48 input  -57.11 | X-H torsion

> <Gold.Protein.ActiveResidues>
 VAL166  LYS551  ARG553  GLY616  TRP617  ASP618  TYR619  PRO620  LYS621  CYS622 
 ASP623  PHE694  ASN695  SER759  ASP760  ASP761  ALA762  ILE779  LEU786  VAL792 
 PHE793  MET794  SER795  GLU796  ALA797  LYS798  CYS799  TRP800  GLU811  SER814 

> <Gold.Protein.RotatedAtoms>
  150.7077  134.4801  159.5466 H   0  0  0  0  0  0  0  0  0  0  0  0  # atno 6907 bound_to 6896
  152.2440  134.8197  160.0465 H   0  0  0  0  0  0  0  0  0  0  0  0  # atno 6908 bound_to 6896
  151.8968  133.3493  159.3854 H   0  0  0  0  0  0  0  0  0  0  0  0  # atno 6909 bound_to 6896
  146.1352  139.6268  142.9200 H   0  0  0  0  0  0  0  0  0  0  0  0  # atno 7974 bound_to 7965
  156.0899  140.3258  155.7802 H   0  0  0  0  0  0  0  0  0  0  0  0  # atno 8008 bound_to 7997
  155.5014  140.0569  157.2956 H   0  0  0  0  0  0  0  0  0  0  0  0  # atno 8009 bound_to 7997
  154.4631  140.1976  156.0206 H   0  0  0  0  0  0  0  0  0  0  0  0  # atno 8010 bound_to 7997
  140.0551  144.5280  150.7335 H   0  0  0  0  0  0  0  0  0  0  0  0  # atno 10167 bound_to 10162
  156.4070  130.4401  149.7280 H   0  0  0  0  0  0  0  0  0  0  0  0  # atno 10718 bound_to 10713
  154.8006  135.3240  154.7559 H   0  0  0  0  0  0  0  0  0  0  0  0  # atno 10763 bound_to 10752
  153.8228  135.6886  153.4829 H   0  0  0  0  0  0  0  0  0  0  0  0  # atno 10764 bound_to 10752
  153.1721  135.4619  154.9859 H   0  0  0  0  0  0  0  0  0  0  0  0  # atno 10765 bound_to 10752
  140.2222  134.3627  155.8000 H   0  0  0  0  0  0  0  0  0  0  0  0  # atno 11005 bound_to 11000
  145.5171  141.0433  143.2456 LP  0  0  0  0  0  0  0  0  0  0  0  0  # atno 17320 bound_to 7965
  144.7732  139.6687  143.7186 LP  0  0  0  0  0  0  0  0  0  0  0  0  # atno 17321 bound_to 7965
  140.7198  143.2578  151.4314 LP  0  0  0  0  0  0  0  0  0  0  0  0  # atno 17342 bound_to 10162
  139.5929  144.1461  152.2109 LP  0  0  0  0  0  0  0  0  0  0  0  0  # atno 17343 bound_to 10162
  156.4273  130.7798  151.2817 LP  0  0  0  0  0  0  0  0  0  0  0  0  # atno 17370 bound_to 10713
  157.7506  131.0164  150.3545 LP  0  0  0  0  0  0  0  0  0  0  0  0  # atno 17371 bound_to 10713
  141.2222  133.7199  156.8594 LP  0  0  0  0  0  0  0  0  0  0  0  0  # atno 17394 bound_to 11000
  140.1838  134.9014  157.2980 LP  0  0  0  0  0  0  0  0  0  0  0  0  # atno 17395 bound_to 11000

$$$$
