AV-unprocessed.smi:489|AV-procd|sdf|2702|dock8
  -GOLD-   2262023143D 1   1.00000     0.00000
 Structure written by MMmdl.
 42 43  0  0  0  0  0  0  0  0  1 V2000
  146.6752  136.9753  162.7390 C   0  0  0  0  0  0  0  0  0  0  0  0
  147.3465  136.2673  161.5931 C   0  0  0  0  0  0  0  0  0  0  0  0
  147.9093  137.0127  160.6998 N   0  0  0  0  0  0  0  0  0  0  0  0
  148.5558  136.4649  159.6085 N   0  0  0  0  0  0  0  0  0  0  0  0
  149.1524  137.4588  158.7042 C   0  0  0  0  0  0  0  0  0  0  0  0
  150.6831  137.3519  158.6403 C   0  0  0  0  0  0  0  0  0  0  0  0
  151.1983  136.3418  158.1545 O   0  0  0  0  0  0  0  0  0  0  0  0
  151.3519  138.4151  159.1431 N   0  0  0  0  0  0  0  0  0  0  0  0
  152.6778  138.6799  159.2147 C   0  0  0  0  0  0  0  0  0  0  0  0
  153.5048  137.7989  158.9847 O   0  0  0  0  0  0  0  0  0  0  0  0
  153.0368  139.9321  159.5556 N   0  0  0  0  0  0  0  0  0  0  0  0
  152.1314  141.0725  159.6622 C   0  0  0  0  0  0  0  0  0  0  0  0
  151.5379  141.4691  158.2933 C   0  0  0  0  0  0  0  0  0  0  0  0
  151.7450  142.9785  158.1608 C   0  0  0  0  0  0  0  0  0  0  0  0
  153.0022  143.2584  158.9777 C   0  0  0  0  0  0  0  0  0  0  0  0
  152.8872  142.3126  160.1738 C   0  0  0  0  0  0  0  0  0  0  0  0
  148.6470  135.1281  159.3509 C   0  0  0  0  0  0  0  0  0  0  0  0
  149.2143  134.6837  158.3516 O   0  0  0  0  0  0  0  0  0  0  0  0
  148.0140  134.2892  160.3711 C   0  0  0  0  0  0  0  0  0  0  0  0
  148.1048  132.8820  160.1504 C   0  0  0  0  0  0  0  0  0  0  0  0
  148.1879  131.7384  159.9906 N   0  0  0  0  0  0  0  0  0  0  0  0
  147.3865  134.8150  161.4527 C   0  0  0  0  0  0  0  0  0  0  0  0
  146.7132  133.9878  162.5393 C   0  0  0  0  0  0  0  0  0  0  0  0
  145.6024  136.7821  162.7366 H   0  0  0  0  0  0  0  0  0  0  0  0
  146.8153  138.0561  162.6878 H   0  0  0  0  0  0  0  0  0  0  0  0
  147.0782  136.6375  163.6937 H   0  0  0  0  0  0  0  0  0  0  0  0
  148.7230  137.3533  157.7058 H   0  0  0  0  0  0  0  0  0  0  0  0
  148.8993  138.4703  159.0263 H   0  0  0  0  0  0  0  0  0  0  0  0
  150.7627  139.1385  159.5286 H   0  0  0  0  0  0  0  0  0  0  0  0
  154.0125  140.1052  159.7522 H   0  0  0  0  0  0  0  0  0  0  0  0
  151.3329  140.8298  160.3658 H   0  0  0  0  0  0  0  0  0  0  0  0
  152.0693  140.9675  157.4828 H   0  0  0  0  0  0  0  0  0  0  0  0
  150.4867  141.1930  158.2065 H   0  0  0  0  0  0  0  0  0  0  0  0
  151.8361  143.3000  157.1229 H   0  0  0  0  0  0  0  0  0  0  0  0
  150.8973  143.5060  158.6004 H   0  0  0  0  0  0  0  0  0  0  0  0
  153.8862  143.0045  158.3908 H   0  0  0  0  0  0  0  0  0  0  0  0
  153.0871  144.3039  159.2750 H   0  0  0  0  0  0  0  0  0  0  0  0
  152.2972  142.7947  160.9547 H   0  0  0  0  0  0  0  0  0  0  0  0
  153.8610  142.0798  160.6072 H   0  0  0  0  0  0  0  0  0  0  0  0
  146.7309  132.9215  162.3173 H   0  0  0  0  0  0  0  0  0  0  0  0
  145.6684  134.2781  162.6533 H   0  0  0  0  0  0  0  0  0  0  0  0
  147.2173  134.1337  163.4950 H   0  0  0  0  0  0  0  0  0  0  0  0
  1  2  1  0  0  0  0
  1 24  1  0  0  0  0
  1 25  1  0  0  0  0
  1 26  1  0  0  0  0
  2 22  1  0  0  0  0
  2  3  2  0  0  0  0
  3  4  1  0  0  0  0
  4  5  1  0  0  0  0
  4 17  1  0  0  0  0
  5  6  1  0  0  0  0
  5 27  1  0  0  0  0
  5 28  1  0  0  0  0
  6  7  2  0  0  0  0
  6  8  1  0  0  0  0
  8  9  1  0  0  0  0
  8 29  1  0  0  0  0
  9 10  2  0  0  0  0
  9 11  1  0  0  0  0
 11 12  1  0  0  0  0
 11 30  1  0  0  0  0
 12 16  1  0  0  0  0
 12 13  1  0  0  0  0
 12 31  1  0  0  0  0
 13 14  1  0  0  0  0
 13 32  1  0  0  0  0
 13 33  1  0  0  0  0
 14 15  1  0  0  0  0
 14 34  1  0  0  0  0
 14 35  1  0  0  0  0
 15 16  1  0  0  0  0
 15 36  1  0  0  0  0
 15 37  1  0  0  0  0
 16 38  1  0  0  0  0
 16 39  1  0  0  0  0
 17 18  2  0  0  0  0
 17 19  1  0  0  0  0
 19 20  1  0  0  0  0
 19 22  2  0  0  0  0
 20 21  3  0  0  0  0
 22 23  1  0  0  0  0
 23 40  1  0  0  0  0
 23 41  1  0  0  0  0
 23 42  1  0  0  0  0
M  END
> <s_m_source_file>
AV-unprocessed.smi

> <i_m_source_file_index>
489

> <i_lp_mmshare_version>
43012

> <i_f3d_flags>
0

> <s_epik_input>
TiNDYyhjMVtDSDNdKWMoPU8pbihuYzFbQ0gzXSlbQ0gyXUMoPU8pW05IXUMoPU8pW05IXVtDSF0yW0NIMl1bQ0gyXVtDSDJdW0NIMl0y

> <s_epik_cmdline>
J2VwaWtfcHl0aG9uJywgJy1waCcsICc3LjAnLCAnLXRuJywgJzgnLCAnLW1hJywgJzIwMCcsICctbWV0YWxfYmluZGluZycsICctaW1hZScsICc8aW5maWxlLm1hZT4nLCAnLW9tYWUnLCAnPG91dGZpbGUubWFlPic=

> <r_lp_tautomer_probability>
1

> <r_epik_Ionization_Penalty>
3.28905e-05

> <r_epik_Ionization_Penalty_Charging>
1.69167e-11

> <r_epik_Ionization_Penalty_Neutral>
3.28905e-05

> <r_epik_State_Penalty>
-0

> <r_epik_Charging_Adjusted_Penalty>
1.69167e-11

> <i_epik_Tot_Q>
0

> <i_epik_Tot_abs_Q>
0

> <r_epik_Metal_State_Penalty>
-0

> <b_epik_Metal_Only>
0

> <s_lp_Force_Field>
OPLS_2005

> <r_lp_Energy>
37.6869

> <b_lp_Chiralities_Consistent>
1

> <s_lp_Variant>
AV-unprocessed.smi:489-1

> <Gold.Version>
5.8.1

> <Gold.Id.Protein>
6NUR|6NUR_protein|mol2

> <Gold.PLP.Fitness>
48.9588

> <Gold.PLP.PLP>
-42.1246

> <Gold.PLP.part.hbond>
-4.0000

> <Gold.PLP.part.metal>
0.0000

> <Gold.PLP.part.buried>
-4.8473

> <Gold.PLP.part.nonpolar>
-33.9430

> <Gold.PLP.part.repulsive>
0.2603

> <Gold.PLP.ligand.clash>
0.0000

> <Gold.PLP.ligand.torsion>
0.1341

> <Gold.PLP.Chemscore.Hbond>
2.3628

> <Gold.PLP.Chemscore.CHOScore>
0.0000

> <Gold.PLP.Chemscore.Metal>
0.0000

> <Gold.Chemscore.Hbonds>
donor molecule, donor type, donor heavy atom, donor atom, acceptor molecule, acceptor atom, score
      P1  H  6896  6907       L1     7  0.08
      P1  H  6896  6909       L1    18  0.65
      P1  H  6931  6943       L1     3  0.83
      P1  H  6934  6947       L1     3  0.59

> <Gold.PLP.Chemscore.Internal.Correction>
0.0139

> <Gold.Rescore>
     Score         DG    S(hbond)    S(metal)    S(lipo)     H(rot)  DE(clash)    DE(int)     intcor
     13.14     -16.27       1.09        0.00      96.38       1.61       0.11       3.02       ----

> <Gold.Chemscore.Fitness>
13.1380

> <Gold.Chemscore.DG>
-16.2707

> <Gold.Chemscore.ZeroCoef>
-5.4800

> <Gold.Chemscore.Hbond>
1.0903

> <Gold.Chemscore.Metal>
0.0000

> <Gold.Chemscore.Lipo>
96.3785

> <Gold.Chemscore.Internal_Hbond>
0.0000

> <Gold.Chemscore.DEClash>
0.1095

> <Gold.Chemscore.DEInternal>
3.0232

> <Gold.Chemscore.Rot>
1.6122

> <Gold.Chemscore.Internal.Correction>
   9.000000E+99

> <Gold.Chemscore.Hbonds>
donor molecule, donor type, donor heavy atom, donor atom, acceptor molecule, acceptor atom, score
      P1  H  6896  6907       L1     7  0.04
      P1  H  6896  6909       L1    18  0.06
      P1  H  6931  6943       L1     3  0.22
      P1  H  6934  6947       L1     3  0.41

> <Gold.Chemscore.Hbond.Weighted>
-3.6416

> <Gold.Chemscore.Metal.Weighted>
-0.0000

> <Gold.Chemscore.Lipo.Weighted>
-11.2763

> <Gold.Chemscore.Internal_Hbond.Weighted>
0.0000

> <Gold.Chemscore.DEClash.Weighted>
0.1095

> <Gold.Chemscore.DEInternal.Weighted>
3.0232

> <Gold.Chemscore.Rot.Weighted>
4.1272

> <Gold.Chemscore.Internal.Correction.Weighted>
   9.000000E+99

> <Gold.Protein.RotatedTorsions>
[ 6907 6896 6895 6894 ] final   16.22 input  -60.11 | X-H torsion
[ 7974 7965 7964 7962 ] final  120.94 input  175.53 | X-H torsion
[ 8008 7997 7996 7995 ] final  -37.40 input   59.86 | X-H torsion
[ 10167 10162 10161 10158 ] final  -81.35 input  -65.29 | X-H torsion
[ 10718 10713 10712 10709 ] final  178.11 input   66.30 | X-H torsion
[ 10763 10752 10751 10750 ] final   52.53 input  -60.55 | X-H torsion
[ 11005 11000 10999 10996 ] final  137.15 input  -57.11 | X-H torsion

> <Gold.Protein.ActiveResidues>
 VAL166  LYS551  ARG553  GLY616  TRP617  ASP618  TYR619  PRO620  LYS621  CYS622 
 ASP623  PHE694  ASN695  SER759  ASP760  ASP761  ALA762  ILE779  LEU786  VAL792 
 PHE793  MET794  SER795  GLU796  ALA797  LYS798  CYS799  TRP800  GLU811  SER814 

> <Gold.Protein.RotatedAtoms>
  151.8305  135.0623  160.0435 H   0  0  0  0  0  0  0  0  0  0  0  0  # atno 6907 bound_to 6896
  152.2884  133.5533  159.5550 H   0  0  0  0  0  0  0  0  0  0  0  0  # atno 6908 bound_to 6896
  150.7219  134.0380  159.3798 H   0  0  0  0  0  0  0  0  0  0  0  0  # atno 6909 bound_to 6896
  145.1252  139.3363  143.4694 H   0  0  0  0  0  0  0  0  0  0  0  0  # atno 7974 bound_to 7965
  154.4054  140.1605  156.2531 H   0  0  0  0  0  0  0  0  0  0  0  0  # atno 8008 bound_to 7997
  155.9102  140.3428  155.6070 H   0  0  0  0  0  0  0  0  0  0  0  0  # atno 8009 bound_to 7997
  155.7345  140.0784  157.2264 H   0  0  0  0  0  0  0  0  0  0  0  0  # atno 8010 bound_to 7997
  140.4420  143.2511  151.8612 H   0  0  0  0  0  0  0  0  0  0  0  0  # atno 10167 bound_to 10162
  156.8955  130.9861  151.3043 H   0  0  0  0  0  0  0  0  0  0  0  0  # atno 10718 bound_to 10713
  152.9789  135.5809  154.4593 H   0  0  0  0  0  0  0  0  0  0  0  0  # atno 10763 bound_to 10752
  154.4171  135.2771  155.2001 H   0  0  0  0  0  0  0  0  0  0  0  0  # atno 10764 bound_to 10752
  154.3766  135.6156  153.5822 H   0  0  0  0  0  0  0  0  0  0  0  0  # atno 10765 bound_to 10752
  140.0095  134.9445  157.0246 H   0  0  0  0  0  0  0  0  0  0  0  0  # atno 11005 bound_to 11000
  146.3518  140.1227  142.8599 LP  0  0  0  0  0  0  0  0  0  0  0  0  # atno 17320 bound_to 7965
  145.0696  140.9146  143.4890 LP  0  0  0  0  0  0  0  0  0  0  0  0  # atno 17321 bound_to 7965
  139.4790  144.5218  151.8790 LP  0  0  0  0  0  0  0  0  0  0  0  0  # atno 17342 bound_to 10162
  140.4308  144.2119  150.5888 LP  0  0  0  0  0  0  0  0  0  0  0  0  # atno 17343 bound_to 10162
  157.6058  130.8546  149.8873 LP  0  0  0  0  0  0  0  0  0  0  0  0  # atno 17370 bound_to 10713
  156.0608  130.3700  150.0987 LP  0  0  0  0  0  0  0  0  0  0  0  0  # atno 17371 bound_to 10713
  140.4581  134.1513  155.7188 LP  0  0  0  0  0  0  0  0  0  0  0  0  # atno 17394 bound_to 11000
  141.1700  133.8626  157.1598 LP  0  0  0  0  0  0  0  0  0  0  0  0  # atno 17395 bound_to 11000

$$$$
