AV-unprocessed.smi:2760|AV-procd|sdf|10628|dock4
  -GOLD-   2272015 73D 1   1.00000     0.00000
 Structure written by MMmdl.
 32 33  0  0  0  0  0  0  0  0  1 V2000
  150.4721  140.4919  154.8793 O   0  0  0  0  0  0  0  0  0  0  0  0
  150.9232  140.4717  156.0223 C   0  0  0  0  0  0  0  0  0  0  0  0
  151.4411  141.6483  156.7198 C   0  0  0  0  0  0  0  0  0  0  0  0
  151.9227  141.5444  157.9847 C   0  0  0  0  0  0  0  0  0  0  0  0
  152.4681  142.7010  158.7559 C   0  0  0  0  0  0  0  0  0  0  0  0
  151.9336  143.0886  160.1178 C   0  0  0  0  0  0  0  0  0  0  0  0
  151.6860  143.9849  158.9287 C   0  0  0  0  0  0  0  0  0  0  0  0
  151.9306  140.3058  158.6416 N   0  0  0  0  0  0  0  0  0  0  0  0
  151.4789  139.2474  158.0436 C   0  0  0  0  0  0  0  0  0  0  0  0
  151.3803  137.5388  158.6520 S   0  0  0  0  0  0  0  0  0  0  0  0
  149.6104  137.1883  158.4469 C   0  0  0  0  0  0  0  0  0  0  0  0
  149.0994  136.2032  159.5037 C   0  0  0  0  0  0  0  0  0  0  0  0
  148.5078  136.9227  160.5732 O   0  0  0  0  0  0  0  0  0  0  0  0
  147.2076  136.4559  160.8975 C   0  0  0  0  0  0  0  0  0  0  0  0
  147.2898  135.4937  162.0890 C   0  0  0  0  0  0  0  0  0  0  0  0
  147.9361  136.0886  163.0910 F   0  0  0  0  0  0  0  0  0  0  0  0
  146.0658  135.1678  162.5032 F   0  0  0  0  0  0  0  0  0  0  0  0
  147.9550  134.3908  161.7460 F   0  0  0  0  0  0  0  0  0  0  0  0
  150.9759  139.3269  156.7407 N   0  0  0  0  0  0  0  0  0  0  0  0
  150.6301  138.4843  156.3053 H   0  0  0  0  0  0  0  0  0  0  0  0
  151.4353  142.6002  156.2099 H   0  0  0  0  0  0  0  0  0  0  0  0
  153.5427  142.8147  158.6216 H   0  0  0  0  0  0  0  0  0  0  0  0
  151.0851  142.5371  160.5172 H   0  0  0  0  0  0  0  0  0  0  0  0
  152.6540  143.4280  160.8592 H   0  0  0  0  0  0  0  0  0  0  0  0
  152.2421  144.9186  158.8796 H   0  0  0  0  0  0  0  0  0  0  0  0
  150.6731  144.0280  158.5336 H   0  0  0  0  0  0  0  0  0  0  0  0
  149.4348  136.7925  157.4462 H   0  0  0  0  0  0  0  0  0  0  0  0
  149.0580  138.1250  158.5242 H   0  0  0  0  0  0  0  0  0  0  0  0
  148.3760  135.5184  159.0586 H   0  0  0  0  0  0  0  0  0  0  0  0
  149.9303  135.6034  159.8781 H   0  0  0  0  0  0  0  0  0  0  0  0
  146.5591  137.2979  161.1454 H   0  0  0  0  0  0  0  0  0  0  0  0
  146.7685  135.9469  160.0381 H   0  0  0  0  0  0  0  0  0  0  0  0
  1  2  2  0  0  0  0
  2 19  1  0  0  0  0
  2  3  1  0  0  0  0
  3 21  1  0  0  0  0
  3  4  2  0  0  0  0
  4  5  1  0  0  0  0
  4  8  1  0  0  0  0
  5  7  1  0  0  0  0
  5  6  1  0  0  0  0
  5 22  1  0  0  0  0
  6  7  1  0  0  0  0
  6 23  1  0  0  0  0
  6 24  1  0  0  0  0
  7 25  1  0  0  0  0
  7 26  1  0  0  0  0
  8  9  2  0  0  0  0
  9 10  1  0  0  0  0
  9 19  1  0  0  0  0
 10 11  1  0  0  0  0
 11 12  1  0  0  0  0
 11 27  1  0  0  0  0
 11 28  1  0  0  0  0
 12 13  1  0  0  0  0
 12 29  1  0  0  0  0
 12 30  1  0  0  0  0
 13 14  1  0  0  0  0
 14 15  1  0  0  0  0
 14 31  1  0  0  0  0
 14 32  1  0  0  0  0
 15 16  1  0  0  0  0
 15 17  1  0  0  0  0
 15 18  1  0  0  0  0
 19 20  1  0  0  0  0
M  END
> <s_m_source_file>
AV-unprocessed.smi

> <i_m_source_file_index>
2760

> <i_lp_mmshare_version>
43012

> <i_f3d_flags>
0

> <s_epik_input>
W09IXWMxW2NIXWMoW0NIXTJbQ0gyXVtDSDJdMiluYyhuMSlTW0NIMl1bQ0gyXU9bQ0gyXUMoRikoRilG

> <s_epik_cmdline>
J2VwaWtfcHl0aG9uJywgJy1waCcsICc3LjAnLCAnLXRuJywgJzgnLCAnLW1hJywgJzIwMCcsICctbWV0YWxfYmluZGluZycsICctaW1hZScsICc8aW5maWxlLm1hZT4nLCAnLW9tYWUnLCAnPG91dGZpbGUubWFlPic=

> <r_lp_tautomer_probability>
0.660323

> <r_epik_Ionization_Penalty>
0.00540315

> <r_epik_Ionization_Penalty_Charging>
0.00540219

> <r_epik_Ionization_Penalty_Neutral>
9.53041e-07

> <r_epik_State_Penalty>
0.139188

> <r_epik_Charging_Adjusted_Penalty>
0.14459

> <i_epik_Tot_Q>
0

> <i_epik_Tot_abs_Q>
0

> <r_epik_Metal_State_Penalty>
0.790013

> <b_epik_Metal_Only>
0

> <s_lp_Force_Field>
OPLS_2005

> <r_lp_Energy>
15.5574

> <b_lp_Chiralities_Consistent>
1

> <s_lp_Variant>
AV-unprocessed.smi:2760-1

> <Gold.Version>
5.8.1

> <Gold.Id.Protein>
6NUR|6NUR_protein|mol2

> <Gold.PLP.Fitness>
44.2894

> <Gold.PLP.PLP>
-40.9220

> <Gold.PLP.part.hbond>
-2.8676

> <Gold.PLP.part.metal>
0.0000

> <Gold.PLP.part.buried>
-6.5523

> <Gold.PLP.part.nonpolar>
-31.5219

> <Gold.PLP.part.repulsive>
0.1208

> <Gold.PLP.ligand.clash>
0.0000

> <Gold.PLP.ligand.torsion>
1.1879

> <Gold.PLP.Chemscore.Hbond>
1.8480

> <Gold.PLP.Chemscore.CHOScore>
0.0000

> <Gold.PLP.Chemscore.Metal>
0.0000

> <Gold.Chemscore.Hbonds>
donor molecule, donor type, donor heavy atom, donor atom, acceptor molecule, acceptor atom, score
      P1  H  6931  6943       L1    13  0.86
      P1  H  7989  7998       L1     1  1.00

> <Gold.PLP.Chemscore.Internal.Correction>
0.1992

> <Gold.Rescore>
     Score         DG    S(hbond)    S(metal)    S(lipo)     H(rot)  DE(clash)    DE(int)     intcor
     12.95     -14.32       1.87        0.00      78.38       2.57       0.10       1.27       ----

> <Gold.Chemscore.Fitness>
12.9479

> <Gold.Chemscore.DG>
-14.3192

> <Gold.Chemscore.ZeroCoef>
-5.4800

> <Gold.Chemscore.Hbond>
1.8693

> <Gold.Chemscore.Metal>
0.0000

> <Gold.Chemscore.Lipo>
78.3754

> <Gold.Chemscore.Internal_Hbond>
0.0000

> <Gold.Chemscore.DEClash>
0.0998

> <Gold.Chemscore.DEInternal>
1.2714

> <Gold.Chemscore.Rot>
2.5680

> <Gold.Chemscore.Internal.Correction>
   9.000000E+99

> <Gold.Chemscore.Hbonds>
donor molecule, donor type, donor heavy atom, donor atom, acceptor molecule, acceptor atom, score
      P1  H  6931  6943       L1    13  0.59
      P1  H  7989  7998       L1     1  0.91

> <Gold.Chemscore.Hbond.Weighted>
-6.2434

> <Gold.Chemscore.Metal.Weighted>
-0.0000

> <Gold.Chemscore.Lipo.Weighted>
-9.1699

> <Gold.Chemscore.Internal_Hbond.Weighted>
0.0000

> <Gold.Chemscore.DEClash.Weighted>
0.0998

> <Gold.Chemscore.DEInternal.Weighted>
1.2714

> <Gold.Chemscore.Rot.Weighted>
6.5741

> <Gold.Chemscore.Internal.Correction.Weighted>
   9.000000E+99

> <Gold.Protein.RotatedTorsions>
[ 6907 6896 6895 6894 ] final   51.98 input  -60.11 | X-H torsion
[ 7974 7965 7964 7962 ] final  -84.52 input  175.53 | X-H torsion
[ 8008 7997 7996 7995 ] final  -63.86 input   59.86 | X-H torsion
[ 10167 10162 10161 10158 ] final  130.85 input  -65.29 | X-H torsion
[ 10718 10713 10712 10709 ] final   77.96 input   66.30 | X-H torsion
[ 10763 10752 10751 10750 ] final   75.82 input  -60.55 | X-H torsion
[ 11005 11000 10999 10996 ] final  134.27 input  -57.11 | X-H torsion

> <Gold.Protein.ActiveResidues>
 VAL166  LYS551  ARG553  GLY616  TRP617  ASP618  TYR619  PRO620  LYS621  CYS622 
 ASP623  PHE694  ASN695  SER759  ASP760  ASP761  ALA762  ILE779  LEU786  VAL792 
 PHE793  MET794  SER795  GLU796  ALA797  LYS798  CYS799  TRP800  GLU811  SER814 

> <Gold.Protein.RotatedAtoms>
  152.3184  134.7410  160.0319 H   0  0  0  0  0  0  0  0  0  0  0  0  # atno 6907 bound_to 6896
  151.7867  133.3350  159.3495 H   0  0  0  0  0  0  0  0  0  0  0  0  # atno 6908 bound_to 6896
  150.7357  134.5811  159.5984 H   0  0  0  0  0  0  0  0  0  0  0  0  # atno 6909 bound_to 6896
  145.5056  140.9544  143.1736 H   0  0  0  0  0  0  0  0  0  0  0  0  # atno 7974 bound_to 7965
  154.4578  140.0966  156.6808 H   0  0  0  0  0  0  0  0  0  0  0  0  # atno 8008 bound_to 7997
  155.5084  140.3475  155.4365 H   0  0  0  0  0  0  0  0  0  0  0  0  # atno 8009 bound_to 7997
  156.0812  140.1373  156.9698 H   0  0  0  0  0  0  0  0  0  0  0  0  # atno 8010 bound_to 7997
  139.5411  144.6731  151.4623 H   0  0  0  0  0  0  0  0  0  0  0  0  # atno 10167 bound_to 10162
  157.6729  130.9846  150.1717 H   0  0  0  0  0  0  0  0  0  0  0  0  # atno 10718 bound_to 10713
  153.0681  135.4974  154.8245 H   0  0  0  0  0  0  0  0  0  0  0  0  # atno 10763 bound_to 10752
  154.6983  135.2997  154.9381 H   0  0  0  0  0  0  0  0  0  0  0  0  # atno 10764 bound_to 10752
  154.0113  135.6754  153.4818 H   0  0  0  0  0  0  0  0  0  0  0  0  # atno 10765 bound_to 10752
  139.9904  134.9517  156.9842 H   0  0  0  0  0  0  0  0  0  0  0  0  # atno 11005 bound_to 11000
  144.7756  139.6638  143.7176 LP  0  0  0  0  0  0  0  0  0  0  0  0  # atno 17320 bound_to 7965
  146.2199  139.5616  142.9625 LP  0  0  0  0  0  0  0  0  0  0  0  0  # atno 17321 bound_to 7965
  140.6641  143.8436  150.6921 LP  0  0  0  0  0  0  0  0  0  0  0  0  # atno 17342 bound_to 10162
  140.1840  143.4091  152.1912 LP  0  0  0  0  0  0  0  0  0  0  0  0  # atno 17343 bound_to 10162
  156.2470  130.3696  149.8274 LP  0  0  0  0  0  0  0  0  0  0  0  0  # atno 17370 bound_to 10713
  156.6058  130.8566  151.3442 LP  0  0  0  0  0  0  0  0  0  0  0  0  # atno 17371 bound_to 10713
  140.4919  134.1184  155.7234 LP  0  0  0  0  0  0  0  0  0  0  0  0  # atno 17394 bound_to 11000
  141.1561  133.8880  157.1973 LP  0  0  0  0  0  0  0  0  0  0  0  0  # atno 17395 bound_to 11000

$$$$
