#       Name:                AV-unprocessed.smi:1013
#       Creating user name   scv26
#       Creation time:       Fri Mar 27 02:38:19 2020


#       File generated by GOLD software.
#

@<TRIPOS>MOLECULE
AV-unprocessed.smi:1013
    35    36     1
SMALL
NO_CHARGES


@<TRIPOS>ATOM
      1 ****        -1.2130  -3.1603  -1.7973 O.co2          1 S1                 0.0000
      2 ****        -0.6183  -2.0902  -2.0514 C.2            1 S1                 0.0000
      3 ****        -0.3346  -1.6795  -3.1999 O.co2          1 S1                -1.0000
      4 ****        -0.2221  -1.2088  -0.8547 C.3            1 S1                 0.0000
      5 ****         1.3196  -1.1226  -0.7539 C.3            1 S1                 0.0000
      6 ****         1.7796  -0.3056   0.3578 N.pl3          1 S1                 0.0000
      7 ****         2.7442   0.6787   0.3477 C.2            1 S1                 0.0000
      8 ****         2.8595   1.1490   1.6241 C.2            1 S1                 0.0000
      9 ****         1.9234   0.3718   2.3660 C.2            1 S1                 0.0000
     10 ****         1.6081   0.4407   3.8371 C.3            1 S1                 0.0000
     11 ****         1.8590  -0.7350   4.4126 F              1 S1                 0.0000
     12 ****         2.3537   1.3753   4.4263 F              1 S1                 0.0000
     13 ****         0.3221   0.7454   4.0108 F              1 S1                 0.0000
     14 ****         1.2866  -0.5030   1.5995 N.2            1 S1                 0.0000
     15 ****        -0.8132   0.1399  -1.0118 N.4            1 S1                 1.0000
     16 ****        -2.2551   0.2256  -0.6995 C.3            1 S1                 0.0000
     17 ****        -3.1440   0.3379  -1.9146 C.3            1 S1                 0.0000
     18 ****        -2.8574   1.5595  -1.0679 C.3            1 S1                 0.0000
     19 ****        -0.6089  -1.6532   0.0649 H              1 S1                 0.0000
     20 ****         1.7454  -2.1198  -0.6323 H              1 S1                 0.0000
     21 ****         1.7445  -0.7132  -1.6721 H              1 S1                 0.0000
     22 ****         3.2625   0.9614  -0.5569 H              1 S1                 0.0000
     23 ****         3.5191   1.9277   1.9775 H              1 S1                 0.0000
     24 ****        -0.3284   0.7572  -0.3770 H              1 S1                 0.0000
     25 ****        -2.5876  -0.2765   0.2073 H              1 S1                 0.0000
     26 ****        -2.6792   0.2843  -2.8976 H              1 S1                 0.0000
     27 ****        -4.1395  -0.0964  -1.8475 H              1 S1                 0.0000
     28 ****        -3.6680   1.9346  -0.4464 H              1 S1                 0.0000
     29 ****        -2.2051   2.3215  -1.4908 H              1 S1                 0.0000
     30 ****        -0.6533   0.4523  -1.9588 H              1 S1                 0.0000
     31 ****        -1.5004  -3.7617  -2.5427 LP             1 S1                 0.0000
     32 ****        -1.4012  -3.4146  -0.8487 LP             1 S1                 0.0000
     33 ****        -0.5869  -2.2217  -4.0014 LP             1 S1                 0.0000
     34 ****         0.1442  -0.8092  -3.3156 LP             1 S1                 0.0000
     35 ****         0.5919  -1.1653   1.8800 LP             1 S1                 0.0000
@<TRIPOS>BOND
    1    1    2 ar    
    2    2    3 ar    
    3    2    4 1     
    4    4    5 1     
    5    4   15 1     
    6    4   19 1     
    7    5    6 1     
    8    5   20 1     
    9    5   21 1     
   10    6   14 1     
   11    6    7 1     
   12    7    8 2     
   13    7   22 1     
   14    8    9 1     
   15    8   23 1     
   16    9   10 1     
   17    9   14 2     
   18   10   11 1     
   19   10   12 1     
   20   10   13 1     
   21   15   16 1     
   22   15   24 1     
   23   15   30 1     
   24   16   18 1     
   25   16   17 1     
   26   16   25 1     
   27   17   18 1     
   28   17   26 1     
   29   17   27 1     
   30   18   28 1     
   31   18   29 1     
   32    1   31 1     
   33    1   32 1     
   34    3   33 1     
   35    3   34 1     
   36   14   35 1     
@<TRIPOS>SUBSTRUCTURE
      1 S1             1
@<TRIPOS>SET
LONE_PAIRS      STATIC     ATOMS    <user>   **** ""
5 31 32 33 34 35
DONOR_HYDROGENS      STATIC     ATOMS    <user>   **** ""
2 24 30
ATOM$BLUE        STATIC     ATOMS    COLORGROUP SYSTEM
5 31 32 33 34 35
ATOM$RED        STATIC     ATOMS    COLORGROUP SYSTEM
2 24 30
