#       Name:                AV-unprocessed.smi:1205
#       Creating user name   scv26
#       Creation time:       Fri Mar 27 04:07:12 2020


#       File generated by GOLD software.
#

@<TRIPOS>MOLECULE
AV-unprocessed.smi:1205
    52    53     1
SMALL
NO_CHARGES


@<TRIPOS>ATOM
      1 ****        -6.2726   3.9383   0.4438 C.3            1 S1                 0.0000
      2 ****        -5.5937   2.6580   0.0556 C.2            1 S1                 0.0000
      3 ****        -4.1951   2.4004  -0.0437 C.2            1 S1                 0.0000
      4 ****        -4.1579   1.0889  -0.4312 C.2            1 S1                 0.0000
      5 ****        -3.0784   0.3039  -0.6897 N.am           1 S1                 0.0000
      6 ****        -1.7748   0.5883  -0.5266 C.2            1 S1                 0.0000
      7 ****        -1.3209   1.6483  -0.0950 O.2            1 S1                 0.0000
      8 ****        -1.0045  -0.4475  -0.8884 N.am           1 S1                 0.0000
      9 ****         0.4534  -0.4659  -0.8255 C.3            1 S1                 0.0000
     10 ****         0.9836  -0.6700   0.6172 C.3            1 S1                 0.0000
     11 ****         0.4659  -1.9695   1.2631 C.3            1 S1                 0.0000
     12 ****         2.4706  -0.5903   0.7129 N.4            1 S1                 1.0000
     13 ****         2.9938   0.8006   0.6627 C.3            1 S1                 0.0000
     14 ****         4.4865   0.8337   1.0283 C.3            1 S1                 0.0000
     15 ****         5.2983  -0.0968   0.1171 C.3            1 S1                 0.0000
     16 ****         4.7195  -1.5221   0.1507 C.3            1 S1                 0.0000
     17 ****         5.4979  -2.4655  -0.7770 C.3            1 S1                 0.0000
     18 ****         3.2194  -1.4943  -0.2032 C.3            1 S1                 0.0000
     19 ****        -5.4484   0.6230  -0.5511 N.pl3          1 S1                 0.0000
     20 ****        -5.9219  -0.6915  -0.9390 C.3            1 S1                 0.0000
     21 ****        -6.3331   1.5969  -0.2475 N.2            1 S1                 0.0000
     22 ****        -5.5449   4.7130   0.6855 H              1 S1                 0.0000
     23 ****        -6.9084   3.7966   1.3181 H              1 S1                 0.0000
     24 ****        -6.8980   4.3122  -0.3672 H              1 S1                 0.0000
     25 ****        -3.3760   3.0792   0.1396 H              1 S1                 0.0000
     26 ****        -3.2936  -0.6193  -1.0360 H              1 S1                 0.0000
     27 ****        -1.4576  -1.2808  -1.2347 H              1 S1                 0.0000
     28 ****         0.7873  -1.2756  -1.4742 H              1 S1                 0.0000
     29 ****         0.8414   0.4570  -1.2587 H              1 S1                 0.0000
     30 ****         0.5924   0.1387   1.2360 H              1 S1                 0.0000
     31 ****        -0.6196  -1.9548   1.3654 H              1 S1                 0.0000
     32 ****         0.8791  -2.1019   2.2635 H              1 S1                 0.0000
     33 ****         0.7239  -2.8501   0.6752 H              1 S1                 0.0000
     34 ****         2.8449   1.2200  -0.3329 H              1 S1                 0.0000
     35 ****         2.4433   1.4337   1.3597 H              1 S1                 0.0000
     36 ****         4.8665   1.8530   0.9529 H              1 S1                 0.0000
     37 ****         4.6156   0.5319   2.0687 H              1 S1                 0.0000
     38 ****         5.2831   0.2870  -0.9041 H              1 S1                 0.0000
     39 ****         6.3426  -0.1043   0.4315 H              1 S1                 0.0000
     40 ****         4.8196  -1.9050   1.1676 H              1 S1                 0.0000
     41 ****         5.4363  -2.1407  -1.8162 H              1 S1                 0.0000
     42 ****         5.1072  -3.4820  -0.7229 H              1 S1                 0.0000
     43 ****         6.5525  -2.5037  -0.5024 H              1 S1                 0.0000
     44 ****         2.8195  -2.5060  -0.1411 H              1 S1                 0.0000
     45 ****         3.0938  -1.1656  -1.2357 H              1 S1                 0.0000
     46 ****        -5.3854  -1.4569  -0.3776 H              1 S1                 0.0000
     47 ****        -5.7482  -0.8422  -2.0046 H              1 S1                 0.0000
     48 ****        -6.9890  -0.7903  -0.7353 H              1 S1                 0.0000
     49 ****         2.6843  -0.9122   1.6460 H              1 S1                 0.0000
     50 ****        -1.9410   2.3874   0.1684 LP             1 S1                 0.0000
     51 ****        -0.3322   1.7703  -0.0079 LP             1 S1                 0.0000
     52 ****        -7.3311   1.5331  -0.2502 LP             1 S1                 0.0000
@<TRIPOS>BOND
    1    1    2 1     
    2    1   22 1     
    3    1   23 1     
    4    1   24 1     
    5    2   21 2     
    6    2    3 1     
    7    3    4 2     
    8    3   25 1     
    9    4    5 1     
   10    4   19 1     
   11    5    6 am    
   12    5   26 1     
   13    6    7 2     
   14    6    8 am    
   15    8    9 1     
   16    8   27 1     
   17    9   10 1     
   18    9   28 1     
   19    9   29 1     
   20   10   11 1     
   21   10   12 1     
   22   10   30 1     
   23   11   31 1     
   24   11   32 1     
   25   11   33 1     
   26   12   18 1     
   27   12   13 1     
   28   12   49 1     
   29   13   14 1     
   30   13   34 1     
   31   13   35 1     
   32   14   15 1     
   33   14   36 1     
   34   14   37 1     
   35   15   16 1     
   36   15   38 1     
   37   15   39 1     
   38   16   17 1     
   39   16   18 1     
   40   16   40 1     
   41   17   41 1     
   42   17   42 1     
   43   17   43 1     
   44   18   44 1     
   45   18   45 1     
   46   19   20 1     
   47   19   21 1     
   48   20   46 1     
   49   20   47 1     
   50   20   48 1     
   51    7   50 1     
   52    7   51 1     
   53   21   52 1     
@<TRIPOS>SUBSTRUCTURE
      1 S1             1
@<TRIPOS>SET
LONE_PAIRS      STATIC     ATOMS    <user>   **** ""
3 50 51 52
DONOR_HYDROGENS      STATIC     ATOMS    <user>   **** ""
3 26 27 49
ATOM$BLUE        STATIC     ATOMS    COLORGROUP SYSTEM
3 50 51 52
ATOM$RED        STATIC     ATOMS    COLORGROUP SYSTEM
3 26 27 49
