AV-unprocessed.smi:1027|AV-procd|sdf|4472|dock4
  -GOLD-   22720 2443D 1   1.00000     0.00000
 Structure written by MMmdl.
 34 35  0  0  0  0  0  0  0  0  2 V2000
  145.0424  140.3597  155.5470 C   0  0  0  0  0  0  0  0  0  0  0  0
  146.5573  140.6115  155.4145 C   0  0  0  0  0  0  0  0  0  0  0  0
  146.7955  142.0534  154.9305 C   0  0  0  0  0  0  0  0  0  0  0  0
  147.2499  139.5599  154.5073 C   0  0  1  0  0  0  0  0  0  0  0  0
  147.0382  139.8191  153.0034 C   0  0  0  0  0  0  0  0  0  0  0  0
  148.6870  139.5267  154.7829 N   0  0  0  0  0  0  0  0  0  0  0  0
  149.5909  140.4479  154.4178 C   0  0  0  0  0  0  0  0  0  0  0  0
  149.2336  141.4517  153.7970 O   0  0  0  0  0  0  0  0  0  0  0  0
  150.8546  140.1477  154.7950 N   0  5  0  0  0  0  0  0  0  0  0  0
  151.3347  140.6107  155.9609 C   0  0  0  0  0  0  0  0  0  0  0  0
  152.2419  139.9378  156.6828 N   0  0  0  0  0  0  0  0  0  0  0  0
  152.6031  140.5934  157.8507 N   0  0  0  0  0  0  0  0  0  0  0  0
  151.9676  141.7592  157.9912 C   0  0  0  0  0  0  0  0  0  0  0  0
  152.1827  142.6501  159.1688 C   0  0  0  0  0  0  0  0  0  0  0  0
  152.7036  144.0575  158.9877 C   0  0  0  0  0  0  0  0  0  0  0  0
  153.5728  143.0147  159.6422 C   0  0  0  0  0  0  0  0  0  0  0  0
  150.8680  142.1520  156.6790 S   0  0  0  0  0  0  0  0  0  0  0  0
  144.5533  140.3795  154.5727 H   0  0  0  0  0  0  0  0  0  0  0  0
  144.5708  141.1199  156.1703 H   0  0  0  0  0  0  0  0  0  0  0  0
  144.8275  139.3950  156.0071 H   0  0  0  0  0  0  0  0  0  0  0  0
  146.9862  140.5289  156.4143 H   0  0  0  0  0  0  0  0  0  0  0  0
  146.4489  142.1892  153.9056 H   0  0  0  0  0  0  0  0  0  0  0  0
  147.8496  142.3257  154.9681 H   0  0  0  0  0  0  0  0  0  0  0  0
  146.2637  142.7700  155.5570 H   0  0  0  0  0  0  0  0  0  0  0  0
  146.8245  138.5837  154.7476 H   0  0  0  0  0  0  0  0  0  0  0  0
  145.9895  139.7321  152.7209 H   0  0  0  0  0  0  0  0  0  0  0  0
  147.5865  139.0961  152.3986 H   0  0  0  0  0  0  0  0  0  0  0  0
  147.3824  140.8144  152.7203 H   0  0  0  0  0  0  0  0  0  0  0  0
  149.0307  138.7249  155.2906 H   0  0  0  0  0  0  0  0  0  0  0  0
  151.4167  142.4820  159.9231 H   0  0  0  0  0  0  0  0  0  0  0  0
  152.9699  144.3720  157.9804 H   0  0  0  0  0  0  0  0  0  0  0  0
  152.2820  144.8334  159.6231 H   0  0  0  0  0  0  0  0  0  0  0  0
  153.7314  143.0945  160.7156 H   0  0  0  0  0  0  0  0  0  0  0  0
  154.4238  142.6483  159.0716 H   0  0  0  0  0  0  0  0  0  0  0  0
  1  2  1  0  0  0  0
  1 18  1  0  0  0  0
  1 19  1  0  0  0  0
  1 20  1  0  0  0  0
  2  3  1  0  0  0  0
  2  4  1  0  0  0  0
  2 21  1  0  0  0  0
  3 22  1  0  0  0  0
  3 23  1  0  0  0  0
  3 24  1  0  0  0  0
  4  5  1  0  0  0  0
  4  6  1  0  0  0  0
  4 25  1  0  0  0  0
  5 26  1  0  0  0  0
  5 27  1  0  0  0  0
  5 28  1  0  0  0  0
  6  7  1  0  0  0  0
  6 29  1  0  0  0  0
  7  8  2  0  0  0  0
  7  9  1  0  0  0  0
  9 10  1  0  0  0  0
 10 17  1  0  0  0  0
 10 11  2  0  0  0  0
 11 12  1  0  0  0  0
 12 13  2  0  0  0  0
 13 14  1  0  0  0  0
 13 17  1  0  0  0  0
 14 16  1  0  0  0  0
 14 15  1  0  0  0  0
 14 30  1  0  0  0  0
 15 16  1  0  0  0  0
 15 31  1  0  0  0  0
 15 32  1  0  0  0  0
 16 33  1  0  0  0  0
 16 34  1  0  0  0  0
M  CHG  1   9  -1
M  END
> <s_m_source_file>
AV-unprocessed.smi

> <i_m_source_file_index>
1027

> <i_lp_mmshare_version>
43012

> <i_f3d_flags>
0

> <s_epik_input>
W0NIM11bQ0hdKFtDSDNdKVtDQEhdKFtDSDNdKVtOSF1DKD1PKVtOSF1jMW5uYyhzMSlbQ0hdMltDSDJdW0NIMl0y

> <s_epik_cmdline>
J2VwaWtfcHl0aG9uJywgJy1waCcsICc3LjAnLCAnLXRuJywgJzgnLCAnLW1hJywgJzIwMCcsICctbWV0YWxfYmluZGluZycsICctaW1hZScsICc8aW5maWxlLm1hZT4nLCAnLW9tYWUnLCAnPG91dGZpbGUubWFlPic=

> <r_lp_tautomer_probability>
1

> <r_epik_Ionization_Penalty>
3.99975

> <r_epik_Ionization_Penalty_Charging>
3.83446

> <r_epik_Ionization_Penalty_Neutral>
0.165297

> <r_epik_State_Penalty>
3.83354

> <r_epik_Charging_Adjusted_Penalty>
7.668

> <i_epik_Tot_Q>
-1

> <i_epik_Tot_abs_Q>
1

> <r_epik_Metal_State_Penalty>
0.575872

> <b_epik_Metal_Only>
1

> <s_lp_Force_Field>
OPLS_2005

> <r_lp_Energy>
2.2869

> <b_lp_Chiralities_Consistent>
1

> <s_lp_Variant>
AV-unprocessed.smi:1027-4

> <Gold.Version>
5.8.1

> <Gold.Id.Protein>
6NUR|6NUR_protein|mol2

> <Gold.PLP.Fitness>
34.3323

> <Gold.PLP.PLP>
-31.1399

> <Gold.PLP.part.hbond>
-4.4800

> <Gold.PLP.part.metal>
0.0000

> <Gold.PLP.part.buried>
-1.4384

> <Gold.PLP.part.nonpolar>
-25.7391

> <Gold.PLP.part.repulsive>
1.0440

> <Gold.PLP.ligand.clash>
0.0000

> <Gold.PLP.ligand.torsion>
1.4835

> <Gold.PLP.Chemscore.Hbond>
1.9928

> <Gold.PLP.Chemscore.CHOScore>
0.0000

> <Gold.PLP.Chemscore.Metal>
0.0000

> <Gold.Chemscore.Hbonds>
donor molecule, donor type, donor heavy atom, donor atom, acceptor molecule, acceptor atom, score
      P1  H  7989  7998       L1     9  0.85
      P1  H  7997  8010       L1    11  0.10
      P1  H  8011  8017       L1     8  0.77

> <Gold.PLP.Chemscore.Internal.Correction>
0.1811

> <Gold.Rescore>
     Score         DG    S(hbond)    S(metal)    S(lipo)     H(rot)  DE(clash)    DE(int)     intcor
     10.08     -14.56       1.29        0.00      70.59       1.36       0.15       4.33       ----

> <Gold.Chemscore.Fitness>
10.0785

> <Gold.Chemscore.DG>
-14.5582

> <Gold.Chemscore.ZeroCoef>
-5.4800

> <Gold.Chemscore.Hbond>
1.2889

> <Gold.Chemscore.Metal>
0.0000

> <Gold.Chemscore.Lipo>
70.5930

> <Gold.Chemscore.Internal_Hbond>
0.0000

> <Gold.Chemscore.DEClash>
0.1527

> <Gold.Chemscore.DEInternal>
4.3270

> <Gold.Chemscore.Rot>
1.3618

> <Gold.Chemscore.Internal.Correction>
   9.000000E+99

> <Gold.Chemscore.Hbonds>
donor molecule, donor type, donor heavy atom, donor atom, acceptor molecule, acceptor atom, score
      P1  H  7989  7998       L1     9  0.11
      P1  H  8011  8017       L1     8  0.78

> <Gold.Chemscore.Hbond.Weighted>
-4.3051

> <Gold.Chemscore.Metal.Weighted>
-0.0000

> <Gold.Chemscore.Lipo.Weighted>
-8.2594

> <Gold.Chemscore.Internal_Hbond.Weighted>
0.0000

> <Gold.Chemscore.DEClash.Weighted>
0.1527

> <Gold.Chemscore.DEInternal.Weighted>
4.3270

> <Gold.Chemscore.Rot.Weighted>
3.4863

> <Gold.Chemscore.Internal.Correction.Weighted>
   9.000000E+99

> <Gold.Protein.RotatedTorsions>
[ 6907 6896 6895 6894 ] final -155.57 input  -60.11 | X-H torsion
[ 7974 7965 7964 7962 ] final -124.49 input  175.53 | X-H torsion
[ 8008 7997 7996 7995 ] final   85.32 input   59.86 | X-H torsion
[ 10167 10162 10161 10158 ] final   61.56 input  -65.29 | X-H torsion
[ 10718 10713 10712 10709 ] final  145.84 input   66.30 | X-H torsion
[ 10763 10752 10751 10750 ] final  177.71 input  -60.55 | X-H torsion
[ 11005 11000 10999 10996 ] final   76.40 input  -57.11 | X-H torsion

> <Gold.Protein.ActiveResidues>
 VAL166  LYS551  ARG553  GLY616  TRP617  ASP618  TYR619  PRO620  LYS621  CYS622 
 ASP623  PHE694  ASN695  SER759  ASP760  ASP761  ALA762  ILE779  LEU786  VAL792 
 PHE793  MET794  SER795  GLU796  ALA797  LYS798  CYS799  TRP800  GLU811  SER814 

> <Gold.Protein.RotatedAtoms>
  151.2744  133.4239  159.2622 H   0  0  0  0  0  0  0  0  0  0  0  0  # atno 6907 bound_to 6896
  151.0416  134.9611  159.8175 H   0  0  0  0  0  0  0  0  0  0  0  0  # atno 6908 bound_to 6896
  152.5366  134.2702  159.9021 H   0  0  0  0  0  0  0  0  0  0  0  0  # atno 6909 bound_to 6896
  145.0075  140.7876  143.4459 H   0  0  0  0  0  0  0  0  0  0  0  0  # atno 7974 bound_to 7965
  155.9484  140.3403  155.6387 H   0  0  0  0  0  0  0  0  0  0  0  0  # atno 8008 bound_to 7997
  155.6950  140.0753  157.2451 H   0  0  0  0  0  0  0  0  0  0  0  0  # atno 8009 bound_to 7997
  154.4117  140.1650  156.2116 H   0  0  0  0  0  0  0  0  0  0  0  0  # atno 8010 bound_to 7997
  140.1534  144.4440  150.6747 H   0  0  0  0  0  0  0  0  0  0  0  0  # atno 10167 bound_to 10162
  157.3405  131.0935  151.1087 H   0  0  0  0  0  0  0  0  0  0  0  0  # atno 10718 bound_to 10713
  154.4981  135.2782  155.1443 H   0  0  0  0  0  0  0  0  0  0  0  0  # atno 10763 bound_to 10752
  154.3087  135.6233  153.5460 H   0  0  0  0  0  0  0  0  0  0  0  0  # atno 10764 bound_to 10752
  152.9898  135.5714  154.5418 H   0  0  0  0  0  0  0  0  0  0  0  0  # atno 10765 bound_to 10752
  139.9300  134.7597  156.1391 H   0  0  0  0  0  0  0  0  0  0  0  0  # atno 11005 bound_to 11000
  145.2068  139.2224  143.5164 LP  0  0  0  0  0  0  0  0  0  0  0  0  # atno 17320 bound_to 7965
  146.3464  140.1898  142.8589 LP  0  0  0  0  0  0  0  0  0  0  0  0  # atno 17321 bound_to 7965
  140.6688  143.2278  151.5677 LP  0  0  0  0  0  0  0  0  0  0  0  0  # atno 17342 bound_to 10162
  139.5415  144.2636  152.1359 LP  0  0  0  0  0  0  0  0  0  0  0  0  # atno 17343 bound_to 10162
  157.2301  130.6521  149.5846 LP  0  0  0  0  0  0  0  0  0  0  0  0  # atno 17370 bound_to 10713
  155.9707  130.4601  150.6062 LP  0  0  0  0  0  0  0  0  0  0  0  0  # atno 17371 bound_to 10713
  141.0883  133.6725  156.2484 LP  0  0  0  0  0  0  0  0  0  0  0  0  # atno 17394 bound_to 11000
  140.6228  134.5343  157.5550 LP  0  0  0  0  0  0  0  0  0  0  0  0  # atno 17395 bound_to 11000

$$$$
