AV-unprocessed.smi:258|AV-procd|sdf|1965|dock7
  -GOLD-   2262021113D 1   1.00000     0.00000
 Structure written by MMmdl.
 57 60  0  0  0  0  0  0  0  0  1 V2000
  146.4267  131.4752  151.4089 O   0  0  0  0  0  0  0  0  0  0  0  0
  146.3056  132.8076  151.8598 C   0  0  0  0  0  0  0  0  0  0  0  0
  147.6302  133.2823  152.4694 C   0  0  0  0  0  0  0  0  0  0  0  0
  147.9425  132.4683  153.5908 O   0  0  0  0  0  0  0  0  0  0  0  0
  149.1561  132.8105  154.2476 C   0  0  2  0  0  0  0  0  0  0  0  0
  149.5908  131.7023  155.2293 C   0  0  0  0  0  0  0  0  0  0  0  0
  150.8107  132.1595  156.0451 C   0  0  0  0  0  0  0  0  0  0  0  0
  150.5281  133.4946  156.7523 C   0  0  0  0  0  0  0  0  0  0  0  0
  150.0863  134.5009  155.7912 N   0  0  0  0  0  0  0  0  0  0  0  0
  150.0121  135.7445  156.3084 C   0  0  0  0  0  0  0  0  0  0  0  0
  149.1258  135.9449  157.3140 N   0  0  0  0  0  0  0  0  0  0  0  0
  149.0083  137.1557  157.8682 C   0  0  0  0  0  0  0  0  0  0  0  0
  149.6678  138.2781  157.5717 N   0  0  0  0  0  0  0  0  0  0  0  0
  150.5587  138.0764  156.5587 C   0  0  0  0  0  0  0  0  0  0  0  0
  150.7945  136.8514  155.8744 C   0  0  0  0  0  0  0  0  0  0  0  0
  151.7733  137.0306  154.9040 N   0  0  0  0  0  0  0  0  0  0  0  0
  152.0978  138.2906  155.0085 C   0  0  0  0  0  0  0  0  0  0  0  0
  151.4139  138.9933  155.9752 N   0  0  0  0  0  0  0  0  0  0  0  0
  151.5720  140.3977  156.3092 C   0  0  0  0  0  0  0  0  0  0  0  0
  150.6865  140.8489  157.4974 C   0  0  2  0  0  0  0  0  0  0  0  0
  149.9753  142.1985  157.2348 C   0  0  0  0  0  0  0  0  0  0  0  0
  149.3010  142.1948  155.9931 O   0  0  0  0  0  0  0  0  0  0  0  0
  151.4786  140.8496  158.8293 C   0  0  2  0  0  0  0  0  0  0  0  0
  152.3559  142.0702  159.0467 C   0  0  0  0  0  0  0  0  0  0  0  0
  153.3182  141.5900  160.1279 C   0  0  0  0  0  0  0  0  0  0  0  0
  153.4759  140.1919  159.9121 O   0  0  0  0  0  0  0  0  0  0  0  0
  152.5229  139.7358  158.9571 C   0  0  0  0  0  0  0  0  0  0  0  0
  148.9118  134.1258  155.0083 C   0  0  0  0  0  0  0  0  0  0  0  0
  147.2142  131.4033  150.8914 H   0  0  0  0  0  0  0  0  0  0  0  0
  146.0543  133.4256  150.9973 H   0  0  0  0  0  0  0  0  0  0  0  0
  145.4847  132.8974  152.5718 H   0  0  0  0  0  0  0  0  0  0  0  0
  148.4242  133.2794  151.7221 H   0  0  0  0  0  0  0  0  0  0  0  0
  147.5125  134.3115  152.8114 H   0  0  0  0  0  0  0  0  0  0  0  0
  149.9440  132.9826  153.5118 H   0  0  0  0  0  0  0  0  0  0  0  0
  148.7675  131.4665  155.9048 H   0  0  0  0  0  0  0  0  0  0  0  0
  149.8332  130.7820  154.6991 H   0  0  0  0  0  0  0  0  0  0  0  0
  151.0804  131.3982  156.7772 H   0  0  0  0  0  0  0  0  0  0  0  0
  151.6699  132.2729  155.3828 H   0  0  0  0  0  0  0  0  0  0  0  0
  149.7598  133.3513  157.5131 H   0  0  0  0  0  0  0  0  0  0  0  0
  151.4268  133.8409  157.2648 H   0  0  0  0  0  0  0  0  0  0  0  0
  148.2810  137.2374  158.6624 H   0  0  0  0  0  0  0  0  0  0  0  0
  152.8451  138.7469  154.3754 H   0  0  0  0  0  0  0  0  0  0  0  0
  152.6262  140.5655  156.5305 H   0  0  0  0  0  0  0  0  0  0  0  0
  151.3457  140.9910  155.4224 H   0  0  0  0  0  0  0  0  0  0  0  0
  149.8949  140.1051  157.5992 H   0  0  0  0  0  0  0  0  0  0  0  0
  149.2552  142.4206  158.0224 H   0  0  0  0  0  0  0  0  0  0  0  0
  150.6885  143.0226  157.2430 H   0  0  0  0  0  0  0  0  0  0  0  0
  149.1857  143.0894  155.7114 H   0  0  0  0  0  0  0  0  0  0  0  0
  150.7853  140.7732  159.6685 H   0  0  0  0  0  0  0  0  0  0  0  0
  152.9077  142.3110  158.1368 H   0  0  0  0  0  0  0  0  0  0  0  0
  151.7973  142.9555  159.3515 H   0  0  0  0  0  0  0  0  0  0  0  0
  154.2754  142.1106  160.0941 H   0  0  0  0  0  0  0  0  0  0  0  0
  152.8848  141.7413  161.1173 H   0  0  0  0  0  0  0  0  0  0  0  0
  152.0854  138.7858  159.2653 H   0  0  0  0  0  0  0  0  0  0  0  0
  153.0387  139.5776  158.0090 H   0  0  0  0  0  0  0  0  0  0  0  0
  148.6690  134.9217  154.3027 H   0  0  0  0  0  0  0  0  0  0  0  0
  148.0530  134.0136  155.6712 H   0  0  0  0  0  0  0  0  0  0  0  0
  1  2  1  0  0  0  0
  1 29  1  0  0  0  0
  2  3  1  0  0  0  0
  2 30  1  0  0  0  0
  2 31  1  0  0  0  0
  3  4  1  0  0  0  0
  3 32  1  0  0  0  0
  3 33  1  0  0  0  0
  4  5  1  0  0  0  0
  5 28  1  0  0  0  0
  5  6  1  0  0  0  0
  5 34  1  0  0  0  0
  6  7  1  0  0  0  0
  6 35  1  0  0  0  0
  6 36  1  0  0  0  0
  7  8  1  0  0  0  0
  7 37  1  0  0  0  0
  7 38  1  0  0  0  0
  8  9  1  0  0  0  0
  8 39  1  0  0  0  0
  8 40  1  0  0  0  0
  9 10  1  0  0  0  0
  9 28  1  0  0  0  0
 10 15  1  0  0  0  0
 10 11  2  0  0  0  0
 11 12  1  0  0  0  0
 12 13  2  0  0  0  0
 12 41  1  0  0  0  0
 13 14  1  0  0  0  0
 14 18  1  0  0  0  0
 14 15  2  0  0  0  0
 15 16  1  0  0  0  0
 16 17  2  0  0  0  0
 17 18  1  0  0  0  0
 17 42  1  0  0  0  0
 18 19  1  0  0  0  0
 19 20  1  0  0  0  0
 19 43  1  0  0  0  0
 19 44  1  0  0  0  0
 20 21  1  0  0  0  0
 20 23  1  0  0  0  0
 20 45  1  0  0  0  0
 21 22  1  0  0  0  0
 21 46  1  0  0  0  0
 21 47  1  0  0  0  0
 22 48  1  0  0  0  0
 23 27  1  0  0  0  0
 23 24  1  0  0  0  0
 23 49  1  0  0  0  0
 24 25  1  0  0  0  0
 24 50  1  0  0  0  0
 24 51  1  0  0  0  0
 25 26  1  0  0  0  0
 25 52  1  0  0  0  0
 25 53  1  0  0  0  0
 26 27  1  0  0  0  0
 27 54  1  0  0  0  0
 27 55  1  0  0  0  0
 28 56  1  0  0  0  0
 28 57  1  0  0  0  0
M  END
> <s_m_source_file>
AV-unprocessed.smi

> <i_m_source_file_index>
258

> <i_lp_mmshare_version>
43012

> <i_f3d_flags>
0

> <s_epik_input>
W09IXVtDSDJdW0NIMl1PW0NAQEhdMVtDSDJdW0NIMl1bQ0gyXU4oW0NIMl0xKWMobltjSF1uMiljKGMyMyluW2NIXW4zW0NIMl1bQ0BIXShbQ0gyXVtPSF0pW0NAQEhdNFtDSDJdW0NIMl1PW0NIMl00

> <s_epik_cmdline>
J2VwaWtfcHl0aG9uJywgJy1waCcsICc3LjAnLCAnLXRuJywgJzgnLCAnLW1hJywgJzIwMCcsICctbWV0YWxfYmluZGluZycsICctaW1hZScsICc8aW5maWxlLm1hZT4nLCAnLW9tYWUnLCAnPG91dGZpbGUubWFlPic=

> <r_lp_tautomer_probability>
1

> <r_epik_Ionization_Penalty>
0.00349036

> <r_epik_Ionization_Penalty_Charging>
0

> <r_epik_Ionization_Penalty_Neutral>
0.00349036

> <r_epik_State_Penalty>
0.00229798

> <r_epik_Charging_Adjusted_Penalty>
0.00229798

> <i_epik_Tot_Q>
0

> <i_epik_Tot_abs_Q>
0

> <r_epik_Metal_State_Penalty>
-0

> <b_epik_Metal_Only>
0

> <s_lp_Force_Field>
OPLS_2005

> <r_lp_Energy>
47.3811

> <b_lp_Chiralities_Consistent>
1

> <s_lp_Variant>
AV-unprocessed.smi:258-1

> <Gold.Version>
5.8.1

> <Gold.Id.Protein>
6NUR|6NUR_protein|mol2

> <Gold.PLP.Fitness>
52.7959

> <Gold.PLP.PLP>
-45.6850

> <Gold.PLP.part.hbond>
-3.0000

> <Gold.PLP.part.metal>
0.0000

> <Gold.PLP.part.buried>
-7.7326

> <Gold.PLP.part.nonpolar>
-35.1748

> <Gold.PLP.part.repulsive>
0.3166

> <Gold.PLP.ligand.clash>
0.0000

> <Gold.PLP.ligand.torsion>
1.1473

> <Gold.PLP.Chemscore.Hbond>
3.0000

> <Gold.PLP.Chemscore.CHOScore>
0.0000

> <Gold.PLP.Chemscore.Metal>
0.0000

> <Gold.Chemscore.Hbonds>
donor molecule, donor type, donor heavy atom, donor atom, acceptor molecule, acceptor atom, score
      L1  H     1    29       P1 10747  1.00
      L1  H    22    48       P1  8028  1.00
      P1  H 10752 10765       L1    16  0.99

> <Gold.PLP.Chemscore.Internal.Correction>
0.4055

> <Gold.Rescore>
     Score         DG    S(hbond)    S(metal)    S(lipo)     H(rot)  DE(clash)    DE(int)     intcor
     12.26     -15.18       2.88        0.00      93.04       4.22       0.08       2.84       ----

> <Gold.Chemscore.Fitness>
12.2599

> <Gold.Chemscore.DG>
-15.1828

> <Gold.Chemscore.ZeroCoef>
-5.4800

> <Gold.Chemscore.Hbond>
2.8837

> <Gold.Chemscore.Metal>
0.0000

> <Gold.Chemscore.Lipo>
93.0423

> <Gold.Chemscore.Internal_Hbond>
0.0000

> <Gold.Chemscore.DEClash>
0.0800

> <Gold.Chemscore.DEInternal>
2.8429

> <Gold.Chemscore.Rot>
4.2246

> <Gold.Chemscore.Internal.Correction>
   9.000000E+99

> <Gold.Chemscore.Hbonds>
donor molecule, donor type, donor heavy atom, donor atom, acceptor molecule, acceptor atom, score
      L1  H     1    29       P1 10747  0.99
      L1  H    22    48       P1  8028  1.00
      P1  H 10752 10765       L1    16  0.93

> <Gold.Chemscore.Hbond.Weighted>
-9.6317

> <Gold.Chemscore.Metal.Weighted>
-0.0000

> <Gold.Chemscore.Lipo.Weighted>
-10.8859

> <Gold.Chemscore.Internal_Hbond.Weighted>
0.0000

> <Gold.Chemscore.DEClash.Weighted>
0.0800

> <Gold.Chemscore.DEInternal.Weighted>
2.8429

> <Gold.Chemscore.Rot.Weighted>
10.8149

> <Gold.Chemscore.Internal.Correction.Weighted>
   9.000000E+99

> <Gold.Protein.RotatedTorsions>
[ 6907 6896 6895 6894 ] final  -32.19 input  -60.11 | X-H torsion
[ 7974 7965 7964 7962 ] final -135.43 input  175.53 | X-H torsion
[ 8008 7997 7996 7995 ] final -125.28 input   59.86 | X-H torsion
[ 10167 10162 10161 10158 ] final  150.81 input  -65.29 | X-H torsion
[ 10718 10713 10712 10709 ] final   55.51 input   66.30 | X-H torsion
[ 10763 10752 10751 10750 ] final  162.50 input  -60.55 | X-H torsion
[ 11005 11000 10999 10996 ] final  124.00 input  -57.11 | X-H torsion

> <Gold.Protein.ActiveResidues>
 VAL166  LYS551  ARG553  GLY616  TRP617  ASP618  TYR619  PRO620  LYS621  CYS622 
 ASP623  PHE694  ASN695  SER759  ASP760  ASP761  ALA762  ILE779  LEU786  VAL792 
 PHE793  MET794  SER795  GLU796  ALA797  LYS798  CYS799  TRP800  GLU811  SER814 

> <Gold.Protein.RotatedAtoms>
  151.0821  134.9864  159.8360 H   0  0  0  0  0  0  0  0  0  0  0  0  # atno 6907 bound_to 6896
  152.5420  134.2169  159.8782 H   0  0  0  0  0  0  0  0  0  0  0  0  # atno 6908 bound_to 6896
  151.2200  133.4464  159.2634 H   0  0  0  0  0  0  0  0  0  0  0  0  # atno 6909 bound_to 6896
  144.9015  140.6777  143.5082 H   0  0  0  0  0  0  0  0  0  0  0  0  # atno 7974 bound_to 7965
  155.2107  140.0419  157.2933 H   0  0  0  0  0  0  0  0  0  0  0  0  # atno 8008 bound_to 7997
  154.6014  140.2453  155.7759 H   0  0  0  0  0  0  0  0  0  0  0  0  # atno 8009 bound_to 7997
  156.2323  140.2934  156.0230 H   0  0  0  0  0  0  0  0  0  0  0  0  # atno 8010 bound_to 7997
  139.4846  144.5492  151.7431 H   0  0  0  0  0  0  0  0  0  0  0  0  # atno 10167 bound_to 10162
  157.5351  130.8657  149.8742 H   0  0  0  0  0  0  0  0  0  0  0  0  # atno 10718 bound_to 10713
  154.2794  135.2763  155.2704 H   0  0  0  0  0  0  0  0  0  0  0  0  # atno 10763 bound_to 10752
  154.5232  135.5750  153.6701 H   0  0  0  0  0  0  0  0  0  0  0  0  # atno 10764 bound_to 10752
  152.9932  135.6209  154.2952 H   0  0  0  0  0  0  0  0  0  0  0  0  # atno 10765 bound_to 10752
  139.9338  134.9640  156.8344 H   0  0  0  0  0  0  0  0  0  0  0  0  # atno 11005 bound_to 11000
  145.3608  139.1682  143.4384 LP  0  0  0  0  0  0  0  0  0  0  0  0  # atno 17320 bound_to 7965
  146.3111  140.3670  142.8670 LP  0  0  0  0  0  0  0  0  0  0  0  0  # atno 17321 bound_to 7965
  140.5043  144.1122  150.5978 LP  0  0  0  0  0  0  0  0  0  0  0  0  # atno 17342 bound_to 10162
  140.4026  143.2696  151.9930 LP  0  0  0  0  0  0  0  0  0  0  0  0  # atno 17343 bound_to 10162
  156.0452  130.3729  150.1335 LP  0  0  0  0  0  0  0  0  0  0  0  0  # atno 17370 bound_to 10713
  156.9518  130.9777  151.3497 LP  0  0  0  0  0  0  0  0  0  0  0  0  # atno 17371 bound_to 10713
  140.6129  134.0065  155.7585 LP  0  0  0  0  0  0  0  0  0  0  0  0  # atno 17394 bound_to 11000
  141.0942  133.9870  157.3188 LP  0  0  0  0  0  0  0  0  0  0  0  0  # atno 17395 bound_to 11000

$$$$
