#       Name:                AV-unprocessed.smi:3253
#       Creating user name   scv26
#       Creation time:       Fri Mar 27 18:34:28 2020


#       File generated by GOLD software.
#

@<TRIPOS>MOLECULE
AV-unprocessed.smi:3253
    41    42     1
SMALL
NO_CHARGES


@<TRIPOS>ATOM
      1 ****        -2.0405  -1.1156   1.1524 C.3            1 S1                 0.0000
      2 ****        -1.5420  -0.3683  -0.0987 C.3            1 S1                 0.0000
      3 ****        -2.2247  -0.8424  -1.3970 C.3            1 S1                 0.0000
      4 ****        -3.6669  -0.6875  -1.3636 N.pl3          1 S1                 0.0000
      5 ****        -4.6175  -1.6902  -1.2212 C.2            1 S1                 0.0000
      6 ****        -5.8474  -1.0723  -1.2498 C.2            1 S1                 0.0000
      7 ****        -5.6787   0.3006  -1.4138 N.2            1 S1                 0.0000
      8 ****        -4.3623   0.4525  -1.4757 C.2            1 S1                 0.0000
      9 ****        -0.0963  -0.5217  -0.2373 N.am           1 S1                 0.0000
     10 ****         0.8288   0.2041   0.4102 C.2            1 S1                 0.0000
     11 ****         0.5488   1.0928   1.2154 O.2            1 S1                 0.0000
     12 ****         2.2977  -0.1244   0.1002 C.3            1 S1                 0.0000
     13 ****         3.0368  -0.6375   1.3530 C.3            1 S1                 0.0000
     14 ****         4.0397   0.4609   1.6650 C.2            1 S1                 0.0000
     15 ****         4.7538   0.4490   2.6664 O.2            1 S1                 0.0000
     16 ****         4.0192   1.4084   0.7238 N.am           1 S1                 0.0000
     17 ****         4.8390   2.6123   0.7098 C.3            1 S1                 0.0000
     18 ****         3.0956   1.1163  -0.3592 C.3            1 S1                 0.0000
     19 ****        -3.1073  -0.9592   1.3128 H              1 S1                 0.0000
     20 ****        -1.5283  -0.7692   2.0506 H              1 S1                 0.0000
     21 ****        -1.8708  -2.1891   1.0662 H              1 S1                 0.0000
     22 ****        -1.7663   0.6929   0.0265 H              1 S1                 0.0000
     23 ****        -1.8442  -0.2804  -2.2512 H              1 S1                 0.0000
     24 ****        -1.9941  -1.8920  -1.5857 H              1 S1                 0.0000
     25 ****        -4.3486  -2.7304  -1.1109 H              1 S1                 0.0000
     26 ****        -6.8329  -1.5065  -1.1672 H              1 S1                 0.0000
     27 ****        -3.8920   1.4165  -1.6036 H              1 S1                 0.0000
     28 ****         0.2257  -1.2321  -0.8785 H              1 S1                 0.0000
     29 ****         2.3335  -0.8847  -0.6822 H              1 S1                 0.0000
     30 ****         2.3826  -0.8112   2.2095 H              1 S1                 0.0000
     31 ****         3.5683  -1.5661   1.1428 H              1 S1                 0.0000
     32 ****         5.8983   2.3561   0.7468 H              1 S1                 0.0000
     33 ****         4.6064   3.2413   1.5698 H              1 S1                 0.0000
     34 ****         4.6647   3.1968  -0.1941 H              1 S1                 0.0000
     35 ****         3.6608   0.8992  -1.2665 H              1 S1                 0.0000
     36 ****         2.4623   1.9813  -0.5654 H              1 S1                 0.0000
     37 ****        -6.3847   1.0065  -1.4714 LP             1 S1                 0.0000
     38 ****        -0.4082   1.3038   1.4144 LP             1 S1                 0.0000
     39 ****         1.2784   1.6034   1.6703 LP             1 S1                 0.0000
     40 ****         4.6887  -0.3068   3.3180 LP             1 S1                 0.0000
     41 ****         5.3994   1.1951   2.8290 LP             1 S1                 0.0000
@<TRIPOS>BOND
    1    1    2 1     
    2    1   19 1     
    3    1   20 1     
    4    1   21 1     
    5    2    3 1     
    6    2    9 1     
    7    2   22 1     
    8    3    4 1     
    9    3   23 1     
   10    3   24 1     
   11    4    8 1     
   12    4    5 1     
   13    5    6 2     
   14    5   25 1     
   15    6    7 1     
   16    6   26 1     
   17    7    8 2     
   18    8   27 1     
   19    9   10 am    
   20    9   28 1     
   21   10   11 2     
   22   10   12 1     
   23   12   18 1     
   24   12   13 1     
   25   12   29 1     
   26   13   14 1     
   27   13   30 1     
   28   13   31 1     
   29   14   15 2     
   30   14   16 am    
   31   16   17 1     
   32   16   18 1     
   33   17   32 1     
   34   17   33 1     
   35   17   34 1     
   36   18   35 1     
   37   18   36 1     
   38    7   37 1     
   39   11   38 1     
   40   11   39 1     
   41   15   40 1     
   42   15   41 1     
@<TRIPOS>SUBSTRUCTURE
      1 S1             1
@<TRIPOS>SET
LONE_PAIRS      STATIC     ATOMS    <user>   **** ""
5 37 38 39 40 41
DONOR_HYDROGENS      STATIC     ATOMS    <user>   **** ""
1 28
ATOM$BLUE        STATIC     ATOMS    COLORGROUP SYSTEM
5 37 38 39 40 41
ATOM$RED        STATIC     ATOMS    COLORGROUP SYSTEM
1 28
