AV-unprocessed.smi:295|AV-procd|sdf|2256|dock7
  -GOLD-   2262022143D 1   1.00000     0.00000
 Structure written by MMmdl.
 35 36  0  0  0  0  0  0  0  0  1 V2000
  146.8783  132.0967  152.3724 C   0  0  0  0  0  0  0  0  0  0  0  0
  146.0624  133.4017  152.3506 C   0  0  2  0  0  0  0  0  0  0  0  0
  146.3214  134.2006  151.0560 C   0  0  0  0  0  0  0  0  0  0  0  0
  145.4706  135.4792  151.0001 C   0  0  0  0  0  0  0  0  0  0  0  0
  145.7034  136.3600  152.2363 C   0  0  0  0  0  0  0  0  0  0  0  0
  145.4476  135.5756  153.5353 C   0  0  0  0  0  0  0  0  0  0  0  0
  146.2809  134.2803  153.6101 C   0  0  2  0  0  0  0  0  0  0  0  0
  147.6949  134.6082  153.7855 N   0  0  0  0  0  0  0  0  0  0  0  0
  148.5033  134.1653  154.7612 C   0  0  0  0  0  0  0  0  0  0  0  0
  148.1220  133.4884  155.7152 O   0  0  0  0  0  0  0  0  0  0  0  0
  149.9838  134.5151  154.6118 C   0  0  0  0  0  0  0  0  0  0  0  0
  150.1921  135.9367  154.8236 N   0  0  0  0  0  0  0  0  0  0  0  0
  149.3590  136.8766  155.2824 C   0  0  0  0  0  0  0  0  0  0  0  0
  149.9107  138.0787  155.3934 N   0  0  0  0  0  0  0  0  0  0  0  0
  151.1673  137.7766  154.9548 C   0  0  0  0  0  0  0  0  0  0  0  0
  152.2137  138.7826  154.8962 C   0  0  0  0  0  0  0  0  0  0  0  0
  153.0469  139.5842  154.8489 N   0  0  0  0  0  0  0  0  0  0  0  0
  151.3967  136.5159  154.5945 N   0  0  0  0  0  0  0  0  0  0  0  0
  147.9492  132.2868  152.2963 H   0  0  0  0  0  0  0  0  0  0  0  0
  146.6019  131.4515  151.5382 H   0  0  0  0  0  0  0  0  0  0  0  0
  146.7028  131.5390  153.2924 H   0  0  0  0  0  0  0  0  0  0  0  0
  145.0105  133.1123  152.3456 H   0  0  0  0  0  0  0  0  0  0  0  0
  147.3782  134.4616  150.9829 H   0  0  0  0  0  0  0  0  0  0  0  0
  146.1002  133.5805  150.1868 H   0  0  0  0  0  0  0  0  0  0  0  0
  145.7033  136.0403  150.0948 H   0  0  0  0  0  0  0  0  0  0  0  0
  144.4151  135.2120  150.9355 H   0  0  0  0  0  0  0  0  0  0  0  0
  146.7255  136.7405  152.2272 H   0  0  0  0  0  0  0  0  0  0  0  0
  145.0515  137.2332  152.1970 H   0  0  0  0  0  0  0  0  0  0  0  0
  145.6544  136.2074  154.4001 H   0  0  0  0  0  0  0  0  0  0  0  0
  144.3886  135.3214  153.5936 H   0  0  0  0  0  0  0  0  0  0  0  0
  145.9311  133.7200  154.4789 H   0  0  0  0  0  0  0  0  0  0  0  0
  148.1156  135.1626  153.0535 H   0  0  0  0  0  0  0  0  0  0  0  0
  150.5784  133.9465  155.3283 H   0  0  0  0  0  0  0  0  0  0  0  0
  150.3357  134.2515  153.6134 H   0  0  0  0  0  0  0  0  0  0  0  0
  148.3335  136.6728  155.5542 H   0  0  0  0  0  0  0  0  0  0  0  0
  1  2  1  0  0  0  0
  1 19  1  0  0  0  0
  1 20  1  0  0  0  0
  1 21  1  0  0  0  0
  2  7  1  0  0  0  0
  2  3  1  0  0  0  0
  2 22  1  0  0  0  0
  3  4  1  0  0  0  0
  3 23  1  0  0  0  0
  3 24  1  0  0  0  0
  4  5  1  0  0  0  0
  4 25  1  0  0  0  0
  4 26  1  0  0  0  0
  5  6  1  0  0  0  0
  5 27  1  0  0  0  0
  5 28  1  0  0  0  0
  6  7  1  0  0  0  0
  6 29  1  0  0  0  0
  6 30  1  0  0  0  0
  7  8  1  0  0  0  0
  7 31  1  0  0  0  0
  8  9  1  0  0  0  0
  8 32  1  0  0  0  0
  9 10  2  0  0  0  0
  9 11  1  0  0  0  0
 11 12  1  0  0  0  0
 11 33  1  0  0  0  0
 11 34  1  0  0  0  0
 12 18  1  0  0  0  0
 12 13  1  0  0  0  0
 13 14  2  0  0  0  0
 13 35  1  0  0  0  0
 14 15  1  0  0  0  0
 15 16  1  0  0  0  0
 15 18  2  0  0  0  0
 16 17  3  0  0  0  0
M  END
> <s_m_source_file>
AV-unprocessed.smi

> <i_m_source_file_index>
295

> <i_lp_mmshare_version>
43012

> <i_f3d_flags>
0

> <s_epik_input>
W0NIM11bQ0BASF0xW0NIMl1bQ0gyXVtDSDJdW0NIMl1bQ0BIXTFbTkhdQyg9TylbQ0gyXW4yW2NIXW5jKG4yKUMjTg==

> <s_epik_cmdline>
J2VwaWtfcHl0aG9uJywgJy1waCcsICc3LjAnLCAnLXRuJywgJzgnLCAnLW1hJywgJzIwMCcsICctbWV0YWxfYmluZGluZycsICctaW1hZScsICc8aW5maWxlLm1hZT4nLCAnLW9tYWUnLCAnPG91dGZpbGUubWFlPic=

> <r_lp_tautomer_probability>
1

> <r_epik_Ionization_Penalty>
5.31112e-08

> <r_epik_Ionization_Penalty_Charging>
0

> <r_epik_Ionization_Penalty_Neutral>
5.31112e-08

> <r_epik_State_Penalty>
-0

> <r_epik_Charging_Adjusted_Penalty>
0

> <i_epik_Tot_Q>
0

> <i_epik_Tot_abs_Q>
0

> <r_epik_Metal_State_Penalty>
-0

> <b_epik_Metal_Only>
0

> <s_lp_Force_Field>
OPLS_2005

> <r_lp_Energy>
12.1326

> <b_lp_Chiralities_Consistent>
1

> <s_lp_Variant>
AV-unprocessed.smi:295-3

> <Gold.Version>
5.8.1

> <Gold.Id.Protein>
6NUR|6NUR_protein|mol2

> <Gold.PLP.Fitness>
35.8757

> <Gold.PLP.PLP>
-27.0212

> <Gold.PLP.part.hbond>
-4.0000

> <Gold.PLP.part.metal>
0.0000

> <Gold.PLP.part.buried>
-4.0033

> <Gold.PLP.part.nonpolar>
-20.4091

> <Gold.PLP.part.repulsive>
0.3017

> <Gold.PLP.ligand.clash>
0.0000

> <Gold.PLP.ligand.torsion>
0.2086

> <Gold.PLP.Chemscore.Hbond>
3.0861

> <Gold.PLP.Chemscore.CHOScore>
0.0000

> <Gold.PLP.Chemscore.Metal>
0.0000

> <Gold.Chemscore.Hbonds>
donor molecule, donor type, donor heavy atom, donor atom, acceptor molecule, acceptor atom, score
      L1  H     8    32       P1  7948  1.00
      P1  H  7989  7998       L1    17  0.06
      P1  H  7997  8009       L1    17  1.00
      P1  H 10752 10763       L1    18  1.00

> <Gold.PLP.Chemscore.Internal.Correction>
0.0134

> <Gold.Rescore>
     Score         DG    S(hbond)    S(metal)    S(lipo)     H(rot)  DE(clash)    DE(int)     intcor
     14.80     -15.01       2.99        0.00      38.70       1.95       0.05       0.16       ----

> <Gold.Chemscore.Fitness>
14.7953

> <Gold.Chemscore.DG>
-15.0053

> <Gold.Chemscore.ZeroCoef>
-5.4800

> <Gold.Chemscore.Hbond>
2.9888

> <Gold.Chemscore.Metal>
0.0000

> <Gold.Chemscore.Lipo>
38.6995

> <Gold.Chemscore.Internal_Hbond>
0.0000

> <Gold.Chemscore.DEClash>
0.0492

> <Gold.Chemscore.DEInternal>
0.1607

> <Gold.Chemscore.Rot>
1.9474

> <Gold.Chemscore.Internal.Correction>
   9.000000E+99

> <Gold.Chemscore.Hbonds>
donor molecule, donor type, donor heavy atom, donor atom, acceptor molecule, acceptor atom, score
      L1  H     8    32       P1  7948  0.98
      P1  H  7997  8009       L1    17  1.00
      P1  H 10752 10763       L1    18  1.00

> <Gold.Chemscore.Hbond.Weighted>
-9.9827

> <Gold.Chemscore.Metal.Weighted>
-0.0000

> <Gold.Chemscore.Lipo.Weighted>
-4.5278

> <Gold.Chemscore.Internal_Hbond.Weighted>
0.0000

> <Gold.Chemscore.DEClash.Weighted>
0.0492

> <Gold.Chemscore.DEInternal.Weighted>
0.1607

> <Gold.Chemscore.Rot.Weighted>
4.9852

> <Gold.Chemscore.Internal.Correction.Weighted>
   9.000000E+99

> <Gold.Protein.RotatedTorsions>
[ 6907 6896 6895 6894 ] final -162.68 input  -60.11 | X-H torsion
[ 7974 7965 7964 7962 ] final -135.47 input  175.53 | X-H torsion
[ 8008 7997 7996 7995 ] final -132.04 input   59.86 | X-H torsion
[ 10167 10162 10161 10158 ] final   72.32 input  -65.29 | X-H torsion
[ 10718 10713 10712 10709 ] final    8.58 input   66.30 | X-H torsion
[ 10763 10752 10751 10750 ] final   49.49 input  -60.55 | X-H torsion
[ 11005 11000 10999 10996 ] final  105.02 input  -57.11 | X-H torsion

> <Gold.Protein.ActiveResidues>
 VAL166  LYS551  ARG553  GLY616  TRP617  ASP618  TYR619  PRO620  LYS621  CYS622 
 ASP623  PHE694  ASN695  SER759  ASP760  ASP761  ALA762  ILE779  LEU786  VAL792 
 PHE793  MET794  SER795  GLU796  ALA797  LYS798  CYS799  TRP800  GLU811  SER814 

> <Gold.Protein.RotatedAtoms>
  151.3841  133.3811  159.2713 H   0  0  0  0  0  0  0  0  0  0  0  0  # atno 6907 bound_to 6896
  150.9555  134.8950  159.7709 H   0  0  0  0  0  0  0  0  0  0  0  0  # atno 6908 bound_to 6896
  152.5129  134.3798  159.9399 H   0  0  0  0  0  0  0  0  0  0  0  0  # atno 6909 bound_to 6896
  144.9011  140.6772  143.5084 H   0  0  0  0  0  0  0  0  0  0  0  0  # atno 7974 bound_to 7965
  155.3224  140.0463  157.3040 H   0  0  0  0  0  0  0  0  0  0  0  0  # atno 8008 bound_to 7997
  154.5373  140.2276  155.8667 H   0  0  0  0  0  0  0  0  0  0  0  0  # atno 8009 bound_to 7997
  156.1847  140.3065  155.9222 H   0  0  0  0  0  0  0  0  0  0  0  0  # atno 8010 bound_to 7997
  140.0366  144.5423  150.7466 H   0  0  0  0  0  0  0  0  0  0  0  0  # atno 10167 bound_to 10162
  156.9537  130.5906  149.5658 H   0  0  0  0  0  0  0  0  0  0  0  0  # atno 10718 bound_to 10713
  152.9787  135.5910  154.4097 H   0  0  0  0  0  0  0  0  0  0  0  0  # atno 10763 bound_to 10752
  154.3734  135.2767  155.2255 H   0  0  0  0  0  0  0  0  0  0  0  0  # atno 10764 bound_to 10752
  154.4201  135.6061  153.6059 H   0  0  0  0  0  0  0  0  0  0  0  0  # atno 10765 bound_to 10752
  139.8797  134.9321  156.5450 H   0  0  0  0  0  0  0  0  0  0  0  0  # atno 11005 bound_to 11000
  145.3615  139.1680  143.4381 LP  0  0  0  0  0  0  0  0  0  0  0  0  # atno 17320 bound_to 7965
  146.3109  140.3677  142.8671 LP  0  0  0  0  0  0  0  0  0  0  0  0  # atno 17321 bound_to 7965
  140.7279  143.2656  151.4057 LP  0  0  0  0  0  0  0  0  0  0  0  0  # atno 17342 bound_to 10162
  139.6041  144.1234  152.2230 LP  0  0  0  0  0  0  0  0  0  0  0  0  # atno 17343 bound_to 10162
  156.0352  130.5440  150.8635 LP  0  0  0  0  0  0  0  0  0  0  0  0  # atno 17370 bound_to 10713
  157.5705  131.0946  150.9425 LP  0  0  0  0  0  0  0  0  0  0  0  0  # atno 17371 bound_to 10713
  140.8282  133.8300  155.8959 LP  0  0  0  0  0  0  0  0  0  0  0  0  # atno 17394 bound_to 11000
  140.9354  134.1969  157.4835 LP  0  0  0  0  0  0  0  0  0  0  0  0  # atno 17395 bound_to 11000

$$$$
