AV-unprocessed.smi:1967|AV-procd|sdf|7955|dock7
  -GOLD-   2272010123D 1   1.00000     0.00000
 Structure written by MMmdl.
 36 37  0  0  0  0  0  0  0  0  2 V2000
  152.4915  136.9369  159.3684 O   0  0  0  0  0  0  0  0  0  0  0  0
  152.8194  138.3252  159.0042 S   0  0  0  0  0  0  0  0  0  0  0  0
  153.3842  138.5682  157.6666 O   0  0  0  0  0  0  0  0  0  0  0  0
  151.6641  139.3856  159.4157 N   0  5  0  0  0  0  0  0  0  0  0  0
  150.9986  140.1390  158.3677 C   0  0  0  0  0  0  0  0  0  0  0  0
  151.9779  141.1624  157.7539 C   0  0  0  0  0  0  0  0  0  0  0  0
  151.8500  142.5700  158.3277 C   0  0  0  0  0  0  0  0  0  0  0  0
  152.8222  143.0723  159.2229 C   0  0  0  0  0  0  0  0  0  0  0  0
  152.6680  144.3791  159.7237 C   0  0  0  0  0  0  0  0  0  0  0  0
  151.5563  145.1377  159.3101 C   0  0  0  0  0  0  0  0  0  0  0  0
  150.6450  144.5530  158.4088 C   0  0  0  0  0  0  0  0  0  0  0  0
  150.7831  143.3013  157.9220 N   0  0  0  0  0  0  0  0  0  0  0  0
  154.0144  138.8626  160.1460 N   0  0  0  0  0  0  0  0  0  0  0  0
  154.7736  137.8416  160.8980 C   0  0  0  0  0  0  0  0  0  0  0  0
  155.4006  138.4342  162.1706 C   0  0  0  0  0  0  0  0  0  0  0  0
  156.2588  139.6613  161.8475 C   0  0  0  0  0  0  0  0  0  0  0  0
  155.4066  140.6932  161.1026 C   0  0  0  0  0  0  0  0  0  0  0  0
  154.7791  140.0886  159.8356 C   0  0  0  0  0  0  0  0  0  0  0  0
  150.6253  139.4836  157.5802 H   0  0  0  0  0  0  0  0  0  0  0  0
  150.1277  140.6711  158.7523 H   0  0  0  0  0  0  0  0  0  0  0  0
  153.0048  140.8235  157.8995 H   0  0  0  0  0  0  0  0  0  0  0  0
  151.8291  141.2130  156.6739 H   0  0  0  0  0  0  0  0  0  0  0  0
  153.6641  142.4656  159.5233 H   0  0  0  0  0  0  0  0  0  0  0  0
  153.3897  144.7920  160.4128 H   0  0  0  0  0  0  0  0  0  0  0  0
  151.4058  146.1433  159.6739 H   0  0  0  0  0  0  0  0  0  0  0  0
  149.7823  145.1063  158.0683 H   0  0  0  0  0  0  0  0  0  0  0  0
  154.1165  137.0157  161.1694 H   0  0  0  0  0  0  0  0  0  0  0  0
  155.5481  137.4287  160.2505 H   0  0  0  0  0  0  0  0  0  0  0  0
  154.6111  138.7126  162.8698 H   0  0  0  0  0  0  0  0  0  0  0  0
  156.0049  137.6780  162.6722 H   0  0  0  0  0  0  0  0  0  0  0  0
  156.6606  140.0937  162.7644 H   0  0  0  0  0  0  0  0  0  0  0  0
  157.1115  139.3686  161.2336 H   0  0  0  0  0  0  0  0  0  0  0  0
  154.6172  141.0603  161.7599 H   0  0  0  0  0  0  0  0  0  0  0  0
  156.0150  141.5583  160.8378 H   0  0  0  0  0  0  0  0  0  0  0  0
  155.5542  139.8473  159.1071 H   0  0  0  0  0  0  0  0  0  0  0  0
  154.1261  140.8254  159.3687 H   0  0  0  0  0  0  0  0  0  0  0  0
  1  2  2  0  0  0  0
  2  3  2  0  0  0  0
  2  4  1  0  0  0  0
  2 13  1  0  0  0  0
  4  5  1  0  0  0  0
  5  6  1  0  0  0  0
  5 19  1  0  0  0  0
  5 20  1  0  0  0  0
  6  7  1  0  0  0  0
  6 21  1  0  0  0  0
  6 22  1  0  0  0  0
  7 12  1  0  0  0  0
  7  8  2  0  0  0  0
  8  9  1  0  0  0  0
  8 23  1  0  0  0  0
  9 10  2  0  0  0  0
  9 24  1  0  0  0  0
 10 11  1  0  0  0  0
 10 25  1  0  0  0  0
 11 12  2  0  0  0  0
 11 26  1  0  0  0  0
 13 18  1  0  0  0  0
 13 14  1  0  0  0  0
 14 15  1  0  0  0  0
 14 27  1  0  0  0  0
 14 28  1  0  0  0  0
 15 16  1  0  0  0  0
 15 29  1  0  0  0  0
 15 30  1  0  0  0  0
 16 17  1  0  0  0  0
 16 31  1  0  0  0  0
 16 32  1  0  0  0  0
 17 18  1  0  0  0  0
 17 33  1  0  0  0  0
 17 34  1  0  0  0  0
 18 35  1  0  0  0  0
 18 36  1  0  0  0  0
M  CHG  1   4  -1
M  END
> <s_m_source_file>
AV-unprocessed.smi

> <i_m_source_file_index>
1967

> <i_lp_mmshare_version>
43012

> <i_f3d_flags>
0

> <s_epik_input>
W0NIMl0xW0NIMl1bQ0gyXVtDSDJdW0NIMl1OMVMoPU8pKD1PKVtOSF1bQ0gyXVtDSDJdYzJbY0hdW2NIXVtjSF1bY0hdbjI=

> <s_epik_cmdline>
J2VwaWtfcHl0aG9uJywgJy1waCcsICc3LjAnLCAnLXRuJywgJzgnLCAnLW1hJywgJzIwMCcsICctbWV0YWxfYmluZGluZycsICctaW1hZScsICc8aW5maWxlLm1hZT4nLCAnLW9tYWUnLCAnPG91dGZpbGUubWFlPic=

> <r_epik_Ionization_Penalty>
2.02944

> <r_epik_Ionization_Penalty_Charging>
1.95606

> <r_epik_Ionization_Penalty_Neutral>
0.0733798

> <r_epik_State_Penalty>
2.47711

> <r_epik_Charging_Adjusted_Penalty>
4.43317

> <i_epik_Tot_Q>
-1

> <i_epik_Tot_abs_Q>
1

> <r_epik_Metal_State_Penalty>
0.729901

> <b_epik_Metal_Only>
0

> <s_lp_Force_Field>
OPLS_2005

> <r_lp_Energy>
6.94762

> <b_lp_Chiralities_Consistent>
1

> <s_lp_Variant>
AV-unprocessed.smi:1967-2

> <Gold.Version>
5.8.1

> <Gold.Id.Protein>
6NUR|6NUR_protein|mol2

> <Gold.PLP.Fitness>
42.7720

> <Gold.PLP.PLP>
-35.1327

> <Gold.PLP.part.hbond>
-2.0000

> <Gold.PLP.part.metal>
0.0000

> <Gold.PLP.part.buried>
-5.4177

> <Gold.PLP.part.nonpolar>
-27.3381

> <Gold.PLP.part.repulsive>
0.1234

> <Gold.PLP.ligand.clash>
0.0000

> <Gold.PLP.ligand.torsion>
2.1307

> <Gold.PLP.Chemscore.Hbond>
1.9120

> <Gold.PLP.Chemscore.CHOScore>
1.0229

> <Gold.PLP.Chemscore.Metal>
0.0000

> <Gold.Chemscore.Hbonds>
donor molecule, donor type, donor heavy atom, donor atom, acceptor molecule, acceptor atom, score
      P1  H  6896  6907       L1     1  0.93
      P1  H  7997  8008       L1     3  1.00
      L1  C    11    26       P1  8028  0.06
      L1  C    11    26       P1  8029  0.87

> <Gold.PLP.Chemscore.Internal.Correction>
3.0960

> <Gold.Rescore>
     Score         DG    S(hbond)    S(metal)    S(lipo)     H(rot)  DE(clash)    DE(int)     intcor
     17.39     -20.75       1.87        0.00     105.63       1.30       0.12       3.23       ----

> <Gold.Chemscore.Fitness>
17.3943

> <Gold.Chemscore.DG>
-20.7487

> <Gold.Chemscore.ZeroCoef>
-5.4800

> <Gold.Chemscore.Hbond>
1.8676

> <Gold.Chemscore.Metal>
0.0000

> <Gold.Chemscore.Lipo>
105.6263

> <Gold.Chemscore.Internal_Hbond>
0.0000

> <Gold.Chemscore.DEClash>
0.1230

> <Gold.Chemscore.DEInternal>
3.2314

> <Gold.Chemscore.Rot>
1.2997

> <Gold.Chemscore.Internal.Correction>
   9.000000E+99

> <Gold.Chemscore.Hbonds>
donor molecule, donor type, donor heavy atom, donor atom, acceptor molecule, acceptor atom, score
      P1  H  6896  6907       L1     1  0.84
      P1  H  7997  8008       L1     3  0.96

> <Gold.Chemscore.Hbond.Weighted>
-6.2377

> <Gold.Chemscore.Metal.Weighted>
-0.0000

> <Gold.Chemscore.Lipo.Weighted>
-12.3583

> <Gold.Chemscore.Internal_Hbond.Weighted>
0.0000

> <Gold.Chemscore.DEClash.Weighted>
0.1230

> <Gold.Chemscore.DEInternal.Weighted>
3.2314

> <Gold.Chemscore.Rot.Weighted>
3.3273

> <Gold.Chemscore.Internal.Correction.Weighted>
   9.000000E+99

> <Gold.Protein.RotatedTorsions>
[ 6907 6896 6895 6894 ] final    2.58 input  -60.11 | X-H torsion
[ 7974 7965 7964 7962 ] final   81.27 input  175.53 | X-H torsion
[ 8008 7997 7996 7995 ] final  -76.08 input   59.86 | X-H torsion
[ 10167 10162 10161 10158 ] final -176.73 input  -65.29 | X-H torsion
[ 10718 10713 10712 10709 ] final  145.92 input   66.30 | X-H torsion
[ 10763 10752 10751 10750 ] final   96.97 input  -60.55 | X-H torsion
[ 11005 11000 10999 10996 ] final  -38.87 input  -57.11 | X-H torsion

> <Gold.Protein.ActiveResidues>
 VAL166  LYS551  ARG553  GLY616  TRP617  ASP618  TYR619  PRO620  LYS621  CYS622 
 ASP623  PHE694  ASN695  SER759  ASP760  ASP761  ALA762  ILE779  LEU786  VAL792 
 PHE793  MET794  SER795  GLU796  ALA797  LYS798  CYS799  TRP800  GLU811  SER814 

> <Gold.Protein.RotatedAtoms>
  151.6112  135.1040  160.0081 H   0  0  0  0  0  0  0  0  0  0  0  0  # atno 6907 bound_to 6896
  152.4207  133.7107  159.6488 H   0  0  0  0  0  0  0  0  0  0  0  0  # atno 6908 bound_to 6896
  150.8095  133.8375  159.3211 H   0  0  0  0  0  0  0  0  0  0  0  0  # atno 6909 bound_to 6896
  145.6404  139.2424  143.2034 H   0  0  0  0  0  0  0  0  0  0  0  0  # atno 7974 bound_to 7965
  154.5474  140.0733  156.8611 H   0  0  0  0  0  0  0  0  0  0  0  0  # atno 8008 bound_to 7997
  155.3061  140.3387  155.4227 H   0  0  0  0  0  0  0  0  0  0  0  0  # atno 8009 bound_to 7997
  156.1930  140.1693  156.8040 H   0  0  0  0  0  0  0  0  0  0  0  0  # atno 8010 bound_to 7997
  139.5515  144.2097  152.1085 H   0  0  0  0  0  0  0  0  0  0  0  0  # atno 10167 bound_to 10162
  157.3394  131.0933  151.1095 H   0  0  0  0  0  0  0  0  0  0  0  0  # atno 10718 bound_to 10713
  153.2713  135.4200  155.0990 H   0  0  0  0  0  0  0  0  0  0  0  0  # atno 10763 bound_to 10752
  154.8457  135.3472  154.6241 H   0  0  0  0  0  0  0  0  0  0  0  0  # atno 10764 bound_to 10752
  153.6661  135.7046  153.5219 H   0  0  0  0  0  0  0  0  0  0  0  0  # atno 10765 bound_to 10752
  141.0060  133.6931  156.2111 H   0  0  0  0  0  0  0  0  0  0  0  0  # atno 11005 bound_to 11000
  146.1286  140.7216  142.9423 LP  0  0  0  0  0  0  0  0  0  0  0  0  # atno 17320 bound_to 7965
  144.7160  140.4209  143.7044 LP  0  0  0  0  0  0  0  0  0  0  0  0  # atno 17321 bound_to 7965
  140.1594  144.5040  150.6641 LP  0  0  0  0  0  0  0  0  0  0  0  0  # atno 17342 bound_to 10162
  140.6778  143.2313  151.5461 LP  0  0  0  0  0  0  0  0  0  0  0  0  # atno 17343 bound_to 10162
  157.2312  130.6526  149.5850 LP  0  0  0  0  0  0  0  0  0  0  0  0  # atno 17370 bound_to 10713
  155.9706  130.4598  150.6049 LP  0  0  0  0  0  0  0  0  0  0  0  0  # atno 17371 bound_to 10713
  140.6812  134.4765  157.5589 LP  0  0  0  0  0  0  0  0  0  0  0  0  # atno 17394 bound_to 11000
  139.9064  134.8441  156.1692 LP  0  0  0  0  0  0  0  0  0  0  0  0  # atno 17395 bound_to 11000

$$$$
