AV-unprocessed.smi:1870|AV-procd|sdf|7598|dock6
  -GOLD-   22720 9313D 1   1.00000     0.00000
 Structure written by MMmdl.
 47 49  0  0  0  0  0  0  0  0  1 V2000
  148.4443  137.1738  163.5186 C   0  0  0  0  0  0  0  0  0  0  0  0
  147.8403  136.8492  162.1791 C   0  0  0  0  0  0  0  0  0  0  0  0
  148.2270  137.5700  161.1784 N   0  0  0  0  0  0  0  0  0  0  0  0
  147.7307  137.3613  159.9070 N   0  0  0  0  0  0  0  0  0  0  0  0
  148.2770  138.2756  158.8958 C   0  0  0  0  0  0  0  0  0  0  0  0
  149.7273  137.9090  158.5071 C   0  0  1  0  0  0  0  0  0  0  0  0
  149.7551  136.5331  158.1835 O   0  0  0  0  0  0  0  0  0  0  0  0
  150.2768  138.6504  157.2704 C   0  0  0  0  0  0  0  0  0  0  0  0
  150.4756  140.0886  157.4600 N   0  0  0  0  0  0  0  0  0  0  0  0
  150.4993  140.8186  156.1932 C   0  0  0  0  0  0  0  0  0  0  0  0
  150.4233  142.3366  156.4181 C   0  0  0  0  0  0  0  0  0  0  0  0
  151.3935  142.8034  157.4916 C   0  0  0  0  0  0  0  0  0  0  0  0
  151.6764  144.1762  157.6417 C   0  0  0  0  0  0  0  0  0  0  0  0
  152.5547  144.6091  158.6540 C   0  0  0  0  0  0  0  0  0  0  0  0
  153.1519  143.6709  159.5178 C   0  0  0  0  0  0  0  0  0  0  0  0
  152.8724  142.2983  159.3708 C   0  0  0  0  0  0  0  0  0  0  0  0
  151.9894  141.8595  158.3627 C   0  0  0  0  0  0  0  0  0  0  0  0
  151.7149  140.3704  158.1879 C   0  0  0  0  0  0  0  0  0  0  0  0
  146.8103  136.4093  159.5790 C   0  0  0  0  0  0  0  0  0  0  0  0
  146.3864  136.2639  158.4314 O   0  0  0  0  0  0  0  0  0  0  0  0
  146.3811  135.5921  160.7162 C   0  0  0  0  0  0  0  0  0  0  0  0
  145.4185  134.5813  160.4171 C   0  0  0  0  0  0  0  0  0  0  0  0
  144.6494  133.7478  160.1846 N   0  0  0  0  0  0  0  0  0  0  0  0
  146.8640  135.7849  161.9691 C   0  0  0  0  0  0  0  0  0  0  0  0
  146.4480  134.9658  163.1832 C   0  0  0  0  0  0  0  0  0  0  0  0
  147.6671  137.3733  164.2566 H   0  0  0  0  0  0  0  0  0  0  0  0
  149.0860  138.0553  163.4726 H   0  0  0  0  0  0  0  0  0  0  0  0
  149.0502  136.3428  163.8804 H   0  0  0  0  0  0  0  0  0  0  0  0
  147.6399  138.3082  158.0098 H   0  0  0  0  0  0  0  0  0  0  0  0
  148.2397  139.2812  159.3116 H   0  0  0  0  0  0  0  0  0  0  0  0
  150.4036  138.0790  159.3458 H   0  0  0  0  0  0  0  0  0  0  0  0
  149.6283  136.4432  157.2513 H   0  0  0  0  0  0  0  0  0  0  0  0
  151.2364  138.1886  157.0313 H   0  0  0  0  0  0  0  0  0  0  0  0
  149.6478  138.4630  156.3983 H   0  0  0  0  0  0  0  0  0  0  0  0
  151.4163  140.5765  155.6532 H   0  0  0  0  0  0  0  0  0  0  0  0
  149.6832  140.5139  155.5411 H   0  0  0  0  0  0  0  0  0  0  0  0
  150.6236  142.8643  155.4850 H   0  0  0  0  0  0  0  0  0  0  0  0
  149.4150  142.6120  156.7294 H   0  0  0  0  0  0  0  0  0  0  0  0
  151.2175  144.9000  156.9844 H   0  0  0  0  0  0  0  0  0  0  0  0
  152.7693  145.6614  158.7683 H   0  0  0  0  0  0  0  0  0  0  0  0
  153.8263  144.0042  160.2927 H   0  0  0  0  0  0  0  0  0  0  0  0
  153.3388  141.5831  160.0324 H   0  0  0  0  0  0  0  0  0  0  0  0
  151.6727  139.9075  159.1747 H   0  0  0  0  0  0  0  0  0  0  0  0
  152.5653  139.9274  157.6669 H   0  0  0  0  0  0  0  0  0  0  0  0
  145.8029  134.1295  162.9149 H   0  0  0  0  0  0  0  0  0  0  0  0
  145.9036  135.5887  163.8935 H   0  0  0  0  0  0  0  0  0  0  0  0
  147.3214  134.5511  163.6877 H   0  0  0  0  0  0  0  0  0  0  0  0
  1  2  1  0  0  0  0
  1 26  1  0  0  0  0
  1 27  1  0  0  0  0
  1 28  1  0  0  0  0
  2 24  1  0  0  0  0
  2  3  2  0  0  0  0
  3  4  1  0  0  0  0
  4  5  1  0  0  0  0
  4 19  1  0  0  0  0
  5  6  1  0  0  0  0
  5 29  1  0  0  0  0
  5 30  1  0  0  0  0
  6  7  1  0  0  0  0
  6  8  1  0  0  0  0
  6 31  1  0  0  0  0
  7 32  1  0  0  0  0
  8  9  1  0  0  0  0
  8 33  1  0  0  0  0
  8 34  1  0  0  0  0
  9 18  1  0  0  0  0
  9 10  1  0  0  0  0
 10 11  1  0  0  0  0
 10 35  1  0  0  0  0
 10 36  1  0  0  0  0
 11 12  1  0  0  0  0
 11 37  1  0  0  0  0
 11 38  1  0  0  0  0
 12 17  2  0  0  0  0
 12 13  1  0  0  0  0
 13 14  2  0  0  0  0
 13 39  1  0  0  0  0
 14 15  1  0  0  0  0
 14 40  1  0  0  0  0
 15 16  2  0  0  0  0
 15 41  1  0  0  0  0
 16 17  1  0  0  0  0
 16 42  1  0  0  0  0
 17 18  1  0  0  0  0
 18 43  1  0  0  0  0
 18 44  1  0  0  0  0
 19 20  2  0  0  0  0
 19 21  1  0  0  0  0
 21 22  1  0  0  0  0
 21 24  2  0  0  0  0
 22 23  3  0  0  0  0
 24 25  1  0  0  0  0
 25 45  1  0  0  0  0
 25 46  1  0  0  0  0
 25 47  1  0  0  0  0
M  END
> <s_m_source_file>
AV-unprocessed.smi

> <i_m_source_file_index>
1870

> <i_lp_mmshare_version>
43012

> <i_f3d_flags>
0

> <s_epik_input>
TiNDYyhjMVtDSDNdKWMoPU8pbihuYzFbQ0gzXSlbQ0gyXVtDQEhdKFtPSF0pW0NIMl1OKFtDSDJdW0NIMl0yKVtDSDJdYyhjMjMpW2NIXVtjSF1bY0hdW2NIXTM=

> <s_epik_cmdline>
J2VwaWtfcHl0aG9uJywgJy1waCcsICc3LjAnLCAnLXRuJywgJzgnLCAnLW1hJywgJzIwMCcsICctbWV0YWxfYmluZGluZycsICctaW1hZScsICc8aW5maWxlLm1hZT4nLCAnLW9tYWUnLCAnPG91dGZpbGUubWFlPic=

> <r_epik_Ionization_Penalty>
2.30251

> <r_epik_Ionization_Penalty_Charging>
1.06171e-10

> <r_epik_Ionization_Penalty_Neutral>
2.30251

> <r_epik_State_Penalty>
2.45335

> <r_epik_Charging_Adjusted_Penalty>
2.45335

> <i_epik_Tot_Q>
0

> <i_epik_Tot_abs_Q>
0

> <r_epik_Metal_State_Penalty>
2.45335

> <b_epik_Metal_Only>
0

> <s_lp_Force_Field>
OPLS_2005

> <r_lp_Energy>
48.2343

> <b_lp_Chiralities_Consistent>
1

> <s_lp_Variant>
AV-unprocessed.smi:1870-6

> <Gold.Version>
5.8.1

> <Gold.Id.Protein>
6NUR|6NUR_protein|mol2

> <Gold.PLP.Fitness>
56.0047

> <Gold.PLP.PLP>
-49.5423

> <Gold.PLP.part.hbond>
-3.0000

> <Gold.PLP.part.metal>
0.0000

> <Gold.PLP.part.buried>
-4.7012

> <Gold.PLP.part.nonpolar>
-41.9693

> <Gold.PLP.part.repulsive>
0.0000

> <Gold.PLP.ligand.clash>
0.0000

> <Gold.PLP.ligand.torsion>
0.4512

> <Gold.PLP.Chemscore.Hbond>
2.4501

> <Gold.PLP.Chemscore.CHOScore>
0.0000

> <Gold.PLP.Chemscore.Metal>
0.0000

> <Gold.Chemscore.Hbonds>
donor molecule, donor type, donor heavy atom, donor atom, acceptor molecule, acceptor atom, score
      P1  H  6931  6943       L1     3  0.21

> <Gold.PLP.Chemscore.Internal.Correction>
0.0144

> <Gold.Rescore>
     Score         DG    S(hbond)    S(metal)    S(lipo)     H(rot)  DE(clash)    DE(int)     intcor
     19.04     -19.77       1.31        0.00     130.68       2.10       0.00       0.74       ----

> <Gold.Chemscore.Fitness>
19.0389

> <Gold.Chemscore.DG>
-19.7748

> <Gold.Chemscore.ZeroCoef>
-5.4800

> <Gold.Chemscore.Hbond>
1.3094

> <Gold.Chemscore.Metal>
0.0000

> <Gold.Chemscore.Lipo>
130.6827

> <Gold.Chemscore.Internal_Hbond>
0.0000

> <Gold.Chemscore.DEClash>
0.0000

> <Gold.Chemscore.DEInternal>
0.7359

> <Gold.Chemscore.Rot>
2.0971

> <Gold.Chemscore.Internal.Correction>
   9.000000E+99

> <Gold.Chemscore.Hbonds>
donor molecule, donor type, donor heavy atom, donor atom, acceptor molecule, acceptor atom, score
      P1  H  6896  6907       L1     7  0.02
      P1  H  6931  6943       L1     3  0.02

> <Gold.Chemscore.Hbond.Weighted>
-4.3735

> <Gold.Chemscore.Metal.Weighted>
-0.0000

> <Gold.Chemscore.Lipo.Weighted>
-15.2899

> <Gold.Chemscore.Internal_Hbond.Weighted>
0.0000

> <Gold.Chemscore.DEClash.Weighted>
0.0000

> <Gold.Chemscore.DEInternal.Weighted>
0.7359

> <Gold.Chemscore.Rot.Weighted>
5.3685

> <Gold.Chemscore.Internal.Correction.Weighted>
   9.000000E+99

> <Gold.Protein.RotatedTorsions>
[ 6907 6896 6895 6894 ] final  -47.40 input  -60.11 | X-H torsion
[ 7974 7965 7964 7962 ] final   96.20 input  175.53 | X-H torsion
[ 8008 7997 7996 7995 ] final  106.90 input   59.86 | X-H torsion
[ 10167 10162 10161 10158 ] final  162.02 input  -65.29 | X-H torsion
[ 10718 10713 10712 10709 ] final  126.52 input   66.30 | X-H torsion
[ 10763 10752 10751 10750 ] final -162.27 input  -60.55 | X-H torsion
[ 11005 11000 10999 10996 ] final   71.55 input  -57.11 | X-H torsion

> <Gold.Protein.ActiveResidues>
 VAL166  LYS551  ARG553  GLY616  TRP617  ASP618  TYR619  PRO620  LYS621  CYS622 
 ASP623  PHE694  ASN695  SER759  ASP760  ASP761  ALA762  ILE779  LEU786  VAL792 
 PHE793  MET794  SER795  GLU796  ALA797  LYS798  CYS799  TRP800  GLU811  SER814 

> <Gold.Protein.RotatedAtoms>
  150.9012  134.8424  159.7360 H   0  0  0  0  0  0  0  0  0  0  0  0  # atno 6907 bound_to 6896
  152.4893  134.4500  159.9581 H   0  0  0  0  0  0  0  0  0  0  0  0  # atno 6908 bound_to 6896
  151.4551  133.3568  159.2836 H   0  0  0  0  0  0  0  0  0  0  0  0  # atno 6909 bound_to 6896
  145.4420  139.2300  143.3087 H   0  0  0  0  0  0  0  0  0  0  0  0  # atno 7974 bound_to 7965
  156.1781  140.3104  155.9097 H   0  0  0  0  0  0  0  0  0  0  0  0  # atno 8008 bound_to 7997
  155.3444  140.0467  157.3062 H   0  0  0  0  0  0  0  0  0  0  0  0  # atno 8009 bound_to 7997
  154.5312  140.2231  155.8811 H   0  0  0  0  0  0  0  0  0  0  0  0  # atno 8010 bound_to 7997
  139.4856  144.4478  151.8869 H   0  0  0  0  0  0  0  0  0  0  0  0  # atno 10167 bound_to 10162
  157.5412  131.1097  150.8856 H   0  0  0  0  0  0  0  0  0  0  0  0  # atno 10718 bound_to 10713
  154.7229  135.3029  154.9017 H   0  0  0  0  0  0  0  0  0  0  0  0  # atno 10763 bound_to 10752
  153.9883  135.6722  153.4757 H   0  0  0  0  0  0  0  0  0  0  0  0  # atno 10764 bound_to 10752
  153.0850  135.4989  154.8497 H   0  0  0  0  0  0  0  0  0  0  0  0  # atno 10765 bound_to 10752
  139.9537  134.7181  156.0802 H   0  0  0  0  0  0  0  0  0  0  0  0  # atno 11005 bound_to 11000
  146.2551  140.5169  142.8877 LP  0  0  0  0  0  0  0  0  0  0  0  0  # atno 17320 bound_to 7965
  144.8116  140.6395  143.6412 LP  0  0  0  0  0  0  0  0  0  0  0  0  # atno 17321 bound_to 7965
  140.3933  144.2587  150.5898 LP  0  0  0  0  0  0  0  0  0  0  0  0  # atno 17342 bound_to 10162
  140.5125  143.2287  151.8513 LP  0  0  0  0  0  0  0  0  0  0  0  0  # atno 17343 bound_to 10162
  156.9408  130.5384  149.5280 LP  0  0  0  0  0  0  0  0  0  0  0  0  # atno 17370 bound_to 10713
  156.0498  130.5569  150.8964 LP  0  0  0  0  0  0  0  0  0  0  0  0  # atno 17371 bound_to 10713
  141.1205  133.6614  156.3203 LP  0  0  0  0  0  0  0  0  0  0  0  0  # atno 17394 bound_to 11000
  140.5658  134.5889  157.5445 LP  0  0  0  0  0  0  0  0  0  0  0  0  # atno 17395 bound_to 11000

$$$$
