AV-unprocessed.smi:3014|AV-procd|sdf|11466|dock8
  -GOLD-   2272016403D 1   1.00000     0.00000
 Structure written by MMmdl.
 45 46  0  0  0  0  0  0  0  0  1 V2000
  146.6771  137.9981  154.4729 C   0  0  0  0  0  0  0  0  0  0  0  0
  146.8982  139.4717  154.8427 C   0  0  2  0  0  0  0  0  0  0  0  0
  145.5591  140.2148  155.0125 C   0  0  0  0  0  0  0  0  0  0  0  0
  145.7730  141.6937  155.3713 C   0  0  0  0  0  0  0  0  0  0  0  0
  146.6653  142.3973  154.3353 C   0  0  0  0  0  0  0  0  0  0  0  0
  148.0109  141.6726  154.1562 C   0  0  1  0  0  0  0  0  0  0  0  0
  148.7347  141.8046  155.3731 O   0  0  0  0  0  0  0  0  0  0  0  0
  150.1050  141.4294  155.3001 C   0  0  0  0  0  0  0  0  0  0  0  0
  150.7843  141.6857  156.6478 C   0  0  0  0  0  0  0  0  0  0  0  0
  151.3116  140.7428  157.2376 O   0  0  0  0  0  0  0  0  0  0  0  0
  150.7690  142.9552  157.0983 N   0  0  0  0  0  0  0  0  0  0  0  0
  151.2885  143.4628  158.3166 C   0  0  0  0  0  0  0  0  0  0  0  0
  151.1198  144.8481  158.5276 C   0  0  0  0  0  0  0  0  0  0  0  0
  151.6210  145.3788  159.7317 C   0  0  0  0  0  0  0  0  0  0  0  0
  152.2346  144.6034  160.6487 N   0  0  0  0  0  0  0  0  0  0  0  0
  152.3520  143.2991  160.3715 C   0  0  0  0  0  0  0  0  0  0  0  0
  152.9825  142.4906  161.3213 N   0  0  0  0  0  0  0  0  0  0  0  0
  153.0699  142.8984  162.7207 C   0  0  0  0  0  0  0  0  0  0  0  0
  153.6016  141.2233  160.9442 C   0  0  0  0  0  0  0  0  0  0  0  0
  151.9092  142.7070  159.2549 N   0  0  0  0  0  0  0  0  0  0  0  0
  147.7840  140.1869  153.8024 C   0  0  0  0  0  0  0  0  0  0  0  0
  146.1586  137.9022  153.5185 H   0  0  0  0  0  0  0  0  0  0  0  0
  146.0788  137.4896  155.2295 H   0  0  0  0  0  0  0  0  0  0  0  0
  147.6256  137.4667  154.3921 H   0  0  0  0  0  0  0  0  0  0  0  0
  147.4192  139.4926  155.8011 H   0  0  0  0  0  0  0  0  0  0  0  0
  144.9803  140.1463  154.0905 H   0  0  0  0  0  0  0  0  0  0  0  0
  144.9615  139.7347  155.7882 H   0  0  0  0  0  0  0  0  0  0  0  0
  144.8107  142.2018  155.4376 H   0  0  0  0  0  0  0  0  0  0  0  0
  146.2281  141.7680  156.3597 H   0  0  0  0  0  0  0  0  0  0  0  0
  146.1439  142.4339  153.3779 H   0  0  0  0  0  0  0  0  0  0  0  0
  146.8348  143.4331  154.6313 H   0  0  0  0  0  0  0  0  0  0  0  0
  148.5597  142.1651  153.3515 H   0  0  0  0  0  0  0  0  0  0  0  0
  150.2108  140.3735  155.0514 H   0  0  0  0  0  0  0  0  0  0  0  0
  150.6151  142.0075  154.5286 H   0  0  0  0  0  0  0  0  0  0  0  0
  150.3149  143.6305  156.5007 H   0  0  0  0  0  0  0  0  0  0  0  0
  150.6285  145.4801  157.8024 H   0  0  0  0  0  0  0  0  0  0  0  0
  151.5278  146.4302  159.9597 H   0  0  0  0  0  0  0  0  0  0  0  0
  152.0743  143.0746  163.1298 H   0  0  0  0  0  0  0  0  0  0  0  0
  153.6463  143.8196  162.8114 H   0  0  0  0  0  0  0  0  0  0  0  0
  153.5521  142.1402  163.3377 H   0  0  0  0  0  0  0  0  0  0  0  0
  154.3642  141.3846  160.1815 H   0  0  0  0  0  0  0  0  0  0  0  0
  152.8530  140.5394  160.5430 H   0  0  0  0  0  0  0  0  0  0  0  0
  154.0799  140.7344  161.7930 H   0  0  0  0  0  0  0  0  0  0  0  0
  148.7354  139.6658  153.6997 H   0  0  0  0  0  0  0  0  0  0  0  0
  147.3072  140.1267  152.8231 H   0  0  0  0  0  0  0  0  0  0  0  0
  1  2  1  0  0  0  0
  1 22  1  0  0  0  0
  1 23  1  0  0  0  0
  1 24  1  0  0  0  0
  2 21  1  0  0  0  0
  2  3  1  0  0  0  0
  2 25  1  0  0  0  0
  3  4  1  0  0  0  0
  3 26  1  0  0  0  0
  3 27  1  0  0  0  0
  4  5  1  0  0  0  0
  4 28  1  0  0  0  0
  4 29  1  0  0  0  0
  5  6  1  0  0  0  0
  5 30  1  0  0  0  0
  5 31  1  0  0  0  0
  6  7  1  0  0  0  0
  6 21  1  0  0  0  0
  6 32  1  0  0  0  0
  7  8  1  0  0  0  0
  8  9  1  0  0  0  0
  8 33  1  0  0  0  0
  8 34  1  0  0  0  0
  9 10  2  0  0  0  0
  9 11  1  0  0  0  0
 11 12  1  0  0  0  0
 11 35  1  0  0  0  0
 12 20  1  0  0  0  0
 12 13  2  0  0  0  0
 13 14  1  0  0  0  0
 13 36  1  0  0  0  0
 14 15  2  0  0  0  0
 14 37  1  0  0  0  0
 15 16  1  0  0  0  0
 16 17  1  0  0  0  0
 16 20  2  0  0  0  0
 17 18  1  0  0  0  0
 17 19  1  0  0  0  0
 18 38  1  0  0  0  0
 18 39  1  0  0  0  0
 18 40  1  0  0  0  0
 19 41  1  0  0  0  0
 19 42  1  0  0  0  0
 19 43  1  0  0  0  0
 21 44  1  0  0  0  0
 21 45  1  0  0  0  0
M  END
> <s_m_source_file>
AV-unprocessed.smi

> <i_m_source_file_index>
3014

> <i_lp_mmshare_version>
43012

> <i_f3d_flags>
0

> <s_epik_input>
W0NIM11bQ0BASF0xW0NIMl1bQ0gyXVtDSDJdW0NASF0oW0NIMl0xKU9bQ0gyXUMoPU8pW05IXWMyW2NIXVtjSF1uYyhuMilOKFtDSDNdKVtDSDNd

> <s_epik_cmdline>
J2VwaWtfcHl0aG9uJywgJy1waCcsICc3LjAnLCAnLXRuJywgJzgnLCAnLW1hJywgJzIwMCcsICctbWV0YWxfYmluZGluZycsICctaW1hZScsICc8aW5maWxlLm1hZT4nLCAnLW9tYWUnLCAnPG91dGZpbGUubWFlPic=

> <r_lp_tautomer_probability>
1

> <r_epik_Ionization_Penalty>
0.000308195

> <r_epik_Ionization_Penalty_Charging>
0

> <r_epik_Ionization_Penalty_Neutral>
0.000308195

> <r_epik_State_Penalty>
-0

> <r_epik_Charging_Adjusted_Penalty>
0

> <i_epik_Tot_Q>
0

> <i_epik_Tot_abs_Q>
0

> <r_epik_Metal_State_Penalty>
-0

> <b_epik_Metal_Only>
0

> <s_lp_Force_Field>
OPLS_2005

> <r_lp_Energy>
6.70314

> <b_lp_Chiralities_Consistent>
1

> <s_lp_Variant>
AV-unprocessed.smi:3014-1

> <Gold.Version>
5.8.1

> <Gold.Id.Protein>
6NUR|6NUR_protein|mol2

> <Gold.PLP.Fitness>
47.2734

> <Gold.PLP.PLP>
-44.8288

> <Gold.PLP.part.hbond>
-1.0000

> <Gold.PLP.part.metal>
0.0000

> <Gold.PLP.part.buried>
-5.7926

> <Gold.PLP.part.nonpolar>
-38.4142

> <Gold.PLP.part.repulsive>
1.2363

> <Gold.PLP.ligand.clash>
0.0000

> <Gold.PLP.ligand.torsion>
0.2915

> <Gold.PLP.Chemscore.Hbond>
1.0000

> <Gold.PLP.Chemscore.CHOScore>
0.0000

> <Gold.PLP.Chemscore.Metal>
0.0000

> <Gold.Chemscore.Hbonds>
donor molecule, donor type, donor heavy atom, donor atom, acceptor molecule, acceptor atom, score
      L1  H    11    35       P1  8028  1.00

> <Gold.PLP.Chemscore.Internal.Correction>
0.0276

> <Gold.Rescore>
     Score         DG    S(hbond)    S(metal)    S(lipo)     H(rot)  DE(clash)    DE(int)     intcor
     12.84     -14.89       1.00        0.00      83.15       1.43       0.48       1.57       ----

> <Gold.Chemscore.Fitness>
12.8351

> <Gold.Chemscore.DG>
-14.8854

> <Gold.Chemscore.ZeroCoef>
-5.4800

> <Gold.Chemscore.Hbond>
1.0000

> <Gold.Chemscore.Metal>
0.0000

> <Gold.Chemscore.Lipo>
83.1515

> <Gold.Chemscore.Internal_Hbond>
0.0000

> <Gold.Chemscore.DEClash>
0.4789

> <Gold.Chemscore.DEInternal>
1.5715

> <Gold.Chemscore.Rot>
1.4310

> <Gold.Chemscore.Internal.Correction>
   9.000000E+99

> <Gold.Chemscore.Hbonds>
donor molecule, donor type, donor heavy atom, donor atom, acceptor molecule, acceptor atom, score
      L1  H    11    35       P1  8028  0.98

> <Gold.Chemscore.Hbond.Weighted>
-3.3399

> <Gold.Chemscore.Metal.Weighted>
-0.0000

> <Gold.Chemscore.Lipo.Weighted>
-9.7287

> <Gold.Chemscore.Internal_Hbond.Weighted>
0.0000

> <Gold.Chemscore.DEClash.Weighted>
0.4789

> <Gold.Chemscore.DEInternal.Weighted>
1.5715

> <Gold.Chemscore.Rot.Weighted>
3.6632

> <Gold.Chemscore.Internal.Correction.Weighted>
   9.000000E+99

> <Gold.Protein.RotatedTorsions>
[ 6907 6896 6895 6894 ] final  -33.34 input  -60.11 | X-H torsion
[ 7974 7965 7964 7962 ] final  -97.55 input  175.53 | X-H torsion
[ 8008 7997 7996 7995 ] final  124.49 input   59.86 | X-H torsion
[ 10167 10162 10161 10158 ] final -103.90 input  -65.29 | X-H torsion
[ 10718 10713 10712 10709 ] final  -72.67 input   66.30 | X-H torsion
[ 10763 10752 10751 10750 ] final -117.12 input  -60.55 | X-H torsion
[ 11005 11000 10999 10996 ] final  -25.18 input  -57.11 | X-H torsion

> <Gold.Protein.ActiveResidues>
 VAL166  LYS551  ARG553  GLY616  TRP617  ASP618  TYR619  PRO620  LYS621  CYS622 
 ASP623  PHE694  ASN695  SER759  ASP760  ASP761  ALA762  ILE779  LEU786  VAL792 
 PHE793  MET794  SER795  GLU796  ALA797  LYS798  CYS799  TRP800  GLU811  SER814 

> <Gold.Protein.RotatedAtoms>
  151.0668  134.9773  159.8288 H   0  0  0  0  0  0  0  0  0  0  0  0  # atno 6907 bound_to 6896
  152.5403  134.2348  159.8849 H   0  0  0  0  0  0  0  0  0  0  0  0  # atno 6908 bound_to 6896
  151.2371  133.4376  159.2639 H   0  0  0  0  0  0  0  0  0  0  0  0  # atno 6909 bound_to 6896
  145.3323  140.9444  143.2655 H   0  0  0  0  0  0  0  0  0  0  0  0  # atno 7974 bound_to 7965
  156.2803  140.2738  156.1796 H   0  0  0  0  0  0  0  0  0  0  0  0  # atno 8008 bound_to 7997
  155.0570  140.0386  157.2581 H   0  0  0  0  0  0  0  0  0  0  0  0  # atno 8009 bound_to 7997
  154.7148  140.2676  155.6601 H   0  0  0  0  0  0  0  0  0  0  0  0  # atno 8010 bound_to 7997
  140.2150  143.3718  152.1018 H   0  0  0  0  0  0  0  0  0  0  0  0  # atno 10167 bound_to 10162
  156.0311  130.4377  150.2628 H   0  0  0  0  0  0  0  0  0  0  0  0  # atno 10718 bound_to 10713
  154.8544  135.4321  154.1929 H   0  0  0  0  0  0  0  0  0  0  0  0  # atno 10763 bound_to 10752
  153.2993  135.6967  153.7224 H   0  0  0  0  0  0  0  0  0  0  0  0  # atno 10764 bound_to 10752
  153.6360  135.3476  155.3031 H   0  0  0  0  0  0  0  0  0  0  0  0  # atno 10765 bound_to 10752
  140.8914  133.7586  156.0426 H   0  0  0  0  0  0  0  0  0  0  0  0  # atno 11005 bound_to 11000
  144.8855  139.4846  143.6703 LP  0  0  0  0  0  0  0  0  0  0  0  0  # atno 17320 bound_to 7965
  146.3041  139.7521  142.9069 LP  0  0  0  0  0  0  0  0  0  0  0  0  # atno 17321 bound_to 7965
  139.5165  144.6979  151.5579 LP  0  0  0  0  0  0  0  0  0  0  0  0  # atno 17342 bound_to 10162
  140.6296  143.9102  150.6594 LP  0  0  0  0  0  0  0  0  0  0  0  0  # atno 17343 bound_to 10162
  157.0730  131.0122  151.3183 LP  0  0  0  0  0  0  0  0  0  0  0  0  # atno 17370 bound_to 10713
  157.4985  130.7865  149.7580 LP  0  0  0  0  0  0  0  0  0  0  0  0  # atno 17371 bound_to 10713
  140.8342  134.3142  157.5338 LP  0  0  0  0  0  0  0  0  0  0  0  0  # atno 17394 bound_to 11000
  139.8730  134.9380  156.3703 LP  0  0  0  0  0  0  0  0  0  0  0  0  # atno 17395 bound_to 11000

$$$$
