AV-unprocessed.smi:2989|AV-procd|sdf|11391|dock7
  -GOLD-   2272016313D 1   1.00000     0.00000
 Structure written by MMmdl.
 31 33  0  0  0  0  0  0  0  0  1 V2000
  151.2219  143.9124  156.8540 O   0  0  0  0  0  0  0  0  0  0  0  0
  151.5313  142.8182  157.6930 C   0  0  2  0  0  0  0  0  0  0  0  0
  150.3439  141.8356  157.6672 C   0  0  0  0  0  0  0  0  0  0  0  0
  150.1351  141.2626  156.3488 N   0  0  0  0  0  0  0  0  0  0  0  0
  151.1428  140.5612  155.7569 N   0  0  0  0  0  0  0  0  0  0  0  0
  150.7274  140.1284  154.6039 N   0  0  0  0  0  0  0  0  0  0  0  0
  149.4192  140.5503  154.4335 C   0  0  0  0  0  0  0  0  0  0  0  0
  148.4964  140.3583  153.3804 C   0  0  0  0  0  0  0  0  0  0  0  0
  147.1973  140.9039  153.4673 C   0  0  0  0  0  0  0  0  0  0  0  0
  146.8053  141.6451  154.6029 C   0  0  0  0  0  0  0  0  0  0  0  0
  147.7130  141.8473  155.6607 C   0  0  0  0  0  0  0  0  0  0  0  0
  149.0029  141.2974  155.5577 C   0  0  0  0  0  0  0  0  0  0  0  0
  151.8825  143.2592  159.1074 C   0  0  0  0  0  0  0  0  0  0  0  0
  152.3776  142.3178  160.0355 C   0  0  0  0  0  0  0  0  0  0  0  0
  152.6768  142.7108  161.3544 C   0  0  0  0  0  0  0  0  0  0  0  0
  152.4819  144.0470  161.7532 C   0  0  0  0  0  0  0  0  0  0  0  0
  151.9876  144.9904  160.8324 C   0  0  0  0  0  0  0  0  0  0  0  0
  151.6888  144.5982  159.5132 C   0  0  0  0  0  0  0  0  0  0  0  0
  150.2985  143.8840  156.6547 H   0  0  0  0  0  0  0  0  0  0  0  0
  152.4030  142.3312  157.2534 H   0  0  0  0  0  0  0  0  0  0  0  0
  150.4963  141.0252  158.3812 H   0  0  0  0  0  0  0  0  0  0  0  0
  149.4257  142.3439  157.9667 H   0  0  0  0  0  0  0  0  0  0  0  0
  148.7855  139.7908  152.5082 H   0  0  0  0  0  0  0  0  0  0  0  0
  146.4973  140.7516  152.6591 H   0  0  0  0  0  0  0  0  0  0  0  0
  145.8084  142.0567  154.6618 H   0  0  0  0  0  0  0  0  0  0  0  0
  147.4221  142.4093  156.5359 H   0  0  0  0  0  0  0  0  0  0  0  0
  152.5196  141.2880  159.7418 H   0  0  0  0  0  0  0  0  0  0  0  0
  153.0528  141.9858  162.0611 H   0  0  0  0  0  0  0  0  0  0  0  0
  152.7095  144.3477  162.7652 H   0  0  0  0  0  0  0  0  0  0  0  0
  151.8344  146.0147  161.1386 H   0  0  0  0  0  0  0  0  0  0  0  0
  151.3019  145.3269  158.8160 H   0  0  0  0  0  0  0  0  0  0  0  0
  1  2  1  0  0  0  0
  1 19  1  0  0  0  0
  2  3  1  0  0  0  0
  2 13  1  0  0  0  0
  2 20  1  0  0  0  0
  3  4  1  0  0  0  0
  3 21  1  0  0  0  0
  3 22  1  0  0  0  0
  4 12  1  0  0  0  0
  4  5  1  0  0  0  0
  5  6  2  0  0  0  0
  6  7  1  0  0  0  0
  7 12  2  0  0  0  0
  7  8  1  0  0  0  0
  8  9  2  0  0  0  0
  8 23  1  0  0  0  0
  9 10  1  0  0  0  0
  9 24  1  0  0  0  0
 10 11  2  0  0  0  0
 10 25  1  0  0  0  0
 11 12  1  0  0  0  0
 11 26  1  0  0  0  0
 13 18  1  0  0  0  0
 13 14  2  0  0  0  0
 14 15  1  0  0  0  0
 14 27  1  0  0  0  0
 15 16  2  0  0  0  0
 15 28  1  0  0  0  0
 16 17  1  0  0  0  0
 16 29  1  0  0  0  0
 17 18  2  0  0  0  0
 17 30  1  0  0  0  0
 18 31  1  0  0  0  0
M  END
> <s_m_source_file>
AV-unprocessed.smi

> <i_m_source_file_index>
2989

> <i_lp_mmshare_version>
43012

> <i_f3d_flags>
0

> <s_epik_input>
W2NIXTFbY0hdW2NIXVtjSF1bY0hdYzFbQ0BIXShbT0hdKVtDSDJdbihubjIpYyhjMjMpW2NIXVtjSF1bY0hdW2NIXTM=

> <s_epik_cmdline>
J2VwaWtfcHl0aG9uJywgJy1waCcsICc3LjAnLCAnLXRuJywgJzgnLCAnLW1hJywgJzIwMCcsICctbWV0YWxfYmluZGluZycsICctaW1hZScsICc8aW5maWxlLm1hZT4nLCAnLW9tYWUnLCAnPG91dGZpbGUubWFlPic=

> <r_lp_tautomer_probability>
1

> <r_epik_Ionization_Penalty>
4.09993e-05

> <r_epik_Ionization_Penalty_Charging>
0

> <r_epik_Ionization_Penalty_Neutral>
4.09993e-05

> <r_epik_State_Penalty>
-0

> <r_epik_Charging_Adjusted_Penalty>
0

> <i_epik_Tot_Q>
0

> <i_epik_Tot_abs_Q>
0

> <r_epik_Metal_State_Penalty>
-0

> <b_epik_Metal_Only>
0

> <s_lp_Force_Field>
OPLS_2005

> <r_lp_Energy>
11.9105

> <b_lp_Chiralities_Consistent>
1

> <s_lp_Variant>
AV-unprocessed.smi:2989-1

> <Gold.Version>
5.8.1

> <Gold.Id.Protein>
6NUR|6NUR_protein|mol2

> <Gold.PLP.Fitness>
47.5829

> <Gold.PLP.PLP>
-42.2030

> <Gold.PLP.part.hbond>
-2.6504

> <Gold.PLP.part.metal>
0.0000

> <Gold.PLP.part.buried>
-0.2738

> <Gold.PLP.part.nonpolar>
-38.9187

> <Gold.PLP.part.repulsive>
0.1082

> <Gold.PLP.ligand.clash>
0.0000

> <Gold.PLP.ligand.torsion>
0.1370

> <Gold.PLP.Chemscore.Hbond>
1.8800

> <Gold.PLP.Chemscore.CHOScore>
0.0000

> <Gold.PLP.Chemscore.Metal>
0.0000

> <Gold.Chemscore.Hbonds>
donor molecule, donor type, donor heavy atom, donor atom, acceptor molecule, acceptor atom, score
      L1  H     1    19       P1  8028  0.88
      P1  H  7989  7998       L1     6  1.00

> <Gold.PLP.Chemscore.Internal.Correction>
0.0139

> <Gold.Rescore>
     Score         DG    S(hbond)    S(metal)    S(lipo)     H(rot)  DE(clash)    DE(int)     intcor
     17.78     -19.46       1.19        0.00     123.89       1.76       1.63       0.05       ----

> <Gold.Chemscore.Fitness>
17.7814

> <Gold.Chemscore.DG>
-19.4585

> <Gold.Chemscore.ZeroCoef>
-5.4800

> <Gold.Chemscore.Hbond>
1.1912

> <Gold.Chemscore.Metal>
0.0000

> <Gold.Chemscore.Lipo>
123.8924

> <Gold.Chemscore.Internal_Hbond>
0.0000

> <Gold.Chemscore.DEClash>
1.6271

> <Gold.Chemscore.DEInternal>
0.0500

> <Gold.Chemscore.Rot>
1.7561

> <Gold.Chemscore.Internal.Correction>
   9.000000E+99

> <Gold.Chemscore.Hbonds>
donor molecule, donor type, donor heavy atom, donor atom, acceptor molecule, acceptor atom, score
      L1  H     1    19       P1  8028  0.86
      P1  H  7989  7998       L1     6  0.36

> <Gold.Chemscore.Hbond.Weighted>
-3.9786

> <Gold.Chemscore.Metal.Weighted>
-0.0000

> <Gold.Chemscore.Lipo.Weighted>
-14.4954

> <Gold.Chemscore.Internal_Hbond.Weighted>
0.0000

> <Gold.Chemscore.DEClash.Weighted>
1.6271

> <Gold.Chemscore.DEInternal.Weighted>
0.0500

> <Gold.Chemscore.Rot.Weighted>
4.4955

> <Gold.Chemscore.Internal.Correction.Weighted>
   9.000000E+99

> <Gold.Protein.RotatedTorsions>
[ 6907 6896 6895 6894 ] final -157.95 input  -60.11 | X-H torsion
[ 7974 7965 7964 7962 ] final  -27.09 input  175.53 | X-H torsion
[ 8008 7997 7996 7995 ] final   68.66 input   59.86 | X-H torsion
[ 10167 10162 10161 10158 ] final   56.88 input  -65.29 | X-H torsion
[ 10718 10713 10712 10709 ] final  147.82 input   66.30 | X-H torsion
[ 10763 10752 10751 10750 ] final -102.23 input  -60.55 | X-H torsion
[ 11005 11000 10999 10996 ] final  -22.12 input  -57.11 | X-H torsion

> <Gold.Protein.ActiveResidues>
 VAL166  LYS551  ARG553  GLY616  TRP617  ASP618  TYR619  PRO620  LYS621  CYS622 
 ASP623  PHE694  ASN695  SER759  ASP760  ASP761  ALA762  ILE779  LEU786  VAL792 
 PHE793  MET794  SER795  GLU796  ALA797  LYS798  CYS799  TRP800  GLU811  SER814 

> <Gold.Protein.RotatedAtoms>
  151.3107  133.4081  159.2646 H   0  0  0  0  0  0  0  0  0  0  0  0  # atno 6907 bound_to 6896
  151.0116  134.9402  159.8021 H   0  0  0  0  0  0  0  0  0  0  0  0  # atno 6908 bound_to 6896
  152.5302  134.3072  159.9152 H   0  0  0  0  0  0  0  0  0  0  0  0  # atno 6909 bound_to 6896
  146.1382  140.5105  142.8664 H   0  0  0  0  0  0  0  0  0  0  0  0  # atno 7974 bound_to 7965
  155.7117  140.3494  155.4977 H   0  0  0  0  0  0  0  0  0  0  0  0  # atno 8008 bound_to 7997
  155.9350  140.1091  157.1124 H   0  0  0  0  0  0  0  0  0  0  0  0  # atno 8009 bound_to 7997
  154.4092  140.1224  156.4838 H   0  0  0  0  0  0  0  0  0  0  0  0  # atno 8010 bound_to 7997
  140.2039  144.3959  150.6517 H   0  0  0  0  0  0  0  0  0  0  0  0  # atno 10167 bound_to 10162
  157.3162  131.0896  151.1277 H   0  0  0  0  0  0  0  0  0  0  0  0  # atno 10718 bound_to 10713
  154.7718  135.4868  153.9664 H   0  0  0  0  0  0  0  0  0  0  0  0  # atno 10763 bound_to 10752
  153.1377  135.6766  153.9084 H   0  0  0  0  0  0  0  0  0  0  0  0  # atno 10764 bound_to 10752
  153.8768  135.3137  155.3422 H   0  0  0  0  0  0  0  0  0  0  0  0  # atno 10765 bound_to 10752
  140.8626  133.7777  156.0093 H   0  0  0  0  0  0  0  0  0  0  0  0  # atno 11005 bound_to 11000
  144.7762  140.5745  143.6636 LP  0  0  0  0  0  0  0  0  0  0  0  0  # atno 17320 bound_to 7965
  145.5108  139.1479  143.3606 LP  0  0  0  0  0  0  0  0  0  0  0  0  # atno 17321 bound_to 7965
  140.6371  143.2197  151.6372 LP  0  0  0  0  0  0  0  0  0  0  0  0  # atno 17342 bound_to 10162
  139.5206  144.3218  152.0904 LP  0  0  0  0  0  0  0  0  0  0  0  0  # atno 17343 bound_to 10162
  157.2580  130.6645  149.5961 LP  0  0  0  0  0  0  0  0  0  0  0  0  # atno 17370 bound_to 10713
  155.9682  130.4517  150.5748 LP  0  0  0  0  0  0  0  0  0  0  0  0  # atno 17371 bound_to 10713
  140.8665  134.2778  157.5211 LP  0  0  0  0  0  0  0  0  0  0  0  0  # atno 17394 bound_to 11000
  139.8707  134.9545  156.4178 LP  0  0  0  0  0  0  0  0  0  0  0  0  # atno 17395 bound_to 11000

$$$$
