AV-unprocessed.smi:2093|AV-procd|sdf|8548|dock2
  -GOLD-   2272011273D 1   1.00000     0.00000
 Structure written by MMmdl.
 30 31  0  0  0  0  0  0  0  0  2 V2000
  151.5118  137.2372  155.0796 C   0  0  0  0  0  0  0  0  0  0  0  0
  151.6191  138.7730  155.0702 C   0  0  2  0  0  0  0  0  0  0  0  0
  152.4949  139.2130  156.1545 N   0  0  0  0  0  0  0  0  0  0  0  0
  152.2495  139.0997  157.4679 C   0  0  0  0  0  0  0  0  0  0  0  0
  151.1935  138.5948  157.8564 O   0  0  0  0  0  0  0  0  0  0  0  0
  153.2432  139.5799  158.2500 N   0  5  0  0  0  0  0  0  0  0  0  0
  153.0686  140.7225  158.9336 C   0  0  0  0  0  0  0  0  0  0  0  0
  152.1129  141.6102  158.6360 N   0  0  0  0  0  0  0  0  0  0  0  0
  152.1157  142.7295  159.4701 C   0  0  0  0  0  0  0  0  0  0  0  0
  153.1024  142.6982  160.4193 C   0  0  0  0  0  0  0  0  0  0  0  0
  154.0640  141.2529  160.2927 S   0  0  0  0  0  0  0  0  0  0  0  0
  150.2451  139.4545  155.2237 C   0  0  2  0  0  0  0  0  0  0  0  0
  149.1939  139.0087  154.2063 C   0  0  0  0  0  0  0  0  0  0  0  0
  148.2402  140.1810  154.2160 C   0  0  0  0  0  0  0  0  0  0  0  0
  149.1931  141.3641  154.3609 C   0  0  0  0  0  0  0  0  0  0  0  0
  150.3563  140.8607  155.0130 O   0  0  0  0  0  0  0  0  0  0  0  0
  150.9015  136.8755  154.2521 H   0  0  0  0  0  0  0  0  0  0  0  0
  151.0645  136.8774  156.0067 H   0  0  0  0  0  0  0  0  0  0  0  0
  152.4929  136.7712  154.9821 H   0  0  0  0  0  0  0  0  0  0  0  0
  152.0494  139.0880  154.1179 H   0  0  0  0  0  0  0  0  0  0  0  0
  153.3744  139.6290  155.8854 H   0  0  0  0  0  0  0  0  0  0  0  0
  151.3781  143.5026  159.3147 H   0  0  0  0  0  0  0  0  0  0  0  0
  153.3228  143.4320  161.1795 H   0  0  0  0  0  0  0  0  0  0  0  0
  149.8554  139.2989  156.2314 H   0  0  0  0  0  0  0  0  0  0  0  0
  149.6384  138.8974  153.2164 H   0  0  0  0  0  0  0  0  0  0  0  0
  148.7120  138.0681  154.4743 H   0  0  0  0  0  0  0  0  0  0  0  0
  147.6212  140.2391  153.3203 H   0  0  0  0  0  0  0  0  0  0  0  0
  147.5822  140.1195  155.0841 H   0  0  0  0  0  0  0  0  0  0  0  0
  149.4845  141.7450  153.3814 H   0  0  0  0  0  0  0  0  0  0  0  0
  148.7470  142.1840  154.9241 H   0  0  0  0  0  0  0  0  0  0  0  0
  1  2  1  0  0  0  0
  1 17  1  0  0  0  0
  1 18  1  0  0  0  0
  1 19  1  0  0  0  0
  2  3  1  0  0  0  0
  2 12  1  0  0  0  0
  2 20  1  0  0  0  0
  3  4  1  0  0  0  0
  3 21  1  0  0  0  0
  4  5  2  0  0  0  0
  4  6  1  0  0  0  0
  6  7  1  0  0  0  0
  7 11  1  0  0  0  0
  7  8  2  0  0  0  0
  8  9  1  0  0  0  0
  9 10  2  0  0  0  0
  9 22  1  0  0  0  0
 10 11  1  0  0  0  0
 10 23  1  0  0  0  0
 12 16  1  0  0  0  0
 12 13  1  0  0  0  0
 12 24  1  0  0  0  0
 13 14  1  0  0  0  0
 13 25  1  0  0  0  0
 13 26  1  0  0  0  0
 14 15  1  0  0  0  0
 14 27  1  0  0  0  0
 14 28  1  0  0  0  0
 15 16  1  0  0  0  0
 15 29  1  0  0  0  0
 15 30  1  0  0  0  0
M  CHG  1   6  -1
M  END
> <s_m_source_file>
AV-unprocessed.smi

> <i_m_source_file_index>
2093

> <i_lp_mmshare_version>
43012

> <i_f3d_flags>
0

> <s_epik_input>
TzFbQ0gyXVtDSDJdW0NIMl1bQ0BIXTFbQ0BIXShbQ0gzXSlbTkhdQyg9TylbTkhdYzJuW2NIXVtjSF1zMg==

> <s_epik_cmdline>
J2VwaWtfcHl0aG9uJywgJy1waCcsICc3LjAnLCAnLXRuJywgJzgnLCAnLW1hJywgJzIwMCcsICctbWV0YWxfYmluZGluZycsICctaW1hZScsICc8aW5maWxlLm1hZT4nLCAnLW9tYWUnLCAnPG91dGZpbGUubWFlPic=

> <r_lp_tautomer_probability>
0.999

> <r_epik_Ionization_Penalty>
8.26346

> <r_epik_Ionization_Penalty_Charging>
6.6559

> <r_epik_Ionization_Penalty_Neutral>
1.60756

> <r_epik_State_Penalty>
6.65607

> <r_epik_Charging_Adjusted_Penalty>
13.312

> <i_epik_Tot_Q>
-1

> <i_epik_Tot_abs_Q>
1

> <r_epik_Metal_State_Penalty>
2.5789

> <b_epik_Metal_Only>
1

> <s_lp_Force_Field>
OPLS_2005

> <r_lp_Energy>
13.8271

> <b_lp_Chiralities_Consistent>
1

> <s_lp_Variant>
AV-unprocessed.smi:2093-5

> <Gold.Version>
5.8.1

> <Gold.Id.Protein>
6NUR|6NUR_protein|mol2

> <Gold.PLP.Fitness>
36.9917

> <Gold.PLP.PLP>
-30.1816

> <Gold.PLP.part.hbond>
-2.0000

> <Gold.PLP.part.metal>
0.0000

> <Gold.PLP.part.buried>
-1.4420

> <Gold.PLP.part.nonpolar>
-26.3690

> <Gold.PLP.part.repulsive>
0.7160

> <Gold.PLP.ligand.clash>
0.0000

> <Gold.PLP.ligand.torsion>
0.8120

> <Gold.PLP.Chemscore.Hbond>
2.7840

> <Gold.PLP.Chemscore.CHOScore>
0.0000

> <Gold.PLP.Chemscore.Metal>
0.0000

> <Gold.Chemscore.Hbonds>
donor molecule, donor type, donor heavy atom, donor atom, acceptor molecule, acceptor atom, score
      P1  H  7989  7998       L1    16  0.74
      P1  H  7997  8008       L1     6  2.00

> <Gold.PLP.Chemscore.Internal.Correction>
0.0821

> <Gold.Rescore>
     Score         DG    S(hbond)    S(metal)    S(lipo)     H(rot)  DE(clash)    DE(int)     intcor
     12.45     -14.68       1.21        0.00      72.03       1.28       0.19       2.04       ----

> <Gold.Chemscore.Fitness>
12.4508

> <Gold.Chemscore.DG>
-14.6807

> <Gold.Chemscore.ZeroCoef>
-5.4800

> <Gold.Chemscore.Hbond>
1.2110

> <Gold.Chemscore.Metal>
0.0000

> <Gold.Chemscore.Lipo>
72.0264

> <Gold.Chemscore.Internal_Hbond>
0.0000

> <Gold.Chemscore.DEClash>
0.1932

> <Gold.Chemscore.DEInternal>
2.0366

> <Gold.Chemscore.Rot>
1.2778

> <Gold.Chemscore.Internal.Correction>
   9.000000E+99

> <Gold.Chemscore.Hbonds>
donor molecule, donor type, donor heavy atom, donor atom, acceptor molecule, acceptor atom, score
      P1  H  7989  7998       L1    16  0.05
      P1  H  7997  8008       L1     6  0.12

> <Gold.Chemscore.Hbond.Weighted>
-4.0447

> <Gold.Chemscore.Metal.Weighted>
-0.0000

> <Gold.Chemscore.Lipo.Weighted>
-8.4271

> <Gold.Chemscore.Internal_Hbond.Weighted>
0.0000

> <Gold.Chemscore.DEClash.Weighted>
0.1932

> <Gold.Chemscore.DEInternal.Weighted>
2.0366

> <Gold.Chemscore.Rot.Weighted>
3.2711

> <Gold.Chemscore.Internal.Correction.Weighted>
   9.000000E+99

> <Gold.Protein.RotatedTorsions>
[ 6907 6896 6895 6894 ] final  -72.21 input  -60.11 | X-H torsion
[ 7974 7965 7964 7962 ] final -160.54 input  175.53 | X-H torsion
[ 8008 7997 7996 7995 ] final  -79.72 input   59.86 | X-H torsion
[ 10167 10162 10161 10158 ] final  -30.20 input  -65.29 | X-H torsion
[ 10718 10713 10712 10709 ] final   72.96 input   66.30 | X-H torsion
[ 10763 10752 10751 10750 ] final    9.98 input  -60.55 | X-H torsion
[ 11005 11000 10999 10996 ] final -170.17 input  -57.11 | X-H torsion

> <Gold.Protein.ActiveResidues>
 VAL166  LYS551  ARG553  GLY616  TRP617  ASP618  TYR619  PRO620  LYS621  CYS622 
 ASP623  PHE694  ASN695  SER759  ASP760  ASP761  ALA762  ILE779  LEU786  VAL792 
 PHE793  MET794  SER795  GLU796  ALA797  LYS798  CYS799  TRP800  GLU811  SER814 

> <Gold.Protein.RotatedAtoms>
  150.7179  134.5196  159.5646 H   0  0  0  0  0  0  0  0  0  0  0  0  # atno 6907 bound_to 6896
  152.2754  134.7884  160.0415 H   0  0  0  0  0  0  0  0  0  0  0  0  # atno 6908 bound_to 6896
  151.8549  133.3411  159.3722 H   0  0  0  0  0  0  0  0  0  0  0  0  # atno 6909 bound_to 6896
  144.7423  140.3527  143.6112 H   0  0  0  0  0  0  0  0  0  0  0  0  # atno 7974 bound_to 7965
  154.5813  140.0674  156.9107 H   0  0  0  0  0  0  0  0  0  0  0  0  # atno 8008 bound_to 7997
  155.2458  140.3348  155.4269 H   0  0  0  0  0  0  0  0  0  0  0  0  # atno 8009 bound_to 7997
  156.2191  140.1791  156.7504 H   0  0  0  0  0  0  0  0  0  0  0  0  # atno 8010 bound_to 7997
  140.7252  143.3868  151.1501 H   0  0  0  0  0  0  0  0  0  0  0  0  # atno 10167 bound_to 10162
  157.6525  130.9604  150.1002 H   0  0  0  0  0  0  0  0  0  0  0  0  # atno 10718 bound_to 10713
  153.2081  135.6865  153.8147 H   0  0  0  0  0  0  0  0  0  0  0  0  # atno 10763 bound_to 10752
  153.7389  135.3241  155.3301 H   0  0  0  0  0  0  0  0  0  0  0  0  # atno 10764 bound_to 10752
  154.8208  135.4653  154.0877 H   0  0  0  0  0  0  0  0  0  0  0  0  # atno 10765 bound_to 10752
  140.5225  134.5695  157.5052 H   0  0  0  0  0  0  0  0  0  0  0  0  # atno 11005 bound_to 11000
  145.7259  139.1722  143.2458 LP  0  0  0  0  0  0  0  0  0  0  0  0  # atno 17320 bound_to 7965
  146.1242  140.7269  142.9443 LP  0  0  0  0  0  0  0  0  0  0  0  0  # atno 17321 bound_to 7965
  139.7466  143.8843  152.3065 LP  0  0  0  0  0  0  0  0  0  0  0  0  # atno 17342 bound_to 10162
  139.8682  144.7082  150.9019 LP  0  0  0  0  0  0  0  0  0  0  0  0  # atno 17343 bound_to 10162
  156.1926  130.3655  149.8890 LP  0  0  0  0  0  0  0  0  0  0  0  0  # atno 17370 bound_to 10713
  156.6814  130.8859  151.3576 LP  0  0  0  0  0  0  0  0  0  0  0  0  # atno 17371 bound_to 10713
  139.9598  134.7472  156.0262 LP  0  0  0  0  0  0  0  0  0  0  0  0  # atno 17394 bound_to 11000
  141.1326  133.6582  156.3506 LP  0  0  0  0  0  0  0  0  0  0  0  0  # atno 17395 bound_to 11000

$$$$
