AV-unprocessed.smi:1116|AV-procd|sdf|4807|dock4
  -GOLD-   22720 3353D 1   1.00000     0.00000
 Structure written by MMmdl.
 36 37  0  0  0  0  0  0  0  0  1 V2000
  151.6299  145.6496  159.8963 C   0  0  0  0  0  0  0  0  0  0  0  0
  152.1146  144.2753  160.2083 C   0  0  0  0  0  0  0  0  0  0  0  0
  152.2816  143.3223  159.2875 N   0  0  0  0  0  0  0  0  0  0  0  0
  152.7396  142.1192  159.8343 C   0  0  0  0  0  0  0  0  0  0  0  0
  152.9734  140.9332  158.9486 C   0  0  0  0  0  0  0  0  0  0  0  0
  151.6702  140.1786  158.6358 C   0  0  0  0  0  0  0  0  0  0  0  0
  150.8925  140.8419  157.5955 N   0  0  0  0  0  0  0  0  0  0  0  0
  150.8064  140.4402  156.3182 C   0  0  0  0  0  0  0  0  0  0  0  0
  151.3855  139.4454  155.8824 O   0  0  0  0  0  0  0  0  0  0  0  0
  149.9399  141.2977  155.3920 C   0  0  0  0  0  0  0  0  0  0  0  0
  149.6089  140.5867  154.0659 C   0  0  0  0  0  0  0  0  0  0  0  0
  148.3292  139.7307  154.1410 C   0  0  2  0  0  0  0  0  0  0  0  0
  148.1911  138.8229  153.0147 N   0  0  0  0  0  0  0  0  0  0  0  0
  147.0732  139.0452  152.3106 C   0  0  0  0  0  0  0  0  0  0  0  0
  146.7114  138.4223  151.3154 O   0  0  0  0  0  0  0  0  0  0  0  0
  146.4221  140.0644  152.8812 N   0  0  0  0  0  0  0  0  0  0  0  0
  147.0632  140.5460  153.9447 C   0  0  0  0  0  0  0  0  0  0  0  0
  146.7139  141.4854  154.6569 O   0  0  0  0  0  0  0  0  0  0  0  0
  152.9254  142.1792  161.1932 C   0  0  0  0  0  0  0  0  0  0  0  0
  152.5249  143.7482  161.8357 S   0  0  0  0  0  0  0  0  0  0  0  0
  151.3189  145.7208  158.8536 H   0  0  0  0  0  0  0  0  0  0  0  0
  152.4248  146.3738  160.0752 H   0  0  0  0  0  0  0  0  0  0  0  0
  150.7796  145.8978  160.5318 H   0  0  0  0  0  0  0  0  0  0  0  0
  153.4469  141.2552  158.0203 H   0  0  0  0  0  0  0  0  0  0  0  0
  153.6809  140.2520  159.4229 H   0  0  0  0  0  0  0  0  0  0  0  0
  151.9019  139.1718  158.2871 H   0  0  0  0  0  0  0  0  0  0  0  0
  151.0663  140.0637  159.5376 H   0  0  0  0  0  0  0  0  0  0  0  0
  150.3865  141.6728  157.8660 H   0  0  0  0  0  0  0  0  0  0  0  0
  149.0189  141.5719  155.9085 H   0  0  0  0  0  0  0  0  0  0  0  0
  150.4726  142.2277  155.1909 H   0  0  0  0  0  0  0  0  0  0  0  0
  149.4864  141.3300  153.2763 H   0  0  0  0  0  0  0  0  0  0  0  0
  150.4542  139.9637  153.7670 H   0  0  0  0  0  0  0  0  0  0  0  0
  148.2751  139.1751  155.0780 H   0  0  0  0  0  0  0  0  0  0  0  0
  148.8661  138.1024  152.8031 H   0  0  0  0  0  0  0  0  0  0  0  0
  145.5472  140.4333  152.5380 H   0  0  0  0  0  0  0  0  0  0  0  0
  153.2704  141.3976  161.8535 H   0  0  0  0  0  0  0  0  0  0  0  0
  1  2  1  0  0  0  0
  1 21  1  0  0  0  0
  1 22  1  0  0  0  0
  1 23  1  0  0  0  0
  2 20  1  0  0  0  0
  2  3  2  0  0  0  0
  3  4  1  0  0  0  0
  4  5  1  0  0  0  0
  4 19  2  0  0  0  0
  5  6  1  0  0  0  0
  5 24  1  0  0  0  0
  5 25  1  0  0  0  0
  6  7  1  0  0  0  0
  6 26  1  0  0  0  0
  6 27  1  0  0  0  0
  7  8  1  0  0  0  0
  7 28  1  0  0  0  0
  8  9  2  0  0  0  0
  8 10  1  0  0  0  0
 10 11  1  0  0  0  0
 10 29  1  0  0  0  0
 10 30  1  0  0  0  0
 11 12  1  0  0  0  0
 11 31  1  0  0  0  0
 11 32  1  0  0  0  0
 12 17  1  0  0  0  0
 12 13  1  0  0  0  0
 12 33  1  0  0  0  0
 13 14  1  0  0  0  0
 13 34  1  0  0  0  0
 14 15  2  0  0  0  0
 14 16  1  0  0  0  0
 16 17  1  0  0  0  0
 16 35  1  0  0  0  0
 17 18  2  0  0  0  0
 19 20  1  0  0  0  0
 19 36  1  0  0  0  0
M  END
> <s_m_source_file>
AV-unprocessed.smi

> <i_m_source_file_index>
1116

> <i_lp_mmshare_version>
43012

> <i_f3d_flags>
0

> <s_epik_input>
W0NIM11jMW5jKFtjSF1zMSlbQ0gyXVtDSDJdW05IXUMoPU8pW0NIMl1bQ0gyXVtDQEBIXTJbTkhdQyg9TylbTkhdQzI9Tw==

> <s_epik_cmdline>
J2VwaWtfcHl0aG9uJywgJy1waCcsICc3LjAnLCAnLXRuJywgJzgnLCAnLW1hJywgJzIwMCcsICctbWV0YWxfYmluZGluZycsICctaW1hZScsICc8aW5maWxlLm1hZT4nLCAnLW9tYWUnLCAnPG91dGZpbGUubWFlPic=

> <r_lp_tautomer_probability>
1

> <r_epik_Ionization_Penalty>
0.00889251

> <r_epik_Ionization_Penalty_Charging>
0

> <r_epik_Ionization_Penalty_Neutral>
0.00889251

> <r_epik_State_Penalty>
0.00583796

> <r_epik_Charging_Adjusted_Penalty>
0.00583796

> <i_epik_Tot_Q>
0

> <i_epik_Tot_abs_Q>
0

> <r_epik_Metal_State_Penalty>
0.408839

> <b_epik_Metal_Only>
0

> <s_lp_Force_Field>
OPLS_2005

> <r_lp_Energy>
12.4074

> <b_lp_Chiralities_Consistent>
1

> <s_lp_Variant>
AV-unprocessed.smi:1116-1

> <Gold.Version>
5.8.1

> <Gold.Id.Protein>
6NUR|6NUR_protein|mol2

> <Gold.PLP.Fitness>
47.5087

> <Gold.PLP.PLP>
-41.4705

> <Gold.PLP.part.hbond>
-3.9691

> <Gold.PLP.part.metal>
0.0000

> <Gold.PLP.part.buried>
-0.7839

> <Gold.PLP.part.nonpolar>
-36.8638

> <Gold.PLP.part.repulsive>
0.6060

> <Gold.PLP.ligand.clash>
0.0000

> <Gold.PLP.ligand.torsion>
1.0085

> <Gold.PLP.Chemscore.Hbond>
2.6614

> <Gold.PLP.Chemscore.CHOScore>
0.0000

> <Gold.PLP.Chemscore.Metal>
0.0000

> <Gold.Chemscore.Hbonds>
donor molecule, donor type, donor heavy atom, donor atom, acceptor molecule, acceptor atom, score
      L1  H    13    34       P1  7948  0.73
      L1  H    16    35       P1 10175  1.00
      P1  H  7954  7966       L1    15  0.81

> <Gold.PLP.Chemscore.Internal.Correction>
0.0708

> <Gold.Rescore>
     Score         DG    S(hbond)    S(metal)    S(lipo)     H(rot)  DE(clash)    DE(int)     intcor
     13.46     -16.45       2.13        0.00      95.00       2.83       1.95       1.04       ----

> <Gold.Chemscore.Fitness>
13.4610

> <Gold.Chemscore.DG>
-16.4525

> <Gold.Chemscore.ZeroCoef>
-5.4800

> <Gold.Chemscore.Hbond>
2.1284

> <Gold.Chemscore.Metal>
0.0000

> <Gold.Chemscore.Lipo>
94.9965

> <Gold.Chemscore.Internal_Hbond>
0.0000

> <Gold.Chemscore.DEClash>
1.9534

> <Gold.Chemscore.DEInternal>
1.0380

> <Gold.Chemscore.Rot>
2.8324

> <Gold.Chemscore.Internal.Correction>
   9.000000E+99

> <Gold.Chemscore.Hbonds>
donor molecule, donor type, donor heavy atom, donor atom, acceptor molecule, acceptor atom, score
      L1  H    13    34       P1  7948  0.69
      L1  H    16    35       P1 10175  0.58
      P1  H  7954  7966       L1    15  0.76

> <Gold.Chemscore.Hbond.Weighted>
-7.1088

> <Gold.Chemscore.Metal.Weighted>
-0.0000

> <Gold.Chemscore.Lipo.Weighted>
-11.1146

> <Gold.Chemscore.Internal_Hbond.Weighted>
0.0000

> <Gold.Chemscore.DEClash.Weighted>
1.9534

> <Gold.Chemscore.DEInternal.Weighted>
1.0380

> <Gold.Chemscore.Rot.Weighted>
7.2510

> <Gold.Chemscore.Internal.Correction.Weighted>
   9.000000E+99

> <Gold.Protein.RotatedTorsions>
[ 6907 6896 6895 6894 ] final   98.99 input  -60.11 | X-H torsion
[ 7974 7965 7964 7962 ] final  -98.05 input  175.53 | X-H torsion
[ 8008 7997 7996 7995 ] final  160.89 input   59.86 | X-H torsion
[ 10167 10162 10161 10158 ] final -174.43 input  -65.29 | X-H torsion
[ 10718 10713 10712 10709 ] final    4.93 input   66.30 | X-H torsion
[ 10763 10752 10751 10750 ] final -117.38 input  -60.55 | X-H torsion
[ 11005 11000 10999 10996 ] final  -80.30 input  -57.11 | X-H torsion

> <Gold.Protein.ActiveResidues>
 VAL166  LYS551  ARG553  GLY616  TRP617  ASP618  TYR619  PRO620  LYS621  CYS622 
 ASP623  PHE694  ASN695  SER759  ASP760  ASP761  ALA762  ILE779  LEU786  VAL792 
 PHE793  MET794  SER795  GLU796  ALA797  LYS798  CYS799  TRP800  GLU811  SER814 

> <Gold.Protein.RotatedAtoms>
  152.5400  134.0496  159.8103 H   0  0  0  0  0  0  0  0  0  0  0  0  # atno 6907 bound_to 6896
  151.0640  133.5513  159.2639 H   0  0  0  0  0  0  0  0  0  0  0  0  # atno 6908 bound_to 6896
  151.2401  135.0594  159.9075 H   0  0  0  0  0  0  0  0  0  0  0  0  # atno 6909 bound_to 6896
  145.3256  140.9431  143.2690 H   0  0  0  0  0  0  0  0  0  0  0  0  # atno 7974 bound_to 7965
  156.2141  140.1792  156.7628 H   0  0  0  0  0  0  0  0  0  0  0  0  # atno 8008 bound_to 7997
  154.5766  140.0673  156.9072 H   0  0  0  0  0  0  0  0  0  0  0  0  # atno 8009 bound_to 7997
  155.2577  140.3333  155.4278 H   0  0  0  0  0  0  0  0  0  0  0  0  # atno 8010 bound_to 7997
  139.5634  144.1814  152.1275 H   0  0  0  0  0  0  0  0  0  0  0  0  # atno 10167 bound_to 10162
  156.8998  130.5717  149.5648 H   0  0  0  0  0  0  0  0  0  0  0  0  # atno 10718 bound_to 10713
  154.8553  135.4312  154.1970 H   0  0  0  0  0  0  0  0  0  0  0  0  # atno 10763 bound_to 10752
  153.3026  135.6970  153.7195 H   0  0  0  0  0  0  0  0  0  0  0  0  # atno 10764 bound_to 10752
  153.6319  135.3483  155.3019 H   0  0  0  0  0  0  0  0  0  0  0  0  # atno 10765 bound_to 10752
  141.1668  133.7144  156.8253 H   0  0  0  0  0  0  0  0  0  0  0  0  # atno 11005 bound_to 11000
  144.8904  139.4782  143.6680 LP  0  0  0  0  0  0  0  0  0  0  0  0  # atno 17320 bound_to 7965
  146.3065  139.7599  142.9052 LP  0  0  0  0  0  0  0  0  0  0  0  0  # atno 17321 bound_to 7965
  140.1332  144.5269  150.6789 LP  0  0  0  0  0  0  0  0  0  0  0  0  # atno 17342 bound_to 10162
  140.6916  143.2379  151.5116 LP  0  0  0  0  0  0  0  0  0  0  0  0  # atno 17343 bound_to 10162
  156.0587  130.5644  150.9147 LP  0  0  0  0  0  0  0  0  0  0  0  0  # atno 17370 bound_to 10713
  157.6033  131.0940  150.8923 LP  0  0  0  0  0  0  0  0  0  0  0  0  # atno 17371 bound_to 10713
  140.2090  134.8841  157.3253 LP  0  0  0  0  0  0  0  0  0  0  0  0  # atno 17394 bound_to 11000
  140.2107  134.4142  155.7614 LP  0  0  0  0  0  0  0  0  0  0  0  0  # atno 17395 bound_to 11000

$$$$
