AV-unprocessed.smi:2999|AV-procd|sdf|11417|dock4
  -GOLD-   2272016343D 1   1.00000     0.00000
 Structure written by MMmdl.
 37 39  0  0  0  0  0  0  0  0  1 V2000
  144.5356  136.2326  152.3863 O   0  0  0  0  0  0  0  0  0  0  0  0
  145.7250  136.2302  152.0686 C   0  0  0  0  0  0  0  0  0  0  0  0
  146.5628  137.2412  152.3375 N   0  0  0  0  0  0  0  0  0  0  0  0
  146.1945  138.4708  153.0306 C   0  0  0  0  0  0  0  0  0  0  0  0
  147.3971  139.4150  153.1955 C   0  0  2  0  0  0  0  0  0  0  0  0
  148.4812  138.8074  154.1072 C   0  0  0  0  0  0  0  0  0  0  0  0
  149.5921  139.7271  154.3194 N   0  0  0  0  0  0  0  0  0  0  0  0
  150.5942  139.1403  155.1966 C   0  0  0  0  0  0  0  0  0  0  0  0
  152.0516  139.2360  154.8256 C   0  0  0  0  0  0  0  0  0  0  0  0
  151.3308  137.9023  154.7541 C   0  0  0  0  0  0  0  0  0  0  0  0
  149.0716  140.9695  154.8758 C   0  0  0  0  0  0  0  0  0  0  0  0
  147.9843  141.5835  153.9779 C   0  0  0  0  0  0  0  0  0  0  0  0
  146.9410  140.6345  153.7790 O   0  0  0  0  0  0  0  0  0  0  0  0
  146.3534  135.2372  151.4188 N   0  0  0  0  0  0  0  0  0  0  0  0
  145.7966  134.0261  150.9383 C   0  0  0  0  0  0  0  0  0  0  0  0
  146.6152  133.0206  150.6229 N   0  0  0  0  0  0  0  0  0  0  0  0
  145.9177  131.9012  150.1594 C   0  0  0  0  0  0  0  0  0  0  0  0
  144.5560  132.0728  150.1290 C   0  0  0  0  0  0  0  0  0  0  0  0
  144.0885  133.6575  150.6849 S   0  0  0  0  0  0  0  0  0  0  0  0
  147.5260  137.1548  152.0467 H   0  0  0  0  0  0  0  0  0  0  0  0
  145.4065  138.9645  152.4614 H   0  0  0  0  0  0  0  0  0  0  0  0
  145.7655  138.2297  154.0049 H   0  0  0  0  0  0  0  0  0  0  0  0
  147.8317  139.6270  152.2167 H   0  0  0  0  0  0  0  0  0  0  0  0
  148.0380  138.5346  155.0664 H   0  0  0  0  0  0  0  0  0  0  0  0
  148.8521  137.8830  153.6626 H   0  0  0  0  0  0  0  0  0  0  0  0
  150.3269  139.2272  156.2486 H   0  0  0  0  0  0  0  0  0  0  0  0
  152.3075  139.7181  153.8840 H   0  0  0  0  0  0  0  0  0  0  0  0
  152.7660  139.3797  155.6335 H   0  0  0  0  0  0  0  0  0  0  0  0
  151.5677  137.1607  155.5143 H   0  0  0  0  0  0  0  0  0  0  0  0
  151.1088  137.5041  153.7657 H   0  0  0  0  0  0  0  0  0  0  0  0
  148.6574  140.7875  155.8687 H   0  0  0  0  0  0  0  0  0  0  0  0
  149.8842  141.6856  155.0036 H   0  0  0  0  0  0  0  0  0  0  0  0
  147.5694  142.4785  154.4414 H   0  0  0  0  0  0  0  0  0  0  0  0
  148.4005  141.8835  153.0150 H   0  0  0  0  0  0  0  0  0  0  0  0
  147.3367  135.3680  151.2326 H   0  0  0  0  0  0  0  0  0  0  0  0
  146.4725  131.0212  149.8694 H   0  0  0  0  0  0  0  0  0  0  0  0
  143.8027  131.3662  149.8138 H   0  0  0  0  0  0  0  0  0  0  0  0
  1  2  2  0  0  0  0
  2  3  1  0  0  0  0
  2 14  1  0  0  0  0
  3  4  1  0  0  0  0
  3 20  1  0  0  0  0
  4  5  1  0  0  0  0
  4 21  1  0  0  0  0
  4 22  1  0  0  0  0
  5 13  1  0  0  0  0
  5  6  1  0  0  0  0
  5 23  1  0  0  0  0
  6  7  1  0  0  0  0
  6 24  1  0  0  0  0
  6 25  1  0  0  0  0
  7  8  1  0  0  0  0
  7 11  1  0  0  0  0
  8 10  1  0  0  0  0
  8  9  1  0  0  0  0
  8 26  1  0  0  0  0
  9 10  1  0  0  0  0
  9 27  1  0  0  0  0
  9 28  1  0  0  0  0
 10 29  1  0  0  0  0
 10 30  1  0  0  0  0
 11 12  1  0  0  0  0
 11 31  1  0  0  0  0
 11 32  1  0  0  0  0
 12 13  1  0  0  0  0
 12 33  1  0  0  0  0
 12 34  1  0  0  0  0
 14 15  1  0  0  0  0
 14 35  1  0  0  0  0
 15 19  1  0  0  0  0
 15 16  2  0  0  0  0
 16 17  1  0  0  0  0
 17 18  2  0  0  0  0
 17 36  1  0  0  0  0
 18 19  1  0  0  0  0
 18 37  1  0  0  0  0
M  END
> <s_m_source_file>
AV-unprocessed.smi

> <i_m_source_file_index>
2999

> <i_lp_mmshare_version>
43012

> <i_f3d_flags>
0

> <s_epik_input>
czFbY0hdW2NIXW5jMVtOSF1DKD1PKVtOSF1bQ0gyXVtDQEBIXTJbQ0gyXU4oW0NIMl1bQ0gyXU8yKVtDSF0zW0NIMl1bQ0gyXTM=

> <s_epik_cmdline>
J2VwaWtfcHl0aG9uJywgJy1waCcsICc3LjAnLCAnLXRuJywgJzgnLCAnLW1hJywgJzIwMCcsICctbWV0YWxfYmluZGluZycsICctaW1hZScsICc8aW5maWxlLm1hZT4nLCAnLW9tYWUnLCAnPG91dGZpbGUubWFlPic=

> <r_lp_tautomer_probability>
0.999

> <r_epik_Ionization_Penalty>
0.0449352

> <r_epik_Ionization_Penalty_Charging>
0

> <r_epik_Ionization_Penalty_Neutral>
0.0449352

> <r_epik_State_Penalty>
0.0379856

> <r_epik_Charging_Adjusted_Penalty>
0.0379856

> <i_epik_Tot_Q>
0

> <i_epik_Tot_abs_Q>
0

> <r_epik_Metal_State_Penalty>
0.0775629

> <b_epik_Metal_Only>
0

> <s_lp_Force_Field>
OPLS_2005

> <r_lp_Energy>
28.3978

> <b_lp_Chiralities_Consistent>
1

> <s_lp_Variant>
AV-unprocessed.smi:2999-1

> <Gold.Version>
5.8.1

> <Gold.Id.Protein>
6NUR|6NUR_protein|mol2

> <Gold.PLP.Fitness>
42.2674

> <Gold.PLP.PLP>
-34.3798

> <Gold.PLP.part.hbond>
-2.0000

> <Gold.PLP.part.metal>
0.0000

> <Gold.PLP.part.buried>
-2.7170

> <Gold.PLP.part.nonpolar>
-30.4865

> <Gold.PLP.part.repulsive>
0.7884

> <Gold.PLP.ligand.clash>
0.0000

> <Gold.PLP.ligand.torsion>
0.7290

> <Gold.PLP.Chemscore.Hbond>
1.9120

> <Gold.PLP.Chemscore.CHOScore>
0.8395

> <Gold.PLP.Chemscore.Metal>
0.0000

> <Gold.Chemscore.Hbonds>
donor molecule, donor type, donor heavy atom, donor atom, acceptor molecule, acceptor atom, score
      L1  H     3    20       P1  7948  1.00
      L1  H    14    35       P1  7948  0.93
      L1  C    17    36       P1 10747  0.84

> <Gold.PLP.Chemscore.Internal.Correction>
1.0910

> <Gold.Rescore>
     Score         DG    S(hbond)    S(metal)    S(lipo)     H(rot)  DE(clash)    DE(int)     intcor
     16.71     -17.51       1.94        0.00      81.17       1.55       0.08       0.72       ----

> <Gold.Chemscore.Fitness>
16.7105

> <Gold.Chemscore.DG>
-17.5063

> <Gold.Chemscore.ZeroCoef>
-5.4800

> <Gold.Chemscore.Hbond>
1.9426

> <Gold.Chemscore.Metal>
0.0000

> <Gold.Chemscore.Lipo>
81.1669

> <Gold.Chemscore.Internal_Hbond>
0.0000

> <Gold.Chemscore.DEClash>
0.0793

> <Gold.Chemscore.DEInternal>
0.7165

> <Gold.Chemscore.Rot>
1.5463

> <Gold.Chemscore.Internal.Correction>
   9.000000E+99

> <Gold.Chemscore.Hbonds>
donor molecule, donor type, donor heavy atom, donor atom, acceptor molecule, acceptor atom, score
      L1  H     3    20       P1  7948  0.96
      L1  H    14    35       P1  7948  0.67

> <Gold.Chemscore.Hbond.Weighted>
-6.4882

> <Gold.Chemscore.Metal.Weighted>
-0.0000

> <Gold.Chemscore.Lipo.Weighted>
-9.4965

> <Gold.Chemscore.Internal_Hbond.Weighted>
0.0000

> <Gold.Chemscore.DEClash.Weighted>
0.0793

> <Gold.Chemscore.DEInternal.Weighted>
0.7165

> <Gold.Chemscore.Rot.Weighted>
3.9584

> <Gold.Chemscore.Internal.Correction.Weighted>
   9.000000E+99

> <Gold.Protein.RotatedTorsions>
[ 6907 6896 6895 6894 ] final -141.26 input  -60.11 | X-H torsion
[ 7974 7965 7964 7962 ] final  155.83 input  175.53 | X-H torsion
[ 8008 7997 7996 7995 ] final   13.33 input   59.86 | X-H torsion
[ 10167 10162 10161 10158 ] final   91.13 input  -65.29 | X-H torsion
[ 10718 10713 10712 10709 ] final  105.69 input   66.30 | X-H torsion
[ 10763 10752 10751 10750 ] final   68.56 input  -60.55 | X-H torsion
[ 11005 11000 10999 10996 ] final -135.31 input  -57.11 | X-H torsion

> <Gold.Protein.ActiveResidues>
 VAL166  LYS551  ARG553  GLY616  TRP617  ASP618  TYR619  PRO620  LYS621  CYS622 
 ASP623  PHE694  ASN695  SER759  ASP760  ASP761  ALA762  ILE779  LEU786  VAL792 
 PHE793  MET794  SER795  GLU796  ALA797  LYS798  CYS799  TRP800  GLU811  SER814 

> <Gold.Protein.RotatedAtoms>
  151.0715  133.5462  159.2626 H   0  0  0  0  0  0  0  0  0  0  0  0  # atno 6907 bound_to 6896
  151.2400  135.0585  159.9031 H   0  0  0  0  0  0  0  0  0  0  0  0  # atno 6908 bound_to 6896
  152.5412  134.0491  159.8156 H   0  0  0  0  0  0  0  0  0  0  0  0  # atno 6909 bound_to 6896
  144.8000  139.7121  143.6185 H   0  0  0  0  0  0  0  0  0  0  0  0  # atno 7974 bound_to 7965
  154.8330  140.2902  155.5709 H   0  0  0  0  0  0  0  0  0  0  0  0  # atno 8008 bound_to 7997
  156.3007  140.2528  156.3190 H   0  0  0  0  0  0  0  0  0  0  0  0  # atno 8009 bound_to 7997
  154.9210  140.0386  157.1987 H   0  0  0  0  0  0  0  0  0  0  0  0  # atno 8010 bound_to 7997
  139.8405  144.6643  150.9289 H   0  0  0  0  0  0  0  0  0  0  0  0  # atno 10167 bound_to 10162
  157.6696  131.0833  150.5895 H   0  0  0  0  0  0  0  0  0  0  0  0  # atno 10718 bound_to 10713
  153.0241  135.5243  154.7153 H   0  0  0  0  0  0  0  0  0  0  0  0  # atno 10763 bound_to 10752
  154.6223  135.2890  155.0313 H   0  0  0  0  0  0  0  0  0  0  0  0  # atno 10764 bound_to 10752
  154.1295  135.6595  153.4972 H   0  0  0  0  0  0  0  0  0  0  0  0  # atno 10765 bound_to 10752
  140.8910  134.1812  157.4528 H   0  0  0  0  0  0  0  0  0  0  0  0  # atno 11005 bound_to 11000
  146.2279  139.5758  142.9574 LP  0  0  0  0  0  0  0  0  0  0  0  0  # atno 17320 bound_to 7965
  145.5576  141.0407  143.2244 LP  0  0  0  0  0  0  0  0  0  0  0  0  # atno 17321 bound_to 7965
  140.7798  143.3917  151.1299 LP  0  0  0  0  0  0  0  0  0  0  0  0  # atno 17342 bound_to 10162
  139.7564  143.8701  152.3089 LP  0  0  0  0  0  0  0  0  0  0  0  0  # atno 17343 bound_to 10162
  156.6195  130.4402  149.5827 LP  0  0  0  0  0  0  0  0  0  0  0  0  # atno 17370 bound_to 10713
  156.2366  130.6826  151.1516 LP  0  0  0  0  0  0  0  0  0  0  0  0  # atno 17371 bound_to 10713
  139.8729  134.9858  156.5298 LP  0  0  0  0  0  0  0  0  0  0  0  0  # atno 17394 bound_to 11000
  140.8347  133.8251  155.9017 LP  0  0  0  0  0  0  0  0  0  0  0  0  # atno 17395 bound_to 11000

$$$$
