#       Name:                AV-unprocessed.smi:527
#       Creating user name   scv26
#       Creation time:       Thu Mar 26 23:30:57 2020


#       File generated by GOLD software.
#

@<TRIPOS>MOLECULE
AV-unprocessed.smi:527
    47    48     1
SMALL
NO_CHARGES


@<TRIPOS>ATOM
      1 ****        -4.3925  -1.8267  -2.1625 C.3            1 S1                 0.0000
      2 ****        -3.7355  -1.1247  -0.9623 C.3            1 S1                 0.0000
      3 ****        -4.1625  -1.7614   0.3760 C.3            1 S1                 0.0000
      4 ****        -3.5835  -0.9935   1.5748 C.3            1 S1                 0.0000
      5 ****        -2.0565  -0.8590   1.4762 C.3            1 S1                 0.0000
      6 ****        -1.6386  -0.2189   0.1384 C.3            1 S1                 0.0000
      7 ****        -0.1852  -0.0745   0.0906 N.am           1 S1                 0.0000
      8 ****         0.4807   0.8445  -0.6237 C.2            1 S1                 0.0000
      9 ****        -0.0749   1.6900  -1.3281 O.2            1 S1                 0.0000
     10 ****         1.8108   0.7088  -0.4612 N.am           1 S1                 0.0000
     11 ****         2.7861   1.4570  -1.0161 C.2            1 S1                 0.0000
     12 ****         2.6083   2.4069  -1.7807 O.2            1 S1                 0.0000
     13 ****         4.2151   1.0744  -0.6292 C.3            1 S1                 0.0000
     14 ****         4.6753   1.8539   0.5236 N.pl3          1 S1                 0.0000
     15 ****         4.6364   1.4882   1.8452 C.2            1 S1                 0.0000
     16 ****         5.1652   2.5348   2.5561 C.2            1 S1                 0.0000
     17 ****         5.5036   3.4945   1.6398 N.pl3          1 S1                 1.0000
     18 ****         5.2049   3.0790   0.4047 C.2            1 S1                 0.0000
     19 ****        -2.1917  -1.0135  -1.0765 C.3            1 S1                 0.0000
     20 ****        -1.4883  -2.3751  -1.2860 C.3            1 S1                 0.0000
     21 ****        -4.1532  -2.8897  -2.1925 H              1 S1                 0.0000
     22 ****        -4.0702  -1.3815  -3.1042 H              1 S1                 0.0000
     23 ****        -5.4784  -1.7410  -2.1143 H              1 S1                 0.0000
     24 ****        -4.1222  -0.1042  -0.9643 H              1 S1                 0.0000
     25 ****        -5.2505  -1.7740   0.4496 H              1 S1                 0.0000
     26 ****        -3.8435  -2.8032   0.4170 H              1 S1                 0.0000
     27 ****        -4.0318  -0.0002   1.6192 H              1 S1                 0.0000
     28 ****        -3.8541  -1.4951   2.5041 H              1 S1                 0.0000
     29 ****        -1.6939  -0.2530   2.3074 H              1 S1                 0.0000
     30 ****        -1.5932  -1.8397   1.5892 H              1 S1                 0.0000
     31 ****        -2.0753   0.7819   0.1153 H              1 S1                 0.0000
     32 ****         0.3502  -0.7315   0.6389 H              1 S1                 0.0000
     33 ****         2.1110  -0.0376   0.1480 H              1 S1                 0.0000
     34 ****         4.2801   0.0145  -0.3783 H              1 S1                 0.0000
     35 ****         4.8939   1.2546  -1.4643 H              1 S1                 0.0000
     36 ****         4.2450   0.5362   2.1739 H              1 S1                 0.0000
     37 ****         5.3210   2.6654   3.6171 H              1 S1                 0.0000
     38 ****         5.3568   3.6269  -0.5086 H              1 S1                 0.0000
     39 ****        -1.9816  -0.4221  -1.9690 H              1 S1                 0.0000
     40 ****        -1.6548  -3.0567  -0.4524 H              1 S1                 0.0000
     41 ****        -0.4112  -2.2566  -1.4021 H              1 S1                 0.0000
     42 ****        -1.8386  -2.8702  -2.1909 H              1 S1                 0.0000
     43 ****         5.9185   4.3908   1.8621 H              1 S1                 0.0000
     44 ****        -1.0729   1.7137  -1.3876 LP             1 S1                 0.0000
     45 ****         0.4723   2.3522  -1.8400 LP             1 S1                 0.0000
     46 ****         1.6796   2.6769  -2.0352 LP             1 S1                 0.0000
     47 ****         3.3926   2.9078  -2.1466 LP             1 S1                 0.0000
@<TRIPOS>BOND
    1    1    2 1     
    2    1   21 1     
    3    1   22 1     
    4    1   23 1     
    5    2   19 1     
    6    2    3 1     
    7    2   24 1     
    8    3    4 1     
    9    3   25 1     
   10    3   26 1     
   11    4    5 1     
   12    4   27 1     
   13    4   28 1     
   14    5    6 1     
   15    5   29 1     
   16    5   30 1     
   17    6    7 1     
   18    6   19 1     
   19    6   31 1     
   20    7    8 1     
   21    7   32 1     
   22    8    9 2     
   23    8   10 1     
   24   10   11 1     
   25   10   33 1     
   26   11   12 2     
   27   11   13 1     
   28   13   14 1     
   29   13   34 1     
   30   13   35 1     
   31   14   18 1     
   32   14   15 1     
   33   15   16 2     
   34   15   36 1     
   35   16   17 1     
   36   16   37 1     
   37   17   18 2     
   38   17   43 1     
   39   18   38 1     
   40   19   20 1     
   41   19   39 1     
   42   20   40 1     
   43   20   41 1     
   44   20   42 1     
   45    9   44 1     
   46    9   45 1     
   47   12   46 1     
   48   12   47 1     
@<TRIPOS>SUBSTRUCTURE
      1 S1             1
@<TRIPOS>SET
LONE_PAIRS      STATIC     ATOMS    <user>   **** ""
4 44 45 46 47
DONOR_HYDROGENS      STATIC     ATOMS    <user>   **** ""
3 32 33 43
ATOM$BLUE        STATIC     ATOMS    COLORGROUP SYSTEM
4 44 45 46 47
ATOM$RED        STATIC     ATOMS    COLORGROUP SYSTEM
3 32 33 43
