AV-unprocessed.smi:1720|AV-procd|sdf|6933|dock1
  -GOLD-   22720 8143D 1   1.00000     0.00000
 Structure written by MMmdl.
 32 33  0  0  0  0  0  0  0  0  1 V2000
  146.8131  138.9182  151.4016 C   0  0  0  0  0  0  0  0  0  0  0  0
  146.4719  138.3916  152.8032 C   0  0  2  0  0  0  0  0  0  0  0  0
  145.0221  138.4450  152.9852 N   0  0  0  0  0  0  0  0  0  0  0  0
  144.2060  137.3883  153.1100 C   0  0  0  0  0  0  0  0  0  0  0  0
  144.5920  136.2195  153.0945 O   0  0  0  0  0  0  0  0  0  0  0  0
  142.9289  137.7762  153.2580 N   0  0  0  0  0  0  0  0  0  0  0  0
  141.7903  136.9466  153.4191 C   0  0  0  0  0  0  0  0  0  0  0  0
  141.8364  135.5593  153.7248 C   0  0  0  0  0  0  0  0  0  0  0  0
  140.6191  135.0432  153.8152 N   0  0  0  0  0  0  0  0  0  0  0  0
  139.7962  136.0882  153.5721 N   0  0  0  0  0  0  0  0  0  0  0  0
  140.4649  137.2672  153.3267 C   0  0  0  0  0  0  0  0  0  0  0  0
  147.1858  139.1959  153.9094 C   0  0  1  0  0  0  0  0  0  0  0  0
  148.7128  139.0857  153.9079 C   0  0  0  0  0  0  0  0  0  0  0  0
  149.1131  140.3628  154.6088 C   0  0  0  0  0  0  0  0  0  0  0  0
  148.0965  141.3517  154.0480 C   0  0  0  0  0  0  0  0  0  0  0  0
  146.9266  140.5906  153.7596 O   0  0  0  0  0  0  0  0  0  0  0  0
  138.7916  135.9822  153.5760 H   0  0  0  0  0  0  0  0  0  0  0  0
  147.8835  138.8509  151.2055 H   0  0  0  0  0  0  0  0  0  0  0  0
  146.5188  139.9620  151.2854 H   0  0  0  0  0  0  0  0  0  0  0  0
  146.3034  138.3399  150.6302 H   0  0  0  0  0  0  0  0  0  0  0  0
  146.8152  137.3567  152.8554 H   0  0  0  0  0  0  0  0  0  0  0  0
  144.6079  139.3653  153.0135 H   0  0  0  0  0  0  0  0  0  0  0  0
  142.7521  138.7700  153.2593 H   0  0  0  0  0  0  0  0  0  0  0  0
  142.6950  134.9225  153.8801 H   0  0  0  0  0  0  0  0  0  0  0  0
  139.9483  138.1920  153.1169 H   0  0  0  0  0  0  0  0  0  0  0  0
  146.8129  138.8963  154.8906 H   0  0  0  0  0  0  0  0  0  0  0  0
  149.0767  138.1896  154.4115 H   0  0  0  0  0  0  0  0  0  0  0  0
  149.0988  139.0857  152.8874 H   0  0  0  0  0  0  0  0  0  0  0  0
  148.9814  140.2555  155.6865 H   0  0  0  0  0  0  0  0  0  0  0  0
  150.1455  140.6560  154.4158 H   0  0  0  0  0  0  0  0  0  0  0  0
  147.8826  142.1657  154.7406 H   0  0  0  0  0  0  0  0  0  0  0  0
  148.4623  141.7869  153.1174 H   0  0  0  0  0  0  0  0  0  0  0  0
  1  2  1  0  0  0  0
  1 18  1  0  0  0  0
  1 19  1  0  0  0  0
  1 20  1  0  0  0  0
  2  3  1  0  0  0  0
  2 12  1  0  0  0  0
  2 21  1  0  0  0  0
  3  4  1  0  0  0  0
  3 22  1  0  0  0  0
  4  5  2  0  0  0  0
  4  6  1  0  0  0  0
  6  7  1  0  0  0  0
  6 23  1  0  0  0  0
  7 11  2  0  0  0  0
  7  8  1  0  0  0  0
  8  9  2  0  0  0  0
  8 24  1  0  0  0  0
  9 10  1  0  0  0  0
 10 17  1  0  0  0  0
 10 11  1  0  0  0  0
 11 25  1  0  0  0  0
 12 16  1  0  0  0  0
 12 13  1  0  0  0  0
 12 26  1  0  0  0  0
 13 14  1  0  0  0  0
 13 27  1  0  0  0  0
 13 28  1  0  0  0  0
 14 15  1  0  0  0  0
 14 29  1  0  0  0  0
 14 30  1  0  0  0  0
 15 16  1  0  0  0  0
 15 31  1  0  0  0  0
 15 32  1  0  0  0  0
M  END
> <s_m_source_file>
AV-unprocessed.smi

> <i_m_source_file_index>
1720

> <i_lp_mmshare_version>
43012

> <i_f3d_flags>
0

> <s_epik_input>
TzFbQ0gyXVtDSDJdW0NIMl1bQ0BIXTFbQ0BIXShbQ0gzXSlbTkhdQyg9TylbTkhdYzJbY0hdbltuSF1bY0hdMg==

> <s_epik_cmdline>
J2VwaWtfcHl0aG9uJywgJy1waCcsICc3LjAnLCAnLXRuJywgJzgnLCAnLW1hJywgJzIwMCcsICctbWV0YWxfYmluZGluZycsICctaW1hZScsICc8aW5maWxlLm1hZT4nLCAnLW9tYWUnLCAnPG91dGZpbGUubWFlPic=

> <r_lp_tautomer_probability>
1

> <r_epik_Ionization_Penalty>
4.95841e-05

> <r_epik_Ionization_Penalty_Charging>
0

> <r_epik_Ionization_Penalty_Neutral>
4.95841e-05

> <r_epik_State_Penalty>
-0

> <r_epik_Charging_Adjusted_Penalty>
0

> <i_epik_Tot_Q>
0

> <i_epik_Tot_abs_Q>
0

> <r_epik_Metal_State_Penalty>
-0

> <b_epik_Metal_Only>
0

> <s_lp_Force_Field>
OPLS_2005

> <r_lp_Energy>
20.0516

> <b_lp_Chiralities_Consistent>
1

> <s_lp_Variant>
AV-unprocessed.smi:1720-3

> <Gold.Version>
5.8.1

> <Gold.Id.Protein>
6NUR|6NUR_protein|mol2

> <Gold.PLP.Fitness>
35.8701

> <Gold.PLP.PLP>
-27.8238

> <Gold.PLP.part.hbond>
-4.5090

> <Gold.PLP.part.metal>
0.0000

> <Gold.PLP.part.buried>
-1.5269

> <Gold.PLP.part.nonpolar>
-22.4853

> <Gold.PLP.part.repulsive>
0.5852

> <Gold.PLP.ligand.clash>
0.0000

> <Gold.PLP.ligand.torsion>
0.1170

> <Gold.PLP.Chemscore.Hbond>
2.7520

> <Gold.PLP.Chemscore.CHOScore>
0.0000

> <Gold.PLP.Chemscore.Metal>
0.0000

> <Gold.Chemscore.Hbonds>
donor molecule, donor type, donor heavy atom, donor atom, acceptor molecule, acceptor atom, score
      L1  H     3    22       P1 10175  1.00
      L1  H     6    23       P1 10175  0.75
      P1  H 11000 11005       L1     9  0.93

> <Gold.PLP.Chemscore.Internal.Correction>
0.0243

> <Gold.Rescore>
     Score         DG    S(hbond)    S(metal)    S(lipo)     H(rot)  DE(clash)    DE(int)     intcor
     16.55     -18.32       2.76        0.00      59.53       1.31       0.38       1.38       ----

> <Gold.Chemscore.Fitness>
16.5547

> <Gold.Chemscore.DG>
-18.3176

> <Gold.Chemscore.ZeroCoef>
-5.4800

> <Gold.Chemscore.Hbond>
2.7608

> <Gold.Chemscore.Metal>
0.0000

> <Gold.Chemscore.Lipo>
59.5292

> <Gold.Chemscore.Internal_Hbond>
0.0000

> <Gold.Chemscore.DEClash>
0.3832

> <Gold.Chemscore.DEInternal>
1.3796

> <Gold.Chemscore.Rot>
1.3079

> <Gold.Chemscore.Internal.Correction>
   9.000000E+99

> <Gold.Chemscore.Hbonds>
donor molecule, donor type, donor heavy atom, donor atom, acceptor molecule, acceptor atom, score
      L1  H     3    22       P1 10175  0.90
      L1  H     6    23       P1 10175  0.68
      P1  H 11000 11005       L1     9  0.46

> <Gold.Chemscore.Hbond.Weighted>
-9.2210

> <Gold.Chemscore.Metal.Weighted>
-0.0000

> <Gold.Chemscore.Lipo.Weighted>
-6.9649

> <Gold.Chemscore.Internal_Hbond.Weighted>
0.0000

> <Gold.Chemscore.DEClash.Weighted>
0.3832

> <Gold.Chemscore.DEInternal.Weighted>
1.3796

> <Gold.Chemscore.Rot.Weighted>
3.3483

> <Gold.Chemscore.Internal.Correction.Weighted>
   9.000000E+99

> <Gold.Protein.RotatedTorsions>
[ 6907 6896 6895 6894 ] final  -26.84 input  -60.11 | X-H torsion
[ 7974 7965 7964 7962 ] final  145.80 input  175.53 | X-H torsion
[ 8008 7997 7996 7995 ] final   20.10 input   59.86 | X-H torsion
[ 10167 10162 10161 10158 ] final  -36.52 input  -65.29 | X-H torsion
[ 10718 10713 10712 10709 ] final  -10.92 input   66.30 | X-H torsion
[ 10763 10752 10751 10750 ] final  -85.47 input  -60.55 | X-H torsion
[ 11005 11000 10999 10996 ] final   33.33 input  -57.11 | X-H torsion

> <Gold.Protein.ActiveResidues>
 VAL166  LYS551  ARG553  GLY616  TRP617  ASP618  TYR619  PRO620  LYS621  CYS622 
 ASP623  PHE694  ASN695  SER759  ASP760  ASP761  ALA762  ILE779  LEU786  VAL792 
 PHE793  MET794  SER795  GLU796  ALA797  LYS798  CYS799  TRP800  GLU811  SER814 

> <Gold.Protein.RotatedAtoms>
  151.1554  135.0247  159.8686 H   0  0  0  0  0  0  0  0  0  0  0  0  # atno 6907 bound_to 6896
  152.5452  134.1341  159.8461 H   0  0  0  0  0  0  0  0  0  0  0  0  # atno 6908 bound_to 6896
  151.1430  133.4912  159.2629 H   0  0  0  0  0  0  0  0  0  0  0  0  # atno 6909 bound_to 6896
  144.8723  139.5827  143.5881 H   0  0  0  0  0  0  0  0  0  0  0  0  # atno 7974 bound_to 7965
  154.9306  140.3040  155.5169 H   0  0  0  0  0  0  0  0  0  0  0  0  # atno 8008 bound_to 7997
  156.3004  140.2354  156.4302 H   0  0  0  0  0  0  0  0  0  0  0  0  # atno 8009 bound_to 7997
  154.8241  140.0422  157.1420 H   0  0  0  0  0  0  0  0  0  0  0  0  # atno 8010 bound_to 7997
  140.7141  143.3403  151.2371 H   0  0  0  0  0  0  0  0  0  0  0  0  # atno 10167 bound_to 10162
  156.6665  130.4997  149.6014 H   0  0  0  0  0  0  0  0  0  0  0  0  # atno 10718 bound_to 10713
  154.6114  135.5484  153.7477 H   0  0  0  0  0  0  0  0  0  0  0  0  # atno 10763 bound_to 10752
  153.0197  135.6390  154.1573 H   0  0  0  0  0  0  0  0  0  0  0  0  # atno 10764 bound_to 10752
  154.1510  135.2902  155.3115 H   0  0  0  0  0  0  0  0  0  0  0  0  # atno 10765 bound_to 10752
  140.2642  134.3157  155.7848 H   0  0  0  0  0  0  0  0  0  0  0  0  # atno 11005 bound_to 11000
  146.2939  139.7219  142.9141 LP  0  0  0  0  0  0  0  0  0  0  0  0  # atno 17320 bound_to 7965
  145.4107  141.0396  143.3018 LP  0  0  0  0  0  0  0  0  0  0  0  0  # atno 17321 bound_to 7965
  139.6909  143.9693  152.2859 LP  0  0  0  0  0  0  0  0  0  0  0  0  # atno 17342 bound_to 10162
  139.9355  144.6715  150.8320 LP  0  0  0  0  0  0  0  0  0  0  0  0  # atno 17343 bound_to 10162
  156.1971  130.6596  151.1126 LP  0  0  0  0  0  0  0  0  0  0  0  0  # atno 17370 bound_to 10713
  157.7092  131.0742  150.6561 LP  0  0  0  0  0  0  0  0  0  0  0  0  # atno 17371 bound_to 10713
  141.2186  133.7428  156.9234 LP  0  0  0  0  0  0  0  0  0  0  0  0  # atno 17394 bound_to 11000
  140.1435  134.9278  157.2498 LP  0  0  0  0  0  0  0  0  0  0  0  0  # atno 17395 bound_to 11000

$$$$
