AV-unprocessed.smi:155|AV-procd|sdf|1269|dock2
  -GOLD-   2262018523D 1   1.00000     0.00000
 Structure written by MMmdl.
 63 66  0  0  0  0  0  0  0  0  2 V2000
  145.9204  132.5434  150.2757 C   0  0  0  0  0  0  0  0  0  0  0  0
  145.6769  133.4453  151.3964 N   0  0  0  0  0  0  0  0  0  0  0  0
  144.3051  133.9268  151.3046 C   0  0  0  0  0  0  0  0  0  0  0  0
  146.5899  134.5873  151.3759 C   0  0  0  0  0  0  0  0  0  0  0  0
  146.6409  135.3628  152.7155 C   0  0  0  0  0  0  0  0  0  0  0  0
  147.7704  134.9975  153.6123 N   0  3  2  0  0  0  0  0  0  0  0  0
  148.5549  133.8158  153.1578 C   0  0  0  0  0  0  0  0  0  0  0  0
  149.7197  133.4349  154.0961 C   0  0  0  0  0  0  0  0  0  0  0  0
  150.6157  134.6140  154.5250 C   0  0  0  0  0  0  0  0  0  0  0  0
  149.8729  135.6750  155.2096 N   0  0  0  0  0  0  0  0  0  0  0  0
  150.3016  136.9592  155.1006 C   0  0  0  0  0  0  0  0  0  0  0  0
  150.3938  137.5023  153.8584 N   0  0  0  0  0  0  0  0  0  0  0  0
  150.8192  138.7587  153.6975 C   0  0  0  0  0  0  0  0  0  0  0  0
  151.1904  139.6386  154.6286 N   0  0  0  0  0  0  0  0  0  0  0  0
  151.0857  139.1076  155.8799 C   0  0  0  0  0  0  0  0  0  0  0  0
  150.6534  137.7900  156.2054 C   0  0  0  0  0  0  0  0  0  0  0  0
  150.6594  137.6252  157.5869 N   0  0  0  0  0  0  0  0  0  0  0  0
  151.0893  138.7679  158.0476 C   0  0  0  0  0  0  0  0  0  0  0  0
  151.3702  139.7140  157.0903 N   0  0  0  0  0  0  0  0  0  0  0  0
  151.8632  141.0601  157.3230 C   0  0  0  0  0  0  0  0  0  0  0  0
  152.0598  141.3616  158.8216 C   0  0  1  0  0  0  0  0  0  0  0  0
  153.1258  140.5769  159.3221 O   0  0  0  0  0  0  0  0  0  0  0  0
  152.3676  142.8477  159.0806 C   0  0  2  0  0  0  0  0  0  0  0  0
  152.2223  143.2826  160.5413 C   0  0  0  0  0  0  0  0  0  0  0  0
  151.8710  144.7605  160.4524 C   0  0  0  0  0  0  0  0  0  0  0  0
  151.5535  144.9809  158.9719 C   0  0  0  0  0  0  0  0  0  0  0  0
  151.4136  143.6749  158.4328 O   0  0  0  0  0  0  0  0  0  0  0  0
  148.6563  135.3610  155.9621 C   0  0  0  0  0  0  0  0  0  0  0  0
  147.4403  135.0204  155.0639 C   0  0  0  0  0  0  0  0  0  0  0  0
  146.9179  132.1083  150.3185 H   0  0  0  0  0  0  0  0  0  0  0  0
  145.8128  133.0580  149.3196 H   0  0  0  0  0  0  0  0  0  0  0  0
  145.2101  131.7161  150.2945 H   0  0  0  0  0  0  0  0  0  0  0  0
  144.0692  134.5783  152.1467 H   0  0  0  0  0  0  0  0  0  0  0  0
  143.6027  133.0928  151.3291 H   0  0  0  0  0  0  0  0  0  0  0  0
  144.1396  134.4861  150.3824 H   0  0  0  0  0  0  0  0  0  0  0  0
  147.5898  134.2277  151.1271 H   0  0  0  0  0  0  0  0  0  0  0  0
  146.3156  135.2676  150.5697 H   0  0  0  0  0  0  0  0  0  0  0  0
  146.6228  136.4420  152.5683 H   0  0  0  0  0  0  0  0  0  0  0  0
  145.7254  135.1402  153.2648 H   0  0  0  0  0  0  0  0  0  0  0  0
  147.9049  132.9481  153.0588 H   0  0  0  0  0  0  0  0  0  0  0  0
  148.9465  134.0292  152.1625 H   0  0  0  0  0  0  0  0  0  0  0  0
  149.3295  132.9272  154.9786 H   0  0  0  0  0  0  0  0  0  0  0  0
  150.3379  132.6886  153.5963 H   0  0  0  0  0  0  0  0  0  0  0  0
  151.4055  134.2572  155.1868 H   0  0  0  0  0  0  0  0  0  0  0  0
  151.1058  135.0193  153.6384 H   0  0  0  0  0  0  0  0  0  0  0  0
  150.8702  139.1085  152.6767 H   0  0  0  0  0  0  0  0  0  0  0  0
  151.2153  138.9540  159.1045 H   0  0  0  0  0  0  0  0  0  0  0  0
  152.7994  141.1914  156.7790 H   0  0  0  0  0  0  0  0  0  0  0  0
  151.1505  141.7610  156.8871 H   0  0  0  0  0  0  0  0  0  0  0  0
  151.1568  141.0816  159.3657 H   0  0  0  0  0  0  0  0  0  0  0  0
  152.9201  139.6654  159.1797 H   0  0  0  0  0  0  0  0  0  0  0  0
  153.3631  143.1037  158.7122 H   0  0  0  0  0  0  0  0  0  0  0  0
  151.4035  142.7430  161.0188 H   0  0  0  0  0  0  0  0  0  0  0  0
  153.1267  143.0981  161.1216 H   0  0  0  0  0  0  0  0  0  0  0  0
  151.0109  144.9885  161.0826 H   0  0  0  0  0  0  0  0  0  0  0  0
  152.6988  145.3946  160.7713 H   0  0  0  0  0  0  0  0  0  0  0  0
  150.6505  145.5721  158.8184 H   0  0  0  0  0  0  0  0  0  0  0  0
  152.3811  145.4872  158.4730 H   0  0  0  0  0  0  0  0  0  0  0  0
  148.8756  134.5092  156.6065 H   0  0  0  0  0  0  0  0  0  0  0  0
  148.4067  136.1697  156.6495 H   0  0  0  0  0  0  0  0  0  0  0  0
  146.6759  135.7778  155.2409 H   0  0  0  0  0  0  0  0  0  0  0  0
  146.9980  134.0696  155.3637 H   0  0  0  0  0  0  0  0  0  0  0  0
  148.4134  135.7695  153.5071 H   0  0  0  0  0  0  0  0  0  0  0  0
  1  2  1  0  0  0  0
  1 30  1  0  0  0  0
  1 31  1  0  0  0  0
  1 32  1  0  0  0  0
  2  3  1  0  0  0  0
  2  4  1  0  0  0  0
  3 33  1  0  0  0  0
  3 34  1  0  0  0  0
  3 35  1  0  0  0  0
  4  5  1  0  0  0  0
  4 36  1  0  0  0  0
  4 37  1  0  0  0  0
  5  6  1  0  0  0  0
  5 38  1  0  0  0  0
  5 39  1  0  0  0  0
  6 29  1  0  0  0  0
  6  7  1  0  0  0  0
  6 63  1  0  0  0  0
  7  8  1  0  0  0  0
  7 40  1  0  0  0  0
  7 41  1  0  0  0  0
  8  9  1  0  0  0  0
  8 42  1  0  0  0  0
  8 43  1  0  0  0  0
  9 10  1  0  0  0  0
  9 44  1  0  0  0  0
  9 45  1  0  0  0  0
 10 11  1  0  0  0  0
 10 28  1  0  0  0  0
 11 16  1  0  0  0  0
 11 12  2  0  0  0  0
 12 13  1  0  0  0  0
 13 14  2  0  0  0  0
 13 46  1  0  0  0  0
 14 15  1  0  0  0  0
 15 19  1  0  0  0  0
 15 16  2  0  0  0  0
 16 17  1  0  0  0  0
 17 18  2  0  0  0  0
 18 19  1  0  0  0  0
 18 47  1  0  0  0  0
 19 20  1  0  0  0  0
 20 21  1  0  0  0  0
 20 48  1  0  0  0  0
 20 49  1  0  0  0  0
 21 22  1  0  0  0  0
 21 23  1  0  0  0  0
 21 50  1  0  0  0  0
 22 51  1  0  0  0  0
 23 27  1  0  0  0  0
 23 24  1  0  0  0  0
 23 52  1  0  0  0  0
 24 25  1  0  0  0  0
 24 53  1  0  0  0  0
 24 54  1  0  0  0  0
 25 26  1  0  0  0  0
 25 55  1  0  0  0  0
 25 56  1  0  0  0  0
 26 27  1  0  0  0  0
 26 57  1  0  0  0  0
 26 58  1  0  0  0  0
 28 29  1  0  0  0  0
 28 59  1  0  0  0  0
 28 60  1  0  0  0  0
 29 61  1  0  0  0  0
 29 62  1  0  0  0  0
M  CHG  1   6   1
M  END
> <s_m_source_file>
AV-unprocessed.smi

> <i_m_source_file_index>
155

> <i_lp_mmshare_version>
43012

> <i_f3d_flags>
0

> <s_epik_input>
W0NIM11OKFtDSDNdKVtDSDJdW0NIMl1OMVtDSDJdW0NIMl1bQ0gyXU4oW0NIMl1bQ0gyXTEpYyhuW2NIXW4yKWMoYzIzKW5bY0hdbjNbQ0gyXVtDQEhdKFtPSF0pW0NAQEhdNFtDSDJdW0NIMl1bQ0gyXU80

> <s_epik_cmdline>
J2VwaWtfcHl0aG9uJywgJy1waCcsICc3LjAnLCAnLXRuJywgJzgnLCAnLW1hJywgJzIwMCcsICctbWV0YWxfYmluZGluZycsICctaW1hZScsICc8aW5maWxlLm1hZT4nLCAnLW9tYWUnLCAnPG91dGZpbGUubWFlPic=

> <r_epik_Ionization_Penalty>
0.0619615

> <r_epik_Ionization_Penalty_Charging>
0.0161638

> <r_epik_Ionization_Penalty_Neutral>
0.0457976

> <r_epik_State_Penalty>
0.403408

> <r_epik_Charging_Adjusted_Penalty>
0.419572

> <i_epik_Tot_Q>
1

> <i_epik_Tot_abs_Q>
1

> <r_epik_Metal_State_Penalty>
0.404222

> <b_epik_Metal_Only>
0

> <s_lp_Force_Field>
OPLS_2005

> <r_lp_Energy>
55.2712

> <b_lp_Chiralities_Consistent>
1

> <s_lp_Variant>
AV-unprocessed.smi:155-3

> <Gold.Version>
5.8.1

> <Gold.Id.Protein>
6NUR|6NUR_protein|mol2

> <Gold.PLP.Fitness>
45.2477

> <Gold.PLP.PLP>
-42.4030

> <Gold.PLP.part.hbond>
-2.0000

> <Gold.PLP.part.metal>
0.0000

> <Gold.PLP.part.buried>
-5.3389

> <Gold.PLP.part.nonpolar>
-36.2877

> <Gold.PLP.part.repulsive>
2.7680

> <Gold.PLP.ligand.clash>
0.0000

> <Gold.PLP.ligand.torsion>
2.2634

> <Gold.PLP.Chemscore.Hbond>
1.3175

> <Gold.PLP.Chemscore.CHOScore>
1.0000

> <Gold.PLP.Chemscore.Metal>
0.0000

> <Gold.Chemscore.Hbonds>
donor molecule, donor type, donor heavy atom, donor atom, acceptor molecule, acceptor atom, score
      L1  H     6    63       P1  7948  0.74
      P1  H  7989  7998       L1    14  0.75
      L1  C    13    46       P1  7957  0.81

> <Gold.PLP.Chemscore.Internal.Correction>
0.4191

> <Gold.Rescore>
     Score         DG    S(hbond)    S(metal)    S(lipo)     H(rot)  DE(clash)    DE(int)     intcor
      9.57     -13.34       0.64        0.00     106.56       2.63       1.56       2.20       ----

> <Gold.Chemscore.Fitness>
9.5695

> <Gold.Chemscore.DG>
-13.3380

> <Gold.Chemscore.ZeroCoef>
-5.4800

> <Gold.Chemscore.Hbond>
0.6376

> <Gold.Chemscore.Metal>
0.0000

> <Gold.Chemscore.Lipo>
106.5579

> <Gold.Chemscore.Internal_Hbond>
0.0000

> <Gold.Chemscore.DEClash>
1.5646

> <Gold.Chemscore.DEInternal>
2.2039

> <Gold.Chemscore.Rot>
2.6324

> <Gold.Chemscore.Internal.Correction>
   9.000000E+99

> <Gold.Chemscore.Hbonds>
donor molecule, donor type, donor heavy atom, donor atom, acceptor molecule, acceptor atom, score
      L1  H     6    63       P1  7948  0.38
      P1  H  7989  7998       L1    14  0.09

> <Gold.Chemscore.Hbond.Weighted>
-2.1296

> <Gold.Chemscore.Metal.Weighted>
-0.0000

> <Gold.Chemscore.Lipo.Weighted>
-12.4673

> <Gold.Chemscore.Internal_Hbond.Weighted>
0.0000

> <Gold.Chemscore.DEClash.Weighted>
1.5646

> <Gold.Chemscore.DEInternal.Weighted>
2.2039

> <Gold.Chemscore.Rot.Weighted>
6.7389

> <Gold.Chemscore.Internal.Correction.Weighted>
   9.000000E+99

> <Gold.Protein.RotatedTorsions>
[ 6907 6896 6895 6894 ] final  121.12 input  -60.11 | X-H torsion
[ 7974 7965 7964 7962 ] final  136.43 input  175.53 | X-H torsion
[ 8008 7997 7996 7995 ] final -167.37 input   59.86 | X-H torsion
[ 10167 10162 10161 10158 ] final  124.24 input  -65.29 | X-H torsion
[ 10718 10713 10712 10709 ] final   28.21 input   66.30 | X-H torsion
[ 10763 10752 10751 10750 ] final   16.16 input  -60.55 | X-H torsion
[ 11005 11000 10999 10996 ] final  -92.06 input  -57.11 | X-H torsion

> <Gold.Protein.ActiveResidues>
 VAL166  LYS551  ARG553  GLY616  TRP617  ASP618  TYR619  PRO620  LYS621  CYS622 
 ASP623  PHE694  ASN695  SER759  ASP760  ASP761  ALA762  ILE779  LEU786  VAL792 
 PHE793  MET794  SER795  GLU796  ALA797  LYS798  CYS799  TRP800  GLU811  SER814 

> <Gold.Protein.RotatedAtoms>
  152.4346  133.7338  159.6601 H   0  0  0  0  0  0  0  0  0  0  0  0  # atno 6907 bound_to 6896
  150.8228  133.8212  159.3137 H   0  0  0  0  0  0  0  0  0  0  0  0  # atno 6908 bound_to 6896
  151.5889  135.1057  160.0086 H   0  0  0  0  0  0  0  0  0  0  0  0  # atno 6909 bound_to 6896
  144.9566  139.4758  143.5500 H   0  0  0  0  0  0  0  0  0  0  0  0  # atno 7974 bound_to 7965
  155.8768  140.1002  157.1513 H   0  0  0  0  0  0  0  0  0  0  0  0  # atno 8008 bound_to 7997
  154.4001  140.1336  156.4210 H   0  0  0  0  0  0  0  0  0  0  0  0  # atno 8009 bound_to 7997
  155.7688  140.3461  155.5238 H   0  0  0  0  0  0  0  0  0  0  0  0  # atno 8010 bound_to 7997
  139.5753  144.6960  151.3671 H   0  0  0  0  0  0  0  0  0  0  0  0  # atno 10167 bound_to 10162
  157.2305  130.7021  149.6311 H   0  0  0  0  0  0  0  0  0  0  0  0  # atno 10718 bound_to 10713
  153.1457  135.6768  153.8959 H   0  0  0  0  0  0  0  0  0  0  0  0  # atno 10763 bound_to 10752
  153.8402  135.3106  155.3426 H   0  0  0  0  0  0  0  0  0  0  0  0  # atno 10764 bound_to 10752
  154.7823  135.4882  153.9955 H   0  0  0  0  0  0  0  0  0  0  0  0  # atno 10765 bound_to 10752
  141.1531  133.7796  156.9967 H   0  0  0  0  0  0  0  0  0  0  0  0  # atno 11005 bound_to 11000
  146.3339  139.8687  142.8843 LP  0  0  0  0  0  0  0  0  0  0  0  0  # atno 17320 bound_to 7965
  145.2763  141.0125  143.3743 LP  0  0  0  0  0  0  0  0  0  0  0  0  # atno 17321 bound_to 7965
  140.7035  143.7571  150.7443 LP  0  0  0  0  0  0  0  0  0  0  0  0  # atno 17342 bound_to 10162
  140.1089  143.4718  152.2382 LP  0  0  0  0  0  0  0  0  0  0  0  0  # atno 17343 bound_to 10162
  155.9676  130.4490  150.5643 LP  0  0  0  0  0  0  0  0  0  0  0  0  # atno 17370 bound_to 10713
  157.3483  131.0729  151.1733 LP  0  0  0  0  0  0  0  0  0  0  0  0  # atno 17371 bound_to 10713
  140.0967  134.9560  157.1860 LP  0  0  0  0  0  0  0  0  0  0  0  0  # atno 17394 bound_to 11000
  140.3373  134.2743  155.7218 LP  0  0  0  0  0  0  0  0  0  0  0  0  # atno 17395 bound_to 11000

$$$$
