#       Name:                AV-unprocessed.smi:1320
#       Creating user name   scv26
#       Creation time:       Fri Mar 27 05:02:58 2020


#       File generated by GOLD software.
#

@<TRIPOS>MOLECULE
AV-unprocessed.smi:1320
    39    40     1
SMALL
NO_CHARGES


@<TRIPOS>ATOM
      1 ****         0.9021   2.0791   0.4436 O.2            1 S1                 0.0000
      2 ****         0.3950   0.9855   0.6860 C.2            1 S1                 0.0000
      3 ****         1.1078  -0.1368   0.8869 N.am           1 S1                 0.0000
      4 ****         2.5619  -0.2471   0.8013 C.3            1 S1                 0.0000
      5 ****         3.0315  -0.8697  -0.5286 C.3            1 S1                 0.0000
      6 ****         2.5561  -0.1206  -1.7628 C.ar           1 S1                 0.0000
      7 ****         3.2929   0.9730  -2.2646 C.ar           1 S1                 0.0000
      8 ****         2.7951   1.6577  -3.3901 C.ar           1 S1                 0.0000
      9 ****         1.5857   1.2250  -3.9674 C.ar           1 S1                 0.0000
     10 ****         0.9253   0.1217  -3.3913 C.ar           1 S1                 0.0000
     11 ****         1.3942  -0.5423  -2.3131 N.ar           1 S1                 0.0000
     12 ****        -0.9379   0.8259   0.7679 N.am           1 S1                 0.0000
     13 ****        -1.9807   1.8407   0.6011 C.3            1 S1                 0.0000
     14 ****        -3.3044   1.3692   1.2335 C.3            1 S1                 0.0000
     15 ****        -4.3916   1.6386   0.1922 C.3            1 S1                 0.0000
     16 ****        -3.6724   1.5040  -1.1457 C.3            1 S1                 0.0000
     17 ****        -2.2881   2.1008  -0.8882 C.3            1 S1                 0.0000
     18 ****         0.5996  -0.9871   1.0829 H              1 S1                 0.0000
     19 ****         3.0318   0.7281   0.9387 H              1 S1                 0.0000
     20 ****         2.9032  -0.8648   1.6320 H              1 S1                 0.0000
     21 ****         4.1210  -0.9164  -0.5440 H              1 S1                 0.0000
     22 ****         2.6878  -1.9035  -0.5882 H              1 S1                 0.0000
     23 ****         4.2126   1.2868  -1.7930 H              1 S1                 0.0000
     24 ****         3.3295   2.5014  -3.8012 H              1 S1                 0.0000
     25 ****         1.1731   1.7272  -4.8298 H              1 S1                 0.0000
     26 ****        -0.0049  -0.2367  -3.8065 H              1 S1                 0.0000
     27 ****        -1.2640  -0.1009   1.0009 H              1 S1                 0.0000
     28 ****        -1.6749   2.7725   1.0806 H              1 S1                 0.0000
     29 ****        -3.2722   0.2982   1.4412 H              1 S1                 0.0000
     30 ****        -3.5118   1.8725   2.1783 H              1 S1                 0.0000
     31 ****        -5.2397   0.9596   0.2849 H              1 S1                 0.0000
     32 ****        -4.7657   2.6569   0.3059 H              1 S1                 0.0000
     33 ****        -3.5757   0.4490  -1.4057 H              1 S1                 0.0000
     34 ****        -4.2005   2.0017  -1.9594 H              1 S1                 0.0000
     35 ****        -2.3220   3.1769  -1.0639 H              1 S1                 0.0000
     36 ****        -1.5380   1.6910  -1.5662 H              1 S1                 0.0000
     37 ****         1.8966   2.1676   0.3870 LP             1 S1                 0.0000
     38 ****         0.3201   2.8801   0.3031 LP             1 S1                 0.0000
     39 ****         0.8976  -1.3224  -1.9327 LP             1 S1                 0.0000
@<TRIPOS>BOND
    1    1    2 2     
    2    2    3 am    
    3    2   12 am    
    4    3    4 1     
    5    3   18 1     
    6    4    5 1     
    7    4   19 1     
    8    4   20 1     
    9    5    6 1     
   10    5   21 1     
   11    5   22 1     
   12    6   11 ar    
   13    6    7 ar    
   14    7    8 ar    
   15    7   23 1     
   16    8    9 ar    
   17    8   24 1     
   18    9   10 ar    
   19    9   25 1     
   20   10   11 ar    
   21   10   26 1     
   22   12   13 1     
   23   12   27 1     
   24   13   17 1     
   25   13   14 1     
   26   13   28 1     
   27   14   15 1     
   28   14   29 1     
   29   14   30 1     
   30   15   16 1     
   31   15   31 1     
   32   15   32 1     
   33   16   17 1     
   34   16   33 1     
   35   16   34 1     
   36   17   35 1     
   37   17   36 1     
   38    1   37 1     
   39    1   38 1     
   40   11   39 1     
@<TRIPOS>SUBSTRUCTURE
      1 S1             1
@<TRIPOS>SET
LONE_PAIRS      STATIC     ATOMS    <user>   **** ""
3 37 38 39
DONOR_HYDROGENS      STATIC     ATOMS    <user>   **** ""
2 18 27
ATOM$BLUE        STATIC     ATOMS    COLORGROUP SYSTEM
3 37 38 39
ATOM$RED        STATIC     ATOMS    COLORGROUP SYSTEM
2 18 27
