AV-unprocessed.smi:2282|AV-procd|sdf|9196|dock3
  -GOLD-   2272012413D 1   1.00000     0.00000
 Structure written by MMmdl.
 32 33  0  0  0  0  0  0  0  0  1 V2000
  152.3710  144.5178  160.1621 C   0  0  0  0  0  0  0  0  0  0  0  0
  152.5741  143.0434  159.8667 C   0  0  0  0  0  0  0  0  0  0  0  0
  153.2789  142.3536  160.7900 N   0  0  0  0  0  0  0  0  0  0  0  0
  153.4825  141.0371  160.5789 C   0  0  0  0  0  0  0  0  0  0  0  0
  153.0047  140.3507  159.4463 C   0  0  0  0  0  0  0  0  0  0  0  0
  152.2799  141.0738  158.4686 C   0  0  0  0  0  0  0  0  0  0  0  0
  151.7331  140.4770  157.2984 N   0  0  0  0  0  0  0  0  0  0  0  0
  152.2109  139.4529  156.5682 C   0  0  0  0  0  0  0  0  0  0  0  0
  153.2513  138.8420  156.8137 O   0  0  0  0  0  0  0  0  0  0  0  0
  151.3663  139.0608  155.3501 C   0  0  1  0  0  0  0  0  0  0  0  0
  150.0515  138.3401  155.7017 C   0  0  0  0  0  0  0  0  0  0  0  0
  148.9837  139.3646  155.3736 C   0  0  0  0  0  0  0  0  0  0  0  0
  149.6386  140.1457  154.2401 C   0  0  1  0  0  0  0  0  0  0  0  0
  149.0314  141.5322  154.0029 C   0  0  0  0  0  0  0  0  0  0  0  0
  150.9866  140.2565  154.6709 O   0  0  0  0  0  0  0  0  0  0  0  0
  152.0495  142.4513  158.6937 C   0  0  0  0  0  0  0  0  0  0  0  0
  151.1500  143.3968  157.5544 Cl  0  0  0  0  0  0  0  0  0  0  0  0
  151.3073  144.7502  160.2193 H   0  0  0  0  0  0  0  0  0  0  0  0
  152.8156  145.1261  159.3738 H   0  0  0  0  0  0  0  0  0  0  0  0
  152.8295  144.8049  161.1094 H   0  0  0  0  0  0  0  0  0  0  0  0
  154.0385  140.5113  161.3410 H   0  0  0  0  0  0  0  0  0  0  0  0
  153.1901  139.2913  159.3590 H   0  0  0  0  0  0  0  0  0  0  0  0
  150.9101  140.9313  156.9297 H   0  0  0  0  0  0  0  0  0  0  0  0
  151.9516  138.4384  154.6710 H   0  0  0  0  0  0  0  0  0  0  0  0
  149.9336  137.4628  155.0645 H   0  0  0  0  0  0  0  0  0  0  0  0
  149.9895  137.9999  156.7366 H   0  0  0  0  0  0  0  0  0  0  0  0
  148.0323  138.9146  155.0885 H   0  0  0  0  0  0  0  0  0  0  0  0
  148.8129  140.0126  156.2346 H   0  0  0  0  0  0  0  0  0  0  0  0
  149.6124  139.5594  153.3199 H   0  0  0  0  0  0  0  0  0  0  0  0
  147.9858  141.4541  153.7042 H   0  0  0  0  0  0  0  0  0  0  0  0
  149.5653  142.0608  153.2130 H   0  0  0  0  0  0  0  0  0  0  0  0
  149.0786  142.1440  154.9043 H   0  0  0  0  0  0  0  0  0  0  0  0
  1  2  1  0  0  0  0
  1 18  1  0  0  0  0
  1 19  1  0  0  0  0
  1 20  1  0  0  0  0
  2 16  1  0  0  0  0
  2  3  2  0  0  0  0
  3  4  1  0  0  0  0
  4  5  2  0  0  0  0
  4 21  1  0  0  0  0
  5  6  1  0  0  0  0
  5 22  1  0  0  0  0
  6  7  1  0  0  0  0
  6 16  2  0  0  0  0
  7  8  1  0  0  0  0
  7 23  1  0  0  0  0
  8  9  2  0  0  0  0
  8 10  1  0  0  0  0
 10 15  1  0  0  0  0
 10 11  1  0  0  0  0
 10 24  1  0  0  0  0
 11 12  1  0  0  0  0
 11 25  1  0  0  0  0
 11 26  1  0  0  0  0
 12 13  1  0  0  0  0
 12 27  1  0  0  0  0
 12 28  1  0  0  0  0
 13 14  1  0  0  0  0
 13 15  1  0  0  0  0
 13 29  1  0  0  0  0
 14 30  1  0  0  0  0
 14 31  1  0  0  0  0
 14 32  1  0  0  0  0
 16 17  1  0  0  0  0
M  END
> <s_m_source_file>
AV-unprocessed.smi

> <i_m_source_file_index>
2282

> <i_lp_mmshare_version>
43012

> <i_f3d_flags>
0

> <s_epik_input>
W0NIM11jMW5bY0hdW2NIXWMoYzFDbClbTkhdQyg9TylbQ0BASF0yW0NIMl1bQ0gyXVtDQEhdKE8yKVtDSDNd

> <s_epik_cmdline>
J2VwaWtfcHl0aG9uJywgJy1waCcsICc3LjAnLCAnLXRuJywgJzgnLCAnLW1hJywgJzIwMCcsICctbWV0YWxfYmluZGluZycsICctaW1hZScsICc8aW5maWxlLm1hZT4nLCAnLW9tYWUnLCAnPG91dGZpbGUubWFlPic=

> <r_epik_Ionization_Penalty>
0.00037231

> <r_epik_Ionization_Penalty_Charging>
0

> <r_epik_Ionization_Penalty_Neutral>
0.00037231

> <r_epik_State_Penalty>
0.000225113

> <r_epik_Charging_Adjusted_Penalty>
0.000225113

> <i_epik_Tot_Q>
0

> <i_epik_Tot_abs_Q>
0

> <r_epik_Metal_State_Penalty>
-0

> <b_epik_Metal_Only>
0

> <s_lp_Force_Field>
OPLS_2005

> <r_lp_Energy>
24.1331

> <b_lp_Chiralities_Consistent>
1

> <s_lp_Variant>
AV-unprocessed.smi:2282-2

> <Gold.Version>
5.8.1

> <Gold.Id.Protein>
6NUR|6NUR_protein|mol2

> <Gold.PLP.Fitness>
38.6472

> <Gold.PLP.PLP>
-33.7141

> <Gold.PLP.part.hbond>
-1.9317

> <Gold.PLP.part.metal>
0.0000

> <Gold.PLP.part.buried>
-3.2188

> <Gold.PLP.part.nonpolar>
-28.0949

> <Gold.PLP.part.repulsive>
0.1617

> <Gold.PLP.ligand.clash>
0.0000

> <Gold.PLP.ligand.torsion>
0.5371

> <Gold.PLP.Chemscore.Hbond>
2.0000

> <Gold.PLP.Chemscore.CHOScore>
0.0000

> <Gold.PLP.Chemscore.Metal>
0.0000

> <Gold.Chemscore.Hbonds>
donor molecule, donor type, donor heavy atom, donor atom, acceptor molecule, acceptor atom, score
      P1  H  7989  7998       L1    15  0.86
      P1  H  7997  8008       L1     9  1.00

> <Gold.PLP.Chemscore.Internal.Correction>
0.0071

> <Gold.Rescore>
     Score         DG    S(hbond)    S(metal)    S(lipo)     H(rot)  DE(clash)    DE(int)     intcor
     19.57     -21.00       1.93        0.00      99.45       1.00       1.11       0.32       ----

> <Gold.Chemscore.Fitness>
19.5702

> <Gold.Chemscore.DG>
-21.0023

> <Gold.Chemscore.ZeroCoef>
-5.4800

> <Gold.Chemscore.Hbond>
1.9300

> <Gold.Chemscore.Metal>
0.0000

> <Gold.Chemscore.Lipo>
99.4532

> <Gold.Chemscore.Internal_Hbond>
0.0000

> <Gold.Chemscore.DEClash>
1.1088

> <Gold.Chemscore.DEInternal>
0.3233

> <Gold.Chemscore.Rot>
1.0000

> <Gold.Chemscore.Internal.Correction>
   9.000000E+99

> <Gold.Chemscore.Hbonds>
donor molecule, donor type, donor heavy atom, donor atom, acceptor molecule, acceptor atom, score
      P1  H  7989  7998       L1    15  0.29
      P1  H  7997  8008       L1     9  0.34

> <Gold.Chemscore.Hbond.Weighted>
-6.4463

> <Gold.Chemscore.Metal.Weighted>
-0.0000

> <Gold.Chemscore.Lipo.Weighted>
-11.6360

> <Gold.Chemscore.Internal_Hbond.Weighted>
0.0000

> <Gold.Chemscore.DEClash.Weighted>
1.1088

> <Gold.Chemscore.DEInternal.Weighted>
0.3233

> <Gold.Chemscore.Rot.Weighted>
2.5600

> <Gold.Chemscore.Internal.Correction.Weighted>
   9.000000E+99

> <Gold.Protein.RotatedTorsions>
[ 6907 6896 6895 6894 ] final   16.62 input  -60.11 | X-H torsion
[ 7974 7965 7964 7962 ] final  -54.51 input  175.53 | X-H torsion
[ 8008 7997 7996 7995 ] final  -64.55 input   59.86 | X-H torsion
[ 10167 10162 10161 10158 ] final -171.56 input  -65.29 | X-H torsion
[ 10718 10713 10712 10709 ] final  156.28 input   66.30 | X-H torsion
[ 10763 10752 10751 10750 ] final  124.64 input  -60.55 | X-H torsion
[ 11005 11000 10999 10996 ] final  -84.78 input  -57.11 | X-H torsion

> <Gold.Protein.ActiveResidues>
 VAL166  LYS551  ARG553  GLY616  TRP617  ASP618  TYR619  PRO620  LYS621  CYS622 
 ASP623  PHE694  ASN695  SER759  ASP760  ASP761  ALA762  ILE779  LEU786  VAL792 
 PHE793  MET794  SER795  GLU796  ALA797  LYS798  CYS799  TRP800  GLU811  SER814 

> <Gold.Protein.RotatedAtoms>
  151.8368  135.0603  160.0443 H   0  0  0  0  0  0  0  0  0  0  0  0  # atno 6907 bound_to 6896
  152.2839  133.5492  159.5523 H   0  0  0  0  0  0  0  0  0  0  0  0  # atno 6908 bound_to 6896
  150.7201  134.0441  159.3818 H   0  0  0  0  0  0  0  0  0  0  0  0  # atno 6909 bound_to 6896
  145.8847  140.8117  142.9822 H   0  0  0  0  0  0  0  0  0  0  0  0  # atno 7974 bound_to 7965
  154.4619  140.0951  156.6915 H   0  0  0  0  0  0  0  0  0  0  0  0  # atno 8008 bound_to 7997
  155.4971  140.3472  155.4346 H   0  0  0  0  0  0  0  0  0  0  0  0  # atno 8009 bound_to 7997
  156.0885  140.1391  156.9611 H   0  0  0  0  0  0  0  0  0  0  0  0  # atno 8010 bound_to 7997
  139.5795  144.1455  152.1496 H   0  0  0  0  0  0  0  0  0  0  0  0  # atno 10167 bound_to 10162
  157.2071  131.0689  151.1991 H   0  0  0  0  0  0  0  0  0  0  0  0  # atno 10718 bound_to 10713
  153.6646  135.3340  155.3136 H   0  0  0  0  0  0  0  0  0  0  0  0  # atno 10763 bound_to 10752
  154.8506  135.4372  154.1768 H   0  0  0  0  0  0  0  0  0  0  0  0  # atno 10764 bound_to 10752
  153.2744  135.7003  153.7524 H   0  0  0  0  0  0  0  0  0  0  0  0  # atno 10765 bound_to 10752
  141.1647  133.7364  156.8918 H   0  0  0  0  0  0  0  0  0  0  0  0  # atno 11005 bound_to 11000
  144.6728  140.1438  143.7435 LP  0  0  0  0  0  0  0  0  0  0  0  0  # atno 17320 bound_to 7965
  145.8980  139.2414  143.1510 LP  0  0  0  0  0  0  0  0  0  0  0  0  # atno 17321 bound_to 7965
  140.1005  144.5543  150.6992 LP  0  0  0  0  0  0  0  0  0  0  0  0  # atno 17342 bound_to 10162
  140.7075  143.2479  151.4682 LP  0  0  0  0  0  0  0  0  0  0  0  0  # atno 17343 bound_to 10162
  157.3709  130.7181  149.6564 LP  0  0  0  0  0  0  0  0  0  0  0  0  # atno 17370 bound_to 10713
  155.9694  130.4199  150.4397 LP  0  0  0  0  0  0  0  0  0  0  0  0  # atno 17371 bound_to 10713
  140.1643  134.9144  157.2754 LP  0  0  0  0  0  0  0  0  0  0  0  0  # atno 17394 bound_to 11000
  140.2575  134.3611  155.7419 LP  0  0  0  0  0  0  0  0  0  0  0  0  # atno 17395 bound_to 11000

$$$$
