#       Name:                AV-unprocessed.smi:2902
#       Creating user name   scv26
#       Creation time:       Fri Mar 27 16:03:42 2020


#       File generated by GOLD software.
#

@<TRIPOS>MOLECULE
AV-unprocessed.smi:2902
    53    54     1
SMALL
NO_CHARGES


@<TRIPOS>ATOM
      1 ****        -3.4768  -1.7525  -2.7037 C.3            1 S1                 0.0000
      2 ****        -1.9552  -1.8634  -2.5452 C.3            1 S1                 0.0000
      3 ****        -1.4072  -0.9797  -1.4095 C.3            1 S1                 0.0000
      4 ****        -1.9059  -1.4967  -0.1757 O.3            1 S1                 0.0000
      5 ****        -1.6071  -0.7484   0.9996 C.3            1 S1                 0.0000
      6 ****        -0.5178  -1.4262   1.8433 C.3            1 S1                 0.0000
      7 ****        -0.8887  -1.1735   3.3131 C.3            1 S1                 0.0000
      8 ****        -2.2163  -0.4078   3.2962 C.3            1 S1                 0.0000
      9 ****        -2.8208  -0.7022   1.9250 C.3            1 S1                 0.0000
     10 ****         0.1304  -0.9600  -1.4125 C.2            1 S1                 0.0000
     11 ****         0.7681  -2.0127  -1.3811 O.2            1 S1                 0.0000
     12 ****         0.7048   0.2523  -1.4280 N.am           1 S1                 0.0000
     13 ****         2.1405   0.5227  -1.3693 C.3            1 S1                 0.0000
     14 ****         2.7246   0.4360  -2.7921 C.3            1 S1                 0.0000
     15 ****         2.3829   1.8993  -0.6960 C.3            1 S1                 0.0000
     16 ****         3.8724   2.2796  -0.6023 C.3            1 S1                 0.0000
     17 ****         1.7802   1.9484   0.6314 N.pl3          1 S1                 0.0000
     18 ****         2.1344   1.3574   1.7754 C.2            1 S1                 0.0000
     19 ****         1.3241   1.6227   2.7901 N.2            1 S1                 0.0000
     20 ****         0.4203   2.4267   2.1563 C.2            1 S1                 0.0000
     21 ****         0.6447   2.6507   0.8616 N.2            1 S1                 0.0000
     22 ****        -3.8277  -2.3781  -3.5246 H              1 S1                 0.0000
     23 ****        -3.7771  -0.7263  -2.9158 H              1 S1                 0.0000
     24 ****        -3.9929  -2.0731  -1.7985 H              1 S1                 0.0000
     25 ****        -1.6879  -2.9061  -2.3676 H              1 S1                 0.0000
     26 ****        -1.4858  -1.5834  -3.4895 H              1 S1                 0.0000
     27 ****        -1.7816   0.0373  -1.5447 H              1 S1                 0.0000
     28 ****        -1.3186   0.2792   0.7697 H              1 S1                 0.0000
     29 ****        -0.5109  -2.5002   1.6524 H              1 S1                 0.0000
     30 ****         0.4750  -1.0492   1.5975 H              1 S1                 0.0000
     31 ****        -1.0091  -2.1256   3.8314 H              1 S1                 0.0000
     32 ****        -0.1152  -0.6144   3.8397 H              1 S1                 0.0000
     33 ****        -2.8759  -0.6947   4.1155 H              1 S1                 0.0000
     34 ****        -2.0220   0.6618   3.3863 H              1 S1                 0.0000
     35 ****        -3.5555   0.0425   1.6173 H              1 S1                 0.0000
     36 ****        -3.3156  -1.6744   1.9432 H              1 S1                 0.0000
     37 ****         0.0956   1.0576  -1.4463 H              1 S1                 0.0000
     38 ****         2.6177  -0.2447  -0.7566 H              1 S1                 0.0000
     39 ****         3.8113   0.5157  -2.7861 H              1 S1                 0.0000
     40 ****         2.3329   1.2283  -3.4308 H              1 S1                 0.0000
     41 ****         2.4819  -0.5176  -3.2621 H              1 S1                 0.0000
     42 ****         1.8950   2.6642  -1.3034 H              1 S1                 0.0000
     43 ****         4.3145   2.4199  -1.5882 H              1 S1                 0.0000
     44 ****         4.4493   1.5136  -0.0834 H              1 S1                 0.0000
     45 ****         4.0019   3.2175  -0.0609 H              1 S1                 0.0000
     46 ****         3.0008   0.7191   1.8677 H              1 S1                 0.0000
     47 ****        -0.4314   2.8562   2.6630 H              1 S1                 0.0000
     48 ****        -1.5257  -2.4137  -0.0558 LP             1 S1                 0.0000
     49 ****        -2.9012  -1.5559  -0.2523 LP             1 S1                 0.0000
     50 ****         0.2863  -2.8885  -1.3534 LP             1 S1                 0.0000
     51 ****         1.7679  -1.9919  -1.3833 LP             1 S1                 0.0000
     52 ****         1.3632   1.3217   3.7429 LP             1 S1                 0.0000
     53 ****         0.1088   3.2000   0.2203 LP             1 S1                 0.0000
@<TRIPOS>BOND
    1    1    2 1     
    2    1   22 1     
    3    1   23 1     
    4    1   24 1     
    5    2    3 1     
    6    2   25 1     
    7    2   26 1     
    8    3    4 1     
    9    3   10 1     
   10    3   27 1     
   11    4    5 1     
   12    5    9 1     
   13    5    6 1     
   14    5   28 1     
   15    6    7 1     
   16    6   29 1     
   17    6   30 1     
   18    7    8 1     
   19    7   31 1     
   20    7   32 1     
   21    8    9 1     
   22    8   33 1     
   23    8   34 1     
   24    9   35 1     
   25    9   36 1     
   26   10   11 2     
   27   10   12 am    
   28   12   13 1     
   29   12   37 1     
   30   13   14 1     
   31   13   15 1     
   32   13   38 1     
   33   14   39 1     
   34   14   40 1     
   35   14   41 1     
   36   15   16 1     
   37   15   17 1     
   38   15   42 1     
   39   16   43 1     
   40   16   44 1     
   41   16   45 1     
   42   17   21 1     
   43   17   18 1     
   44   18   19 2     
   45   18   46 1     
   46   19   20 1     
   47   20   21 2     
   48   20   47 1     
   49    4   48 1     
   50    4   49 1     
   51   11   50 1     
   52   11   51 1     
   53   19   52 1     
   54   21   53 1     
@<TRIPOS>SUBSTRUCTURE
      1 S1             1
@<TRIPOS>SET
LONE_PAIRS      STATIC     ATOMS    <user>   **** ""
6 48 49 50 51 52 53
DONOR_HYDROGENS      STATIC     ATOMS    <user>   **** ""
1 37
ATOM$BLUE        STATIC     ATOMS    COLORGROUP SYSTEM
6 48 49 50 51 52 53
ATOM$RED        STATIC     ATOMS    COLORGROUP SYSTEM
1 37
