#       Name:                AV-unprocessed.smi:543
#       Creating user name   scv26
#       Creation time:       Thu Mar 26 23:36:49 2020


#       File generated by GOLD software.
#

@<TRIPOS>MOLECULE
AV-unprocessed.smi:543
    53    55     1
SMALL
NO_CHARGES


@<TRIPOS>ATOM
      1 ****        -3.6880   2.4959   0.1351 C.3            1 S1                 0.0000
      2 ****        -3.0436   1.2523   0.3424 O.3            1 S1                 0.0000
      3 ****        -3.1054   0.8240   1.6933 C.3            1 S1                 0.0000
      4 ****        -2.3478  -0.5019   1.8481 C.3            1 S1                 0.0000
      5 ****        -0.9418  -0.3721   1.4679 N.pl3          1 S1                 0.0000
      6 ****        -0.3509  -0.5690   0.2539 C.2            1 S1                 0.0000
      7 ****        -1.0644  -0.9891  -0.8758 N.pl3          1 S1                 0.0000
      8 ****        -2.4943  -1.2692  -0.9231 C.3            1 S1                 0.0000
      9 ****        -0.4400  -1.3862  -2.1384 C.3            1 S1                 0.0000
     10 ****         0.4789  -2.5955  -2.0613 C.ar           1 S1                 0.0000
     11 ****         1.8086  -2.4986  -2.5230 C.ar           1 S1                 0.0000
     12 ****         2.6693  -3.6106  -2.4442 C.ar           1 S1                 0.0000
     13 ****         2.2036  -4.8255  -1.9059 C.ar           1 S1                 0.0000
     14 ****         0.8763  -4.9284  -1.4473 C.ar           1 S1                 0.0000
     15 ****         0.0151  -3.8168  -1.5264 C.ar           1 S1                 0.0000
     16 ****         0.9546  -0.2833   0.2287 N.2            1 S1                 0.0000
     17 ****         1.2266   0.1050   1.5286 C.2            1 S1                 0.0000
     18 ****         0.1017   0.0697   2.2853 C.2            1 S1                 0.0000
     19 ****         0.0932   0.4777   3.6973 C.2            1 S1                 0.0000
     20 ****        -0.9162   0.4773   4.3986 O.2            1 S1                 0.0000
     21 ****         1.3121   0.8631   4.1476 N.am           1 S1                 0.0000
     22 ****         2.4827   0.9107   3.4414 C.2            1 S1                 0.0000
     23 ****         3.5187   1.2839   3.9913 O.2            1 S1                 0.0000
     24 ****         2.4472   0.5330   2.1237 N.am           1 S1                 0.0000
     25 ****         3.6702   0.5625   1.3190 C.3            1 S1                 0.0000
     26 ****         1.3617   1.1514   5.1137 H              1 S1                 0.0000
     27 ****        -3.6221   2.7701  -0.9177 H              1 S1                 0.0000
     28 ****        -3.2147   3.2860   0.7192 H              1 S1                 0.0000
     29 ****        -4.7435   2.4438   0.4051 H              1 S1                 0.0000
     30 ****        -2.6693   1.5812   2.3467 H              1 S1                 0.0000
     31 ****        -4.1455   0.6934   1.9948 H              1 S1                 0.0000
     32 ****        -2.4095  -0.8565   2.8758 H              1 S1                 0.0000
     33 ****        -2.8353  -1.2733   1.2612 H              1 S1                 0.0000
     34 ****        -2.9129  -1.3100   0.0828 H              1 S1                 0.0000
     35 ****        -2.6966  -2.2325  -1.3931 H              1 S1                 0.0000
     36 ****        -3.0163  -0.4961  -1.4876 H              1 S1                 0.0000
     37 ****        -1.1883  -1.5755  -2.9098 H              1 S1                 0.0000
     38 ****         0.1353  -0.5314  -2.4958 H              1 S1                 0.0000
     39 ****         2.1759  -1.5692  -2.9329 H              1 S1                 0.0000
     40 ****         3.6875  -3.5306  -2.7955 H              1 S1                 0.0000
     41 ****         2.8640  -5.6779  -1.8442 H              1 S1                 0.0000
     42 ****         0.5186  -5.8596  -1.0337 H              1 S1                 0.0000
     43 ****        -1.0000  -3.9036  -1.1690 H              1 S1                 0.0000
     44 ****         4.0848   1.5708   1.2878 H              1 S1                 0.0000
     45 ****         3.5031   0.2482   0.2889 H              1 S1                 0.0000
     46 ****         4.4231  -0.1024   1.7438 H              1 S1                 0.0000
     47 ****        -2.0832   1.3413   0.0783 LP             1 S1                 0.0000
     48 ****        -3.4849   0.5632  -0.2325 LP             1 S1                 0.0000
     49 ****         1.5850  -0.3374  -0.5457 LP             1 S1                 0.0000
     50 ****        -1.7926   0.1884   4.0132 LP             1 S1                 0.0000
     51 ****        -0.8610   0.7658   5.3544 LP             1 S1                 0.0000
     52 ****         3.5048   1.5523   4.9544 LP             1 S1                 0.0000
     53 ****         4.3743   1.3186   3.4748 LP             1 S1                 0.0000
@<TRIPOS>BOND
    1    1    2 1     
    2    1   27 1     
    3    1   28 1     
    4    1   29 1     
    5    2    3 1     
    6    3    4 1     
    7    3   30 1     
    8    3   31 1     
    9    4    5 1     
   10    4   32 1     
   11    4   33 1     
   12    5   18 1     
   13    5    6 1     
   14    6    7 1     
   15    6   16 2     
   16    7    8 1     
   17    7    9 1     
   18    8   34 1     
   19    8   35 1     
   20    8   36 1     
   21    9   10 1     
   22    9   37 1     
   23    9   38 1     
   24   10   15 ar    
   25   10   11 ar    
   26   11   12 ar    
   27   11   39 1     
   28   12   13 ar    
   29   12   40 1     
   30   13   14 ar    
   31   13   41 1     
   32   14   15 ar    
   33   14   42 1     
   34   15   43 1     
   35   16   17 1     
   36   17   24 1     
   37   17   18 2     
   38   18   19 1     
   39   19   20 2     
   40   19   21 1     
   41   21   26 1     
   42   21   22 1     
   43   22   23 2     
   44   22   24 1     
   45   24   25 1     
   46   25   44 1     
   47   25   45 1     
   48   25   46 1     
   49    2   47 1     
   50    2   48 1     
   51   16   49 1     
   52   20   50 1     
   53   20   51 1     
   54   23   52 1     
   55   23   53 1     
@<TRIPOS>SUBSTRUCTURE
      1 S1             1
@<TRIPOS>SET
LONE_PAIRS      STATIC     ATOMS    <user>   **** ""
7 47 48 49 50 51 52 53
DONOR_HYDROGENS      STATIC     ATOMS    <user>   **** ""
1 26
ATOM$BLUE        STATIC     ATOMS    COLORGROUP SYSTEM
7 47 48 49 50 51 52 53
ATOM$RED        STATIC     ATOMS    COLORGROUP SYSTEM
1 26
