AV-unprocessed.smi:2032|AV-procd|sdf|8236|dock4
  -GOLD-   2272010503D 1   1.00000     0.00000
 Structure written by MMmdl.
 42 43  0  0  0  0  0  0  0  0  1 V2000
  153.5733  140.3036  162.1911 C   0  0  0  0  0  0  0  0  0  0  0  0
  152.9512  140.6456  160.8332 C   0  0  1  0  0  0  0  0  0  0  0  0
  152.8465  142.1649  160.6130 C   0  0  0  0  0  0  0  0  0  0  0  0
  152.3258  142.5056  159.2876 N   0  0  0  0  0  0  0  0  0  0  0  0
  152.1883  143.9653  159.0886 C   0  0  1  0  0  0  0  0  0  0  0  0
  152.0004  144.3709  157.6091 C   0  0  0  0  0  0  0  0  0  0  0  0
  151.0500  144.6108  159.9226 C   0  0  0  0  0  0  0  0  0  0  0  0
  149.7872  143.8853  159.7970 N   0  0  0  0  0  0  0  0  0  0  0  0
  148.8347  143.8032  160.7366 C   0  0  0  0  0  0  0  0  0  0  0  0
  148.9298  144.3204  161.8501 O   0  0  0  0  0  0  0  0  0  0  0  0
  147.7801  143.0955  160.2954 N   0  0  0  0  0  0  0  0  0  0  0  0
  146.5713  142.8022  160.9796 C   0  0  0  0  0  0  0  0  0  0  0  0
  145.6135  141.9956  160.5077 N   0  0  0  0  0  0  0  0  0  0  0  0
  144.5362  141.8884  161.3909 C   0  0  0  0  0  0  0  0  0  0  0  0
  144.6919  142.6245  162.5390 C   0  0  0  0  0  0  0  0  0  0  0  0
  146.2069  143.4876  162.5566 S   0  0  0  0  0  0  0  0  0  0  0  0
  153.1914  141.8795  158.2844 C   0  0  0  0  0  0  0  0  0  0  0  0
  153.3560  140.3592  158.4819 C   0  0  2  0  0  0  0  0  0  0  0  0
  152.1070  139.5546  158.0832 C   0  0  0  0  0  0  0  0  0  0  0  0
  153.7683  140.0727  159.8171 O   0  0  0  0  0  0  0  0  0  0  0  0
  152.9829  140.7171  163.0090 H   0  0  0  0  0  0  0  0  0  0  0  0
  154.5849  140.7021  162.2731 H   0  0  0  0  0  0  0  0  0  0  0  0
  153.6276  139.2241  162.3335 H   0  0  0  0  0  0  0  0  0  0  0  0
  151.9554  140.2032  160.7922 H   0  0  0  0  0  0  0  0  0  0  0  0
  152.1977  142.5606  161.3924 H   0  0  0  0  0  0  0  0  0  0  0  0
  153.8256  142.6255  160.7543 H   0  0  0  0  0  0  0  0  0  0  0  0
  153.1144  144.4374  159.4199 H   0  0  0  0  0  0  0  0  0  0  0  0
  151.7759  145.4338  157.5158 H   0  0  0  0  0  0  0  0  0  0  0  0
  151.1829  143.8201  157.1428 H   0  0  0  0  0  0  0  0  0  0  0  0
  152.9004  144.1996  157.0194 H   0  0  0  0  0  0  0  0  0  0  0  0
  151.3164  144.6454  160.9783 H   0  0  0  0  0  0  0  0  0  0  0  0
  150.9245  145.6582  159.6428 H   0  0  0  0  0  0  0  0  0  0  0  0
  149.6164  143.4339  158.9103 H   0  0  0  0  0  0  0  0  0  0  0  0
  147.8457  142.7308  159.3566 H   0  0  0  0  0  0  0  0  0  0  0  0
  143.6970  141.2642  161.1212 H   0  0  0  0  0  0  0  0  0  0  0  0
  144.0098  142.7109  163.3716 H   0  0  0  0  0  0  0  0  0  0  0  0
  152.8020  142.0433  157.2807 H   0  0  0  0  0  0  0  0  0  0  0  0
  154.1762  142.3483  158.3151 H   0  0  0  0  0  0  0  0  0  0  0  0
  154.1676  140.0247  157.8352 H   0  0  0  0  0  0  0  0  0  0  0  0
  151.8783  139.6936  157.0263 H   0  0  0  0  0  0  0  0  0  0  0  0
  151.2255  139.8570  158.6483 H   0  0  0  0  0  0  0  0  0  0  0  0
  152.2620  138.4886  158.2496 H   0  0  0  0  0  0  0  0  0  0  0  0
  1  2  1  0  0  0  0
  1 21  1  0  0  0  0
  1 22  1  0  0  0  0
  1 23  1  0  0  0  0
  2 20  1  0  0  0  0
  2  3  1  0  0  0  0
  2 24  1  0  0  0  0
  3  4  1  0  0  0  0
  3 25  1  0  0  0  0
  3 26  1  0  0  0  0
  4  5  1  0  0  0  0
  4 17  1  0  0  0  0
  5  6  1  0  0  0  0
  5  7  1  0  0  0  0
  5 27  1  0  0  0  0
  6 28  1  0  0  0  0
  6 29  1  0  0  0  0
  6 30  1  0  0  0  0
  7  8  1  0  0  0  0
  7 31  1  0  0  0  0
  7 32  1  0  0  0  0
  8  9  1  0  0  0  0
  8 33  1  0  0  0  0
  9 10  2  0  0  0  0
  9 11  1  0  0  0  0
 11 12  1  0  0  0  0
 11 34  1  0  0  0  0
 12 16  1  0  0  0  0
 12 13  2  0  0  0  0
 13 14  1  0  0  0  0
 14 15  2  0  0  0  0
 14 35  1  0  0  0  0
 15 16  1  0  0  0  0
 15 36  1  0  0  0  0
 17 18  1  0  0  0  0
 17 37  1  0  0  0  0
 17 38  1  0  0  0  0
 18 19  1  0  0  0  0
 18 20  1  0  0  0  0
 18 39  1  0  0  0  0
 19 40  1  0  0  0  0
 19 41  1  0  0  0  0
 19 42  1  0  0  0  0
M  END
> <s_m_source_file>
AV-unprocessed.smi

> <i_m_source_file_index>
2032

> <i_lp_mmshare_version>
43012

> <i_f3d_flags>
0

> <s_epik_input>
W0NIM11bQ0BASF0xW0NIMl1OKFtDSDJdW0NASF0oTzEpW0NIM10pW0NASF0oW0NIM10pW0NIMl1bTkhdQyg9TylbTkhdYzJuW2NIXVtjSF1zMg==

> <s_epik_cmdline>
J2VwaWtfcHl0aG9uJywgJy1waCcsICc3LjAnLCAnLXRuJywgJzgnLCAnLW1hJywgJzIwMCcsICctbWV0YWxfYmluZGluZycsICctaW1hZScsICc8aW5maWxlLm1hZT4nLCAnLW9tYWUnLCAnPG91dGZpbGUubWFlPic=

> <r_lp_tautomer_probability>
0.999

> <r_epik_Ionization_Penalty>
0.219202

> <r_epik_Ionization_Penalty_Charging>
0

> <r_epik_Ionization_Penalty_Neutral>
0.219202

> <r_epik_State_Penalty>
0.209349

> <r_epik_Charging_Adjusted_Penalty>
0.209349

> <i_epik_Tot_Q>
0

> <i_epik_Tot_abs_Q>
0

> <r_epik_Metal_State_Penalty>
0.247737

> <b_epik_Metal_Only>
0

> <s_lp_Force_Field>
OPLS_2005

> <r_lp_Energy>
32.3781

> <b_lp_Chiralities_Consistent>
1

> <s_lp_Variant>
AV-unprocessed.smi:2032-6

> <Gold.Version>
5.8.1

> <Gold.Id.Protein>
6NUR|6NUR_protein|mol2

> <Gold.PLP.Fitness>
46.5690

> <Gold.PLP.PLP>
-44.5223

> <Gold.PLP.part.hbond>
-2.5308

> <Gold.PLP.part.metal>
0.0000

> <Gold.PLP.part.buried>
-7.3596

> <Gold.PLP.part.nonpolar>
-35.8658

> <Gold.PLP.part.repulsive>
1.1643

> <Gold.PLP.ligand.clash>
0.0000

> <Gold.PLP.ligand.torsion>
0.4982

> <Gold.PLP.Chemscore.Hbond>
1.0000

> <Gold.PLP.Chemscore.CHOScore>
0.0000

> <Gold.PLP.Chemscore.Metal>
0.0000

> <Gold.PLP.Chemscore.Internal.Correction>
0.0430

> <Gold.Rescore>
     Score         DG    S(hbond)    S(metal)    S(lipo)     H(rot)  DE(clash)    DE(int)     intcor
     13.55     -15.85       0.02        0.00     122.57       1.57       0.85       1.45       ----

> <Gold.Chemscore.Fitness>
13.5470

> <Gold.Chemscore.DG>
-15.8508

> <Gold.Chemscore.ZeroCoef>
-5.4800

> <Gold.Chemscore.Hbond>
0.0187

> <Gold.Chemscore.Metal>
0.0000

> <Gold.Chemscore.Lipo>
122.5664

> <Gold.Chemscore.Internal_Hbond>
0.0000

> <Gold.Chemscore.DEClash>
0.8530

> <Gold.Chemscore.DEInternal>
1.4509

> <Gold.Chemscore.Rot>
1.5750

> <Gold.Chemscore.Internal.Correction>
   9.000000E+99

> <Gold.Chemscore.Hbond.Weighted>
-0.0625

> <Gold.Chemscore.Metal.Weighted>
-0.0000

> <Gold.Chemscore.Lipo.Weighted>
-14.3403

> <Gold.Chemscore.Internal_Hbond.Weighted>
0.0000

> <Gold.Chemscore.DEClash.Weighted>
0.8530

> <Gold.Chemscore.DEInternal.Weighted>
1.4509

> <Gold.Chemscore.Rot.Weighted>
4.0319

> <Gold.Chemscore.Internal.Correction.Weighted>
   9.000000E+99

> <Gold.Protein.RotatedTorsions>
[ 6907 6896 6895 6894 ] final -139.06 input  -60.11 | X-H torsion
[ 7974 7965 7964 7962 ] final -117.77 input  175.53 | X-H torsion
[ 8008 7997 7996 7995 ] final  -21.76 input   59.86 | X-H torsion
[ 10167 10162 10161 10158 ] final  -94.48 input  -65.29 | X-H torsion
[ 10718 10713 10712 10709 ] final  173.18 input   66.30 | X-H torsion
[ 10763 10752 10751 10750 ] final -171.08 input  -60.55 | X-H torsion
[ 11005 11000 10999 10996 ] final  117.16 input  -57.11 | X-H torsion

> <Gold.Protein.ActiveResidues>
 VAL166  LYS551  ARG553  GLY616  TRP617  ASP618  TYR619  PRO620  LYS621  CYS622 
 ASP623  PHE694  ASN695  SER759  ASP760  ASP761  ALA762  ILE779  LEU786  VAL792 
 PHE793  MET794  SER795  GLU796  ALA797  LYS798  CYS799  TRP800  GLU811  SER814 

> <Gold.Protein.RotatedAtoms>
  151.0429  133.5690  159.2649 H   0  0  0  0  0  0  0  0  0  0  0  0  # atno 6907 bound_to 6896
  151.2730  135.0689  159.9151 H   0  0  0  0  0  0  0  0  0  0  0  0  # atno 6908 bound_to 6896
  152.5368  134.0156  159.8012 H   0  0  0  0  0  0  0  0  0  0  0  0  # atno 6909 bound_to 6896
  145.0814  140.8428  143.4036 H   0  0  0  0  0  0  0  0  0  0  0  0  # atno 7974 bound_to 7965
  154.4685  140.2026  156.0055 H   0  0  0  0  0  0  0  0  0  0  0  0  # atno 8008 bound_to 7997
  156.0970  140.3249  155.7861 H   0  0  0  0  0  0  0  0  0  0  0  0  # atno 8009 bound_to 7997
  155.4862  140.0542  157.2951 H   0  0  0  0  0  0  0  0  0  0  0  0  # atno 8010 bound_to 7997
  140.3140  143.3088  152.0118 H   0  0  0  0  0  0  0  0  0  0  0  0  # atno 10167 bound_to 10162
  156.9681  131.0081  151.2912 H   0  0  0  0  0  0  0  0  0  0  0  0  # atno 10718 bound_to 10713
  154.6344  135.2890  155.0178 H   0  0  0  0  0  0  0  0  0  0  0  0  # atno 10763 bound_to 10752
  154.1327  135.6531  153.4929 H   0  0  0  0  0  0  0  0  0  0  0  0  # atno 10764 bound_to 10752
  153.0295  135.5314  154.7185 H   0  0  0  0  0  0  0  0  0  0  0  0  # atno 10765 bound_to 10752
  139.9065  134.9607  156.7308 H   0  0  0  0  0  0  0  0  0  0  0  0  # atno 11005 bound_to 11000
  145.1173  139.2717  143.5606 LP  0  0  0  0  0  0  0  0  0  0  0  0  # atno 17320 bound_to 7965
  146.3531  140.0787  142.8619 LP  0  0  0  0  0  0  0  0  0  0  0  0  # atno 17321 bound_to 7965
  139.4888  144.6363  151.6969 LP  0  0  0  0  0  0  0  0  0  0  0  0  # atno 17342 bound_to 10162
  140.5543  144.0374  150.6141 LP  0  0  0  0  0  0  0  0  0  0  0  0  # atno 17343 bound_to 10162
  157.5612  130.8247  149.8268 LP  0  0  0  0  0  0  0  0  0  0  0  0  # atno 17370 bound_to 10713
  156.0294  130.3769  150.1730 LP  0  0  0  0  0  0  0  0  0  0  0  0  # atno 17371 bound_to 10713
  140.6927  133.9376  155.7976 LP  0  0  0  0  0  0  0  0  0  0  0  0  # atno 17394 bound_to 11000
  141.0430  134.0594  157.3879 LP  0  0  0  0  0  0  0  0  0  0  0  0  # atno 17395 bound_to 11000

$$$$
