AV-unprocessed.smi:72|AV-procd|sdf|742|dock7
  -GOLD-   2262017 73D 1   1.00000     0.00000
 Structure written by MMmdl.
 28 29  0  0  0  0  0  0  0  0  2 V2000
  148.3502  136.6051  161.1494 N   0  0  0  0  0  0  0  0  0  0  0  0
  148.5154  136.7225  159.9048 C   0  0  0  0  0  0  0  0  0  0  0  0
  147.9048  137.8254  159.1948 N   0  0  0  0  0  0  0  0  0  0  0  0
  148.0848  137.8922  157.9114 C   0  0  0  0  0  0  0  0  0  0  0  0
  148.8601  136.8911  157.1911 N   0  0  0  0  0  0  0  0  0  0  0  0
  149.0787  136.9865  155.6964 C   0  0  1  0  0  0  0  0  0  0  0  0
  148.3814  138.0908  155.1939 O   0  0  0  0  0  0  0  0  0  0  0  0
  149.2267  138.8584  154.3424 C   0  0  1  0  0  0  0  0  0  0  0  0
  148.7653  140.3238  154.3357 C   0  0  0  0  0  0  0  0  0  0  0  0
  149.5806  141.0886  153.4736 O   0  0  0  0  0  0  0  0  0  0  0  0
  150.6038  138.6541  154.9740 C   0  0  2  0  0  0  0  0  0  0  0  0
  151.6731  138.9650  154.1004 O   0  0  0  0  0  0  0  0  0  0  0  0
  150.5710  137.1876  155.3882 C   0  0  2  0  0  0  0  0  0  0  0  0
  150.9950  136.3149  154.3573 O   0  0  0  0  0  0  0  0  0  0  0  0
  149.4787  135.8401  157.9183 C   0  0  0  0  0  0  0  0  0  0  0  0
  150.1723  135.0337  157.2977 O   0  0  0  0  0  0  0  0  0  0  0  0
  149.2880  135.7776  159.2659 N   0  5  0  0  0  0  0  0  0  0  0  0
  148.6516  136.0789  155.2664 H   0  0  0  0  0  0  0  0  0  0  0  0
  149.2150  138.4303  153.3380 H   0  0  0  0  0  0  0  0  0  0  0  0
  150.6891  139.2722  155.8692 H   0  0  0  0  0  0  0  0  0  0  0  0
  151.1873  137.0042  156.2697 H   0  0  0  0  0  0  0  0  0  0  0  0
  148.8250  135.8007  161.5325 H   0  0  0  0  0  0  0  0  0  0  0  0
  147.6756  138.6970  157.3000 H   0  0  0  0  0  0  0  0  0  0  0  0
  147.7181  140.4081  154.0432 H   0  0  0  0  0  0  0  0  0  0  0  0
  148.8576  140.7507  155.3346 H   0  0  0  0  0  0  0  0  0  0  0  0
  150.4630  140.7536  153.5192 H   0  0  0  0  0  0  0  0  0  0  0  0
  151.7509  138.2691  153.4661 H   0  0  0  0  0  0  0  0  0  0  0  0
  150.3066  136.2623  153.7114 H   0  0  0  0  0  0  0  0  0  0  0  0
  1  2  2  0  0  0  0
  1 22  1  0  0  0  0
  2 17  1  0  0  0  0
  2  3  1  0  0  0  0
  3  4  2  0  0  0  0
  4  5  1  0  0  0  0
  4 23  1  0  0  0  0
  5  6  1  0  0  0  0
  5 15  1  0  0  0  0
  6 18  1  0  0  0  0
  6 13  1  0  0  0  0
  6  7  1  0  0  0  0
  7  8  1  0  0  0  0
  8 19  1  0  0  0  0
  8  9  1  0  0  0  0
  8 11  1  0  0  0  0
  9 10  1  0  0  0  0
  9 24  1  0  0  0  0
  9 25  1  0  0  0  0
 10 26  1  0  0  0  0
 11 20  1  0  0  0  0
 11 12  1  0  0  0  0
 11 13  1  0  0  0  0
 12 27  1  0  0  0  0
 13 21  1  0  0  0  0
 13 14  1  0  0  0  0
 14 28  1  0  0  0  0
 15 16  2  0  0  0  0
 15 17  1  0  0  0  0
M  CHG  1  17  -1
M  END
> <s_m_source_file>
AV-unprocessed.smi

> <i_m_source_file_index>
72

> <i_lp_mmshare_version>
43012

> <i_f3d_flags>
0

> <s_epik_input>
W05IMl1jMW5bY0hdbihjKD1PKW4xKVtDQEBIXTJPW0NASF0oW0NIMl1bT0hdKVtDQEBIXShbT0hdKVtDQEhdMltPSF0=

> <s_epik_cmdline>
J2VwaWtfcHl0aG9uJywgJy1waCcsICc3LjAnLCAnLXRuJywgJzgnLCAnLW1hJywgJzIwMCcsICctbWV0YWxfYmluZGluZycsICctaW1hZScsICc8aW5maWxlLm1hZT4nLCAnLW9tYWUnLCAnPG91dGZpbGUubWFlPic=

> <r_lp_tautomer_probability>
7.17554e-07

> <r_epik_Ionization_Penalty>
12.8705

> <r_epik_Ionization_Penalty_Charging>
5.64144

> <r_epik_Ionization_Penalty_Neutral>
7.22905

> <r_epik_State_Penalty>
3.30104

> <r_epik_Charging_Adjusted_Penalty>
8.94249

> <i_epik_Tot_Q>
-1

> <i_epik_Tot_abs_Q>
1

> <r_epik_Metal_State_Penalty>
0.529074

> <b_epik_Metal_Only>
1

> <s_epik_Chemistry_Notes>
This compound contains an acetal/aminal-like group ( X-CH(R)-Y where X, Y are N, S, or O) that may be acid/base labile, releasing an aldehyde.

> <s_lp_Force_Field>
OPLS_2005

> <r_lp_Energy>
36.1714

> <b_lp_Chiralities_Consistent>
1

> <s_lp_Variant>
AV-unprocessed.smi:72-80

> <Gold.Version>
5.8.1

> <Gold.Id.Protein>
6NUR|6NUR_protein|mol2

> <Gold.PLP.Fitness>
40.2132

> <Gold.PLP.PLP>
-21.1151

> <Gold.PLP.part.hbond>
-10.2672

> <Gold.PLP.part.metal>
0.0000

> <Gold.PLP.part.buried>
-0.5474

> <Gold.PLP.part.nonpolar>
-10.7529

> <Gold.PLP.part.repulsive>
0.0774

> <Gold.PLP.ligand.clash>
0.0000

> <Gold.PLP.ligand.torsion>
0.0281

> <Gold.PLP.Chemscore.Hbond>
6.3776

> <Gold.PLP.Chemscore.CHOScore>
0.0000

> <Gold.PLP.Chemscore.Metal>
0.0000

> <Gold.Chemscore.Hbonds>
donor molecule, donor type, donor heavy atom, donor atom, acceptor molecule, acceptor atom, score
      L1  H    14    28       P1  7948  0.24
      P1  H  6896  6908       L1    17  1.90
      P1  H  6931  6943       L1     1  1.00
      P1  H  6934  6947       L1     3  0.25
      P1  H  7989  7998       L1    12  0.91
      P1  H  8011  8017       L1    10  1.00
      P1  H 10752 10764       L1    14  0.98

> <Gold.PLP.Chemscore.Internal.Correction>
0.0217

> <Gold.Rescore>
     Score         DG    S(hbond)    S(metal)    S(lipo)     H(rot)  DE(clash)    DE(int)     intcor
      5.94      -7.85       2.91        0.00      25.71       4.04       1.53       0.38       ----

> <Gold.Chemscore.Fitness>
5.9425

> <Gold.Chemscore.DG>
-7.8503

> <Gold.Chemscore.ZeroCoef>
-5.4800

> <Gold.Chemscore.Hbond>
2.9058

> <Gold.Chemscore.Metal>
0.0000

> <Gold.Chemscore.Lipo>
25.7081

> <Gold.Chemscore.Internal_Hbond>
0.0000

> <Gold.Chemscore.DEClash>
1.5279

> <Gold.Chemscore.DEInternal>
0.3799

> <Gold.Chemscore.Rot>
4.0403

> <Gold.Chemscore.Internal.Correction>
   9.000000E+99

> <Gold.Chemscore.Hbonds>
donor molecule, donor type, donor heavy atom, donor atom, acceptor molecule, acceptor atom, score
      L1  H    14    28       P1  7948  0.01
      P1  H  6896  6908       L1    17  0.21
      P1  H  6931  6943       L1     1  0.39
      P1  H  6934  6947       L1     3  0.08
      P1  H  7989  7998       L1    12  0.74
      P1  H  8011  8017       L1    10  0.25
      P1  H 10752 10764       L1    14  0.88

> <Gold.Chemscore.Hbond.Weighted>
-9.7055

> <Gold.Chemscore.Metal.Weighted>
-0.0000

> <Gold.Chemscore.Lipo.Weighted>
-3.0078

> <Gold.Chemscore.Internal_Hbond.Weighted>
0.0000

> <Gold.Chemscore.DEClash.Weighted>
1.5279

> <Gold.Chemscore.DEInternal.Weighted>
0.3799

> <Gold.Chemscore.Rot.Weighted>
10.3431

> <Gold.Chemscore.Internal.Correction.Weighted>
   9.000000E+99

> <Gold.Protein.RotatedTorsions>
[ 6907 6896 6895 6894 ] final -164.84 input  -60.11 | X-H torsion
[ 7974 7965 7964 7962 ] final   83.88 input  175.53 | X-H torsion
[ 8008 7997 7996 7995 ] final -166.20 input   59.86 | X-H torsion
[ 10167 10162 10161 10158 ] final  105.43 input  -65.29 | X-H torsion
[ 10718 10713 10712 10709 ] final   25.68 input   66.30 | X-H torsion
[ 10763 10752 10751 10750 ] final  -73.25 input  -60.55 | X-H torsion
[ 11005 11000 10999 10996 ] final  160.48 input  -57.11 | X-H torsion

> <Gold.Protein.ActiveResidues>
 VAL166  LYS551  ARG553  GLY616  TRP617  ASP618  TYR619  PRO620  LYS621  CYS622 
 ASP623  PHE694  ASN695  SER759  ASP760  ASP761  ALA762  ILE779  LEU786  VAL792 
 PHE793  MET794  SER795  GLU796  ALA797  LYS798  CYS799  TRP800  GLU811  SER814 

> <Gold.Protein.RotatedAtoms>
  151.4181  133.3706  159.2752 H   0  0  0  0  0  0  0  0  0  0  0  0  # atno 6907 bound_to 6896
  150.9313  134.8729  159.7564 H   0  0  0  0  0  0  0  0  0  0  0  0  # atno 6908 bound_to 6896
  152.5029  134.4126  159.9506 H   0  0  0  0  0  0  0  0  0  0  0  0  # atno 6909 bound_to 6896
  145.6060  139.2360  143.2219 H   0  0  0  0  0  0  0  0  0  0  0  0  # atno 7974 bound_to 7965
  155.8605  140.0977  157.1616 H   0  0  0  0  0  0  0  0  0  0  0  0  # atno 8008 bound_to 7997
  154.3990  140.1366  156.4017 H   0  0  0  0  0  0  0  0  0  0  0  0  # atno 8009 bound_to 7997
  155.7862  140.3457  155.5327 H   0  0  0  0  0  0  0  0  0  0  0  0  # atno 8010 bound_to 7997
  139.7094  144.7080  151.1053 H   0  0  0  0  0  0  0  0  0  0  0  0  # atno 10167 bound_to 10162
  157.1966  130.6870  149.6171 H   0  0  0  0  0  0  0  0  0  0  0  0  # atno 10718 bound_to 10713
  154.4569  135.5903  153.6229 H   0  0  0  0  0  0  0  0  0  0  0  0  # atno 10763 bound_to 10752
  152.9819  135.6034  154.3535 H   0  0  0  0  0  0  0  0  0  0  0  0  # atno 10764 bound_to 10752
  154.3402  135.2842  155.2405 H   0  0  0  0  0  0  0  0  0  0  0  0  # atno 10765 bound_to 10752
  140.2063  134.8300  157.3073 H   0  0  0  0  0  0  0  0  0  0  0  0  # atno 11005 bound_to 11000
  146.1540  140.6884  142.9309 LP  0  0  0  0  0  0  0  0  0  0  0  0  # atno 17320 bound_to 7965
  144.7289  140.4612  143.6952 LP  0  0  0  0  0  0  0  0  0  0  0  0  # atno 17321 bound_to 7965
  140.7729  143.5314  150.9418 LP  0  0  0  0  0  0  0  0  0  0  0  0  # atno 17342 bound_to 10162
  139.8999  143.6849  152.3133 LP  0  0  0  0  0  0  0  0  0  0  0  0  # atno 17343 bound_to 10162
  155.9705  130.4597  150.6045 LP  0  0  0  0  0  0  0  0  0  0  0  0  # atno 17370 bound_to 10713
  157.3808  131.0780  151.1478 LP  0  0  0  0  0  0  0  0  0  0  0  0  # atno 17371 bound_to 10713
  140.1999  134.4267  155.7668 LP  0  0  0  0  0  0  0  0  0  0  0  0  # atno 17394 bound_to 11000
  141.2227  133.7067  156.8166 LP  0  0  0  0  0  0  0  0  0  0  0  0  # atno 17395 bound_to 11000

$$$$
