#       Name:                AV-unprocessed.smi:678
#       Creating user name   scv26
#       Creation time:       Fri Mar 27 00:28:06 2020


#       File generated by GOLD software.
#

@<TRIPOS>MOLECULE
AV-unprocessed.smi:678
    57    58     1
SMALL
NO_CHARGES


@<TRIPOS>ATOM
      1 ****        -1.0990   4.4381   3.4889 C.3            1 S1                 0.0000
      2 ****        -2.3743   3.8571   2.9039 C.2            1 S1                 0.0000
      3 ****        -3.5598   3.9737   3.5408 C.2            1 S1                 0.0000
      4 ****        -4.7659   3.4146   2.9800 C.2            1 S1                 0.0000
      5 ****        -4.6809   2.7738   1.8055 C.2            1 S1                 0.0000
      6 ****        -3.4590   2.6402   1.1201 N.am           1 S1                 0.0000
      7 ****        -3.4854   1.9132  -0.1610 C.3            1 S1                 0.0000
      8 ****        -2.9240   0.4890  -0.0505 C.2            1 S1                 0.0000
      9 ****        -3.0692  -0.1633   0.9840 O.2            1 S1                 0.0000
     10 ****        -2.2836   0.0205  -1.1320 N.am           1 S1                 0.0000
     11 ****        -1.6028  -1.2672  -1.2115 C.3            1 S1                 0.0000
     12 ****        -0.1351  -1.1503  -0.7615 C.3            1 S1                 0.0000
     13 ****         0.6472  -2.4611  -1.0008 C.3            1 S1                 0.0000
     14 ****         2.0346  -2.3803  -0.4731 N.4            1 S1                 1.0000
     15 ****         2.9866  -1.6188  -1.3272 C.3            1 S1                 0.0000
     16 ****         3.4473  -2.4095  -2.5710 C.3            1 S1                 0.0000
     17 ****         4.2313  -3.6758  -2.1868 C.3            1 S1                 0.0000
     18 ****         4.2901  -1.5182  -3.4953 C.3            1 S1                 0.0000
     19 ****         2.0259  -1.9403   0.9433 C.3            1 S1                 0.0000
     20 ****         1.2159  -0.6439   1.1171 C.3            1 S1                 0.0000
     21 ****        -0.1031  -0.8515   0.6311 O.3            1 S1                 0.0000
     22 ****        -2.2871   3.1533   1.6107 C.2            1 S1                 0.0000
     23 ****        -1.2237   3.0264   0.9994 O.2            1 S1                 0.0000
     24 ****        -1.2872   4.9306   4.4434 H              1 S1                 0.0000
     25 ****        -0.6681   5.1742   2.8095 H              1 S1                 0.0000
     26 ****        -0.3627   3.6512   3.6561 H              1 S1                 0.0000
     27 ****        -3.6139   4.4905   4.4879 H              1 S1                 0.0000
     28 ****        -5.7111   3.5060   3.4949 H              1 S1                 0.0000
     29 ****        -5.5350   2.3214   1.3229 H              1 S1                 0.0000
     30 ****        -4.5012   1.8464  -0.5527 H              1 S1                 0.0000
     31 ****        -2.9248   2.4746  -0.9113 H              1 S1                 0.0000
     32 ****        -2.2259   0.6186  -1.9438 H              1 S1                 0.0000
     33 ****        -2.1291  -2.0259  -0.6296 H              1 S1                 0.0000
     34 ****        -1.6433  -1.5940  -2.2509 H              1 S1                 0.0000
     35 ****         0.3278  -0.3328  -1.3161 H              1 S1                 0.0000
     36 ****         0.1413  -3.2801  -0.4876 H              1 S1                 0.0000
     37 ****         0.6451  -2.7219  -2.0582 H              1 S1                 0.0000
     38 ****         2.5436  -0.6682  -1.6237 H              1 S1                 0.0000
     39 ****         3.8724  -1.3637  -0.7437 H              1 S1                 0.0000
     40 ****         2.5743  -2.7180  -3.1454 H              1 S1                 0.0000
     41 ****         5.1230  -3.4305  -1.6088 H              1 S1                 0.0000
     42 ****         4.5525  -4.2217  -3.0745 H              1 S1                 0.0000
     43 ****         3.6243  -4.3572  -1.5904 H              1 S1                 0.0000
     44 ****         5.1946  -1.1700  -2.9953 H              1 S1                 0.0000
     45 ****         3.7282  -0.6405  -3.8161 H              1 S1                 0.0000
     46 ****         4.5936  -2.0575  -4.3931 H              1 S1                 0.0000
     47 ****         1.5722  -2.7295   1.5441 H              1 S1                 0.0000
     48 ****         3.0427  -1.8184   1.3182 H              1 S1                 0.0000
     49 ****         1.1622  -0.3740   2.1719 H              1 S1                 0.0000
     50 ****         1.6853   0.1937   0.5990 H              1 S1                 0.0000
     51 ****         2.3946  -3.3242  -0.4623 H              1 S1                 0.0000
     52 ****        -3.5565   0.2343   1.7616 LP             1 S1                 0.0000
     53 ****        -2.6999  -1.0905   1.0465 LP             1 S1                 0.0000
     54 ****        -0.5121  -1.6146   1.1316 LP             1 S1                 0.0000
     55 ****        -0.6379  -0.0221   0.7928 LP             1 S1                 0.0000
     56 ****        -0.3805   3.4076   1.3785 LP             1 S1                 0.0000
     57 ****        -1.2046   2.5423   0.1246 LP             1 S1                 0.0000
@<TRIPOS>BOND
    1    1    2 1     
    2    1   24 1     
    3    1   25 1     
    4    1   26 1     
    5    2   22 1     
    6    2    3 2     
    7    3    4 1     
    8    3   27 1     
    9    4    5 2     
   10    4   28 1     
   11    5    6 1     
   12    5   29 1     
   13    6    7 1     
   14    6   22 am    
   15    7    8 1     
   16    7   30 1     
   17    7   31 1     
   18    8    9 2     
   19    8   10 am    
   20   10   11 1     
   21   10   32 1     
   22   11   12 1     
   23   11   33 1     
   24   11   34 1     
   25   12   21 1     
   26   12   13 1     
   27   12   35 1     
   28   13   14 1     
   29   13   36 1     
   30   13   37 1     
   31   14   15 1     
   32   14   19 1     
   33   14   51 1     
   34   15   16 1     
   35   15   38 1     
   36   15   39 1     
   37   16   17 1     
   38   16   18 1     
   39   16   40 1     
   40   17   41 1     
   41   17   42 1     
   42   17   43 1     
   43   18   44 1     
   44   18   45 1     
   45   18   46 1     
   46   19   20 1     
   47   19   47 1     
   48   19   48 1     
   49   20   21 1     
   50   20   49 1     
   51   20   50 1     
   52   22   23 2     
   53    9   52 1     
   54    9   53 1     
   55   21   54 1     
   56   21   55 1     
   57   23   56 1     
   58   23   57 1     
@<TRIPOS>SUBSTRUCTURE
      1 S1             1
@<TRIPOS>SET
LONE_PAIRS      STATIC     ATOMS    <user>   **** ""
6 52 53 54 55 56 57
DONOR_HYDROGENS      STATIC     ATOMS    <user>   **** ""
2 32 51
ATOM$BLUE        STATIC     ATOMS    COLORGROUP SYSTEM
6 52 53 54 55 56 57
ATOM$RED        STATIC     ATOMS    COLORGROUP SYSTEM
2 32 51
