AV-unprocessed.smi:1005|AV-procd|sdf|4367|dock8
  -GOLD-   22720 2273D 1   1.00000     0.00000
 Structure written by MMmdl.
 57 59  0  0  0  0  0  0  0  0  3 V2000
  152.9359  143.0068  161.2749 C   0  0  0  0  0  0  0  0  0  0  0  0
  152.3443  142.5745  159.9449 C   0  0  0  0  0  0  0  0  0  0  0  0
  152.8465  141.4141  159.3140 C   0  0  0  0  0  0  0  0  0  0  0  0
  152.3227  140.9779  158.0774 C   0  0  0  0  0  0  0  0  0  0  0  0
  152.6554  139.8855  157.2948 N   0  0  0  0  0  0  0  0  0  0  0  0
  151.8150  140.0209  156.2734 C   0  0  0  0  0  0  0  0  0  0  0  0
  150.9719  141.0710  156.3030 N   0  0  0  0  0  0  0  0  0  0  0  0
  149.9710  141.4155  155.3082 C   0  0  0  0  0  0  0  0  0  0  0  0
  148.7772  140.4406  155.3077 C   0  0  1  0  0  0  0  0  0  0  0  0
  147.8536  140.8245  156.3087 O   0  0  0  0  0  0  0  0  0  0  0  0
  148.0510  140.4286  153.9473 C   0  0  0  0  0  0  0  0  0  0  0  0
  147.1870  139.2335  153.7654 N   0  3  1  0  0  0  0  0  0  0  0  0
  146.7664  139.0454  152.3570 C   0  0  0  0  0  0  0  0  0  0  0  0
  145.8170  137.8422  152.2378 C   0  0  0  0  0  0  0  0  0  0  0  0
  146.4529  136.6799  152.7558 O   0  0  0  0  0  0  0  0  0  0  0  0
  146.7785  136.8088  154.1361 C   0  0  1  0  0  0  0  0  0  0  0  0
  147.3861  135.4749  154.6104 C   0  0  0  0  0  0  0  0  0  0  0  0
  148.1259  134.7603  153.5379 N   0  3  0  0  0  0  0  0  0  0  0  0
  147.2628  133.8954  152.7000 C   0  0  0  0  0  0  0  0  0  0  0  0
  149.2865  134.0113  154.0689 C   0  0  0  0  0  0  0  0  0  0  0  0
  147.7708  137.9781  154.3000 C   0  0  0  0  0  0  0  0  0  0  0  0
  151.2750  141.7411  157.4839 C   0  0  0  0  0  0  0  0  0  0  0  0
  150.7687  142.8988  158.1008 C   0  0  0  0  0  0  0  0  0  0  0  0
  151.3019  143.3194  159.3371 C   0  0  0  0  0  0  0  0  0  0  0  0
  150.7463  144.5692  159.9962 C   0  0  0  0  0  0  0  0  0  0  0  0
  153.7433  142.3436  161.5867 H   0  0  0  0  0  0  0  0  0  0  0  0
  152.1731  142.9947  162.0537 H   0  0  0  0  0  0  0  0  0  0  0  0
  153.3418  144.0160  161.2025 H   0  0  0  0  0  0  0  0  0  0  0  0
  153.6407  140.8466  159.7769 H   0  0  0  0  0  0  0  0  0  0  0  0
  151.8105  139.3141  155.4566 H   0  0  0  0  0  0  0  0  0  0  0  0
  149.6355  142.4374  155.4908 H   0  0  0  0  0  0  0  0  0  0  0  0
  150.4520  141.4179  154.3292 H   0  0  0  0  0  0  0  0  0  0  0  0
  149.1482  139.4451  155.5500 H   0  0  0  0  0  0  0  0  0  0  0  0
  147.6976  141.7544  156.2331 H   0  0  0  0  0  0  0  0  0  0  0  0
  147.4377  141.3288  153.8776 H   0  0  0  0  0  0  0  0  0  0  0  0
  148.7693  140.4853  153.1279 H   0  0  0  0  0  0  0  0  0  0  0  0
  146.2644  139.9436  151.9952 H   0  0  0  0  0  0  0  0  0  0  0  0
  147.6455  138.8927  151.7285 H   0  0  0  0  0  0  0  0  0  0  0  0
  144.8821  138.0281  152.7688 H   0  0  0  0  0  0  0  0  0  0  0  0
  145.5598  137.6682  151.1927 H   0  0  0  0  0  0  0  0  0  0  0  0
  145.8769  137.0344  154.7063 H   0  0  0  0  0  0  0  0  0  0  0  0
  148.0636  135.6848  155.4398 H   0  0  0  0  0  0  0  0  0  0  0  0
  146.6095  134.8195  155.0076 H   0  0  0  0  0  0  0  0  0  0  0  0
  146.7921  133.1143  153.2986 H   0  0  0  0  0  0  0  0  0  0  0  0
  147.8497  133.4125  151.9179 H   0  0  0  0  0  0  0  0  0  0  0  0
  146.4787  134.4662  152.2046 H   0  0  0  0  0  0  0  0  0  0  0  0
  148.9654  133.2318  154.7611 H   0  0  0  0  0  0  0  0  0  0  0  0
  149.9699  134.6776  154.5962 H   0  0  0  0  0  0  0  0  0  0  0  0
  149.8469  133.5407  153.2602 H   0  0  0  0  0  0  0  0  0  0  0  0
  148.7043  137.7591  153.7785 H   0  0  0  0  0  0  0  0  0  0  0  0
  148.0148  138.0936  155.3552 H   0  0  0  0  0  0  0  0  0  0  0  0
  149.9745  143.4569  157.6276 H   0  0  0  0  0  0  0  0  0  0  0  0
  149.9296  144.9965  159.4139 H   0  0  0  0  0  0  0  0  0  0  0  0
  151.5235  145.3278  160.0899 H   0  0  0  0  0  0  0  0  0  0  0  0
  150.3630  144.3405  160.9909 H   0  0  0  0  0  0  0  0  0  0  0  0
  148.5106  135.4696  152.9300 H   0  0  0  0  0  0  0  0  0  0  0  0
  146.3433  139.4184  154.2902 H   0  0  0  0  0  0  0  0  0  0  0  0
  1  2  1  0  0  0  0
  1 26  1  0  0  0  0
  1 27  1  0  0  0  0
  1 28  1  0  0  0  0
  2 24  1  0  0  0  0
  2  3  2  0  0  0  0
  3  4  1  0  0  0  0
  3 29  1  0  0  0  0
  4 22  2  0  0  0  0
  4  5  1  0  0  0  0
  5  6  2  0  0  0  0
  6  7  1  0  0  0  0
  6 30  1  0  0  0  0
  7  8  1  0  0  0  0
  7 22  1  0  0  0  0
  8  9  1  0  0  0  0
  8 31  1  0  0  0  0
  8 32  1  0  0  0  0
  9 10  1  0  0  0  0
  9 11  1  0  0  0  0
  9 33  1  0  0  0  0
 10 34  1  0  0  0  0
 11 12  1  0  0  0  0
 11 35  1  0  0  0  0
 11 36  1  0  0  0  0
 12 21  1  0  0  0  0
 12 13  1  0  0  0  0
 12 57  1  0  0  0  0
 13 14  1  0  0  0  0
 13 37  1  0  0  0  0
 13 38  1  0  0  0  0
 14 15  1  0  0  0  0
 14 39  1  0  0  0  0
 14 40  1  0  0  0  0
 15 16  1  0  0  0  0
 16 17  1  0  0  0  0
 16 21  1  0  0  0  0
 16 41  1  0  0  0  0
 17 18  1  0  0  0  0
 17 42  1  0  0  0  0
 17 43  1  0  0  0  0
 18 19  1  0  0  0  0
 18 20  1  0  0  0  0
 18 56  1  0  0  0  0
 19 44  1  0  0  0  0
 19 45  1  0  0  0  0
 19 46  1  0  0  0  0
 20 47  1  0  0  0  0
 20 48  1  0  0  0  0
 20 49  1  0  0  0  0
 21 50  1  0  0  0  0
 21 51  1  0  0  0  0
 22 23  1  0  0  0  0
 23 24  2  0  0  0  0
 23 52  1  0  0  0  0
 24 25  1  0  0  0  0
 25 53  1  0  0  0  0
 25 54  1  0  0  0  0
 25 55  1  0  0  0  0
M  CHG  1  12   1
M  CHG  1  18   1
M  END
> <s_m_source_file>
AV-unprocessed.smi

> <i_m_source_file_index>
1005

> <i_lp_mmshare_version>
43012

> <i_f3d_flags>
0

> <s_epik_input>
W0NIM11jKFtjSF0xKWMoW0NIM10pW2NIXWMoYzEyKW4oW2NIXW4yKVtDSDJdW0NASF0oW09IXSlbQ0gyXU4zW0NIMl1bQ0gyXU9bQ0BIXShbQ0gyXTMpW0NIMl1OKFtDSDNdKVtDSDNd

> <s_epik_cmdline>
J2VwaWtfcHl0aG9uJywgJy1waCcsICc3LjAnLCAnLXRuJywgJzgnLCAnLW1hJywgJzIwMCcsICctbWV0YWxfYmluZGluZycsICctaW1hZScsICc8aW5maWxlLm1hZT4nLCAnLW9tYWUnLCAnPG91dGZpbGUubWFlPic=

> <r_epik_Ionization_Penalty>
1.0968

> <r_epik_Ionization_Penalty_Charging>
1.0096

> <r_epik_Ionization_Penalty_Neutral>
0.0871956

> <r_epik_State_Penalty>
1.31185

> <r_epik_Charging_Adjusted_Penalty>
2.32145

> <i_epik_Tot_Q>
2

> <i_epik_Tot_abs_Q>
2

> <r_epik_Metal_State_Penalty>
1.22442

> <b_epik_Metal_Only>
0

> <s_lp_Force_Field>
OPLS_2005

> <r_lp_Energy>
33.8035

> <b_lp_Chiralities_Consistent>
1

> <s_lp_Variant>
AV-unprocessed.smi:1005-6

> <Gold.Version>
5.8.1

> <Gold.Id.Protein>
6NUR|6NUR_protein|mol2

> <Gold.PLP.Fitness>
49.3182

> <Gold.PLP.PLP>
-42.9746

> <Gold.PLP.part.hbond>
-2.0000

> <Gold.PLP.part.metal>
0.0000

> <Gold.PLP.part.buried>
-3.6239

> <Gold.PLP.part.nonpolar>
-38.5963

> <Gold.PLP.part.repulsive>
2.1907

> <Gold.PLP.ligand.clash>
0.0000

> <Gold.PLP.ligand.torsion>
1.3876

> <Gold.PLP.Chemscore.Hbond>
3.0000

> <Gold.PLP.Chemscore.CHOScore>
0.0000

> <Gold.PLP.Chemscore.Metal>
0.0000

> <Gold.Chemscore.Hbonds>
donor molecule, donor type, donor heavy atom, donor atom, acceptor molecule, acceptor atom, score
      L1  H    18    56       P1  7948  1.17
      P1  H  7997  8009       L1     5  1.00

> <Gold.PLP.Chemscore.Internal.Correction>
0.1189

> <Gold.Rescore>
     Score         DG    S(hbond)    S(metal)    S(lipo)     H(rot)  DE(clash)    DE(int)     intcor
     17.55     -19.41       1.82        0.00     121.48       2.48       0.26       1.61       ----

> <Gold.Chemscore.Fitness>
17.5460

> <Gold.Chemscore.DG>
-19.4128

> <Gold.Chemscore.ZeroCoef>
-5.4800

> <Gold.Chemscore.Hbond>
1.8179

> <Gold.Chemscore.Metal>
0.0000

> <Gold.Chemscore.Lipo>
121.4828

> <Gold.Chemscore.Internal_Hbond>
0.0000

> <Gold.Chemscore.DEClash>
0.2570

> <Gold.Chemscore.DEInternal>
1.6098

> <Gold.Chemscore.Rot>
2.4814

> <Gold.Chemscore.Internal.Correction>
   9.000000E+99

> <Gold.Chemscore.Hbonds>
donor molecule, donor type, donor heavy atom, donor atom, acceptor molecule, acceptor atom, score
      L1  H    18    56       P1  7948  0.56
      P1  H  7997  8009       L1     5  0.46

> <Gold.Chemscore.Hbond.Weighted>
-6.0717

> <Gold.Chemscore.Metal.Weighted>
-0.0000

> <Gold.Chemscore.Lipo.Weighted>
-14.2135

> <Gold.Chemscore.Internal_Hbond.Weighted>
0.0000

> <Gold.Chemscore.DEClash.Weighted>
0.2570

> <Gold.Chemscore.DEInternal.Weighted>
1.6098

> <Gold.Chemscore.Rot.Weighted>
6.3524

> <Gold.Chemscore.Internal.Correction.Weighted>
   9.000000E+99

> <Gold.Protein.RotatedTorsions>
[ 6907 6896 6895 6894 ] final   93.26 input  -60.11 | X-H torsion
[ 7974 7965 7964 7962 ] final   14.18 input  175.53 | X-H torsion
[ 8008 7997 7996 7995 ] final -179.73 input   59.86 | X-H torsion
[ 10167 10162 10161 10158 ] final -107.17 input  -65.29 | X-H torsion
[ 10718 10713 10712 10709 ] final   50.72 input   66.30 | X-H torsion
[ 10763 10752 10751 10750 ] final  124.37 input  -60.55 | X-H torsion
[ 11005 11000 10999 10996 ] final   -0.35 input  -57.11 | X-H torsion

> <Gold.Protein.ActiveResidues>
 VAL166  LYS551  ARG553  GLY616  TRP617  ASP618  TYR619  PRO620  LYS621  CYS622 
 ASP623  PHE694  ASN695  SER759  ASP760  ASP761  ALA762  ILE779  LEU786  VAL792 
 PHE793  MET794  SER795  GLU796  ALA797  LYS798  CYS799  TRP800  GLU811  SER814 

> <Gold.Protein.RotatedAtoms>
  152.5452  134.1375  159.8464 H   0  0  0  0  0  0  0  0  0  0  0  0  # atno 6907 bound_to 6896
  151.1414  133.4961  159.2604 H   0  0  0  0  0  0  0  0  0  0  0  0  # atno 6908 bound_to 6896
  151.1568  135.0264  159.8747 H   0  0  0  0  0  0  0  0  0  0  0  0  # atno 6909 bound_to 6896
  146.2311  139.9079  142.8529 H   0  0  0  0  0  0  0  0  0  0  0  0  # atno 7974 bound_to 7965
  156.0338  140.1288  157.0229 H   0  0  0  0  0  0  0  0  0  0  0  0  # atno 8008 bound_to 7997
  154.4361  140.1044  156.6209 H   0  0  0  0  0  0  0  0  0  0  0  0  # atno 8009 bound_to 7997
  155.5767  140.3467  155.4531 H   0  0  0  0  0  0  0  0  0  0  0  0  # atno 8010 bound_to 7997
  140.1799  143.3975  152.1290 H   0  0  0  0  0  0  0  0  0  0  0  0  # atno 10167 bound_to 10162
  157.4912  130.8377  149.8204 H   0  0  0  0  0  0  0  0  0  0  0  0  # atno 10718 bound_to 10713
  153.6604  135.3347  155.3125 H   0  0  0  0  0  0  0  0  0  0  0  0  # atno 10763 bound_to 10752
  154.8516  135.4362  154.1811 H   0  0  0  0  0  0  0  0  0  0  0  0  # atno 10764 bound_to 10752
  153.2776  135.7006  153.7493 H   0  0  0  0  0  0  0  0  0  0  0  0  # atno 10765 bound_to 10752
  140.6353  133.9538  155.8296 H   0  0  0  0  0  0  0  0  0  0  0  0  # atno 11005 bound_to 11000
  145.2259  140.9954  143.4019 LP  0  0  0  0  0  0  0  0  0  0  0  0  # atno 17320 bound_to 7965
  144.9571  139.4020  143.6374 LP  0  0  0  0  0  0  0  0  0  0  0  0  # atno 17321 bound_to 7965
  139.5301  144.7149  151.5087 LP  0  0  0  0  0  0  0  0  0  0  0  0  # atno 17342 bound_to 10162
  140.6527  143.8664  150.6802 LP  0  0  0  0  0  0  0  0  0  0  0  0  # atno 17343 bound_to 10162
  156.0174  130.3808  150.2067 LP  0  0  0  0  0  0  0  0  0  0  0  0  # atno 17370 bound_to 10713
  157.0256  130.9992  151.3327 LP  0  0  0  0  0  0  0  0  0  0  0  0  # atno 17371 bound_to 10713
  141.0646  134.0296  157.3612 LP  0  0  0  0  0  0  0  0  0  0  0  0  # atno 17394 bound_to 11000
  139.9100  135.0188  156.7652 LP  0  0  0  0  0  0  0  0  0  0  0  0  # atno 17395 bound_to 11000

$$$$
