#       Name:                AV-unprocessed.smi:2881
#       Creating user name   scv26
#       Creation time:       Fri Mar 27 15:53:37 2020


#       File generated by GOLD software.
#

@<TRIPOS>MOLECULE
AV-unprocessed.smi:2881
    45    47     1
SMALL
NO_CHARGES


@<TRIPOS>ATOM
      1 ****        -4.1280   4.3415   0.3105 C.3            1 S1                 0.0000
      2 ****        -3.5814   3.1187   0.9868 C.2            1 S1                 0.0000
      3 ****        -3.3051   1.8439   0.4110 C.2            1 S1                 0.0000
      4 ****        -2.8259   1.0990   1.4522 C.2            1 S1                 0.0000
      5 ****        -2.3527  -0.3173   1.5182 C.3            1 S1                 0.0000
      6 ****        -0.8296  -0.3845   1.4128 C.2            1 S1                 0.0000
      7 ****        -0.1410  -0.3070   2.4299 O.2            1 S1                 0.0000
      8 ****        -0.3214  -0.5177   0.1782 N.am           1 S1                 0.0000
      9 ****         1.1008  -0.5847  -0.1501 C.3            1 S1                 0.0000
     10 ****         1.3486  -0.0306  -1.5707 C.3            1 S1                 0.0000
     11 ****         2.8519   0.2554  -1.7348 C.3            1 S1                 0.0000
     12 ****         3.4509  -1.1608  -1.8246 C.3            1 S1                 0.0000
     13 ****         2.2105  -2.0714  -1.6918 C.3            1 S1                 0.0000
     14 ****         1.1707  -1.2615  -2.4551 C.3            1 S1                 0.0000
     15 ****         1.6219  -2.0419  -0.2606 C.3            1 S1                 0.0000
     16 ****         2.6027  -2.4693   0.8490 C.3            1 S1                 0.0000
     17 ****         1.9081  -2.6969   2.0560 O.3            1 S1                 0.0000
     18 ****        -2.8418   1.9256   2.5530 N.pl3          1 S1                 0.0000
     19 ****        -3.3011   3.1610   2.2809 N.2            1 S1                 0.0000
     20 ****        -2.5401   1.6645   3.4813 H              1 S1                 0.0000
     21 ****        -4.0153   4.2755  -0.7719 H              1 S1                 0.0000
     22 ****        -3.6110   5.2428   0.6418 H              1 S1                 0.0000
     23 ****        -5.1891   4.4661   0.5273 H              1 S1                 0.0000
     24 ****        -3.4365   1.5265  -0.6129 H              1 S1                 0.0000
     25 ****        -2.8061  -0.9027   0.7170 H              1 S1                 0.0000
     26 ****        -2.6696  -0.7770   2.4552 H              1 S1                 0.0000
     27 ****        -0.9678  -0.5684  -0.5957 H              1 S1                 0.0000
     28 ****         1.6720  -0.0047   0.5775 H              1 S1                 0.0000
     29 ****         0.7198   0.8214  -1.8325 H              1 S1                 0.0000
     30 ****         3.0439   0.8113  -2.6533 H              1 S1                 0.0000
     31 ****         3.2615   0.8320  -0.9045 H              1 S1                 0.0000
     32 ****         3.9266  -1.3063  -2.7954 H              1 S1                 0.0000
     33 ****         4.2085  -1.3469  -1.0642 H              1 S1                 0.0000
     34 ****         2.3689  -3.0802  -2.0743 H              1 S1                 0.0000
     35 ****         0.1673  -1.6887  -2.4102 H              1 S1                 0.0000
     36 ****         1.4365  -1.0868  -3.4994 H              1 S1                 0.0000
     37 ****         0.7797  -2.7372  -0.2501 H              1 S1                 0.0000
     38 ****         3.1116  -3.3921   0.5696 H              1 S1                 0.0000
     39 ****         3.3686  -1.7134   1.0215 H              1 S1                 0.0000
     40 ****         2.5330  -2.9372   2.7229 H              1 S1                 0.0000
     41 ****        -0.5783  -0.2003   3.3228 LP             1 S1                 0.0000
     42 ****         0.8558  -0.3507   2.3634 LP             1 S1                 0.0000
     43 ****         1.2480  -3.4375   1.9303 LP             1 S1                 0.0000
     44 ****         1.4267  -1.8643   2.3298 LP             1 S1                 0.0000
     45 ****        -3.4063   3.9317   2.9094 LP             1 S1                 0.0000
@<TRIPOS>BOND
    1    1   21 1     
    2    1   22 1     
    3    1   23 1     
    4    1    2 1     
    5    2   19 2     
    6    2    3 1     
    7    3    4 2     
    8    3   24 1     
    9    4   18 1     
   10    4    5 1     
   11    5    6 1     
   12    5   25 1     
   13    5   26 1     
   14    6    7 2     
   15    6    8 am    
   16    8    9 1     
   17    8   27 1     
   18    9   15 1     
   19    9   10 1     
   20    9   28 1     
   21   10   14 1     
   22   10   11 1     
   23   10   29 1     
   24   11   12 1     
   25   11   30 1     
   26   11   31 1     
   27   12   13 1     
   28   12   32 1     
   29   12   33 1     
   30   13   14 1     
   31   13   15 1     
   32   13   34 1     
   33   14   35 1     
   34   14   36 1     
   35   15   16 1     
   36   15   37 1     
   37   16   17 1     
   38   16   38 1     
   39   16   39 1     
   40   17   40 1     
   41   18   19 1     
   42   18   20 1     
   43    7   41 1     
   44    7   42 1     
   45   17   43 1     
   46   17   44 1     
   47   19   45 1     
@<TRIPOS>SUBSTRUCTURE
      1 S1             1
@<TRIPOS>SET
LONE_PAIRS      STATIC     ATOMS    <user>   **** ""
5 41 42 43 44 45
DONOR_HYDROGENS      STATIC     ATOMS    <user>   **** ""
3 27 40 20
ATOM$BLUE        STATIC     ATOMS    COLORGROUP SYSTEM
5 41 42 43 44 45
ATOM$RED        STATIC     ATOMS    COLORGROUP SYSTEM
3 27 40 20
