#       Name:                AV-unprocessed.smi:535
#       Creating user name   scv26
#       Creation time:       Thu Mar 26 23:35:23 2020


#       File generated by GOLD software.
#

@<TRIPOS>MOLECULE
AV-unprocessed.smi:535
    53    55     1
SMALL
NO_CHARGES


@<TRIPOS>ATOM
      1 ****        -3.9122   3.1616  -1.3238 C.3            1 S1                 0.0000
      2 ****        -3.4521   1.8463  -1.0684 O.3            1 S1                 0.0000
      3 ****        -2.0754   1.6862  -1.3664 C.3            1 S1                 0.0000
      4 ****        -1.6738   0.2289  -1.0832 C.3            1 S1                 0.0000
      5 ****        -0.2345   0.0125  -1.2077 N.pl3          1 S1                 0.0000
      6 ****         0.7015  -0.1406  -0.2251 C.2            1 S1                 0.0000
      7 ****         0.4095  -0.0889   1.1459 N.pl3          1 S1                 0.0000
      8 ****        -0.4403   0.8781   1.8458 C.3            1 S1                 0.0000
      9 ****        -1.4648   0.1884   2.7641 C.3            1 S1                 0.0000
     10 ****        -0.7528  -0.7000   3.7907 C.3            1 S1                 0.0000
     11 ****         0.2143  -1.6579   3.0763 C.3            1 S1                 0.0000
     12 ****         1.0079  -2.5082   4.0775 C.3            1 S1                 0.0000
     13 ****         1.1516  -0.8614   2.1458 C.3            1 S1                 0.0000
     14 ****         1.9342  -0.3815  -0.6800 N.2            1 S1                 0.0000
     15 ****         1.7797  -0.3668  -2.0555 C.2            1 S1                 0.0000
     16 ****         0.4842  -0.1441  -2.3996 C.2            1 S1                 0.0000
     17 ****         0.0031  -0.1104  -3.8000 C.2            1 S1                 0.0000
     18 ****        -1.1848   0.0670  -4.0613 O.2            1 S1                 0.0000
     19 ****         1.0178  -0.3001  -4.7016 N.pl3          1 S1                -1.0000
     20 ****         2.3433  -0.5195  -4.3953 C.2            1 S1                 0.0000
     21 ****         3.1946  -0.6822  -5.2705 O.2            1 S1                 0.0000
     22 ****         2.7407  -0.5611  -3.0850 N.am           1 S1                 0.0000
     23 ****         4.1427  -0.7977  -2.7289 C.3            1 S1                 0.0000
     24 ****        -4.9702   3.2348  -1.0726 H              1 S1                 0.0000
     25 ****        -3.7973   3.4215  -2.3769 H              1 S1                 0.0000
     26 ****        -3.3719   3.8929  -0.7214 H              1 S1                 0.0000
     27 ****        -1.8902   1.9400  -2.4101 H              1 S1                 0.0000
     28 ****        -1.4843   2.3776  -0.7659 H              1 S1                 0.0000
     29 ****        -2.0050  -0.0766  -0.0943 H              1 S1                 0.0000
     30 ****        -2.1909  -0.4442  -1.7664 H              1 S1                 0.0000
     31 ****         0.1977   1.5344   2.4392 H              1 S1                 0.0000
     32 ****        -0.9482   1.5309   1.1428 H              1 S1                 0.0000
     33 ****        -2.0705   0.9367   3.2757 H              1 S1                 0.0000
     34 ****        -2.1530  -0.4160   2.1731 H              1 S1                 0.0000
     35 ****        -0.2017  -0.0731   4.4930 H              1 S1                 0.0000
     36 ****        -1.4840  -1.2589   4.3758 H              1 S1                 0.0000
     37 ****        -0.3746  -2.3384   2.4591 H              1 S1                 0.0000
     38 ****         1.6272  -1.8851   4.7233 H              1 S1                 0.0000
     39 ****         1.6647  -3.2095   3.5620 H              1 S1                 0.0000
     40 ****         0.3405  -3.0892   4.7144 H              1 S1                 0.0000
     41 ****         1.8274  -1.5558   1.6457 H              1 S1                 0.0000
     42 ****         1.7818  -0.1861   2.7262 H              1 S1                 0.0000
     43 ****         4.7827  -0.0300  -3.1654 H              1 S1                 0.0000
     44 ****         4.4723  -1.7689  -3.1004 H              1 S1                 0.0000
     45 ****         4.3119  -0.7862  -1.6525 H              1 S1                 0.0000
     46 ****        -3.9783   1.2077  -1.6298 LP             1 S1                 0.0000
     47 ****        -3.5974   1.6377  -0.1012 LP             1 S1                 0.0000
     48 ****         2.7696  -0.5357  -0.1524 LP             1 S1                 0.0000
     49 ****        -1.8462   0.1919  -3.3217 LP             1 S1                 0.0000
     50 ****        -1.4898   0.0865  -5.0134 LP             1 S1                 0.0000
     51 ****         0.7738  -0.2772  -5.6711 LP             1 S1                 0.0000
     52 ****         2.9314  -0.6570  -6.2349 LP             1 S1                 0.0000
     53 ****         4.1490  -0.8395  -5.0166 LP             1 S1                 0.0000
@<TRIPOS>BOND
    1    1    2 1     
    2    1   24 1     
    3    1   25 1     
    4    1   26 1     
    5    2    3 1     
    6    3    4 1     
    7    3   27 1     
    8    3   28 1     
    9    4    5 1     
   10    4   29 1     
   11    4   30 1     
   12    5   16 1     
   13    5    6 1     
   14    6    7 1     
   15    6   14 2     
   16    7   13 1     
   17    7    8 1     
   18    8    9 1     
   19    8   31 1     
   20    8   32 1     
   21    9   10 1     
   22    9   33 1     
   23    9   34 1     
   24   10   11 1     
   25   10   35 1     
   26   10   36 1     
   27   11   12 1     
   28   11   13 1     
   29   11   37 1     
   30   12   38 1     
   31   12   39 1     
   32   12   40 1     
   33   13   41 1     
   34   13   42 1     
   35   14   15 1     
   36   15   22 1     
   37   15   16 2     
   38   16   17 1     
   39   17   18 2     
   40   17   19 1     
   41   19   20 1     
   42   20   21 2     
   43   20   22 am    
   44   22   23 1     
   45   23   43 1     
   46   23   44 1     
   47   23   45 1     
   48    2   46 1     
   49    2   47 1     
   50   14   48 1     
   51   18   49 1     
   52   18   50 1     
   53   19   51 1     
   54   21   52 1     
   55   21   53 1     
@<TRIPOS>SUBSTRUCTURE
      1 S1             1
@<TRIPOS>SET
LONE_PAIRS      STATIC     ATOMS    <user>   **** ""
8 46 47 48 49 50 51 52 53
ATOM$BLUE        STATIC     ATOMS    COLORGROUP SYSTEM
8 46 47 48 49 50 51 52 53
