AV-unprocessed.smi:1202|AV-procd|sdf|5032|dock5
  -GOLD-   22720 4 53D 1   1.00000     0.00000
 Structure written by MMmdl.
 44 45  0  0  0  0  0  0  0  0  3 V2000
  149.0335  132.2429  153.5468 C   0  0  0  0  0  0  0  0  0  0  0  0
  148.5217  133.5539  153.9290 N   0  5  0  0  0  0  0  0  0  0  0  0
  149.1946  134.4140  154.7426 C   0  0  0  0  0  0  0  0  0  0  0  0
  150.3284  134.3434  155.2272 O   0  0  0  0  0  0  0  0  0  0  0  0
  148.3439  135.6491  155.0660 C   0  0  0  0  0  0  0  0  0  0  0  0
  148.9643  136.8848  154.5217 N   0  3  2  0  0  0  0  0  0  0  0  0
  150.3461  137.1194  155.0204 C   0  0  0  0  0  0  0  0  0  0  0  0
  150.9910  138.3339  154.3277 C   0  0  0  0  0  0  0  0  0  0  0  0
  150.1353  139.6041  154.4754 C   0  0  2  0  0  0  0  0  0  0  0  0
  150.1725  140.0847  155.8560 N   0  0  0  0  0  0  0  0  0  0  0  0
  151.2794  140.2449  156.5971 C   0  0  0  0  0  0  0  0  0  0  0  0
  152.4107  139.9836  156.1863 O   0  0  0  0  0  0  0  0  0  0  0  0
  151.0616  140.7642  158.0253 C   0  0  0  0  0  0  0  0  0  0  0  0
  151.6166  142.1103  158.2441 N   0  0  0  0  0  0  0  0  0  0  0  0
  151.1226  143.1495  157.4305 C   0  0  0  0  0  0  0  0  0  0  0  0
  151.5585  144.4135  157.5502 C   0  0  0  0  0  0  0  0  0  0  0  0
  152.5629  144.6974  158.5479 C   0  0  0  0  0  0  0  0  0  0  0  0
  153.0417  143.7110  159.3320 C   0  0  0  0  0  0  0  0  0  0  0  0
  152.5681  142.3280  159.2043 C   0  0  0  0  0  0  0  0  0  0  0  0
  152.9991  141.4202  159.9165 O   0  0  0  0  0  0  0  0  0  0  0  0
  148.6956  139.3120  154.0079 C   0  0  0  0  0  0  0  0  0  0  0  0
  148.1012  138.0780  154.7094 C   0  0  0  0  0  0  0  0  0  0  0  0
  148.3562  131.7267  152.8667 H   0  0  0  0  0  0  0  0  0  0  0  0
  149.1724  131.5846  154.4046 H   0  0  0  0  0  0  0  0  0  0  0  0
  149.9949  132.3044  153.0361 H   0  0  0  0  0  0  0  0  0  0  0  0
  147.3559  135.4964  154.6281 H   0  0  0  0  0  0  0  0  0  0  0  0
  148.1950  135.7437  156.1429 H   0  0  0  0  0  0  0  0  0  0  0  0
  150.3223  137.2670  156.1012 H   0  0  0  0  0  0  0  0  0  0  0  0
  150.9661  136.2412  154.8392 H   0  0  0  0  0  0  0  0  0  0  0  0
  151.9929  138.5038  154.7244 H   0  0  0  0  0  0  0  0  0  0  0  0
  151.1196  138.1098  153.2679 H   0  0  0  0  0  0  0  0  0  0  0  0
  150.5639  140.3790  153.8371 H   0  0  0  0  0  0  0  0  0  0  0  0
  149.2863  140.3145  156.2818 H   0  0  0  0  0  0  0  0  0  0  0  0
  149.9948  140.7604  158.2575 H   0  0  0  0  0  0  0  0  0  0  0  0
  151.5062  140.0470  158.7168 H   0  0  0  0  0  0  0  0  0  0  0  0
  150.3690  142.8558  156.7143 H   0  0  0  0  0  0  0  0  0  0  0  0
  151.1660  145.1976  156.9197 H   0  0  0  0  0  0  0  0  0  0  0  0
  152.9303  145.7059  158.6675 H   0  0  0  0  0  0  0  0  0  0  0  0
  153.7915  143.9428  160.0741 H   0  0  0  0  0  0  0  0  0  0  0  0
  148.0536  140.1788  154.1691 H   0  0  0  0  0  0  0  0  0  0  0  0
  148.6992  139.1390  152.9308 H   0  0  0  0  0  0  0  0  0  0  0  0
  147.1096  137.8805  154.3007 H   0  0  0  0  0  0  0  0  0  0  0  0
  147.9707  138.2715  155.7753 H   0  0  0  0  0  0  0  0  0  0  0  0
  149.0311  136.7315  153.5247 H   0  0  0  0  0  0  0  0  0  0  0  0
  1  2  1  0  0  0  0
  1 23  1  0  0  0  0
  1 24  1  0  0  0  0
  1 25  1  0  0  0  0
  2  3  1  0  0  0  0
  3  4  2  0  0  0  0
  3  5  1  0  0  0  0
  5  6  1  0  0  0  0
  5 26  1  0  0  0  0
  5 27  1  0  0  0  0
  6 22  1  0  0  0  0
  6  7  1  0  0  0  0
  6 44  1  0  0  0  0
  7  8  1  0  0  0  0
  7 28  1  0  0  0  0
  7 29  1  0  0  0  0
  8  9  1  0  0  0  0
  8 30  1  0  0  0  0
  8 31  1  0  0  0  0
  9 10  1  0  0  0  0
  9 21  1  0  0  0  0
  9 32  1  0  0  0  0
 10 11  1  0  0  0  0
 10 33  1  0  0  0  0
 11 12  2  0  0  0  0
 11 13  1  0  0  0  0
 13 14  1  0  0  0  0
 13 34  1  0  0  0  0
 13 35  1  0  0  0  0
 14 19  1  0  0  0  0
 14 15  1  0  0  0  0
 15 16  2  0  0  0  0
 15 36  1  0  0  0  0
 16 17  1  0  0  0  0
 16 37  1  0  0  0  0
 17 18  2  0  0  0  0
 17 38  1  0  0  0  0
 18 19  1  0  0  0  0
 18 39  1  0  0  0  0
 19 20  2  0  0  0  0
 21 22  1  0  0  0  0
 21 40  1  0  0  0  0
 21 41  1  0  0  0  0
 22 42  1  0  0  0  0
 22 43  1  0  0  0  0
M  CHG  1   2  -1
M  CHG  1   6   1
M  END
> <s_m_source_file>
AV-unprocessed.smi

> <i_m_source_file_index>
1202

> <i_lp_mmshare_version>
43012

> <i_f3d_flags>
0

> <s_epik_input>
W0NIM11bTkhdQyg9TylbQ0gyXU4xW0NIMl1bQ0gyXVtDSF0oW0NIMl1bQ0gyXTEpW05IXUMoPU8pW0NIMl1uMltjSF1bY0hdW2NIXVtjSF1jMj1P

> <s_epik_cmdline>
J2VwaWtfcHl0aG9uJywgJy1waCcsICc3LjAnLCAnLXRuJywgJzgnLCAnLW1hJywgJzIwMCcsICctbWV0YWxfYmluZGluZycsICctaW1hZScsICc8aW5maWxlLm1hZT4nLCAnLW9tYWUnLCAnPG91dGZpbGUubWFlPic=

> <r_lp_tautomer_probability>
1

> <r_epik_Ionization_Penalty>
6.12124

> <r_epik_Ionization_Penalty_Charging>
6.12124

> <r_epik_Ionization_Penalty_Neutral>
4.50226e-08

> <r_epik_State_Penalty>
7.08052

> <r_epik_Charging_Adjusted_Penalty>
13.2018

> <i_epik_Tot_Q>
0

> <i_epik_Tot_abs_Q>
2

> <r_epik_Metal_State_Penalty>
3.01282

> <b_epik_Metal_Only>
1

> <s_lp_Force_Field>
OPLS_2005

> <r_lp_Energy>
20.2211

> <b_lp_Chiralities_Consistent>
1

> <s_lp_Variant>
AV-unprocessed.smi:1202-5

> <Gold.Version>
5.8.1

> <Gold.Id.Protein>
6NUR|6NUR_protein|mol2

> <Gold.PLP.Fitness>
53.5880

> <Gold.PLP.PLP>
-43.2294

> <Gold.PLP.part.hbond>
-2.0000

> <Gold.PLP.part.metal>
0.0000

> <Gold.PLP.part.buried>
-3.2981

> <Gold.PLP.part.nonpolar>
-37.2204

> <Gold.PLP.part.repulsive>
0.3044

> <Gold.PLP.ligand.clash>
0.0000

> <Gold.PLP.ligand.torsion>
0.1876

> <Gold.PLP.Chemscore.Hbond>
3.0000

> <Gold.PLP.Chemscore.CHOScore>
0.5557

> <Gold.PLP.Chemscore.Metal>
0.0000

> <Gold.Chemscore.Hbonds>
donor molecule, donor type, donor heavy atom, donor atom, acceptor molecule, acceptor atom, score
      L1  H     6    44       P1  7948  2.00
      P1  H  7997  8010       L1    12  0.99
      L1  C    15    36       P1  8028  0.62

> <Gold.PLP.Chemscore.Internal.Correction>
0.0665

> <Gold.Rescore>
     Score         DG    S(hbond)    S(metal)    S(lipo)     H(rot)  DE(clash)    DE(int)     intcor
     15.01     -17.99       1.99        0.00      97.05       2.15       0.20       2.78       ----

> <Gold.Chemscore.Fitness>
15.0071

> <Gold.Chemscore.DG>
-17.9887

> <Gold.Chemscore.ZeroCoef>
-5.4800

> <Gold.Chemscore.Hbond>
1.9941

> <Gold.Chemscore.Metal>
0.0000

> <Gold.Chemscore.Lipo>
97.0520

> <Gold.Chemscore.Internal_Hbond>
0.0000

> <Gold.Chemscore.DEClash>
0.2023

> <Gold.Chemscore.DEInternal>
2.7793

> <Gold.Chemscore.Rot>
2.1510

> <Gold.Chemscore.Internal.Correction>
   9.000000E+99

> <Gold.Chemscore.Hbonds>
donor molecule, donor type, donor heavy atom, donor atom, acceptor molecule, acceptor atom, score
      L1  H     6    44       P1  7948  1.00
      P1  H  7997  8010       L1    12  0.91

> <Gold.Chemscore.Hbond.Weighted>
-6.6601

> <Gold.Chemscore.Metal.Weighted>
-0.0000

> <Gold.Chemscore.Lipo.Weighted>
-11.3551

> <Gold.Chemscore.Internal_Hbond.Weighted>
0.0000

> <Gold.Chemscore.DEClash.Weighted>
0.2023

> <Gold.Chemscore.DEInternal.Weighted>
2.7793

> <Gold.Chemscore.Rot.Weighted>
5.5065

> <Gold.Chemscore.Internal.Correction.Weighted>
   9.000000E+99

> <Gold.Protein.RotatedTorsions>
[ 6907 6896 6895 6894 ] final  178.21 input  -60.11 | X-H torsion
[ 7974 7965 7964 7962 ] final  126.84 input  175.53 | X-H torsion
[ 8008 7997 7996 7995 ] final   96.69 input   59.86 | X-H torsion
[ 10167 10162 10161 10158 ] final  -28.06 input  -65.29 | X-H torsion
[ 10718 10713 10712 10709 ] final   43.22 input   66.30 | X-H torsion
[ 10763 10752 10751 10750 ] final  -50.86 input  -60.55 | X-H torsion
[ 11005 11000 10999 10996 ] final  164.45 input  -57.11 | X-H torsion

> <Gold.Protein.ActiveResidues>
 VAL166  LYS551  ARG553  GLY616  TRP617  ASP618  TYR619  PRO620  LYS621  CYS622 
 ASP623  PHE694  ASN695  SER759  ASP760  ASP761  ALA762  ILE779  LEU786  VAL792 
 PHE793  MET794  SER795  GLU796  ALA797  LYS798  CYS799  TRP800  GLU811  SER814 

> <Gold.Protein.RotatedAtoms>
  151.6915  133.3311  159.3243 H   0  0  0  0  0  0  0  0  0  0  0  0  # atno 6907 bound_to 6896
  150.7777  134.6695  159.6393 H   0  0  0  0  0  0  0  0  0  0  0  0  # atno 6908 bound_to 6896
  152.3824  134.6572  160.0190 H   0  0  0  0  0  0  0  0  0  0  0  0  # atno 6909 bound_to 6896
  145.0572  139.3834  143.5024 H   0  0  0  0  0  0  0  0  0  0  0  0  # atno 7974 bound_to 7965
  156.0823  140.3269  155.7709 H   0  0  0  0  0  0  0  0  0  0  0  0  # atno 8008 bound_to 7997
  155.5133  140.0579  157.2937 H   0  0  0  0  0  0  0  0  0  0  0  0  # atno 8009 bound_to 7997
  154.4589  140.1957  156.0317 H   0  0  0  0  0  0  0  0  0  0  0  0  # atno 8010 bound_to 7997
  140.7273  143.4041  151.1214 H   0  0  0  0  0  0  0  0  0  0  0  0  # atno 10167 bound_to 10162
  157.4135  130.7928  149.7451 H   0  0  0  0  0  0  0  0  0  0  0  0  # atno 10718 bound_to 10713
  154.1171  135.6540  153.4896 H   0  0  0  0  0  0  0  0  0  0  0  0  # atno 10763 bound_to 10752
  153.0237  135.5261  154.7133 H   0  0  0  0  0  0  0  0  0  0  0  0  # atno 10764 bound_to 10752
  154.6330  135.2978  155.0163 H   0  0  0  0  0  0  0  0  0  0  0  0  # atno 10765 bound_to 10752
  140.2460  134.8014  157.3456 H   0  0  0  0  0  0  0  0  0  0  0  0  # atno 11005 bound_to 11000
  146.3522  140.0252  142.8655 LP  0  0  0  0  0  0  0  0  0  0  0  0  # atno 17320 bound_to 7965
  145.1454  140.9594  143.4464 LP  0  0  0  0  0  0  0  0  0  0  0  0  # atno 17321 bound_to 7965
  139.7665  143.8557  152.3112 LP  0  0  0  0  0  0  0  0  0  0  0  0  # atno 17342 bound_to 10162
  139.8461  144.7187  150.9271 LP  0  0  0  0  0  0  0  0  0  0  0  0  # atno 17343 bound_to 10162
  155.9858  130.3980  150.3245 LP  0  0  0  0  0  0  0  0  0  0  0  0  # atno 17370 bound_to 10713
  157.1385  131.0290  151.2938 LP  0  0  0  0  0  0  0  0  0  0  0  0  # atno 17371 bound_to 10713
  140.1605  134.4734  155.7898 LP  0  0  0  0  0  0  0  0  0  0  0  0  # atno 17394 bound_to 11000
  141.2206  133.6899  156.7537 LP  0  0  0  0  0  0  0  0  0  0  0  0  # atno 17395 bound_to 11000

$$$$
