AV-unprocessed.smi:130|AV-procd|sdf|1159|dock10
  -GOLD-   2262018293D 1   1.00000     0.00000
 Structure written by MMmdl.
 44 47  0  0  0  0  0  0  0  0  1 V2000
  152.9525  138.7038  157.0213 O   0  0  0  0  0  0  0  0  0  0  0  0
  152.0581  139.4244  156.5767 C   0  0  0  0  0  0  0  0  0  0  0  0
  151.3970  139.0477  155.2324 C   0  0  0  0  0  0  0  0  0  0  0  0
  150.3633  137.9949  155.3518 N   0  0  0  0  0  0  0  0  0  0  0  0
  149.0191  138.3232  155.0449 C   0  0  0  0  0  0  0  0  0  0  0  0
  148.7027  139.4623  154.6986 O   0  0  0  0  0  0  0  0  0  0  0  0
  148.0614  137.2287  155.1571 C   0  0  0  0  0  0  0  0  0  0  0  0
  146.7651  137.4472  154.8788 F   0  0  0  0  0  0  0  0  0  0  0  0
  148.4576  135.9951  155.5315 C   0  0  0  0  0  0  0  0  0  0  0  0
  149.7726  135.6897  155.8304 N   0  0  0  0  0  0  0  0  0  0  0  0
  150.1817  134.2881  156.2220 C   0  0  2  0  0  0  0  0  0  0  0  0
  149.9526  133.3239  155.0520 C   0  0  0  0  0  0  0  0  0  0  0  0
  148.5952  132.7428  155.3851 C   0  0  0  0  0  0  0  0  0  0  0  0
  148.6449  132.7025  156.9078 C   0  0  0  0  0  0  0  0  0  0  0  0
  149.3817  133.8613  157.2875 O   0  0  0  0  0  0  0  0  0  0  0  0
  150.7629  136.6909  155.7309 C   0  0  0  0  0  0  0  0  0  0  0  0
  151.9470  136.4309  155.9556 O   0  0  0  0  0  0  0  0  0  0  0  0
  151.6184  140.5410  157.2090 N   0  0  0  0  0  0  0  0  0  0  0  0
  150.5578  141.4132  156.6744 C   0  0  0  0  0  0  0  0  0  0  0  0
  150.3924  142.5672  157.6874 C   0  0  0  0  0  0  0  0  0  0  0  0
  151.3904  142.2273  158.7546 C   0  0  0  0  0  0  0  0  0  0  0  0
  151.6430  142.9537  159.9312 C   0  0  0  0  0  0  0  0  0  0  0  0
  152.6255  142.4668  160.8186 C   0  0  0  0  0  0  0  0  0  0  0  0
  153.3312  141.2785  160.5204 C   0  0  0  0  0  0  0  0  0  0  0  0
  153.0652  140.5615  159.3331 C   0  0  0  0  0  0  0  0  0  0  0  0
  152.0792  141.0569  158.4495 C   0  0  0  0  0  0  0  0  0  0  0  0
  150.9702  139.9460  154.7841 H   0  0  0  0  0  0  0  0  0  0  0  0
  152.1727  138.7398  154.5300 H   0  0  0  0  0  0  0  0  0  0  0  0
  147.7068  135.2213  155.5899 H   0  0  0  0  0  0  0  0  0  0  0  0
  151.2209  134.3491  156.5489 H   0  0  0  0  0  0  0  0  0  0  0  0
  149.9979  133.8245  154.0839 H   0  0  0  0  0  0  0  0  0  0  0  0
  150.7186  132.5482  155.0850 H   0  0  0  0  0  0  0  0  0  0  0  0
  147.8038  133.4134  155.0487 H   0  0  0  0  0  0  0  0  0  0  0  0
  148.4269  131.7630  154.9372 H   0  0  0  0  0  0  0  0  0  0  0  0
  147.6539  132.6915  157.3617 H   0  0  0  0  0  0  0  0  0  0  0  0
  149.1851  131.8174  157.2462 H   0  0  0  0  0  0  0  0  0  0  0  0
  150.8308  141.8060  155.6942 H   0  0  0  0  0  0  0  0  0  0  0  0
  149.6220  140.8616  156.5741 H   0  0  0  0  0  0  0  0  0  0  0  0
  150.6267  143.5349  157.2426 H   0  0  0  0  0  0  0  0  0  0  0  0
  149.3848  142.6038  158.1027 H   0  0  0  0  0  0  0  0  0  0  0  0
  151.0988  143.8605  160.1507 H   0  0  0  0  0  0  0  0  0  0  0  0
  152.8396  143.0039  161.7306 H   0  0  0  0  0  0  0  0  0  0  0  0
  154.0807  140.9148  161.2074 H   0  0  0  0  0  0  0  0  0  0  0  0
  153.6195  139.6580  159.1346 H   0  0  0  0  0  0  0  0  0  0  0  0
  1  2  2  0  0  0  0
  2  3  1  0  0  0  0
  2 18  1  0  0  0  0
  3  4  1  0  0  0  0
  3 27  1  0  0  0  0
  3 28  1  0  0  0  0
  4 16  1  0  0  0  0
  4  5  1  0  0  0  0
  5  6  2  0  0  0  0
  5  7  1  0  0  0  0
  7  8  1  0  0  0  0
  7  9  2  0  0  0  0
  9 10  1  0  0  0  0
  9 29  1  0  0  0  0
 10 11  1  0  0  0  0
 10 16  1  0  0  0  0
 11 15  1  0  0  0  0
 11 12  1  0  0  0  0
 11 30  1  0  0  0  0
 12 13  1  0  0  0  0
 12 31  1  0  0  0  0
 12 32  1  0  0  0  0
 13 14  1  0  0  0  0
 13 33  1  0  0  0  0
 13 34  1  0  0  0  0
 14 15  1  0  0  0  0
 14 35  1  0  0  0  0
 14 36  1  0  0  0  0
 16 17  2  0  0  0  0
 18 26  1  0  0  0  0
 18 19  1  0  0  0  0
 19 20  1  0  0  0  0
 19 37  1  0  0  0  0
 19 38  1  0  0  0  0
 20 21  1  0  0  0  0
 20 39  1  0  0  0  0
 20 40  1  0  0  0  0
 21 26  2  0  0  0  0
 21 22  1  0  0  0  0
 22 23  2  0  0  0  0
 22 41  1  0  0  0  0
 23 24  1  0  0  0  0
 23 42  1  0  0  0  0
 24 25  2  0  0  0  0
 24 43  1  0  0  0  0
 25 26  1  0  0  0  0
 25 44  1  0  0  0  0
M  END
> <s_m_source_file>
AV-unprocessed.smi

> <i_m_source_file_index>
130

> <i_lp_mmshare_version>
43012

> <i_f3d_flags>
0

> <s_epik_input>
W2NIXTFbY0hdW2NIXVtjSF1jKGMxMilOKFtDSDJdW0NIMl0yKUMoPU8pW0NIMl1uM2MoPU8pYyhGKVtjSF1uKGMzPU8pW0NAQEhdNFtDSDJdW0NIMl1bQ0gyXU80

> <s_epik_cmdline>
J2VwaWtfcHl0aG9uJywgJy1waCcsICc3LjAnLCAnLXRuJywgJzgnLCAnLW1hJywgJzIwMCcsICctbWV0YWxfYmluZGluZycsICctaW1hZScsICc8aW5maWxlLm1hZT4nLCAnLW9tYWUnLCAnPG91dGZpbGUubWFlPic=

> <r_lp_tautomer_probability>
1

> <r_epik_Ionization_Penalty>
1.67926e-06

> <r_epik_Ionization_Penalty_Charging>
3.62822e-09

> <r_epik_Ionization_Penalty_Neutral>
1.67563e-06

> <r_epik_State_Penalty>
-0

> <r_epik_Charging_Adjusted_Penalty>
3.62822e-09

> <i_epik_Tot_Q>
0

> <i_epik_Tot_abs_Q>
0

> <r_epik_Metal_State_Penalty>
-0

> <b_epik_Metal_Only>
0

> <s_epik_Chemistry_Notes>
This compound contains an acetal/aminal-like group ( X-CH(R)-Y where X, Y are N, S, or O) that may be acid/base labile, releasing an aldehyde.

> <s_lp_Force_Field>
OPLS_2005

> <r_lp_Energy>
53.4857

> <b_lp_Chiralities_Consistent>
1

> <s_lp_Variant>
AV-unprocessed.smi:130-1

> <Gold.Version>
5.8.1

> <Gold.Id.Protein>
6NUR|6NUR_protein|mol2

> <Gold.PLP.Fitness>
48.0231

> <Gold.PLP.PLP>
-42.8211

> <Gold.PLP.part.hbond>
-2.0000

> <Gold.PLP.part.metal>
0.0000

> <Gold.PLP.part.buried>
-3.1837

> <Gold.PLP.part.nonpolar>
-37.2599

> <Gold.PLP.part.repulsive>
0.1787

> <Gold.PLP.ligand.clash>
0.0000

> <Gold.PLP.ligand.torsion>
0.4042

> <Gold.PLP.Chemscore.Hbond>
2.0000

> <Gold.PLP.Chemscore.CHOScore>
0.0000

> <Gold.PLP.Chemscore.Metal>
0.0000

> <Gold.Chemscore.Hbonds>
donor molecule, donor type, donor heavy atom, donor atom, acceptor molecule, acceptor atom, score
      P1  H  7997  8010       L1     1  0.85
      P1  H 10752 10764       L1    17  1.00

> <Gold.PLP.Chemscore.Internal.Correction>
0.0103

> <Gold.Rescore>
     Score         DG    S(hbond)    S(metal)    S(lipo)     H(rot)  DE(clash)    DE(int)     intcor
     14.13     -17.57       1.51        0.00      94.63       1.57       0.36       3.08       ----

> <Gold.Chemscore.Fitness>
14.1277

> <Gold.Chemscore.DG>
-17.5739

> <Gold.Chemscore.ZeroCoef>
-5.4800

> <Gold.Chemscore.Hbond>
1.5097

> <Gold.Chemscore.Metal>
0.0000

> <Gold.Chemscore.Lipo>
94.6294

> <Gold.Chemscore.Internal_Hbond>
0.0000

> <Gold.Chemscore.DEClash>
0.3646

> <Gold.Chemscore.DEInternal>
3.0816

> <Gold.Chemscore.Rot>
1.5704

> <Gold.Chemscore.Internal.Correction>
   9.000000E+99

> <Gold.Chemscore.Hbonds>
donor molecule, donor type, donor heavy atom, donor atom, acceptor molecule, acceptor atom, score
      P1  H  7997  8010       L1     1  0.14
      P1  H 10752 10764       L1    17  0.95

> <Gold.Chemscore.Hbond.Weighted>
-5.0425

> <Gold.Chemscore.Metal.Weighted>
-0.0000

> <Gold.Chemscore.Lipo.Weighted>
-11.0716

> <Gold.Chemscore.Internal_Hbond.Weighted>
0.0000

> <Gold.Chemscore.DEClash.Weighted>
0.3646

> <Gold.Chemscore.DEInternal.Weighted>
3.0816

> <Gold.Chemscore.Rot.Weighted>
4.0203

> <Gold.Chemscore.Internal.Correction.Weighted>
   9.000000E+99

> <Gold.Protein.RotatedTorsions>
[ 6907 6896 6895 6894 ] final  -84.89 input  -60.11 | X-H torsion
[ 7974 7965 7964 7962 ] final   33.64 input  175.53 | X-H torsion
[ 8008 7997 7996 7995 ] final   47.64 input   59.86 | X-H torsion
[ 10167 10162 10161 10158 ] final   60.09 input  -65.29 | X-H torsion
[ 10718 10713 10712 10709 ] final    4.71 input   66.30 | X-H torsion
[ 10763 10752 10751 10750 ] final  -53.02 input  -60.55 | X-H torsion
[ 11005 11000 10999 10996 ] final  -85.88 input  -57.11 | X-H torsion

> <Gold.Protein.ActiveResidues>
 VAL166  LYS551  ARG553  GLY616  TRP617  ASP618  TYR619  PRO620  LYS621  CYS622 
 ASP623  PHE694  ASN695  SER759  ASP760  ASP761  ALA762  ILE779  LEU786  VAL792 
 PHE793  MET794  SER795  GLU796  ALA797  LYS798  CYS799  TRP800  GLU811  SER814 

> <Gold.Protein.RotatedAtoms>
  150.6873  134.3289  159.4818 H   0  0  0  0  0  0  0  0  0  0  0  0  # atno 6907 bound_to 6896
  152.1156  134.9240  160.0574 H   0  0  0  0  0  0  0  0  0  0  0  0  # atno 6908 bound_to 6896
  152.0466  133.3966  159.4396 H   0  0  0  0  0  0  0  0  0  0  0  0  # atno 6909 bound_to 6896
  146.1407  139.6370  142.9165 H   0  0  0  0  0  0  0  0  0  0  0  0  # atno 7974 bound_to 7965
  155.3723  140.3424  155.4243 H   0  0  0  0  0  0  0  0  0  0  0  0  # atno 8008 bound_to 7997
  156.1655  140.1615  156.8572 H   0  0  0  0  0  0  0  0  0  0  0  0  # atno 8009 bound_to 7997
  154.5181  140.0773  156.8102 H   0  0  0  0  0  0  0  0  0  0  0  0  # atno 8010 bound_to 7997
  140.1694  144.4292  150.6669 H   0  0  0  0  0  0  0  0  0  0  0  0  # atno 10167 bound_to 10162
  156.8967  130.5707  149.5648 H   0  0  0  0  0  0  0  0  0  0  0  0  # atno 10718 bound_to 10713
  154.1522  135.6488  153.4966 H   0  0  0  0  0  0  0  0  0  0  0  0  # atno 10763 bound_to 10752
  153.0134  135.5340  154.6797 H   0  0  0  0  0  0  0  0  0  0  0  0  # atno 10764 bound_to 10752
  154.6087  135.2951  155.0427 H   0  0  0  0  0  0  0  0  0  0  0  0  # atno 10765 bound_to 10752
  141.1636  133.7423  156.9079 H   0  0  0  0  0  0  0  0  0  0  0  0  # atno 11005 bound_to 11000
  145.5054  141.0437  143.2517 LP  0  0  0  0  0  0  0  0  0  0  0  0  # atno 17320 bound_to 7965
  144.7789  139.6569  143.7163 LP  0  0  0  0  0  0  0  0  0  0  0  0  # atno 17321 bound_to 7965
  140.6592  143.2247  151.5897 LP  0  0  0  0  0  0  0  0  0  0  0  0  # atno 17342 bound_to 10162
  139.5345  144.2821  152.1220 LP  0  0  0  0  0  0  0  0  0  0  0  0  # atno 17343 bound_to 10162
  156.0602  130.5656  150.9176 LP  0  0  0  0  0  0  0  0  0  0  0  0  # atno 17370 bound_to 10713
  157.6051  131.0939  150.8893 LP  0  0  0  0  0  0  0  0  0  0  0  0  # atno 17371 bound_to 10713
  140.1537  134.9213  157.2626 LP  0  0  0  0  0  0  0  0  0  0  0  0  # atno 17394 bound_to 11000
  140.2692  134.3480  155.7379 LP  0  0  0  0  0  0  0  0  0  0  0  0  # atno 17395 bound_to 11000

$$$$
