AV-unprocessed.smi:2510|AV-procd|sdf|9875|dock5
  -GOLD-   2272013503D 1   1.00000     0.00000
 Structure written by MMmdl.
 48 49  0  0  0  0  0  0  0  0  1 V2000
  145.8052  138.2791  156.9265 C   0  0  0  0  0  0  0  0  0  0  0  0
  146.0507  139.4079  155.9106 C   0  0  0  0  0  0  0  0  0  0  0  0
  146.9626  139.0789  154.7036 C   0  0  0  0  0  0  0  0  0  0  0  0
  148.3711  138.7507  155.2770 C   0  0  0  0  0  0  0  0  0  0  0  0
  149.5139  138.6162  154.2525 C   0  0  0  0  0  0  0  0  0  0  0  0
  146.4146  138.0636  153.6566 C   0  0  2  0  0  0  0  0  0  0  0  0
  146.9817  136.7230  153.7669 N   0  0  0  0  0  0  0  0  0  0  0  0
  146.4769  135.7377  154.5228 C   0  0  0  0  0  0  0  0  0  0  0  0
  145.4731  135.8771  155.2237 O   0  0  0  0  0  0  0  0  0  0  0  0
  147.2314  134.4033  154.4607 C   0  0  0  0  0  0  0  0  0  0  0  0
  146.9050  133.6171  153.2169 C   0  0  0  0  0  0  0  0  0  0  0  0
  145.6177  133.3347  152.6711 C   0  0  0  0  0  0  0  0  0  0  0  0
  145.8795  132.5957  151.5522 C   0  0  0  0  0  0  0  0  0  0  0  0
  144.9731  131.9907  150.5352 C   0  0  0  0  0  0  0  0  0  0  0  0
  147.2480  132.4717  151.4849 N   0  0  0  0  0  0  0  0  0  0  0  0
  147.8853  133.0866  152.4982 N   0  0  0  0  0  0  0  0  0  0  0  0
  147.0480  138.8940  152.5326 C   0  0  1  0  0  0  0  0  0  0  0  0
  146.3543  138.9429  151.1764 C   0  0  0  0  0  0  0  0  0  0  0  0
  146.9091  140.0738  153.5084 C   0  0  2  0  0  0  0  0  0  0  0  0
  147.9899  140.9934  153.4838 O   0  0  0  0  0  0  0  0  0  0  0  0
  148.1208  141.7451  154.6777 C   0  0  0  0  0  0  0  0  0  0  0  0
  147.7533  131.9765  150.7640 H   0  0  0  0  0  0  0  0  0  0  0  0
  145.0715  138.5931  157.6691 H   0  0  0  0  0  0  0  0  0  0  0  0
  146.7142  138.0219  157.4703 H   0  0  0  0  0  0  0  0  0  0  0  0
  145.4200  137.3761  156.4545 H   0  0  0  0  0  0  0  0  0  0  0  0
  145.0736  139.7248  155.5447 H   0  0  0  0  0  0  0  0  0  0  0  0
  146.4495  140.2606  156.4617 H   0  0  0  0  0  0  0  0  0  0  0  0
  148.6637  139.5170  155.9958 H   0  0  0  0  0  0  0  0  0  0  0  0
  148.3383  137.8246  155.8510 H   0  0  0  0  0  0  0  0  0  0  0  0
  150.4316  138.3040  154.7512 H   0  0  0  0  0  0  0  0  0  0  0  0
  149.7301  139.5626  153.7575 H   0  0  0  0  0  0  0  0  0  0  0  0
  149.2988  137.8774  153.4824 H   0  0  0  0  0  0  0  0  0  0  0  0
  145.3278  138.0680  153.5637 H   0  0  0  0  0  0  0  0  0  0  0  0
  147.8092  136.5302  153.2213 H   0  0  0  0  0  0  0  0  0  0  0  0
  148.3024  134.6026  154.5180 H   0  0  0  0  0  0  0  0  0  0  0  0
  146.9787  133.8173  155.3450 H   0  0  0  0  0  0  0  0  0  0  0  0
  144.6497  133.6339  153.0451 H   0  0  0  0  0  0  0  0  0  0  0  0
  143.9280  132.1627  150.7935 H   0  0  0  0  0  0  0  0  0  0  0  0
  145.1306  130.9143  150.4675 H   0  0  0  0  0  0  0  0  0  0  0  0
  145.1526  132.4234  149.5509 H   0  0  0  0  0  0  0  0  0  0  0  0
  148.1017  138.6338  152.4154 H   0  0  0  0  0  0  0  0  0  0  0  0
  145.3194  139.2729  151.2695 H   0  0  0  0  0  0  0  0  0  0  0  0
  146.3441  137.9600  150.7056 H   0  0  0  0  0  0  0  0  0  0  0  0
  146.8585  139.6246  150.4927 H   0  0  0  0  0  0  0  0  0  0  0  0
  145.9413  140.5712  153.4232 H   0  0  0  0  0  0  0  0  0  0  0  0
  149.0036  142.3807  154.6111 H   0  0  0  0  0  0  0  0  0  0  0  0
  148.2399  141.0950  155.5454 H   0  0  0  0  0  0  0  0  0  0  0  0
  147.2589  142.3919  154.8373 H   0  0  0  0  0  0  0  0  0  0  0  0
  1  2  1  0  0  0  0
  1 23  1  0  0  0  0
  1 24  1  0  0  0  0
  1 25  1  0  0  0  0
  2  3  1  0  0  0  0
  2 26  1  0  0  0  0
  2 27  1  0  0  0  0
  3 19  1  0  0  0  0
  3  4  1  0  0  0  0
  3  6  1  0  0  0  0
  4  5  1  0  0  0  0
  4 28  1  0  0  0  0
  4 29  1  0  0  0  0
  5 30  1  0  0  0  0
  5 31  1  0  0  0  0
  5 32  1  0  0  0  0
  6  7  1  0  0  0  0
  6 17  1  0  0  0  0
  6 33  1  0  0  0  0
  7  8  1  0  0  0  0
  7 34  1  0  0  0  0
  8  9  2  0  0  0  0
  8 10  1  0  0  0  0
 10 11  1  0  0  0  0
 10 35  1  0  0  0  0
 10 36  1  0  0  0  0
 11 16  2  0  0  0  0
 11 12  1  0  0  0  0
 12 13  2  0  0  0  0
 12 37  1  0  0  0  0
 13 14  1  0  0  0  0
 13 15  1  0  0  0  0
 14 38  1  0  0  0  0
 14 39  1  0  0  0  0
 14 40  1  0  0  0  0
 15 22  1  0  0  0  0
 15 16  1  0  0  0  0
 17 18  1  0  0  0  0
 17 19  1  0  0  0  0
 17 41  1  0  0  0  0
 18 42  1  0  0  0  0
 18 43  1  0  0  0  0
 18 44  1  0  0  0  0
 19 20  1  0  0  0  0
 19 45  1  0  0  0  0
 20 21  1  0  0  0  0
 21 46  1  0  0  0  0
 21 47  1  0  0  0  0
 21 48  1  0  0  0  0
M  END
> <s_m_source_file>
AV-unprocessed.smi

> <i_m_source_file_index>
2510

> <i_lp_mmshare_version>
43012

> <i_f3d_flags>
0

> <s_epik_input>
W0NIM11PW0NAQEhdMVtDQEhdKFtDSDNdKVtDQEBIXShDMShbQ0gyXVtDSDNdKVtDSDJdW0NIM10pW05IXUMoPU8pW0NIMl1jMltjSF1jKFtDSDNdKVtuSF1uMg==

> <s_epik_cmdline>
J2VwaWtfcHl0aG9uJywgJy1waCcsICc3LjAnLCAnLXRuJywgJzgnLCAnLW1hJywgJzIwMCcsICctbWV0YWxfYmluZGluZycsICctaW1hZScsICc8aW5maWxlLm1hZT4nLCAnLW9tYWUnLCAnPG91dGZpbGUubWFlPic=

> <r_lp_tautomer_probability>
0.5

> <r_epik_Ionization_Penalty>
9.73156e-05

> <r_epik_Ionization_Penalty_Charging>
0

> <r_epik_Ionization_Penalty_Neutral>
9.73156e-05

> <r_epik_State_Penalty>
0.41068

> <r_epik_Charging_Adjusted_Penalty>
0.41068

> <i_epik_Tot_Q>
0

> <i_epik_Tot_abs_Q>
0

> <r_epik_Metal_State_Penalty>
0.410699

> <b_epik_Metal_Only>
0

> <s_lp_Force_Field>
OPLS_2005

> <r_lp_Energy>
28.5674

> <b_lp_Chiralities_Consistent>
1

> <s_lp_Variant>
AV-unprocessed.smi:2510-6

> <Gold.Version>
5.8.1

> <Gold.Id.Protein>
6NUR|6NUR_protein|mol2

> <Gold.PLP.Fitness>
30.3173

> <Gold.PLP.PLP>
-25.6778

> <Gold.PLP.part.hbond>
-2.0000

> <Gold.PLP.part.metal>
0.0000

> <Gold.PLP.part.buried>
-0.5221

> <Gold.PLP.part.nonpolar>
-23.5781

> <Gold.PLP.part.repulsive>
1.1851

> <Gold.PLP.ligand.clash>
0.0000

> <Gold.PLP.ligand.torsion>
0.9693

> <Gold.PLP.Chemscore.Hbond>
2.0000

> <Gold.PLP.Chemscore.CHOScore>
0.0000

> <Gold.PLP.Chemscore.Metal>
0.0000

> <Gold.Chemscore.Hbonds>
donor molecule, donor type, donor heavy atom, donor atom, acceptor molecule, acceptor atom, score
      L1  H     7    34       P1  7948  1.00
      L1  H    15    22       P1 10747  1.00

> <Gold.PLP.Chemscore.Internal.Correction>
0.5782

> <Gold.Rescore>
     Score         DG    S(hbond)    S(metal)    S(lipo)     H(rot)  DE(clash)    DE(int)     intcor
     10.51     -15.37       1.87        0.00      70.66       1.81       0.23       4.64       ----

> <Gold.Chemscore.Fitness>
10.5058

> <Gold.Chemscore.DG>
-15.3720

> <Gold.Chemscore.ZeroCoef>
-5.4800

> <Gold.Chemscore.Hbond>
1.8738

> <Gold.Chemscore.Metal>
0.0000

> <Gold.Chemscore.Lipo>
70.6640

> <Gold.Chemscore.Internal_Hbond>
0.0000

> <Gold.Chemscore.DEClash>
0.2294

> <Gold.Chemscore.DEInternal>
4.6367

> <Gold.Chemscore.Rot>
1.8102

> <Gold.Chemscore.Internal.Correction>
   9.000000E+99

> <Gold.Chemscore.Hbonds>
donor molecule, donor type, donor heavy atom, donor atom, acceptor molecule, acceptor atom, score
      L1  H     7    34       P1  7948  1.00
      L1  H    15    22       P1 10747  0.95

> <Gold.Chemscore.Hbond.Weighted>
-6.2584

> <Gold.Chemscore.Metal.Weighted>
-0.0000

> <Gold.Chemscore.Lipo.Weighted>
-8.2677

> <Gold.Chemscore.Internal_Hbond.Weighted>
0.0000

> <Gold.Chemscore.DEClash.Weighted>
0.2294

> <Gold.Chemscore.DEInternal.Weighted>
4.6367

> <Gold.Chemscore.Rot.Weighted>
4.6341

> <Gold.Chemscore.Internal.Correction.Weighted>
   9.000000E+99

> <Gold.Protein.RotatedTorsions>
[ 6907 6896 6895 6894 ] final  -24.07 input  -60.11 | X-H torsion
[ 7974 7965 7964 7962 ] final  -79.58 input  175.53 | X-H torsion
[ 8008 7997 7996 7995 ] final  111.68 input   59.86 | X-H torsion
[ 10167 10162 10161 10158 ] final   70.54 input  -65.29 | X-H torsion
[ 10718 10713 10712 10709 ] final  117.54 input   66.30 | X-H torsion
[ 10763 10752 10751 10750 ] final  120.85 input  -60.55 | X-H torsion
[ 11005 11000 10999 10996 ] final -154.79 input  -57.11 | X-H torsion

> <Gold.Protein.ActiveResidues>
 VAL166  LYS551  ARG553  GLY616  TRP617  ASP618  TYR619  PRO620  LYS621  CYS622 
 ASP623  PHE694  ASN695  SER759  ASP760  ASP761  ALA762  ILE779  LEU786  VAL792 
 PHE793  MET794  SER795  GLU796  ALA797  LYS798  CYS799  TRP800  GLU811  SER814 

> <Gold.Protein.RotatedAtoms>
  151.1949  135.0418  159.8847 H   0  0  0  0  0  0  0  0  0  0  0  0  # atno 6907 bound_to 6896
  152.5437  134.0915  159.8289 H   0  0  0  0  0  0  0  0  0  0  0  0  # atno 6908 bound_to 6896
  151.1048  133.5169  159.2640 H   0  0  0  0  0  0  0  0  0  0  0  0  # atno 6909 bound_to 6896
  145.5714  140.9465  143.1394 H   0  0  0  0  0  0  0  0  0  0  0  0  # atno 7974 bound_to 7965
  156.2140  140.3014  155.9797 H   0  0  0  0  0  0  0  0  0  0  0  0  # atno 8008 bound_to 7997
  155.2652  140.0431  157.3018 H   0  0  0  0  0  0  0  0  0  0  0  0  # atno 8009 bound_to 7997
  154.5741  140.2356  155.8157 H   0  0  0  0  0  0  0  0  0  0  0  0  # atno 8010 bound_to 7997
  140.0558  144.5274  150.7330 H   0  0  0  0  0  0  0  0  0  0  0  0  # atno 10167 bound_to 10162
  157.6090  131.1038  150.7629 H   0  0  0  0  0  0  0  0  0  0  0  0  # atno 10718 bound_to 10713
  153.6049  135.3441  155.2958 H   0  0  0  0  0  0  0  0  0  0  0  0  # atno 10763 bound_to 10752
  154.8629  135.4236  154.2372 H   0  0  0  0  0  0  0  0  0  0  0  0  # atno 10764 bound_to 10752
  153.3210  135.7038  153.7103 H   0  0  0  0  0  0  0  0  0  0  0  0  # atno 10765 bound_to 10752
  140.6935  134.4016  157.5217 H   0  0  0  0  0  0  0  0  0  0  0  0  # atno 11005 bound_to 11000
  144.7436  139.7380  143.7301 LP  0  0  0  0  0  0  0  0  0  0  0  0  # atno 17320 bound_to 7965
  146.1782  139.4962  142.9884 LP  0  0  0  0  0  0  0  0  0  0  0  0  # atno 17321 bound_to 7965
  140.7195  143.2575  151.4325 LP  0  0  0  0  0  0  0  0  0  0  0  0  # atno 17342 bound_to 10162
  139.5924  144.1470  152.2104 LP  0  0  0  0  0  0  0  0  0  0  0  0  # atno 17343 bound_to 10162
  156.8011  130.4921  149.5370 LP  0  0  0  0  0  0  0  0  0  0  0  0  # atno 17370 bound_to 10713
  156.1186  130.6093  151.0158 LP  0  0  0  0  0  0  0  0  0  0  0  0  # atno 17371 bound_to 10713
  139.8917  134.8774  156.2308 LP  0  0  0  0  0  0  0  0  0  0  0  0  # atno 17394 bound_to 11000
  141.0222  133.7035  156.1288 LP  0  0  0  0  0  0  0  0  0  0  0  0  # atno 17395 bound_to 11000

$$$$
