AV-unprocessed.smi:598|AV-procd|sdf|3022|dock6
  -GOLD-   2262023533D 1   1.00000     0.00000
 Structure written by MMmdl.
 43 44  0  0  0  0  0  0  0  0  3 V2000
  151.7356  145.7669  160.1591 C   0  0  0  0  0  0  0  0  0  0  0  0
  152.3535  144.3835  159.8955 C   0  0  1  0  0  0  0  0  0  0  0  0
  152.5798  143.6007  161.2050 C   0  0  0  0  0  0  0  0  0  0  0  0
  153.2872  142.2613  160.9460 C   0  0  0  0  0  0  0  0  0  0  0  0
  152.5310  141.4167  159.9097 C   0  0  0  0  0  0  0  0  0  0  0  0
  152.3153  142.2011  158.6010 C   0  0  1  0  0  0  0  0  0  0  0  0
  151.6274  141.3577  157.6260 N   0  0  0  0  0  0  0  0  0  0  0  0
  152.0618  140.1680  157.1833 C   0  0  0  0  0  0  0  0  0  0  0  0
  153.0963  139.6337  157.5848 O   0  0  0  0  0  0  0  0  0  0  0  0
  151.1793  139.4758  156.1356 C   0  0  0  0  0  0  0  0  0  0  0  0
  150.9157  138.0617  156.4505 N   0  0  0  0  0  0  0  0  0  0  0  0
  150.3059  137.7816  157.6896 C   0  0  0  0  0  0  0  0  0  0  0  0
  150.0246  136.5231  158.0806 C   0  0  0  0  0  0  0  0  0  0  0  0
  149.4027  136.2531  159.3586 N   0  3  0  0  0  0  0  0  0  0  0  0
  149.3476  135.0925  159.7526 O   0  0  0  0  0  0  0  0  0  0  0  0
  148.9483  137.1894  160.0097 O   0  5  0  0  0  0  0  0  0  0  0  0
  150.3716  135.4429  157.1772 C   0  0  0  0  0  0  0  0  0  0  0  0
  150.9574  135.7042  155.9920 C   0  0  0  0  0  0  0  0  0  0  0  0
  151.2637  137.0744  155.5691 C   0  0  0  0  0  0  0  0  0  0  0  0
  151.8006  137.3199  154.4884 O   0  0  0  0  0  0  0  0  0  0  0  0
  151.5702  143.5418  158.8525 C   0  0  1  0  0  0  0  0  0  0  0  0
  150.0761  143.3514  159.2048 C   0  0  0  0  0  0  0  0  0  0  0  0
  150.7853  145.6924  160.6880 H   0  0  0  0  0  0  0  0  0  0  0  0
  151.5623  146.3057  159.2272 H   0  0  0  0  0  0  0  0  0  0  0  0
  152.3993  146.3777  160.7716 H   0  0  0  0  0  0  0  0  0  0  0  0
  153.3389  144.5721  159.4662 H   0  0  0  0  0  0  0  0  0  0  0  0
  153.1798  144.1961  161.8941 H   0  0  0  0  0  0  0  0  0  0  0  0
  151.6283  143.4233  161.7069 H   0  0  0  0  0  0  0  0  0  0  0  0
  154.3015  142.4486  160.5912 H   0  0  0  0  0  0  0  0  0  0  0  0
  153.3857  141.7056  161.8790 H   0  0  0  0  0  0  0  0  0  0  0  0
  153.0929  140.5038  159.7084 H   0  0  0  0  0  0  0  0  0  0  0  0
  151.5733  141.0998  160.3242 H   0  0  0  0  0  0  0  0  0  0  0  0
  153.3043  142.4321  158.2000 H   0  0  0  0  0  0  0  0  0  0  0  0
  150.7653  141.7181  157.2433 H   0  0  0  0  0  0  0  0  0  0  0  0
  150.2464  140.0354  156.0566 H   0  0  0  0  0  0  0  0  0  0  0  0
  151.6453  139.5567  155.1514 H   0  0  0  0  0  0  0  0  0  0  0  0
  150.0944  138.6530  158.2927 H   0  0  0  0  0  0  0  0  0  0  0  0
  150.1660  134.4168  157.4444 H   0  0  0  0  0  0  0  0  0  0  0  0
  151.2090  134.8847  155.3349 H   0  0  0  0  0  0  0  0  0  0  0  0
  151.5909  144.1019  157.9164 H   0  0  0  0  0  0  0  0  0  0  0  0
  149.9406  142.8191  160.1455 H   0  0  0  0  0  0  0  0  0  0  0  0
  149.5501  142.7914  158.4317 H   0  0  0  0  0  0  0  0  0  0  0  0
  149.5609  144.3074  159.2901 H   0  0  0  0  0  0  0  0  0  0  0  0
  1  2  1  0  0  0  0
  1 23  1  0  0  0  0
  1 24  1  0  0  0  0
  1 25  1  0  0  0  0
  2 21  1  0  0  0  0
  2  3  1  0  0  0  0
  2 26  1  0  0  0  0
  3  4  1  0  0  0  0
  3 27  1  0  0  0  0
  3 28  1  0  0  0  0
  4  5  1  0  0  0  0
  4 29  1  0  0  0  0
  4 30  1  0  0  0  0
  5  6  1  0  0  0  0
  5 31  1  0  0  0  0
  5 32  1  0  0  0  0
  6  7  1  0  0  0  0
  6 21  1  0  0  0  0
  6 33  1  0  0  0  0
  7  8  1  0  0  0  0
  7 34  1  0  0  0  0
  8  9  2  0  0  0  0
  8 10  1  0  0  0  0
 10 11  1  0  0  0  0
 10 35  1  0  0  0  0
 10 36  1  0  0  0  0
 11 19  1  0  0  0  0
 11 12  1  0  0  0  0
 12 13  2  0  0  0  0
 12 37  1  0  0  0  0
 13 14  1  0  0  0  0
 13 17  1  0  0  0  0
 14 15  2  0  0  0  0
 14 16  1  0  0  0  0
 17 18  2  0  0  0  0
 17 38  1  0  0  0  0
 18 19  1  0  0  0  0
 18 39  1  0  0  0  0
 19 20  2  0  0  0  0
 21 22  1  0  0  0  0
 21 40  1  0  0  0  0
 22 41  1  0  0  0  0
 22 42  1  0  0  0  0
 22 43  1  0  0  0  0
M  CHG  1  14   1
M  CHG  1  16  -1
M  END
> <s_m_source_file>
AV-unprocessed.smi

> <i_m_source_file_index>
598

> <i_lp_mmshare_version>
43012

> <i_f3d_flags>
0

> <s_epik_input>
W0NIM11bQ0BASF0xW0NIMl1bQ0gyXVtDSDJdW0NASF0oW0NASF0xW0NIM10pW05IXUMoPU8pW0NIMl1uMltjSF1jKFtOK10oPU8pW08tXSlbY0hdW2NIXWMyPU8=

> <s_epik_cmdline>
J2VwaWtfcHl0aG9uJywgJy1waCcsICc3LjAnLCAnLXRuJywgJzgnLCAnLW1hJywgJzIwMCcsICctbWV0YWxfYmluZGluZycsICctaW1hZScsICc8aW5maWxlLm1hZT4nLCAnLW9tYWUnLCAnPG91dGZpbGUubWFlPic=

> <r_lp_tautomer_probability>
1

> <r_epik_Ionization_Penalty>
1.91291e-08

> <r_epik_Ionization_Penalty_Charging>
8.21931e-11

> <r_epik_Ionization_Penalty_Neutral>
1.90469e-08

> <r_epik_State_Penalty>
-0

> <r_epik_Charging_Adjusted_Penalty>
8.21931e-11

> <i_epik_Tot_Q>
0

> <i_epik_Tot_abs_Q>
2

> <r_epik_Metal_State_Penalty>
-0

> <b_epik_Metal_Only>
0

> <s_lp_Force_Field>
OPLS_2005

> <r_lp_Energy>
25.1906

> <b_lp_Chiralities_Consistent>
1

> <s_lp_Variant>
AV-unprocessed.smi:598-2

> <Gold.Version>
5.8.1

> <Gold.Id.Protein>
6NUR|6NUR_protein|mol2

> <Gold.PLP.Fitness>
50.0018

> <Gold.PLP.PLP>
-40.6288

> <Gold.PLP.part.hbond>
-5.0000

> <Gold.PLP.part.metal>
0.0000

> <Gold.PLP.part.buried>
-5.0088

> <Gold.PLP.part.nonpolar>
-30.3105

> <Gold.PLP.part.repulsive>
0.2243

> <Gold.PLP.ligand.clash>
0.0000

> <Gold.PLP.ligand.torsion>
0.1944

> <Gold.PLP.Chemscore.Hbond>
3.2480

> <Gold.PLP.Chemscore.CHOScore>
0.0000

> <Gold.PLP.Chemscore.Metal>
0.0000

> <Gold.Chemscore.Hbonds>
donor molecule, donor type, donor heavy atom, donor atom, acceptor molecule, acceptor atom, score
      P1  H  6896  6908       L1    15  0.73
      P1  H  6931  6943       L1    16  0.34
      P1  H  7997  8010       L1     9  1.00
      P1  H 10752 10763       L1    20  0.98

> <Gold.PLP.Chemscore.Internal.Correction>
0.0178

> <Gold.Rescore>
     Score         DG    S(hbond)    S(metal)    S(lipo)     H(rot)  DE(clash)    DE(int)     intcor
     20.98     -22.83       2.82        0.00     101.49       1.54       0.30       1.55       ----

> <Gold.Chemscore.Fitness>
20.9796

> <Gold.Chemscore.DG>
-22.8321

> <Gold.Chemscore.ZeroCoef>
-5.4800

> <Gold.Chemscore.Hbond>
2.8199

> <Gold.Chemscore.Metal>
0.0000

> <Gold.Chemscore.Lipo>
101.4912

> <Gold.Chemscore.Internal_Hbond>
0.0000

> <Gold.Chemscore.DEClash>
0.3019

> <Gold.Chemscore.DEInternal>
1.5505

> <Gold.Chemscore.Rot>
1.5393

> <Gold.Chemscore.Internal.Correction>
   9.000000E+99

> <Gold.Chemscore.Hbonds>
donor molecule, donor type, donor heavy atom, donor atom, acceptor molecule, acceptor atom, score
      P1  H  6896  6908       L1    15  0.34
      P1  H  6931  6943       L1    16  0.33
      P1  H  7997  8010       L1     9  0.72
      P1  H 10752 10763       L1    20  0.30

> <Gold.Chemscore.Hbond.Weighted>
-9.4183

> <Gold.Chemscore.Metal.Weighted>
-0.0000

> <Gold.Chemscore.Lipo.Weighted>
-11.8745

> <Gold.Chemscore.Internal_Hbond.Weighted>
0.0000

> <Gold.Chemscore.DEClash.Weighted>
0.3019

> <Gold.Chemscore.DEInternal.Weighted>
1.5505

> <Gold.Chemscore.Rot.Weighted>
3.9407

> <Gold.Chemscore.Internal.Correction.Weighted>
   9.000000E+99

> <Gold.Protein.RotatedTorsions>
[ 6907 6896 6895 6894 ] final  170.59 input  -60.11 | X-H torsion
[ 7974 7965 7964 7962 ] final -125.97 input  175.53 | X-H torsion
[ 8008 7997 7996 7995 ] final   62.91 input   59.86 | X-H torsion
[ 10167 10162 10161 10158 ] final  -74.52 input  -65.29 | X-H torsion
[ 10718 10713 10712 10709 ] final -164.47 input   66.30 | X-H torsion
[ 10763 10752 10751 10750 ] final   36.10 input  -60.55 | X-H torsion
[ 11005 11000 10999 10996 ] final  144.31 input  -57.11 | X-H torsion

> <Gold.Protein.ActiveResidues>
 VAL166  LYS551  ARG553  GLY616  TRP617  ASP618  TYR619  PRO620  LYS621  CYS622 
 ASP623  PHE694  ASN695  SER759  ASP760  ASP761  ALA762  ILE779  LEU786  VAL792 
 PHE793  MET794  SER795  GLU796  ALA797  LYS798  CYS799  TRP800  GLU811  SER814 

> <Gold.Protein.RotatedAtoms>
  151.8137  133.3385  159.3562 H   0  0  0  0  0  0  0  0  0  0  0  0  # atno 6907 bound_to 6896
  150.7317  134.5639  159.5865 H   0  0  0  0  0  0  0  0  0  0  0  0  # atno 6908 bound_to 6896
  152.3056  134.7560  160.0399 H   0  0  0  0  0  0  0  0  0  0  0  0  # atno 6909 bound_to 6896
  144.9921  140.7742  143.4548 H   0  0  0  0  0  0  0  0  0  0  0  0  # atno 7974 bound_to 7965
  155.6218  140.3496  155.4654 H   0  0  0  0  0  0  0  0  0  0  0  0  # atno 8008 bound_to 7997
  156.0073  140.1226  157.0512 H   0  0  0  0  0  0  0  0  0  0  0  0  # atno 8009 bound_to 7997
  154.4269  140.1088  156.5766 H   0  0  0  0  0  0  0  0  0  0  0  0  # atno 8010 bound_to 7997
  140.5020  143.2359  151.7736 H   0  0  0  0  0  0  0  0  0  0  0  0  # atno 10167 bound_to 10162
  156.6395  130.8963  151.2993 H   0  0  0  0  0  0  0  0  0  0  0  0  # atno 10718 bound_to 10713
  153.0091  135.6315  154.1932 H   0  0  0  0  0  0  0  0  0  0  0  0  # atno 10763 bound_to 10752
  154.1675  135.2820  155.3092 H   0  0  0  0  0  0  0  0  0  0  0  0  # atno 10764 bound_to 10752
  154.5934  135.5610  153.7361 H   0  0  0  0  0  0  0  0  0  0  0  0  # atno 10765 bound_to 10752
  140.0622  134.9198  157.1204 H   0  0  0  0  0  0  0  0  0  0  0  0  # atno 11005 bound_to 11000
  145.2271  139.2132  143.5062 LP  0  0  0  0  0  0  0  0  0  0  0  0  # atno 17320 bound_to 7965
  146.3433  140.2141  142.8590 LP  0  0  0  0  0  0  0  0  0  0  0  0  # atno 17321 bound_to 7965
  139.4874  144.4508  151.9656 LP  0  0  0  0  0  0  0  0  0  0  0  0  # atno 17342 bound_to 10162
  140.3598  144.2987  150.5935 LP  0  0  0  0  0  0  0  0  0  0  0  0  # atno 17343 bound_to 10162
  157.7175  130.9516  150.1311 LP  0  0  0  0  0  0  0  0  0  0  0  0  # atno 17370 bound_to 10713
  156.2170  130.3671  149.8601 LP  0  0  0  0  0  0  0  0  0  0  0  0  # atno 17371 bound_to 10713
  140.3753  134.2346  155.7175 LP  0  0  0  0  0  0  0  0  0  0  0  0  # atno 17394 bound_to 11000
  141.1978  133.8051  157.0612 LP  0  0  0  0  0  0  0  0  0  0  0  0  # atno 17395 bound_to 11000

$$$$
