AV-unprocessed.smi:2356|AV-procd|sdf|9393|dock1
  -GOLD-   2272013 23D 1   1.00000     0.00000
 Structure written by MMmdl.
 53 56  0  0  0  0  0  0  0  0  1 V2000
  152.8423  137.9187  159.8814 C   0  0  0  0  0  0  0  0  0  0  0  0
  152.2505  138.8926  158.8766 C   0  0  0  0  0  0  0  0  0  0  0  0
  152.5257  140.1949  159.1038 N   0  0  0  0  0  0  0  0  0  0  0  0
  152.0307  141.1324  158.2630 C   0  0  0  0  0  0  0  0  0  0  0  0
  152.3438  142.4777  158.5427 N   0  0  0  0  0  0  0  0  0  0  0  0
  151.6940  143.5817  157.8549 C   0  0  0  0  0  0  0  0  0  0  0  0
  152.1994  144.8361  158.5669 C   0  0  0  0  0  0  0  0  0  0  0  0
  152.4119  144.3586  160.0030 C   0  0  0  0  0  0  0  0  0  0  0  0
  152.8413  142.8956  159.8476 C   0  0  0  0  0  0  0  0  0  0  0  0
  151.2389  140.7804  157.1454 C   0  0  0  0  0  0  0  0  0  0  0  0
  150.9499  139.4234  156.9080 C   0  0  0  0  0  0  0  0  0  0  0  0
  151.4659  138.4432  157.7884 C   0  0  0  0  0  0  0  0  0  0  0  0
  151.2234  137.0463  157.6638 N   0  0  0  0  0  0  0  0  0  0  0  0
  151.1646  136.2665  156.5669 C   0  0  0  0  0  0  0  0  0  0  0  0
  151.3880  136.6436  155.4192 O   0  0  0  0  0  0  0  0  0  0  0  0
  150.8499  134.9842  156.8280 N   0  0  0  0  0  0  0  0  0  0  0  0
  150.7017  133.8759  155.8806 C   0  0  2  0  0  0  0  0  0  0  0  0
  149.8053  134.2837  154.6999 C   0  0  0  0  0  0  0  0  0  0  0  0
  149.5378  133.0834  153.7801 C   0  0  0  0  0  0  0  0  0  0  0  0
  148.9641  132.0076  154.5196 O   0  0  0  0  0  0  0  0  0  0  0  0
  149.7592  131.5221  155.6022 C   0  0  1  0  0  0  0  0  0  0  0  0
  150.9937  130.7799  155.1060 C   0  0  0  0  0  0  0  0  0  0  0  0
  150.8562  129.4556  154.3936 C   0  0  0  0  0  0  0  0  0  0  0  0
  151.4582  129.5091  155.7778 C   0  0  0  0  0  0  0  0  0  0  0  0
  150.0808  132.6624  156.5893 C   0  0  0  0  0  0  0  0  0  0  0  0
  153.4955  137.2043  159.3793 H   0  0  0  0  0  0  0  0  0  0  0  0
  152.0495  137.3659  160.3863 H   0  0  0  0  0  0  0  0  0  0  0  0
  153.4303  138.4346  160.6417 H   0  0  0  0  0  0  0  0  0  0  0  0
  151.9417  143.5975  156.7931 H   0  0  0  0  0  0  0  0  0  0  0  0
  150.6122  143.4888  157.9598 H   0  0  0  0  0  0  0  0  0  0  0  0
  153.1536  145.1457  158.1383 H   0  0  0  0  0  0  0  0  0  0  0  0
  151.5071  145.6751  158.4932 H   0  0  0  0  0  0  0  0  0  0  0  0
  153.1413  144.9580  160.5484 H   0  0  0  0  0  0  0  0  0  0  0  0
  151.4664  144.4063  160.5447 H   0  0  0  0  0  0  0  0  0  0  0  0
  152.4465  142.2855  160.6611 H   0  0  0  0  0  0  0  0  0  0  0  0
  153.9284  142.8089  159.8515 H   0  0  0  0  0  0  0  0  0  0  0  0
  150.8452  141.5258  156.4709 H   0  0  0  0  0  0  0  0  0  0  0  0
  150.3303  139.1744  156.0619 H   0  0  0  0  0  0  0  0  0  0  0  0
  151.0712  136.5657  158.5383 H   0  0  0  0  0  0  0  0  0  0  0  0
  150.7015  134.7504  157.7992 H   0  0  0  0  0  0  0  0  0  0  0  0
  151.6816  133.5790  155.5048 H   0  0  0  0  0  0  0  0  0  0  0  0
  148.8547  134.6682  155.0724 H   0  0  0  0  0  0  0  0  0  0  0  0
  150.2652  135.0908  154.1290 H   0  0  0  0  0  0  0  0  0  0  0  0
  148.8420  133.3694  152.9912 H   0  0  0  0  0  0  0  0  0  0  0  0
  150.4536  132.7640  153.2825 H   0  0  0  0  0  0  0  0  0  0  0  0
  149.1389  130.7954  156.1283 H   0  0  0  0  0  0  0  0  0  0  0  0
  151.7863  131.4245  154.7324 H   0  0  0  0  0  0  0  0  0  0  0  0
  149.8579  129.0337  154.2961 H   0  0  0  0  0  0  0  0  0  0  0  0
  151.5270  129.2643  153.5586 H   0  0  0  0  0  0  0  0  0  0  0  0
  152.5312  129.3514  155.8659 H   0  0  0  0  0  0  0  0  0  0  0  0
  150.8608  129.1208  156.6003 H   0  0  0  0  0  0  0  0  0  0  0  0
  150.7419  132.3021  157.3785 H   0  0  0  0  0  0  0  0  0  0  0  0
  149.1557  132.9677  157.0811 H   0  0  0  0  0  0  0  0  0  0  0  0
  1  2  1  0  0  0  0
  1 26  1  0  0  0  0
  1 27  1  0  0  0  0
  1 28  1  0  0  0  0
  2 12  1  0  0  0  0
  2  3  2  0  0  0  0
  3  4  1  0  0  0  0
  4  5  1  0  0  0  0
  4 10  2  0  0  0  0
  5  9  1  0  0  0  0
  5  6  1  0  0  0  0
  6  7  1  0  0  0  0
  6 29  1  0  0  0  0
  6 30  1  0  0  0  0
  7  8  1  0  0  0  0
  7 31  1  0  0  0  0
  7 32  1  0  0  0  0
  8  9  1  0  0  0  0
  8 33  1  0  0  0  0
  8 34  1  0  0  0  0
  9 35  1  0  0  0  0
  9 36  1  0  0  0  0
 10 11  1  0  0  0  0
 10 37  1  0  0  0  0
 11 12  2  0  0  0  0
 11 38  1  0  0  0  0
 12 13  1  0  0  0  0
 13 14  1  0  0  0  0
 13 39  1  0  0  0  0
 14 15  2  0  0  0  0
 14 16  1  0  0  0  0
 16 17  1  0  0  0  0
 16 40  1  0  0  0  0
 17 25  1  0  0  0  0
 17 18  1  0  0  0  0
 17 41  1  0  0  0  0
 18 19  1  0  0  0  0
 18 42  1  0  0  0  0
 18 43  1  0  0  0  0
 19 20  1  0  0  0  0
 19 44  1  0  0  0  0
 19 45  1  0  0  0  0
 20 21  1  0  0  0  0
 21 22  1  0  0  0  0
 21 25  1  0  0  0  0
 21 46  1  0  0  0  0
 22 24  1  0  0  0  0
 22 23  1  0  0  0  0
 22 47  1  0  0  0  0
 23 24  1  0  0  0  0
 23 48  1  0  0  0  0
 23 49  1  0  0  0  0
 24 50  1  0  0  0  0
 24 51  1  0  0  0  0
 25 52  1  0  0  0  0
 25 53  1  0  0  0  0
M  END
> <s_m_source_file>
AV-unprocessed.smi

> <i_m_source_file_index>
2356

> <i_lp_mmshare_version>
43012

> <i_f3d_flags>
0

> <s_epik_input>
W0NIMl0xW0NIMl1bQ0gyXVtDSDJdTjFjKG5jMltDSDNdKVtjSF1bY0hdYzJbTkhdQyg9TylbTkhdW0NAQEhdM1tDSDJdW0NIMl1PW0NASF0oW0NIMl0zKVtDSF00W0NIMl1bQ0gyXTQ=

> <s_epik_cmdline>
J2VwaWtfcHl0aG9uJywgJy1waCcsICc3LjAnLCAnLXRuJywgJzgnLCAnLW1hJywgJzIwMCcsICctbWV0YWxfYmluZGluZycsICctaW1hZScsICc8aW5maWxlLm1hZT4nLCAnLW9tYWUnLCAnPG91dGZpbGUubWFlPic=

> <r_lp_tautomer_probability>
1

> <r_epik_Ionization_Penalty>
0.308781

> <r_epik_Ionization_Penalty_Charging>
0

> <r_epik_Ionization_Penalty_Neutral>
0.308781

> <r_epik_State_Penalty>
0.302092

> <r_epik_Charging_Adjusted_Penalty>
0.302092

> <i_epik_Tot_Q>
0

> <i_epik_Tot_abs_Q>
0

> <r_epik_Metal_State_Penalty>
0.197467

> <b_epik_Metal_Only>
0

> <s_lp_Force_Field>
OPLS_2005

> <r_lp_Energy>
55.4092

> <b_lp_Chiralities_Consistent>
1

> <s_lp_Variant>
AV-unprocessed.smi:2356-1

> <Gold.Version>
5.8.1

> <Gold.Id.Protein>
6NUR|6NUR_protein|mol2

> <Gold.PLP.Fitness>
46.5111

> <Gold.PLP.PLP>
-44.5604

> <Gold.PLP.part.hbond>
-0.9236

> <Gold.PLP.part.metal>
0.0000

> <Gold.PLP.part.buried>
-6.8125

> <Gold.PLP.part.nonpolar>
-37.0771

> <Gold.PLP.part.repulsive>
0.3600

> <Gold.PLP.ligand.clash>
0.0000

> <Gold.PLP.ligand.torsion>
1.0812

> <Gold.PLP.Chemscore.Hbond>
0.9425

> <Gold.PLP.Chemscore.CHOScore>
0.0000

> <Gold.PLP.Chemscore.Metal>
0.0000

> <Gold.Chemscore.Hbonds>
donor molecule, donor type, donor heavy atom, donor atom, acceptor molecule, acceptor atom, score
      P1  H 10752 10763       L1    15  0.99

> <Gold.PLP.Chemscore.Internal.Correction>
1.2855

> <Gold.Rescore>
     Score         DG    S(hbond)    S(metal)    S(lipo)     H(rot)  DE(clash)    DE(int)     intcor
     17.35     -19.61       0.97        0.00     118.07       1.14       0.02       2.24       ----

> <Gold.Chemscore.Fitness>
17.3470

> <Gold.Chemscore.DG>
-19.6094

> <Gold.Chemscore.ZeroCoef>
-5.4800

> <Gold.Chemscore.Hbond>
0.9678

> <Gold.Chemscore.Metal>
0.0000

> <Gold.Chemscore.Lipo>
118.0694

> <Gold.Chemscore.Internal_Hbond>
0.0000

> <Gold.Chemscore.DEClash>
0.0225

> <Gold.Chemscore.DEInternal>
2.2399

> <Gold.Chemscore.Rot>
1.1395

> <Gold.Chemscore.Internal.Correction>
   9.000000E+99

> <Gold.Chemscore.Hbonds>
donor molecule, donor type, donor heavy atom, donor atom, acceptor molecule, acceptor atom, score
      P1  H 10752 10763       L1    15  0.56

> <Gold.Chemscore.Hbond.Weighted>
-3.2324

> <Gold.Chemscore.Metal.Weighted>
-0.0000

> <Gold.Chemscore.Lipo.Weighted>
-13.8141

> <Gold.Chemscore.Internal_Hbond.Weighted>
0.0000

> <Gold.Chemscore.DEClash.Weighted>
0.0225

> <Gold.Chemscore.DEInternal.Weighted>
2.2399

> <Gold.Chemscore.Rot.Weighted>
2.9171

> <Gold.Chemscore.Internal.Correction.Weighted>
   9.000000E+99

> <Gold.Protein.RotatedTorsions>
[ 6907 6896 6895 6894 ] final -102.61 input  -60.11 | X-H torsion
[ 7974 7965 7964 7962 ] final  118.96 input  175.53 | X-H torsion
[ 8008 7997 7996 7995 ] final -106.37 input   59.86 | X-H torsion
[ 10167 10162 10161 10158 ] final   93.36 input  -65.29 | X-H torsion
[ 10718 10713 10712 10709 ] final   62.79 input   66.30 | X-H torsion
[ 10763 10752 10751 10750 ] final   67.78 input  -60.55 | X-H torsion
[ 11005 11000 10999 10996 ] final -120.92 input  -57.11 | X-H torsion

> <Gold.Protein.ActiveResidues>
 VAL166  LYS551  ARG553  GLY616  TRP617  ASP618  TYR619  PRO620  LYS621  CYS622 
 ASP623  PHE694  ASN695  SER759  ASP760  ASP761  ALA762  ILE779  LEU786  VAL792 
 PHE793  MET794  SER795  GLU796  ALA797  LYS798  CYS799  TRP800  GLU811  SER814 

> <Gold.Protein.RotatedAtoms>
  150.7203  134.0555  159.3812 H   0  0  0  0  0  0  0  0  0  0  0  0  # atno 6907 bound_to 6896
  151.8533  135.0548  160.0470 H   0  0  0  0  0  0  0  0  0  0  0  0  # atno 6908 bound_to 6896
  152.2773  133.5402  159.5512 H   0  0  0  0  0  0  0  0  0  0  0  0  # atno 6909 bound_to 6896
  145.1489  139.3223  143.4577 H   0  0  0  0  0  0  0  0  0  0  0  0  # atno 7974 bound_to 7965
  154.9135  140.0409  157.1959 H   0  0  0  0  0  0  0  0  0  0  0  0  # atno 8008 bound_to 7997
  154.8325  140.2901  155.5691 H   0  0  0  0  0  0  0  0  0  0  0  0  # atno 8009 bound_to 7997
  156.2987  140.2498  156.3252 H   0  0  0  0  0  0  0  0  0  0  0  0  # atno 8010 bound_to 7997
  139.8187  144.6741  150.9546 H   0  0  0  0  0  0  0  0  0  0  0  0  # atno 10167 bound_to 10162
  157.5926  130.9070  149.9633 H   0  0  0  0  0  0  0  0  0  0  0  0  # atno 10718 bound_to 10713
  153.0203  135.5271  154.7033 H   0  0  0  0  0  0  0  0  0  0  0  0  # atno 10763 bound_to 10752
  154.6136  135.2881  155.0407 H   0  0  0  0  0  0  0  0  0  0  0  0  # atno 10764 bound_to 10752
  154.1420  135.6576  153.4997 H   0  0  0  0  0  0  0  0  0  0  0  0  # atno 10765 bound_to 10752
  141.0108  134.0267  157.3416 H   0  0  0  0  0  0  0  0  0  0  0  0  # atno 11005 bound_to 11000
  146.3497  140.1555  142.8591 LP  0  0  0  0  0  0  0  0  0  0  0  0  # atno 17320 bound_to 7965
  145.0452  140.8976  143.5028 LP  0  0  0  0  0  0  0  0  0  0  0  0  # atno 17321 bound_to 7965
  140.7814  143.4113  151.0989 LP  0  0  0  0  0  0  0  0  0  0  0  0  # atno 17342 bound_to 10162
  139.7775  143.8404  152.3132 LP  0  0  0  0  0  0  0  0  0  0  0  0  # atno 17343 bound_to 10162
  156.0983  130.3657  150.0265 LP  0  0  0  0  0  0  0  0  0  0  0  0  # atno 17370 bound_to 10713
  156.8385  130.9417  151.3633 LP  0  0  0  0  0  0  0  0  0  0  0  0  # atno 17371 bound_to 10713
  139.9089  135.0186  156.7606 LP  0  0  0  0  0  0  0  0  0  0  0  0  # atno 17394 bound_to 11000
  140.6737  133.9537  155.7871 LP  0  0  0  0  0  0  0  0  0  0  0  0  # atno 17395 bound_to 11000

$$$$
