#       Name:                AV-unprocessed.smi:3245
#       Creating user name   scv26
#       Creation time:       Fri Mar 27 18:28:35 2020


#       File generated by GOLD software.
#

@<TRIPOS>MOLECULE
AV-unprocessed.smi:3245
    41    42     1
SMALL
NO_CHARGES


@<TRIPOS>ATOM
      1 ****        -2.3529  -2.3287   1.9586 C.3            1 S1                 0.0000
      2 ****        -1.7531  -1.4060   0.8891 C.3            1 S1                 0.0000
      3 ****        -2.0712  -1.9334  -0.5274 C.3            1 S1                 0.0000
      4 ****        -1.6001  -1.0507  -1.5798 N.pl3          1 S1                 0.0000
      5 ****        -2.2146   0.0685  -2.1009 C.2            1 S1                 0.0000
      6 ****        -1.3790   0.5850  -3.0494 C.2            1 S1                 0.0000
      7 ****        -0.2655  -0.3008  -3.0394 C.2            1 S1                 0.0000
      8 ****        -0.4023  -1.2810  -2.1607 N.2            1 S1                 0.0000
      9 ****        -0.2924  -1.2895   1.1025 N.4            1 S1                 1.0000
     10 ****         0.2484   0.0772   0.9600 C.3            1 S1                 0.0000
     11 ****         1.7822   0.0587   0.9225 C.3            1 S1                 0.0000
     12 ****         2.3140   1.4102   0.7341 N.am           1 S1                 0.0000
     13 ****         2.5399   1.9678  -0.4592 C.2            1 S1                 0.0000
     14 ****         2.3632   1.4693  -1.5712 O.2            1 S1                 0.0000
     15 ****         3.0470   3.3701  -0.2166 C.3            1 S1                 0.0000
     16 ****         3.0306   3.4580   1.2265 N.pl3          1 S1                -1.0000
     17 ****         2.5883   2.2801   1.7241 C.2            1 S1                 0.0000
     18 ****         2.4295   1.9939   2.9103 O.2            1 S1                 0.0000
     19 ****        -3.4346  -2.4089   1.8463 H              1 S1                 0.0000
     20 ****        -2.1552  -1.9485   2.9614 H              1 S1                 0.0000
     21 ****        -1.9369  -3.3349   1.8954 H              1 S1                 0.0000
     22 ****        -2.2123  -0.4238   1.0148 H              1 S1                 0.0000
     23 ****        -1.6361  -2.9236  -0.6743 H              1 S1                 0.0000
     24 ****        -3.1489  -2.0500  -0.6484 H              1 S1                 0.0000
     25 ****        -3.1803   0.4046  -1.7529 H              1 S1                 0.0000
     26 ****        -1.5372   1.4638  -3.6568 H              1 S1                 0.0000
     27 ****         0.6326  -0.2596  -3.6383 H              1 S1                 0.0000
     28 ****        -0.0760  -1.6064   2.0367 H              1 S1                 0.0000
     29 ****        -0.1305   0.5364   0.0473 H              1 S1                 0.0000
     30 ****        -0.1067   0.6875   1.7913 H              1 S1                 0.0000
     31 ****         2.1778  -0.3774   1.8414 H              1 S1                 0.0000
     32 ****         2.1267  -0.5894   0.1144 H              1 S1                 0.0000
     33 ****         4.0438   3.4838  -0.6441 H              1 S1                 0.0000
     34 ****         2.3880   4.0923  -0.6995 H              1 S1                 0.0000
     35 ****         0.1727  -1.8953   0.4412 H              1 S1                 0.0000
     36 ****         0.2376  -2.0253  -1.9695 LP             1 S1                 0.0000
     37 ****         2.0097   0.5373  -1.6508 LP             1 S1                 0.0000
     38 ****         2.5733   1.9965  -2.3946 LP             1 S1                 0.0000
     39 ****         3.3008   4.2554   1.7662 LP             1 S1                 0.0000
     40 ****         2.0863   1.0898   3.1649 LP             1 S1                 0.0000
     41 ****         2.6438   2.6654   3.6197 LP             1 S1                 0.0000
@<TRIPOS>BOND
    1    1    2 1     
    2    1   19 1     
    3    1   20 1     
    4    1   21 1     
    5    2    3 1     
    6    2    9 1     
    7    2   22 1     
    8    3    4 1     
    9    3   23 1     
   10    3   24 1     
   11    4    8 1     
   12    4    5 1     
   13    5    6 2     
   14    5   25 1     
   15    6    7 1     
   16    6   26 1     
   17    7    8 2     
   18    7   27 1     
   19    9   10 1     
   20    9   28 1     
   21    9   35 1     
   22   10   11 1     
   23   10   29 1     
   24   10   30 1     
   25   11   12 1     
   26   11   31 1     
   27   11   32 1     
   28   12   17 am    
   29   12   13 am    
   30   13   14 2     
   31   13   15 1     
   32   15   16 1     
   33   15   33 1     
   34   15   34 1     
   35   16   17 1     
   36   17   18 2     
   37    8   36 1     
   38   14   37 1     
   39   14   38 1     
   40   16   39 1     
   41   18   40 1     
   42   18   41 1     
@<TRIPOS>SUBSTRUCTURE
      1 S1             1
@<TRIPOS>SET
LONE_PAIRS      STATIC     ATOMS    <user>   **** ""
6 36 37 38 39 40 41
DONOR_HYDROGENS      STATIC     ATOMS    <user>   **** ""
2 28 35
ATOM$BLUE        STATIC     ATOMS    COLORGROUP SYSTEM
6 36 37 38 39 40 41
ATOM$RED        STATIC     ATOMS    COLORGROUP SYSTEM
2 28 35
