AV-unprocessed.smi:2267|AV-procd|sdf|9149|dock9
  -GOLD-   2272012353D 1   1.00000     0.00000
 Structure written by MMmdl.
 41 42  0  0  0  0  0  0  0  0  1 V2000
  151.9175  145.9073  160.1272 C   0  0  0  0  0  0  0  0  0  0  0  0
  152.1440  144.4111  160.1944 C   0  0  0  0  0  0  0  0  0  0  0  0
  152.4446  143.7917  161.4241 C   0  0  0  0  0  0  0  0  0  0  0  0
  152.6550  142.4017  161.4771 C   0  0  0  0  0  0  0  0  0  0  0  0
  152.5652  141.6303  160.3029 C   0  0  0  0  0  0  0  0  0  0  0  0
  152.2657  142.2334  159.0642 C   0  0  0  0  0  0  0  0  0  0  0  0
  152.1967  141.4030  157.9659 O   0  0  0  0  0  0  0  0  0  0  0  0
  151.7915  140.0547  158.1634 C   0  0  0  0  0  0  0  0  0  0  0  0
  151.6386  139.3750  156.7919 C   0  0  1  0  0  0  0  0  0  0  0  0
  152.8956  139.4480  156.1479 O   0  0  0  0  0  0  0  0  0  0  0  0
  151.2611  137.8822  156.9271 C   0  0  0  0  0  0  0  0  0  0  0  0
  149.9386  137.6973  157.5488 N   0  0  0  0  0  0  0  0  0  0  0  0
  148.8305  138.1047  156.7880 C   0  0  0  0  0  0  0  0  0  0  0  0
  147.6218  137.9886  157.2317 N   0  0  0  0  0  0  0  0  0  0  0  0
  147.3939  137.4498  158.5013 C   0  0  0  0  0  0  0  0  0  0  0  0
  145.9381  137.3596  158.9238 C   0  0  0  0  0  0  0  0  0  0  0  0
  148.4243  137.0423  159.2917 C   0  0  0  0  0  0  0  0  0  0  0  0
  148.2367  136.4512  160.6834 C   0  0  0  0  0  0  0  0  0  0  0  0
  149.8060  137.1700  158.8004 C   0  0  0  0  0  0  0  0  0  0  0  0
  150.7863  136.8287  159.4653 O   0  0  0  0  0  0  0  0  0  0  0  0
  152.0564  143.6354  159.0198 C   0  0  0  0  0  0  0  0  0  0  0  0
  151.8025  146.3363  161.1230 H   0  0  0  0  0  0  0  0  0  0  0  0
  151.0156  146.1307  159.5566 H   0  0  0  0  0  0  0  0  0  0  0  0
  152.7625  146.3940  159.6398 H   0  0  0  0  0  0  0  0  0  0  0  0
  152.5150  144.3783  162.3284 H   0  0  0  0  0  0  0  0  0  0  0  0
  152.8854  141.9260  162.4189 H   0  0  0  0  0  0  0  0  0  0  0  0
  152.7281  140.5636  160.3533 H   0  0  0  0  0  0  0  0  0  0  0  0
  152.4971  139.5075  158.7913 H   0  0  0  0  0  0  0  0  0  0  0  0
  150.8277  140.0641  158.6751 H   0  0  0  0  0  0  0  0  0  0  0  0
  150.8884  139.9069  156.2052 H   0  0  0  0  0  0  0  0  0  0  0  0
  153.0400  138.6416  155.6768 H   0  0  0  0  0  0  0  0  0  0  0  0
  151.3363  137.3782  155.9610 H   0  0  0  0  0  0  0  0  0  0  0  0
  152.0001  137.3730  157.5484 H   0  0  0  0  0  0  0  0  0  0  0  0
  149.0623  138.5246  155.8077 H   0  0  0  0  0  0  0  0  0  0  0  0
  145.6622  136.3250  159.1301 H   0  0  0  0  0  0  0  0  0  0  0  0
  145.2743  137.7326  158.1427 H   0  0  0  0  0  0  0  0  0  0  0  0
  145.7640  137.9538  159.8213 H   0  0  0  0  0  0  0  0  0  0  0  0
  148.7455  137.0680  161.4247 H   0  0  0  0  0  0  0  0  0  0  0  0
  148.6628  135.4484  160.7266 H   0  0  0  0  0  0  0  0  0  0  0  0
  147.1922  136.3757  160.9813 H   0  0  0  0  0  0  0  0  0  0  0  0
  151.8271  144.1397  158.0935 H   0  0  0  0  0  0  0  0  0  0  0  0
  1  2  1  0  0  0  0
  1 22  1  0  0  0  0
  1 23  1  0  0  0  0
  1 24  1  0  0  0  0
  2 21  1  0  0  0  0
  2  3  2  0  0  0  0
  3  4  1  0  0  0  0
  3 25  1  0  0  0  0
  4  5  2  0  0  0  0
  4 26  1  0  0  0  0
  5  6  1  0  0  0  0
  5 27  1  0  0  0  0
  6  7  1  0  0  0  0
  6 21  2  0  0  0  0
  7  8  1  0  0  0  0
  8  9  1  0  0  0  0
  8 28  1  0  0  0  0
  8 29  1  0  0  0  0
  9 10  1  0  0  0  0
  9 11  1  0  0  0  0
  9 30  1  0  0  0  0
 10 31  1  0  0  0  0
 11 12  1  0  0  0  0
 11 32  1  0  0  0  0
 11 33  1  0  0  0  0
 12 19  1  0  0  0  0
 12 13  1  0  0  0  0
 13 14  2  0  0  0  0
 13 34  1  0  0  0  0
 14 15  1  0  0  0  0
 15 16  1  0  0  0  0
 15 17  2  0  0  0  0
 16 35  1  0  0  0  0
 16 36  1  0  0  0  0
 16 37  1  0  0  0  0
 17 18  1  0  0  0  0
 17 19  1  0  0  0  0
 18 38  1  0  0  0  0
 18 39  1  0  0  0  0
 18 40  1  0  0  0  0
 19 20  2  0  0  0  0
 21 41  1  0  0  0  0
M  END
> <s_m_source_file>
AV-unprocessed.smi

> <i_m_source_file_index>
2267

> <i_lp_mmshare_version>
43012

> <i_f3d_flags>
0

> <s_epik_input>
W0NIM11jMVtjSF1bY0hdW2NIXWMoW2NIXTEpT1tDSDJdW0NASF0oW09IXSlbQ0gyXW4yW2NIXW5jKFtDSDNdKWMoW0NIM10pYzI9Tw==

> <s_epik_cmdline>
J2VwaWtfcHl0aG9uJywgJy1waCcsICc3LjAnLCAnLXRuJywgJzgnLCAnLW1hJywgJzIwMCcsICctbWV0YWxfYmluZGluZycsICctaW1hZScsICc8aW5maWxlLm1hZT4nLCAnLW9tYWUnLCAnPG91dGZpbGUubWFlPic=

> <r_lp_tautomer_probability>
1

> <r_epik_Ionization_Penalty>
3.72236e-05

> <r_epik_Ionization_Penalty_Charging>
8.38864e-08

> <r_epik_Ionization_Penalty_Neutral>
3.71397e-05

> <r_epik_State_Penalty>
-0

> <r_epik_Charging_Adjusted_Penalty>
8.38864e-08

> <i_epik_Tot_Q>
0

> <i_epik_Tot_abs_Q>
0

> <r_epik_Metal_State_Penalty>
-0

> <b_epik_Metal_Only>
0

> <s_lp_Force_Field>
OPLS_2005

> <r_lp_Energy>
23.9214

> <b_lp_Chiralities_Consistent>
1

> <s_lp_Variant>
AV-unprocessed.smi:2267-2

> <Gold.Version>
5.8.1

> <Gold.Id.Protein>
6NUR|6NUR_protein|mol2

> <Gold.PLP.Fitness>
43.8171

> <Gold.PLP.PLP>
-38.7032

> <Gold.PLP.part.hbond>
-2.0000

> <Gold.PLP.part.metal>
0.0000

> <Gold.PLP.part.buried>
-3.9214

> <Gold.PLP.part.nonpolar>
-31.7815

> <Gold.PLP.part.repulsive>
0.0000

> <Gold.PLP.ligand.clash>
0.0000

> <Gold.PLP.ligand.torsion>
0.4676

> <Gold.PLP.Chemscore.Hbond>
2.0000

> <Gold.PLP.Chemscore.CHOScore>
0.0000

> <Gold.PLP.Chemscore.Metal>
0.0000

> <Gold.Chemscore.Hbonds>
donor molecule, donor type, donor heavy atom, donor atom, acceptor molecule, acceptor atom, score
      P1  H  6896  6907       L1    20  1.00
      P1  H  7997  8008       L1    10  1.00

> <Gold.PLP.Chemscore.Internal.Correction>
0.0490

> <Gold.Rescore>
     Score         DG    S(hbond)    S(metal)    S(lipo)     H(rot)  DE(clash)    DE(int)     intcor
     18.01     -18.60       1.93        0.00     108.38       2.35       0.12       0.47       ----

> <Gold.Chemscore.Fitness>
18.0091

> <Gold.Chemscore.DG>
-18.5998

> <Gold.Chemscore.ZeroCoef>
-5.4800

> <Gold.Chemscore.Hbond>
1.9320

> <Gold.Chemscore.Metal>
0.0000

> <Gold.Chemscore.Lipo>
108.3801

> <Gold.Chemscore.Internal_Hbond>
0.0000

> <Gold.Chemscore.DEClash>
0.1201

> <Gold.Chemscore.DEInternal>
0.4706

> <Gold.Chemscore.Rot>
2.3490

> <Gold.Chemscore.Internal.Correction>
   9.000000E+99

> <Gold.Chemscore.Hbonds>
donor molecule, donor type, donor heavy atom, donor atom, acceptor molecule, acceptor atom, score
      P1  H  6896  6907       L1    20  1.00
      P1  H  7997  8008       L1    10  0.54

> <Gold.Chemscore.Hbond.Weighted>
-6.4529

> <Gold.Chemscore.Metal.Weighted>
-0.0000

> <Gold.Chemscore.Lipo.Weighted>
-12.6805

> <Gold.Chemscore.Internal_Hbond.Weighted>
0.0000

> <Gold.Chemscore.DEClash.Weighted>
0.1201

> <Gold.Chemscore.DEInternal.Weighted>
0.4706

> <Gold.Chemscore.Rot.Weighted>
6.0136

> <Gold.Chemscore.Internal.Correction.Weighted>
   9.000000E+99

> <Gold.Protein.RotatedTorsions>
[ 6907 6896 6895 6894 ] final  -16.18 input  -60.11 | X-H torsion
[ 7974 7965 7964 7962 ] final -115.30 input  175.53 | X-H torsion
[ 8008 7997 7996 7995 ] final  -42.65 input   59.86 | X-H torsion
[ 10167 10162 10161 10158 ] final  -68.07 input  -65.29 | X-H torsion
[ 10718 10713 10712 10709 ] final  -47.72 input   66.30 | X-H torsion
[ 10763 10752 10751 10750 ] final  -63.13 input  -60.55 | X-H torsion
[ 11005 11000 10999 10996 ] final  -89.38 input  -57.11 | X-H torsion

> <Gold.Protein.ActiveResidues>
 VAL166  LYS551  ARG553  GLY616  TRP617  ASP618  TYR619  PRO620  LYS621  CYS622 
 ASP623  PHE694  ASN695  SER759  ASP760  ASP761  ALA762  ILE779  LEU786  VAL792 
 PHE793  MET794  SER795  GLU796  ALA797  LYS798  CYS799  TRP800  GLU811  SER814 

> <Gold.Protein.RotatedAtoms>
  151.3126  135.0798  159.9277 H   0  0  0  0  0  0  0  0  0  0  0  0  # atno 6907 bound_to 6896
  152.5274  133.9720  159.7777 H   0  0  0  0  0  0  0  0  0  0  0  0  # atno 6908 bound_to 6896
  151.0026  133.5989  159.2723 H   0  0  0  0  0  0  0  0  0  0  0  0  # atno 6909 bound_to 6896
  145.1100  140.8605  143.3876 H   0  0  0  0  0  0  0  0  0  0  0  0  # atno 7974 bound_to 7965
  154.3998  140.1468  156.3390 H   0  0  0  0  0  0  0  0  0  0  0  0  # atno 8008 bound_to 7997
  155.8374  140.3463  155.5589 H   0  0  0  0  0  0  0  0  0  0  0  0  # atno 8009 bound_to 7997
  155.8124  140.0886  157.1887 H   0  0  0  0  0  0  0  0  0  0  0  0  # atno 8010 bound_to 7997
  140.5535  143.2312  151.6866 H   0  0  0  0  0  0  0  0  0  0  0  0  # atno 10167 bound_to 10162
  156.2057  130.4158  149.9181 H   0  0  0  0  0  0  0  0  0  0  0  0  # atno 10718 bound_to 10713
  154.3104  135.6216  153.5463 H   0  0  0  0  0  0  0  0  0  0  0  0  # atno 10763 bound_to 10752
  152.9830  135.5700  154.5183 H   0  0  0  0  0  0  0  0  0  0  0  0  # atno 10764 bound_to 10752
  154.4832  135.2864  155.1531 H   0  0  0  0  0  0  0  0  0  0  0  0  # atno 10765 bound_to 10752
  141.1585  133.7627  156.9587 H   0  0  0  0  0  0  0  0  0  0  0  0  # atno 11005 bound_to 11000
  145.0858  139.2926  143.5760 LP  0  0  0  0  0  0  0  0  0  0  0  0  # atno 17320 bound_to 7965
  146.3526  140.0379  142.8645 LP  0  0  0  0  0  0  0  0  0  0  0  0  # atno 17321 bound_to 7965
  139.5037  144.3779  152.0405 LP  0  0  0  0  0  0  0  0  0  0  0  0  # atno 17342 bound_to 10162
  140.2899  144.3766  150.6092 LP  0  0  0  0  0  0  0  0  0  0  0  0  # atno 17343 bound_to 10162
  156.6876  130.8883  151.3584 LP  0  0  0  0  0  0  0  0  0  0  0  0  # atno 17370 bound_to 10713
  157.7011  130.9334  150.0788 LP  0  0  0  0  0  0  0  0  0  0  0  0  # atno 17371 bound_to 10713
  140.1208  134.9418  157.2200 LP  0  0  0  0  0  0  0  0  0  0  0  0  # atno 17394 bound_to 11000
  140.3075  134.3062  155.7275 LP  0  0  0  0  0  0  0  0  0  0  0  0  # atno 17395 bound_to 11000

$$$$
