#       Name:                AV-unprocessed.smi:2245
#       Creating user name   scv26
#       Creation time:       Fri Mar 27 12:28:31 2020


#       File generated by GOLD software.
#

@<TRIPOS>MOLECULE
AV-unprocessed.smi:2245
    48    49     1
SMALL
NO_CHARGES


@<TRIPOS>ATOM
      1 ****        -6.6783   1.4267  -0.7232 C.3            1 S1                 0.0000
      2 ****        -5.2272   1.8581  -0.6897 C.ar           1 S1                 0.0000
      3 ****        -4.8752   3.1726  -0.3289 C.ar           1 S1                 0.0000
      4 ****        -3.5086   3.5141  -0.3121 C.ar           1 S1                 0.0000
      5 ****        -3.0589   4.9096   0.0660 C.3            1 S1                 0.0000
      6 ****        -2.5269   2.6403  -0.6217 N.ar           1 S1                 0.0000
      7 ****        -2.8541   1.3711  -0.9692 C.ar           1 S1                 0.0000
      8 ****        -1.8987   0.3769  -1.3092 N.am           1 S1                 0.0000
      9 ****        -0.5582   0.4810  -1.3148 C.2            1 S1                 0.0000
     10 ****         0.0812   1.4947  -1.0316 O.2            1 S1                 0.0000
     11 ****         0.0177  -0.6785  -1.6643 N.am           1 S1                 0.0000
     12 ****         1.4568  -0.9076  -1.7399 C.3            1 S1                 0.0000
     13 ****         2.0922  -1.0673  -0.3449 C.3            1 S1                 0.0000
     14 ****         1.5363  -2.2204   0.4865 C.3            1 S1                 0.0000
     15 ****         2.6308  -2.4298   1.5284 C.3            1 S1                 0.0000
     16 ****         3.9063  -2.1739   0.8217 N.4            1 S1                 1.0000
     17 ****         5.0004  -1.6367   1.6682 C.3            1 S1                 0.0000
     18 ****         5.5249  -2.6593   2.6922 C.3            1 S1                 0.0000
     19 ****         6.5983  -2.1539   3.2979 F              1 S1                 0.0000
     20 ****         4.6078  -2.9298   3.6203 F              1 S1                 0.0000
     21 ****         5.8741  -3.7883   2.0757 F              1 S1                 0.0000
     22 ****         3.6002  -1.3491  -0.3728 C.3            1 S1                 0.0000
     23 ****        -4.2014   0.9473  -1.0134 C.ar           1 S1                 0.0000
     24 ****        -7.3404   2.2860  -0.8343 H              1 S1                 0.0000
     25 ****        -6.9377   0.9103   0.2013 H              1 S1                 0.0000
     26 ****        -6.8596   0.7497  -1.5585 H              1 S1                 0.0000
     27 ****        -5.6326   3.8986  -0.0712 H              1 S1                 0.0000
     28 ****        -3.9102   5.5795   0.1900 H              1 S1                 0.0000
     29 ****        -2.4115   5.3237  -0.7076 H              1 S1                 0.0000
     30 ****        -2.5032   4.8861   1.0037 H              1 S1                 0.0000
     31 ****        -2.2811  -0.5216  -1.5640 H              1 S1                 0.0000
     32 ****        -0.5812  -1.4601  -1.8877 H              1 S1                 0.0000
     33 ****         1.6228  -1.8068  -2.3338 H              1 S1                 0.0000
     34 ****         1.9332  -0.0883  -2.2811 H              1 S1                 0.0000
     35 ****         1.9414  -0.1471   0.2225 H              1 S1                 0.0000
     36 ****         0.5673  -1.9947   0.9333 H              1 S1                 0.0000
     37 ****         1.4272  -3.1153  -0.1279 H              1 S1                 0.0000
     38 ****         2.5002  -1.7080   2.3363 H              1 S1                 0.0000
     39 ****         2.6040  -3.4298   1.9615 H              1 S1                 0.0000
     40 ****         5.8276  -1.3581   1.0134 H              1 S1                 0.0000
     41 ****         4.6767  -0.7213   2.1661 H              1 S1                 0.0000
     42 ****         3.8728  -1.9276  -1.2563 H              1 S1                 0.0000
     43 ****         4.1700  -0.4189  -0.4035 H              1 S1                 0.0000
     44 ****        -4.4483  -0.0676  -1.2905 H              1 S1                 0.0000
     45 ****         4.2233  -3.0643   0.4652 H              1 S1                 0.0000
     46 ****        -1.5690   2.9260  -0.5950 LP             1 S1                 0.0000
     47 ****        -0.3990   2.3320  -0.7702 LP             1 S1                 0.0000
     48 ****         1.0806   1.4805  -1.0630 LP             1 S1                 0.0000
@<TRIPOS>BOND
    1    1    2 1     
    2    1   24 1     
    3    1   25 1     
    4    1   26 1     
    5    2   23 ar    
    6    2    3 ar    
    7    3    4 ar    
    8    3   27 1     
    9    4    5 1     
   10    4    6 ar    
   11    5   28 1     
   12    5   29 1     
   13    5   30 1     
   14    6    7 ar    
   15    7    8 1     
   16    7   23 ar    
   17    8    9 am    
   18    8   31 1     
   19    9   10 2     
   20    9   11 am    
   21   11   12 1     
   22   11   32 1     
   23   12   13 1     
   24   12   33 1     
   25   12   34 1     
   26   13   22 1     
   27   13   14 1     
   28   13   35 1     
   29   14   15 1     
   30   14   36 1     
   31   14   37 1     
   32   15   16 1     
   33   15   38 1     
   34   15   39 1     
   35   16   17 1     
   36   16   22 1     
   37   16   45 1     
   38   17   18 1     
   39   17   40 1     
   40   17   41 1     
   41   18   19 1     
   42   18   20 1     
   43   18   21 1     
   44   22   42 1     
   45   22   43 1     
   46   23   44 1     
   47    6   46 1     
   48   10   47 1     
   49   10   48 1     
@<TRIPOS>SUBSTRUCTURE
      1 S1             1
@<TRIPOS>SET
LONE_PAIRS      STATIC     ATOMS    <user>   **** ""
3 46 47 48
DONOR_HYDROGENS      STATIC     ATOMS    <user>   **** ""
3 31 32 45
ATOM$BLUE        STATIC     ATOMS    COLORGROUP SYSTEM
3 46 47 48
ATOM$RED        STATIC     ATOMS    COLORGROUP SYSTEM
3 31 32 45
