AV-unprocessed.smi:17|AV-procd|sdf|100|dock3
  -GOLD-   2262015243D 1   1.00000     0.00000
 Structure written by MMmdl.
 57 59  0  0  0  0  0  0  0  0  1 V2000
  149.4883  130.6568  158.1157 C   0  0  0  0  0  0  0  0  0  0  0  0
  150.5781  130.1118  157.1818 C   0  0  0  0  0  0  0  0  0  0  0  0
  151.4285  131.1746  156.6379 N   0  0  0  0  0  0  0  0  0  0  0  0
  150.8626  132.1340  155.8555 C   0  0  0  0  0  0  0  0  0  0  0  0
  151.2294  133.4272  156.0589 N   0  0  0  0  0  0  0  0  0  0  0  0
  150.7232  134.4059  155.3044 C   0  0  0  0  0  0  0  0  0  0  0  0
  149.8413  134.3187  154.3086 N   0  0  0  0  0  0  0  0  0  0  0  0
  149.4503  133.0281  154.1097 C   0  0  0  0  0  0  0  0  0  0  0  0
  149.8984  131.8855  154.8332 C   0  0  0  0  0  0  0  0  0  0  0  0
  149.2463  130.7512  154.3590 N   0  0  0  0  0  0  0  0  0  0  0  0
  148.4835  131.1924  153.3971 C   0  0  0  0  0  0  0  0  0  0  0  0
  148.5522  132.5478  153.1741 N   0  0  0  0  0  0  0  0  0  0  0  0
  147.8230  133.3074  152.1750 C   0  0  0  0  0  0  0  0  0  0  0  0
  146.2914  133.3569  152.4223 C   0  0  1  0  0  0  0  0  0  0  0  0
  145.8817  134.5374  153.3405 C   0  0  0  0  0  0  0  0  0  0  0  0
  146.3321  135.7788  152.8377 O   0  0  0  0  0  0  0  0  0  0  0  0
  145.5229  133.4033  151.0755 C   0  0  2  0  0  0  0  0  0  0  0  0
  144.0083  133.2780  151.1998 C   0  0  0  0  0  0  0  0  0  0  0  0
  143.5645  132.6655  149.8690 C   0  0  0  0  0  0  0  0  0  0  0  0
  144.7545  132.2832  149.1912 O   0  0  0  0  0  0  0  0  0  0  0  0
  145.8195  132.2409  150.1256 C   0  0  0  0  0  0  0  0  0  0  0  0
  152.8698  131.2070  156.9122 C   0  0  2  0  0  0  0  0  0  0  0  0
  153.3183  129.9460  157.6690 C   0  0  0  0  0  0  0  0  0  0  0  0
  153.3133  132.4971  157.6359 C   0  0  0  0  0  0  0  0  0  0  0  0
  155.1045  132.8971  157.3844 S   0  0  0  0  0  0  0  0  0  0  0  0
  155.7827  132.8085  159.0930 C   0  0  0  0  0  0  0  0  0  0  0  0
  155.7096  131.8010  156.6130 O   0  0  0  0  0  0  0  0  0  0  0  0
  155.2340  134.2832  156.9091 O   0  0  0  0  0  0  0  0  0  0  0  0
  148.8518  129.8493  158.4772 H   0  0  0  0  0  0  0  0  0  0  0  0
  148.8514  131.3767  157.6012 H   0  0  0  0  0  0  0  0  0  0  0  0
  149.9191  131.1516  158.9864 H   0  0  0  0  0  0  0  0  0  0  0  0
  151.1823  129.3697  157.7041 H   0  0  0  0  0  0  0  0  0  0  0  0
  150.0970  129.5755  156.3646 H   0  0  0  0  0  0  0  0  0  0  0  0
  151.0771  135.4009  155.5296 H   0  0  0  0  0  0  0  0  0  0  0  0
  147.8514  130.5362  152.8168 H   0  0  0  0  0  0  0  0  0  0  0  0
  148.2312  134.3182  152.1409 H   0  0  0  0  0  0  0  0  0  0  0  0
  148.0456  132.8528  151.2100 H   0  0  0  0  0  0  0  0  0  0  0  0
  145.9999  132.4307  152.9201 H   0  0  0  0  0  0  0  0  0  0  0  0
  144.8001  134.5670  153.4762 H   0  0  0  0  0  0  0  0  0  0  0  0
  146.3179  134.4370  154.3331 H   0  0  0  0  0  0  0  0  0  0  0  0
  147.1894  135.6588  152.4584 H   0  0  0  0  0  0  0  0  0  0  0  0
  145.7533  134.3352  150.5564 H   0  0  0  0  0  0  0  0  0  0  0  0
  143.7461  132.6026  152.0155 H   0  0  0  0  0  0  0  0  0  0  0  0
  143.5227  134.2355  151.3904 H   0  0  0  0  0  0  0  0  0  0  0  0
  142.9276  131.7954  150.0323 H   0  0  0  0  0  0  0  0  0  0  0  0
  143.0125  133.3803  149.2585 H   0  0  0  0  0  0  0  0  0  0  0  0
  146.7790  132.3388  149.6178 H   0  0  0  0  0  0  0  0  0  0  0  0
  145.8030  131.2856  150.6531 H   0  0  0  0  0  0  0  0  0  0  0  0
  153.4179  131.2069  155.9727 H   0  0  0  0  0  0  0  0  0  0  0  0
  154.4007  129.9309  157.7964 H   0  0  0  0  0  0  0  0  0  0  0  0
  153.0408  129.0433  157.1238 H   0  0  0  0  0  0  0  0  0  0  0  0
  152.8690  129.8881  158.6604 H   0  0  0  0  0  0  0  0  0  0  0  0
  152.7135  133.3647  157.3644 H   0  0  0  0  0  0  0  0  0  0  0  0
  153.1848  132.3574  158.7097 H   0  0  0  0  0  0  0  0  0  0  0  0
  156.8626  132.9490  159.0578 H   0  0  0  0  0  0  0  0  0  0  0  0
  155.5607  131.8338  159.5263 H   0  0  0  0  0  0  0  0  0  0  0  0
  155.3461  133.5895  159.7107 H   0  0  0  0  0  0  0  0  0  0  0  0
  1  2  1  0  0  0  0
  1 29  1  0  0  0  0
  1 30  1  0  0  0  0
  1 31  1  0  0  0  0
  2  3  1  0  0  0  0
  2 32  1  0  0  0  0
  2 33  1  0  0  0  0
  3  4  1  0  0  0  0
  3 22  1  0  0  0  0
  4  9  1  0  0  0  0
  4  5  2  0  0  0  0
  5  6  1  0  0  0  0
  6  7  2  0  0  0  0
  6 34  1  0  0  0  0
  7  8  1  0  0  0  0
  8 12  1  0  0  0  0
  8  9  2  0  0  0  0
  9 10  1  0  0  0  0
 10 11  2  0  0  0  0
 11 12  1  0  0  0  0
 11 35  1  0  0  0  0
 12 13  1  0  0  0  0
 13 14  1  0  0  0  0
 13 36  1  0  0  0  0
 13 37  1  0  0  0  0
 14 15  1  0  0  0  0
 14 17  1  0  0  0  0
 14 38  1  0  0  0  0
 15 16  1  0  0  0  0
 15 39  1  0  0  0  0
 15 40  1  0  0  0  0
 16 41  1  0  0  0  0
 17 21  1  0  0  0  0
 17 18  1  0  0  0  0
 17 42  1  0  0  0  0
 18 19  1  0  0  0  0
 18 43  1  0  0  0  0
 18 44  1  0  0  0  0
 19 20  1  0  0  0  0
 19 45  1  0  0  0  0
 19 46  1  0  0  0  0
 20 21  1  0  0  0  0
 21 47  1  0  0  0  0
 21 48  1  0  0  0  0
 22 23  1  0  0  0  0
 22 24  1  0  0  0  0
 22 49  1  0  0  0  0
 23 50  1  0  0  0  0
 23 51  1  0  0  0  0
 23 52  1  0  0  0  0
 24 25  1  0  0  0  0
 24 53  1  0  0  0  0
 24 54  1  0  0  0  0
 25 26  1  0  0  0  0
 25 27  2  0  0  0  0
 25 28  2  0  0  0  0
 26 55  1  0  0  0  0
 26 56  1  0  0  0  0
 26 57  1  0  0  0  0
M  END
> <s_m_source_file>
AV-unprocessed.smi

> <i_m_source_file_index>
17

> <i_lp_mmshare_version>
43012

> <i_f3d_flags>
0

> <s_epik_input>
W0NIM11TKD1PKSg9TylbQ0gyXVtDQEBIXShbQ0gzXSlOKFtDSDJdW0NIM10pYyhuW2NIXW4xKWMoYzEyKW5bY0hdbjJbQ0gyXVtDQEhdKFtDSDJdW09IXSlbQ0BASF0zW0NIMl1bQ0gyXU9bQ0gyXTM=

> <s_epik_cmdline>
J2VwaWtfcHl0aG9uJywgJy1waCcsICc3LjAnLCAnLXRuJywgJzgnLCAnLW1hJywgJzIwMCcsICctbWV0YWxfYmluZGluZycsICctaW1hZScsICc8aW5maWxlLm1hZT4nLCAnLW9tYWUnLCAnPG91dGZpbGUubWFlPic=

> <r_lp_tautomer_probability>
1

> <r_epik_Ionization_Penalty>
0.00119955

> <r_epik_Ionization_Penalty_Charging>
0

> <r_epik_Ionization_Penalty_Neutral>
0.00119955

> <r_epik_State_Penalty>
0.000665399

> <r_epik_Charging_Adjusted_Penalty>
0.000665399

> <i_epik_Tot_Q>
0

> <i_epik_Tot_abs_Q>
0

> <r_epik_Metal_State_Penalty>
-0

> <b_epik_Metal_Only>
0

> <s_lp_Force_Field>
OPLS_2005

> <r_lp_Energy>
33.0306

> <b_lp_Chiralities_Consistent>
1

> <s_lp_Variant>
AV-unprocessed.smi:17-2

> <Gold.Version>
5.8.1

> <Gold.Id.Protein>
6NUR|6NUR_protein|mol2

> <Gold.PLP.Fitness>
41.8680

> <Gold.PLP.PLP>
-37.4721

> <Gold.PLP.part.hbond>
-2.4056

> <Gold.PLP.part.metal>
0.0000

> <Gold.PLP.part.buried>
-2.4147

> <Gold.PLP.part.nonpolar>
-32.8136

> <Gold.PLP.part.repulsive>
0.4072

> <Gold.PLP.ligand.clash>
0.0000

> <Gold.PLP.ligand.torsion>
1.4652

> <Gold.PLP.Chemscore.Hbond>
2.0000

> <Gold.PLP.Chemscore.CHOScore>
0.2292

> <Gold.PLP.Chemscore.Metal>
0.0000

> <Gold.Chemscore.Hbonds>
donor molecule, donor type, donor heavy atom, donor atom, acceptor molecule, acceptor atom, score
      L1  H    16    41       P1  7948  1.00
      P1  H 10752 10765       L1    28  0.72
      L1  C    11    35       P1 10747  0.15

> <Gold.PLP.Chemscore.Internal.Correction>
0.6387

> <Gold.Rescore>
     Score         DG    S(hbond)    S(metal)    S(lipo)     H(rot)  DE(clash)    DE(int)     intcor
      8.32     -11.28       1.93        0.00      71.28       3.51       0.02       2.93       ----

> <Gold.Chemscore.Fitness>
8.3249

> <Gold.Chemscore.DG>
-11.2776

> <Gold.Chemscore.ZeroCoef>
-5.4800

> <Gold.Chemscore.Hbond>
1.9260

> <Gold.Chemscore.Metal>
0.0000

> <Gold.Chemscore.Lipo>
71.2787

> <Gold.Chemscore.Internal_Hbond>
0.0000

> <Gold.Chemscore.DEClash>
0.0180

> <Gold.Chemscore.DEInternal>
2.9347

> <Gold.Chemscore.Rot>
3.5059

> <Gold.Chemscore.Internal.Correction>
   9.000000E+99

> <Gold.Chemscore.Hbonds>
donor molecule, donor type, donor heavy atom, donor atom, acceptor molecule, acceptor atom, score
      L1  H    16    41       P1  7948  0.98
      P1  H 10752 10765       L1    28  0.68

> <Gold.Chemscore.Hbond.Weighted>
-6.4329

> <Gold.Chemscore.Metal.Weighted>
-0.0000

> <Gold.Chemscore.Lipo.Weighted>
-8.3396

> <Gold.Chemscore.Internal_Hbond.Weighted>
0.0000

> <Gold.Chemscore.DEClash.Weighted>
0.0180

> <Gold.Chemscore.DEInternal.Weighted>
2.9347

> <Gold.Chemscore.Rot.Weighted>
8.9750

> <Gold.Chemscore.Internal.Correction.Weighted>
   9.000000E+99

> <Gold.Protein.RotatedTorsions>
[ 6907 6896 6895 6894 ] final  104.50 input  -60.11 | X-H torsion
[ 7974 7965 7964 7962 ] final  128.02 input  175.53 | X-H torsion
[ 8008 7997 7996 7995 ] final   69.96 input   59.86 | X-H torsion
[ 10167 10162 10161 10158 ] final  113.65 input  -65.29 | X-H torsion
[ 10718 10713 10712 10709 ] final   52.94 input   66.30 | X-H torsion
[ 10763 10752 10751 10750 ] final  -82.72 input  -60.55 | X-H torsion
[ 11005 11000 10999 10996 ] final   73.24 input  -57.11 | X-H torsion

> <Gold.Protein.ActiveResidues>
 VAL166  LYS551  ARG553  GLY616  TRP617  ASP618  TYR619  PRO620  LYS621  CYS622 
 ASP623  PHE694  ASN695  SER759  ASP760  ASP761  ALA762  ILE779  LEU786  VAL792 
 PHE793  MET794  SER795  GLU796  ALA797  LYS798  CYS799  TRP800  GLU811  SER814 

> <Gold.Protein.RotatedAtoms>
  152.5262  133.9667  159.7742 H   0  0  0  0  0  0  0  0  0  0  0  0  # atno 6907 bound_to 6896
  150.9947  133.6106  159.2710 H   0  0  0  0  0  0  0  0  0  0  0  0  # atno 6908 bound_to 6896
  151.3237  135.0831  159.9368 H   0  0  0  0  0  0  0  0  0  0  0  0  # atno 6909 bound_to 6896
  145.0441  139.3938  143.5087 H   0  0  0  0  0  0  0  0  0  0  0  0  # atno 7974 bound_to 7965
  155.7316  140.3492  155.5062 H   0  0  0  0  0  0  0  0  0  0  0  0  # atno 8008 bound_to 7997
  155.9177  140.1061  157.1252 H   0  0  0  0  0  0  0  0  0  0  0  0  # atno 8009 bound_to 7997
  154.4065  140.1255  156.4626 H   0  0  0  0  0  0  0  0  0  0  0  0  # atno 8010 bound_to 7997
  139.6446  144.7126  151.2169 H   0  0  0  0  0  0  0  0  0  0  0  0  # atno 10167 bound_to 10162
  157.5121  130.8508  149.8449 H   0  0  0  0  0  0  0  0  0  0  0  0  # atno 10718 bound_to 10713
  154.5792  135.5581  153.7168 H   0  0  0  0  0  0  0  0  0  0  0  0  # atno 10763 bound_to 10752
  153.0075  135.6316  154.2007 H   0  0  0  0  0  0  0  0  0  0  0  0  # atno 10764 bound_to 10752
  154.1947  135.2880  155.2990 H   0  0  0  0  0  0  0  0  0  0  0  0  # atno 10765 bound_to 10752
  139.9450  134.7329  156.1002 H   0  0  0  0  0  0  0  0  0  0  0  0  # atno 11005 bound_to 11000
  146.3512  140.0057  142.8672 LP  0  0  0  0  0  0  0  0  0  0  0  0  # atno 17320 bound_to 7965
  145.1610  140.9673  143.4377 LP  0  0  0  0  0  0  0  0  0  0  0  0  # atno 17321 bound_to 7965
  140.7508  143.6254  150.8474 LP  0  0  0  0  0  0  0  0  0  0  0  0  # atno 17342 bound_to 10162
  139.9895  143.5863  152.2915 LP  0  0  0  0  0  0  0  0  0  0  0  0  # atno 17343 bound_to 10162
  156.0296  130.3768  150.1725 LP  0  0  0  0  0  0  0  0  0  0  0  0  # atno 17370 bound_to 10713
  156.9914  130.9894  151.3413 LP  0  0  0  0  0  0  0  0  0  0  0  0  # atno 17371 bound_to 10713
  141.1097  133.6647  156.2950 LP  0  0  0  0  0  0  0  0  0  0  0  0  # atno 17394 bound_to 11000
  140.5857  134.5701  157.5489 LP  0  0  0  0  0  0  0  0  0  0  0  0  # atno 17395 bound_to 11000

$$$$
