AV-unprocessed.smi:3311|AV-procd|sdf|12719|dock5
  -GOLD-   2272019 53D 1   1.00000     0.00000
 Structure written by MMmdl.
 44 45  0  0  0  0  0  0  0  0  2 V2000
  149.5087  137.1468  156.5034 C   0  0  0  0  0  0  0  0  0  0  0  0
  149.0857  137.2564  155.0291 C   0  0  2  0  0  0  0  0  0  0  0  0
  149.1666  135.9128  154.4115 N   0  3  0  0  0  0  0  0  0  0  0  0
  148.1456  134.9474  154.8725 C   0  0  0  0  0  0  0  0  0  0  0  0
  148.2735  133.5818  154.1633 C   0  0  0  0  0  0  0  0  0  0  0  0
  148.0453  133.8057  152.7826 O   0  0  0  0  0  0  0  0  0  0  0  0
  149.6768  132.9570  154.3632 C   0  0  0  0  0  0  0  0  0  0  0  0
  149.7894  131.5367  153.7806 C   0  0  0  0  0  0  0  0  0  0  0  0
  148.6994  130.6133  154.3419 C   0  0  0  0  0  0  0  0  0  0  0  0
  147.3027  131.1982  154.0911 C   0  0  0  0  0  0  0  0  0  0  0  0
  147.1776  132.6170  154.6754 C   0  0  0  0  0  0  0  0  0  0  0  0
  149.9465  138.2667  154.2237 C   0  0  2  0  0  0  0  0  0  0  0  0
  151.4449  138.2101  154.5775 C   0  0  0  0  0  0  0  0  0  0  0  0
  149.4517  139.6297  154.3836 N   0  0  0  0  0  0  0  0  0  0  0  0
  148.1973  140.1227  154.0879 C   0  0  0  0  0  0  0  0  0  0  0  0
  148.1909  141.4480  154.4162 C   0  0  0  0  0  0  0  0  0  0  0  0
  149.5050  141.6813  154.9082 C   0  0  0  0  0  0  0  0  0  0  0  0
  150.2565  140.5929  154.8875 N   0  0  0  0  0  0  0  0  0  0  0  0
  149.3540  138.0840  157.0374 H   0  0  0  0  0  0  0  0  0  0  0  0
  150.5608  136.8757  156.5982 H   0  0  0  0  0  0  0  0  0  0  0  0
  148.9217  136.3876  157.0219 H   0  0  0  0  0  0  0  0  0  0  0  0
  148.0482  137.5955  155.0131 H   0  0  0  0  0  0  0  0  0  0  0  0
  149.0551  136.0187  153.4131 H   0  0  0  0  0  0  0  0  0  0  0  0
  148.2405  134.8222  155.9521 H   0  0  0  0  0  0  0  0  0  0  0  0
  147.1546  135.3653  154.6893 H   0  0  0  0  0  0  0  0  0  0  0  0
  148.4773  134.6094  152.5345 H   0  0  0  0  0  0  0  0  0  0  0  0
  150.4470  133.5880  153.9186 H   0  0  0  0  0  0  0  0  0  0  0  0
  149.9006  132.9140  155.4300 H   0  0  0  0  0  0  0  0  0  0  0  0
  149.7124  131.5758  152.6934 H   0  0  0  0  0  0  0  0  0  0  0  0
  150.7737  131.1236  154.0029 H   0  0  0  0  0  0  0  0  0  0  0  0
  148.7769  129.6257  153.8861 H   0  0  0  0  0  0  0  0  0  0  0  0
  148.8522  130.4729  155.4128 H   0  0  0  0  0  0  0  0  0  0  0  0
  147.1003  131.2182  153.0197 H   0  0  0  0  0  0  0  0  0  0  0  0
  146.5459  130.5489  154.5324 H   0  0  0  0  0  0  0  0  0  0  0  0
  147.2369  132.5498  155.7627 H   0  0  0  0  0  0  0  0  0  0  0  0
  146.1871  133.0173  154.4539 H   0  0  0  0  0  0  0  0  0  0  0  0
  149.8546  138.0204  153.1644 H   0  0  0  0  0  0  0  0  0  0  0  0
  151.8873  137.2516  154.3079 H   0  0  0  0  0  0  0  0  0  0  0  0
  151.6111  138.3670  155.6436 H   0  0  0  0  0  0  0  0  0  0  0  0
  152.0013  138.9786  154.0396 H   0  0  0  0  0  0  0  0  0  0  0  0
  147.4195  139.4968  153.6755 H   0  0  0  0  0  0  0  0  0  0  0  0
  147.3725  142.1456  154.3184 H   0  0  0  0  0  0  0  0  0  0  0  0
  149.9320  142.6020  155.2775 H   0  0  0  0  0  0  0  0  0  0  0  0
  150.0820  135.5261  154.5903 H   0  0  0  0  0  0  0  0  0  0  0  0
  1  2  1  0  0  0  0
  1 19  1  0  0  0  0
  1 20  1  0  0  0  0
  1 21  1  0  0  0  0
  2  3  1  0  0  0  0
  2 12  1  0  0  0  0
  2 22  1  0  0  0  0
  3  4  1  0  0  0  0
  3 23  1  0  0  0  0
  3 44  1  0  0  0  0
  4  5  1  0  0  0  0
  4 24  1  0  0  0  0
  4 25  1  0  0  0  0
  5 11  1  0  0  0  0
  5  6  1  0  0  0  0
  5  7  1  0  0  0  0
  6 26  1  0  0  0  0
  7  8  1  0  0  0  0
  7 27  1  0  0  0  0
  7 28  1  0  0  0  0
  8  9  1  0  0  0  0
  8 29  1  0  0  0  0
  8 30  1  0  0  0  0
  9 10  1  0  0  0  0
  9 31  1  0  0  0  0
  9 32  1  0  0  0  0
 10 11  1  0  0  0  0
 10 33  1  0  0  0  0
 10 34  1  0  0  0  0
 11 35  1  0  0  0  0
 11 36  1  0  0  0  0
 12 13  1  0  0  0  0
 12 14  1  0  0  0  0
 12 37  1  0  0  0  0
 13 38  1  0  0  0  0
 13 39  1  0  0  0  0
 13 40  1  0  0  0  0
 14 18  1  0  0  0  0
 14 15  1  0  0  0  0
 15 16  2  0  0  0  0
 15 41  1  0  0  0  0
 16 17  1  0  0  0  0
 16 42  1  0  0  0  0
 17 18  2  0  0  0  0
 17 43  1  0  0  0  0
M  CHG  1   3   1
M  END
> <s_m_source_file>
AV-unprocessed.smi

> <i_m_source_file_index>
3311

> <i_lp_mmshare_version>
43012

> <i_f3d_flags>
0

> <s_epik_input>
bjFbY0hdW2NIXVtjSF1uMVtDQEBIXShbQ0gzXSlbQ0BIXShbQ0gzXSlbTkhdW0NIMl1DMihbT0hdKVtDSDJdW0NIMl1bQ0gyXVtDSDJdW0NIMl0y

> <s_epik_cmdline>
J2VwaWtfcHl0aG9uJywgJy1waCcsICc3LjAnLCAnLXRuJywgJzgnLCAnLW1hJywgJzIwMCcsICctbWV0YWxfYmluZGluZycsICctaW1hZScsICc8aW5maWxlLm1hZT4nLCAnLW9tYWUnLCAnPG91dGZpbGUubWFlPic=

> <r_lp_tautomer_probability>
1

> <r_epik_Ionization_Penalty>
0.0141403

> <r_epik_Ionization_Penalty_Charging>
0.0141276

> <r_epik_Ionization_Penalty_Neutral>
1.27139e-05

> <r_epik_State_Penalty>
0.0110334

> <r_epik_Charging_Adjusted_Penalty>
0.025161

> <i_epik_Tot_Q>
1

> <i_epik_Tot_abs_Q>
1

> <r_epik_Metal_State_Penalty>
0.0110573

> <b_epik_Metal_Only>
0

> <s_lp_Force_Field>
OPLS_2005

> <r_lp_Energy>
21.8269

> <b_lp_Chiralities_Consistent>
1

> <s_lp_Variant>
AV-unprocessed.smi:3311-1

> <Gold.Version>
5.8.1

> <Gold.Id.Protein>
6NUR|6NUR_protein|mol2

> <Gold.PLP.Fitness>
42.4368

> <Gold.PLP.PLP>
-29.0226

> <Gold.PLP.part.hbond>
-3.0000

> <Gold.PLP.part.metal>
0.0000

> <Gold.PLP.part.buried>
-2.1784

> <Gold.PLP.part.nonpolar>
-23.0881

> <Gold.PLP.part.repulsive>
0.0843

> <Gold.PLP.ligand.clash>
0.0000

> <Gold.PLP.ligand.torsion>
0.5871

> <Gold.PLP.Chemscore.Hbond>
3.9760

> <Gold.PLP.Chemscore.CHOScore>
0.8644

> <Gold.PLP.Chemscore.Metal>
0.0000

> <Gold.Chemscore.Hbonds>
donor molecule, donor type, donor heavy atom, donor atom, acceptor molecule, acceptor atom, score
      L1  H     3    23       P1  7948  2.00
      L1  H     6    26       P1  7948  0.80
      P1  H  7989  7998       L1    18  0.93
      L1  C    17    43       P1  8028  0.99

> <Gold.PLP.Chemscore.Internal.Correction>
0.0671

> <Gold.Rescore>
     Score         DG    S(hbond)    S(metal)    S(lipo)     H(rot)  DE(clash)    DE(int)     intcor
     16.14     -17.17       2.68        0.00      70.24       2.14       0.36       0.67       ----

> <Gold.Chemscore.Fitness>
16.1390

> <Gold.Chemscore.DG>
-17.1725

> <Gold.Chemscore.ZeroCoef>
-5.4800

> <Gold.Chemscore.Hbond>
2.6822

> <Gold.Chemscore.Metal>
0.0000

> <Gold.Chemscore.Lipo>
70.2443

> <Gold.Chemscore.Internal_Hbond>
0.0000

> <Gold.Chemscore.DEClash>
0.3627

> <Gold.Chemscore.DEInternal>
0.6708

> <Gold.Chemscore.Rot>
2.1424

> <Gold.Chemscore.Internal.Correction>
   9.000000E+99

> <Gold.Chemscore.Hbonds>
donor molecule, donor type, donor heavy atom, donor atom, acceptor molecule, acceptor atom, score
      L1  H     3    23       P1  7948  0.88
      L1  H     6    26       P1  7948  0.12
      P1  H  7989  7998       L1    18  0.24

> <Gold.Chemscore.Hbond.Weighted>
-8.9586

> <Gold.Chemscore.Metal.Weighted>
-0.0000

> <Gold.Chemscore.Lipo.Weighted>
-8.2186

> <Gold.Chemscore.Internal_Hbond.Weighted>
0.0000

> <Gold.Chemscore.DEClash.Weighted>
0.3627

> <Gold.Chemscore.DEInternal.Weighted>
0.6708

> <Gold.Chemscore.Rot.Weighted>
5.4846

> <Gold.Chemscore.Internal.Correction.Weighted>
   9.000000E+99

> <Gold.Protein.RotatedTorsions>
[ 6907 6896 6895 6894 ] final -114.07 input  -60.11 | X-H torsion
[ 7974 7965 7964 7962 ] final  117.05 input  175.53 | X-H torsion
[ 8008 7997 7996 7995 ] final  102.80 input   59.86 | X-H torsion
[ 10167 10162 10161 10158 ] final    2.55 input  -65.29 | X-H torsion
[ 10718 10713 10712 10709 ] final  -84.56 input   66.30 | X-H torsion
[ 10763 10752 10751 10750 ] final   45.60 input  -60.55 | X-H torsion
[ 11005 11000 10999 10996 ] final -168.63 input  -57.11 | X-H torsion

> <Gold.Protein.ActiveResidues>
 VAL166  LYS551  ARG553  GLY616  TRP617  ASP618  TYR619  PRO620  LYS621  CYS622 
 ASP623  PHE694  ASN695  SER759  ASP760  ASP761  ALA762  ILE779  LEU786  VAL792 
 PHE793  MET794  SER795  GLU796  ALA797  LYS798  CYS799  TRP800  GLU811  SER814 

> <Gold.Protein.RotatedAtoms>
  150.7875  133.8854  159.3297 H   0  0  0  0  0  0  0  0  0  0  0  0  # atno 6907 bound_to 6896
  151.6701  135.0975  160.0206 H   0  0  0  0  0  0  0  0  0  0  0  0  # atno 6908 bound_to 6896
  152.3942  133.6683  159.6297 H   0  0  0  0  0  0  0  0  0  0  0  0  # atno 6909 bound_to 6896
  145.1722  139.3095  143.4462 H   0  0  0  0  0  0  0  0  0  0  0  0  # atno 7974 bound_to 7965
  156.1426  140.3175  155.8519 H   0  0  0  0  0  0  0  0  0  0  0  0  # atno 8008 bound_to 7997
  155.4125  140.0507  157.3048 H   0  0  0  0  0  0  0  0  0  0  0  0  # atno 8009 bound_to 7997
  154.4989  140.2121  155.9400 H   0  0  0  0  0  0  0  0  0  0  0  0  # atno 8010 bound_to 7997
  140.6630  143.7255  150.7773 H   0  0  0  0  0  0  0  0  0  0  0  0  # atno 10167 bound_to 10162
  156.0005  130.4702  150.4429 H   0  0  0  0  0  0  0  0  0  0  0  0  # atno 10718 bound_to 10713
  152.9822  135.6034  154.3463 H   0  0  0  0  0  0  0  0  0  0  0  0  # atno 10763 bound_to 10752
  154.3155  135.2770  155.2547 H   0  0  0  0  0  0  0  0  0  0  0  0  # atno 10764 bound_to 10752
  154.4737  135.5935  153.6395 H   0  0  0  0  0  0  0  0  0  0  0  0  # atno 10765 bound_to 10752
  140.5398  134.5533  157.5097 H   0  0  0  0  0  0  0  0  0  0  0  0  # atno 11005 bound_to 11000
  146.3467  140.1871  142.8589 LP  0  0  0  0  0  0  0  0  0  0  0  0  # atno 17320 bound_to 7965
  145.0221  140.8802  143.5160 LP  0  0  0  0  0  0  0  0  0  0  0  0  # atno 17321 bound_to 7965
  140.0927  143.4862  152.2469 LP  0  0  0  0  0  0  0  0  0  0  0  0  # atno 17342 bound_to 10162
  139.5869  144.7534  151.3498 LP  0  0  0  0  0  0  0  0  0  0  0  0  # atno 17343 bound_to 10162
  157.2468  131.0537  151.2403 LP  0  0  0  0  0  0  0  0  0  0  0  0  # atno 17370 bound_to 10713
  157.3567  130.7110  149.6475 LP  0  0  0  0  0  0  0  0  0  0  0  0  # atno 17371 bound_to 10713
  139.9510  134.7618  156.0449 LP  0  0  0  0  0  0  0  0  0  0  0  0  # atno 17394 bound_to 11000
  141.1233  133.6606  156.3272 LP  0  0  0  0  0  0  0  0  0  0  0  0  # atno 17395 bound_to 11000

$$$$
