AV-unprocessed.smi:2190|AV-procd|sdf|8889|dock4
  -GOLD-   2272012 93D 1   1.00000     0.00000
 Structure written by MMmdl.
 46 48  0  0  0  0  0  0  0  0  1 V2000
  146.5365  130.0274  152.2473 C   0  0  0  0  0  0  0  0  0  0  0  0
  146.3065  131.5248  152.2371 C   0  0  0  0  0  0  0  0  0  0  0  0
  145.8149  132.1609  151.0808 C   0  0  0  0  0  0  0  0  0  0  0  0
  145.6063  133.5518  151.0791 C   0  0  0  0  0  0  0  0  0  0  0  0
  145.8889  134.3151  152.2307 C   0  0  0  0  0  0  0  0  0  0  0  0
  145.6575  135.8146  152.2125 C   0  0  0  0  0  0  0  0  0  0  0  0
  146.3852  133.6894  153.3977 C   0  0  0  0  0  0  0  0  0  0  0  0
  146.6454  134.4955  154.4862 O   0  0  0  0  0  0  0  0  0  0  0  0
  147.4289  133.9734  155.5517 C   0  0  0  0  0  0  0  0  0  0  0  0
  147.4770  134.9867  156.7076 C   0  0  1  0  0  0  0  0  0  0  0  0
  146.1575  135.2945  157.1117 O   0  0  0  0  0  0  0  0  0  0  0  0
  148.3440  134.5278  157.8984 C   0  0  0  0  0  0  0  0  0  0  0  0
  148.1723  135.3745  159.0714 N   0  0  0  0  0  0  0  0  0  0  0  0
  148.3500  136.7163  159.1765 C   0  0  0  0  0  0  0  0  0  0  0  0
  148.7732  137.5473  157.9978 C   0  0  0  0  0  0  0  0  0  0  0  0
  149.9958  138.2314  158.1859 O   0  0  0  0  0  0  0  0  0  0  0  0
  148.1143  137.2348  160.3846 N   0  0  0  0  0  0  0  0  0  0  0  0
  147.7540  136.1290  161.1288 C   0  0  0  0  0  0  0  0  0  0  0  0
  147.3845  136.0169  162.4883 C   0  0  0  0  0  0  0  0  0  0  0  0
  147.0495  134.7609  163.0357 C   0  0  0  0  0  0  0  0  0  0  0  0
  147.0788  133.6017  162.2333 C   0  0  0  0  0  0  0  0  0  0  0  0
  147.4443  133.6917  160.8763 C   0  0  0  0  0  0  0  0  0  0  0  0
  147.7783  134.9478  160.3354 C   0  0  0  0  0  0  0  0  0  0  0  0
  146.5897  132.2858  153.3891 C   0  0  0  0  0  0  0  0  0  0  0  0
  146.1135  129.5542  151.3605 H   0  0  0  0  0  0  0  0  0  0  0  0
  146.0724  129.5770  153.1251 H   0  0  0  0  0  0  0  0  0  0  0  0
  147.6047  129.8109  152.2736 H   0  0  0  0  0  0  0  0  0  0  0  0
  145.5967  131.5868  150.1922 H   0  0  0  0  0  0  0  0  0  0  0  0
  145.2283  134.0304  150.1875 H   0  0  0  0  0  0  0  0  0  0  0  0
  144.9828  136.1049  153.0184 H   0  0  0  0  0  0  0  0  0  0  0  0
  145.2172  136.1399  151.2695 H   0  0  0  0  0  0  0  0  0  0  0  0
  146.6014  136.3436  152.3471 H   0  0  0  0  0  0  0  0  0  0  0  0
  146.9679  133.0518  155.9111 H   0  0  0  0  0  0  0  0  0  0  0  0
  148.4396  133.7317  155.2181 H   0  0  0  0  0  0  0  0  0  0  0  0
  147.8927  135.9149  156.3139 H   0  0  0  0  0  0  0  0  0  0  0  0
  145.6484  134.4983  157.1091 H   0  0  0  0  0  0  0  0  0  0  0  0
  148.1268  133.4932  158.1638 H   0  0  0  0  0  0  0  0  0  0  0  0
  149.3977  134.5502  157.6177 H   0  0  0  0  0  0  0  0  0  0  0  0
  148.8737  136.9098  157.1197 H   0  0  0  0  0  0  0  0  0  0  0  0
  147.9938  138.2788  157.7830 H   0  0  0  0  0  0  0  0  0  0  0  0
  150.6954  137.6936  157.8488 H   0  0  0  0  0  0  0  0  0  0  0  0
  147.3584  136.8992  163.1105 H   0  0  0  0  0  0  0  0  0  0  0  0
  146.7680  134.6869  164.0760 H   0  0  0  0  0  0  0  0  0  0  0  0
  146.8202  132.6439  162.6602 H   0  0  0  0  0  0  0  0  0  0  0  0
  147.4679  132.8063  160.2587 H   0  0  0  0  0  0  0  0  0  0  0  0
  146.9670  131.7684  154.2581 H   0  0  0  0  0  0  0  0  0  0  0  0
  1  2  1  0  0  0  0
  1 25  1  0  0  0  0
  1 26  1  0  0  0  0
  1 27  1  0  0  0  0
  2 24  1  0  0  0  0
  2  3  2  0  0  0  0
  3  4  1  0  0  0  0
  3 28  1  0  0  0  0
  4  5  2  0  0  0  0
  4 29  1  0  0  0  0
  5  6  1  0  0  0  0
  5  7  1  0  0  0  0
  6 30  1  0  0  0  0
  6 31  1  0  0  0  0
  6 32  1  0  0  0  0
  7  8  1  0  0  0  0
  7 24  2  0  0  0  0
  8  9  1  0  0  0  0
  9 10  1  0  0  0  0
  9 33  1  0  0  0  0
  9 34  1  0  0  0  0
 10 11  1  0  0  0  0
 10 12  1  0  0  0  0
 10 35  1  0  0  0  0
 11 36  1  0  0  0  0
 12 13  1  0  0  0  0
 12 37  1  0  0  0  0
 12 38  1  0  0  0  0
 13 23  1  0  0  0  0
 13 14  1  0  0  0  0
 14 15  1  0  0  0  0
 14 17  2  0  0  0  0
 15 16  1  0  0  0  0
 15 39  1  0  0  0  0
 15 40  1  0  0  0  0
 16 41  1  0  0  0  0
 17 18  1  0  0  0  0
 18 23  2  0  0  0  0
 18 19  1  0  0  0  0
 19 20  2  0  0  0  0
 19 42  1  0  0  0  0
 20 21  1  0  0  0  0
 20 43  1  0  0  0  0
 21 22  2  0  0  0  0
 21 44  1  0  0  0  0
 22 23  1  0  0  0  0
 22 45  1  0  0  0  0
 24 46  1  0  0  0  0
M  END
> <s_m_source_file>
AV-unprocessed.smi

> <i_m_source_file_index>
2190

> <i_lp_mmshare_version>
43012

> <i_f3d_flags>
0

> <s_epik_input>
W0NIM11jMVtjSF1bY0hdYyhbQ0gzXSljKFtjSF0xKU9bQ0gyXVtDQEhdKFtPSF0pW0NIMl1uKGMobjIpW0NIMl1bT0hdKWMoYzIzKVtjSF1bY0hdW2NIXVtjSF0z

> <s_epik_cmdline>
J2VwaWtfcHl0aG9uJywgJy1waCcsICc3LjAnLCAnLXRuJywgJzgnLCAnLW1hJywgJzIwMCcsICctbWV0YWxfYmluZGluZycsICctaW1hZScsICc8aW5maWxlLm1hZT4nLCAnLW9tYWUnLCAnPG91dGZpbGUubWFlPic=

> <r_lp_tautomer_probability>
1

> <r_epik_Ionization_Penalty>
0.0555874

> <r_epik_Ionization_Penalty_Charging>
0

> <r_epik_Ionization_Penalty_Neutral>
0.0555874

> <r_epik_State_Penalty>
0.0478234

> <r_epik_Charging_Adjusted_Penalty>
0.0478234

> <i_epik_Tot_Q>
0

> <i_epik_Tot_abs_Q>
0

> <r_epik_Metal_State_Penalty>
4.98044e-05

> <b_epik_Metal_Only>
0

> <s_lp_Force_Field>
OPLS_2005

> <r_lp_Energy>
17.5395

> <b_lp_Chiralities_Consistent>
1

> <s_lp_Variant>
AV-unprocessed.smi:2190-2

> <Gold.Version>
5.8.1

> <Gold.Id.Protein>
6NUR|6NUR_protein|mol2

> <Gold.PLP.Fitness>
40.6204

> <Gold.PLP.PLP>
-37.7039

> <Gold.PLP.part.hbond>
-2.0000

> <Gold.PLP.part.metal>
0.0000

> <Gold.PLP.part.buried>
-5.2041

> <Gold.PLP.part.nonpolar>
-31.9929

> <Gold.PLP.part.repulsive>
0.0631

> <Gold.PLP.ligand.clash>
0.0000

> <Gold.PLP.ligand.torsion>
0.2866

> <Gold.PLP.Chemscore.Hbond>
1.1503

> <Gold.PLP.Chemscore.CHOScore>
0.0000

> <Gold.PLP.Chemscore.Metal>
0.0000

> <Gold.Chemscore.Hbonds>
donor molecule, donor type, donor heavy atom, donor atom, acceptor molecule, acceptor atom, score
      P1  H  6931  6943       L1    17  0.58
      P1  H  6934  6947       L1    17  0.60

> <Gold.PLP.Chemscore.Internal.Correction>
0.0388

> <Gold.Rescore>
     Score         DG    S(hbond)    S(metal)    S(lipo)     H(rot)  DE(clash)    DE(int)     intcor
     13.09     -13.44       1.25        0.00      96.99       2.96       0.03       0.32       ----

> <Gold.Chemscore.Fitness>
13.0897

> <Gold.Chemscore.DG>
-13.4401

> <Gold.Chemscore.ZeroCoef>
-5.4800

> <Gold.Chemscore.Hbond>
1.2515

> <Gold.Chemscore.Metal>
0.0000

> <Gold.Chemscore.Lipo>
96.9891

> <Gold.Chemscore.Internal_Hbond>
0.0000

> <Gold.Chemscore.DEClash>
0.0309

> <Gold.Chemscore.DEInternal>
0.3196

> <Gold.Chemscore.Rot>
2.9561

> <Gold.Chemscore.Internal.Correction>
   9.000000E+99

> <Gold.Chemscore.Hbonds>
donor molecule, donor type, donor heavy atom, donor atom, acceptor molecule, acceptor atom, score
      P1  H  6931  6943       L1    17  0.09
      P1  H  6934  6947       L1    17  0.55

> <Gold.Chemscore.Hbond.Weighted>
-4.1800

> <Gold.Chemscore.Metal.Weighted>
-0.0000

> <Gold.Chemscore.Lipo.Weighted>
-11.3477

> <Gold.Chemscore.Internal_Hbond.Weighted>
0.0000

> <Gold.Chemscore.DEClash.Weighted>
0.0309

> <Gold.Chemscore.DEInternal.Weighted>
0.3196

> <Gold.Chemscore.Rot.Weighted>
7.5677

> <Gold.Chemscore.Internal.Correction.Weighted>
   9.000000E+99

> <Gold.Protein.RotatedTorsions>
[ 6907 6896 6895 6894 ] final   94.68 input  -60.11 | X-H torsion
[ 7974 7965 7964 7962 ] final  132.48 input  175.53 | X-H torsion
[ 8008 7997 7996 7995 ] final   68.61 input   59.86 | X-H torsion
[ 10167 10162 10161 10158 ] final  -65.66 input  -65.29 | X-H torsion
[ 10718 10713 10712 10709 ] final  137.88 input   66.30 | X-H torsion
[ 10763 10752 10751 10750 ] final  -86.81 input  -60.55 | X-H torsion
[ 11005 11000 10999 10996 ] final  -52.07 input  -57.11 | X-H torsion

> <Gold.Protein.ActiveResidues>
 VAL166  LYS551  ARG553  GLY616  TRP617  ASP618  TYR619  PRO620  LYS621  CYS622 
 ASP623  PHE694  ASN695  SER759  ASP760  ASP761  ALA762  ILE779  LEU786  VAL792 
 PHE793  MET794  SER795  GLU796  ALA797  LYS798  CYS799  TRP800  GLU811  SER814 

> <Gold.Protein.RotatedAtoms>
  152.5448  134.1157  159.8377 H   0  0  0  0  0  0  0  0  0  0  0  0  # atno 6907 bound_to 6896
  151.1218  133.5091  159.2609 H   0  0  0  0  0  0  0  0  0  0  0  0  # atno 6908 bound_to 6896
  151.1770  135.0353  159.8831 H   0  0  0  0  0  0  0  0  0  0  0  0  # atno 6909 bound_to 6896
  144.9964  139.4355  143.5314 H   0  0  0  0  0  0  0  0  0  0  0  0  # atno 7974 bound_to 7965
  155.7109  140.3494  155.4973 H   0  0  0  0  0  0  0  0  0  0  0  0  # atno 8008 bound_to 7997
  155.9356  140.1092  157.1119 H   0  0  0  0  0  0  0  0  0  0  0  0  # atno 8009 bound_to 7997
  154.4093  140.1222  156.4846 H   0  0  0  0  0  0  0  0  0  0  0  0  # atno 8010 bound_to 7997
  140.5713  143.2318  151.6532 H   0  0  0  0  0  0  0  0  0  0  0  0  # atno 10167 bound_to 10162
  157.4313  131.1049  151.0247 H   0  0  0  0  0  0  0  0  0  0  0  0  # atno 10718 bound_to 10713
  154.6266  135.5436  153.7634 H   0  0  0  0  0  0  0  0  0  0  0  0  # atno 10763 bound_to 10752
  153.0264  135.6426  154.1362 H   0  0  0  0  0  0  0  0  0  0  0  0  # atno 10764 bound_to 10752
  154.1294  135.2915  155.3169 H   0  0  0  0  0  0  0  0  0  0  0  0  # atno 10765 bound_to 10752
  141.0905  133.6633  156.3971 H   0  0  0  0  0  0  0  0  0  0  0  0  # atno 11005 bound_to 11000
  146.3443  139.9327  142.8751 LP  0  0  0  0  0  0  0  0  0  0  0  0  # atno 17320 bound_to 7965
  145.2213  140.9936  143.4044 LP  0  0  0  0  0  0  0  0  0  0  0  0  # atno 17321 bound_to 7965
  139.5119  144.3493  152.0667 LP  0  0  0  0  0  0  0  0  0  0  0  0  # atno 17342 bound_to 10162
  140.2631  144.4045  150.6178 LP  0  0  0  0  0  0  0  0  0  0  0  0  # atno 17343 bound_to 10162
  157.1143  130.6034  149.5489 LP  0  0  0  0  0  0  0  0  0  0  0  0  # atno 17370 bound_to 10713
  155.9914  130.4969  150.7298 LP  0  0  0  0  0  0  0  0  0  0  0  0  # atno 17371 bound_to 10713
  140.5263  134.6256  157.5335 LP  0  0  0  0  0  0  0  0  0  0  0  0  # atno 17394 bound_to 11000
  139.9730  134.7261  156.0004 LP  0  0  0  0  0  0  0  0  0  0  0  0  # atno 17395 bound_to 11000

$$$$
