AV-unprocessed.smi:794|AV-procd|sdf|3763|dock8
  -GOLD-   22720 1193D 1   1.00000     0.00000
 Structure written by MMmdl.
 41 43  0  0  0  0  0  0  0  0  1 V2000
  146.4519  142.4998  153.7989 C   0  0  0  0  0  0  0  0  0  0  0  0
  147.2022  141.2034  153.7831 C   0  0  0  0  0  0  0  0  0  0  0  0
  146.6574  140.1005  153.1190 N   0  0  0  0  0  0  0  0  0  0  0  0
  147.4465  139.0240  153.1946 C   0  0  0  0  0  0  0  0  0  0  0  0
  147.1471  137.7677  152.6061 N   0  0  0  0  0  0  0  0  0  0  0  0
  145.9392  137.2393  152.3434 C   0  0  0  0  0  0  0  0  0  0  0  0
  144.8579  137.7689  152.6009 O   0  0  0  0  0  0  0  0  0  0  0  0
  146.0545  136.0409  151.7550 N   0  0  0  0  0  0  0  0  0  0  0  0
  144.9359  135.2014  151.3347 C   0  0  1  0  0  0  0  0  0  0  0  0
  145.4404  134.0078  150.4943 C   0  0  2  0  0  0  0  0  0  0  0  0
  144.2460  133.3952  149.7414 C   0  0  0  0  0  0  0  0  0  0  0  0
  143.4685  132.6910  150.8694 C   0  0  0  0  0  0  0  0  0  0  0  0
  144.3120  133.0078  152.1235 C   0  0  1  0  0  0  0  0  0  0  0  0
  145.7209  132.9398  151.5481 C   0  0  0  0  0  0  0  0  0  0  0  0
  144.2281  134.5024  152.5234 C   0  0  2  0  0  0  0  0  0  0  0  0
  142.8192  135.0485  152.8262 C   0  0  0  0  0  0  0  0  0  0  0  0
  142.3113  134.4695  154.0094 O   0  0  0  0  0  0  0  0  0  0  0  0
  148.9259  139.2967  154.0979 S   0  0  0  0  0  0  0  0  0  0  0  0
  148.4239  140.9481  154.3626 C   0  0  0  0  0  0  0  0  0  0  0  0
  149.2818  141.8924  155.1371 C   0  0  0  0  0  0  0  0  0  0  0  0
  146.4575  142.9468  154.7931 H   0  0  0  0  0  0  0  0  0  0  0  0
  145.4098  142.3665  153.5067 H   0  0  0  0  0  0  0  0  0  0  0  0
  146.8984  143.2179  153.1111 H   0  0  0  0  0  0  0  0  0  0  0  0
  147.9470  137.2124  152.3409 H   0  0  0  0  0  0  0  0  0  0  0  0
  146.9817  135.6802  151.5832 H   0  0  0  0  0  0  0  0  0  0  0  0
  144.2402  135.8038  150.7470 H   0  0  0  0  0  0  0  0  0  0  0  0
  146.2816  134.2466  149.8423 H   0  0  0  0  0  0  0  0  0  0  0  0
  143.6462  134.1462  149.2260 H   0  0  0  0  0  0  0  0  0  0  0  0
  144.5838  132.6714  148.9988 H   0  0  0  0  0  0  0  0  0  0  0  0
  142.4349  133.0257  150.9449 H   0  0  0  0  0  0  0  0  0  0  0  0
  143.4443  131.6150  150.6922 H   0  0  0  0  0  0  0  0  0  0  0  0
  144.1301  132.3250  152.9540 H   0  0  0  0  0  0  0  0  0  0  0  0
  145.9694  131.9660  151.1222 H   0  0  0  0  0  0  0  0  0  0  0  0
  146.4964  133.2242  152.2612 H   0  0  0  0  0  0  0  0  0  0  0  0
  144.8300  134.6332  153.4254 H   0  0  0  0  0  0  0  0  0  0  0  0
  142.8626  136.1286  152.9675 H   0  0  0  0  0  0  0  0  0  0  0  0
  142.1261  134.8715  152.0048 H   0  0  0  0  0  0  0  0  0  0  0  0
  142.6931  133.6110  154.1114 H   0  0  0  0  0  0  0  0  0  0  0  0
  149.3399  142.8610  154.6402 H   0  0  0  0  0  0  0  0  0  0  0  0
  150.2972  141.5089  155.2401 H   0  0  0  0  0  0  0  0  0  0  0  0
  148.8774  142.0489  156.1372 H   0  0  0  0  0  0  0  0  0  0  0  0
  1  2  1  0  0  0  0
  1 21  1  0  0  0  0
  1 22  1  0  0  0  0
  1 23  1  0  0  0  0
  2 19  2  0  0  0  0
  2  3  1  0  0  0  0
  3  4  2  0  0  0  0
  4  5  1  0  0  0  0
  4 18  1  0  0  0  0
  5  6  1  0  0  0  0
  5 24  1  0  0  0  0
  6  7  2  0  0  0  0
  6  8  1  0  0  0  0
  8  9  1  0  0  0  0
  8 25  1  0  0  0  0
  9 15  1  0  0  0  0
  9 10  1  0  0  0  0
  9 26  1  0  0  0  0
 10 14  1  0  0  0  0
 10 11  1  0  0  0  0
 10 27  1  0  0  0  0
 11 12  1  0  0  0  0
 11 28  1  0  0  0  0
 11 29  1  0  0  0  0
 12 13  1  0  0  0  0
 12 30  1  0  0  0  0
 12 31  1  0  0  0  0
 13 14  1  0  0  0  0
 13 15  1  0  0  0  0
 13 32  1  0  0  0  0
 14 33  1  0  0  0  0
 14 34  1  0  0  0  0
 15 16  1  0  0  0  0
 15 35  1  0  0  0  0
 16 17  1  0  0  0  0
 16 36  1  0  0  0  0
 16 37  1  0  0  0  0
 17 38  1  0  0  0  0
 18 19  1  0  0  0  0
 19 20  1  0  0  0  0
 20 39  1  0  0  0  0
 20 40  1  0  0  0  0
 20 41  1  0  0  0  0
M  END
> <s_m_source_file>
AV-unprocessed.smi

> <i_m_source_file_index>
794

> <i_lp_mmshare_version>
43012

> <i_f3d_flags>
0

> <s_epik_input>
W0NIM11jMW5jKHNjMVtDSDNdKVtOSF1DKD1PKVtOSF1bQ0BIXShbQ0BASF0yMylbQ0BIXShbQ0gyXVtPSF0pW0NAQEhdKFtDSDJdMylbQ0gyXVtDSDJdMg==

> <s_epik_cmdline>
J2VwaWtfcHl0aG9uJywgJy1waCcsICc3LjAnLCAnLXRuJywgJzgnLCAnLW1hJywgJzIwMCcsICctbWV0YWxfYmluZGluZycsICctaW1hZScsICc8aW5maWxlLm1hZT4nLCAnLW9tYWUnLCAnPG91dGZpbGUubWFlPic=

> <r_lp_tautomer_probability>
0.999

> <r_epik_Ionization_Penalty>
0.000713029

> <r_epik_Ionization_Penalty_Charging>
0

> <r_epik_Ionization_Penalty_Neutral>
0.000713029

> <r_epik_State_Penalty>
0.000177984

> <r_epik_Charging_Adjusted_Penalty>
0.000177984

> <i_epik_Tot_Q>
0

> <i_epik_Tot_abs_Q>
0

> <r_epik_Metal_State_Penalty>
-0

> <b_epik_Metal_Only>
0

> <s_lp_Force_Field>
OPLS_2005

> <r_lp_Energy>
46.861

> <b_lp_Chiralities_Consistent>
1

> <s_lp_Variant>
AV-unprocessed.smi:794-8

> <Gold.Version>
5.8.1

> <Gold.Id.Protein>
6NUR|6NUR_protein|mol2

> <Gold.PLP.Fitness>
42.5442

> <Gold.PLP.PLP>
-35.1359

> <Gold.PLP.part.hbond>
-2.8841

> <Gold.PLP.part.metal>
0.0000

> <Gold.PLP.part.buried>
-0.9345

> <Gold.PLP.part.nonpolar>
-32.4624

> <Gold.PLP.part.repulsive>
2.5685

> <Gold.PLP.ligand.clash>
0.0000

> <Gold.PLP.ligand.torsion>
0.3206

> <Gold.PLP.Chemscore.Hbond>
2.6773

> <Gold.PLP.Chemscore.CHOScore>
0.0000

> <Gold.PLP.Chemscore.Metal>
0.0000

> <Gold.Chemscore.Hbonds>
donor molecule, donor type, donor heavy atom, donor atom, acceptor molecule, acceptor atom, score
      L1  H     5    24       P1  7948  0.86
      L1  H     8    25       P1  7948  0.82
      L1  H    17    38       P1 10957  1.00

> <Gold.PLP.Chemscore.Internal.Correction>
0.0178

> <Gold.Rescore>
     Score         DG    S(hbond)    S(metal)    S(lipo)     H(rot)  DE(clash)    DE(int)     intcor
     17.49     -18.86       2.67        0.00      77.18       1.78       0.08       1.29       ----

> <Gold.Chemscore.Fitness>
17.4900

> <Gold.Chemscore.DG>
-18.8600

> <Gold.Chemscore.ZeroCoef>
-5.4800

> <Gold.Chemscore.Hbond>
2.6665

> <Gold.Chemscore.Metal>
0.0000

> <Gold.Chemscore.Lipo>
77.1795

> <Gold.Chemscore.Internal_Hbond>
0.0000

> <Gold.Chemscore.DEClash>
0.0799

> <Gold.Chemscore.DEInternal>
1.2902

> <Gold.Chemscore.Rot>
1.7798

> <Gold.Chemscore.Internal.Correction>
   9.000000E+99

> <Gold.Chemscore.Hbonds>
donor molecule, donor type, donor heavy atom, donor atom, acceptor molecule, acceptor atom, score
      L1  H     5    24       P1  7948  0.84
      L1  H     8    25       P1  7948  0.76
      L1  H    17    38       P1 10957  0.95

> <Gold.Chemscore.Hbond.Weighted>
-8.9063

> <Gold.Chemscore.Metal.Weighted>
-0.0000

> <Gold.Chemscore.Lipo.Weighted>
-9.0300

> <Gold.Chemscore.Internal_Hbond.Weighted>
0.0000

> <Gold.Chemscore.DEClash.Weighted>
0.0799

> <Gold.Chemscore.DEInternal.Weighted>
1.2902

> <Gold.Chemscore.Rot.Weighted>
4.5562

> <Gold.Chemscore.Internal.Correction.Weighted>
   9.000000E+99

> <Gold.Protein.RotatedTorsions>
[ 6907 6896 6895 6894 ] final    5.25 input  -60.11 | X-H torsion
[ 7974 7965 7964 7962 ] final  169.73 input  175.53 | X-H torsion
[ 8008 7997 7996 7995 ] final  -48.61 input   59.86 | X-H torsion
[ 10167 10162 10161 10158 ] final   34.22 input  -65.29 | X-H torsion
[ 10718 10713 10712 10709 ] final  -53.90 input   66.30 | X-H torsion
[ 10763 10752 10751 10750 ] final  147.23 input  -60.55 | X-H torsion
[ 11005 11000 10999 10996 ] final   72.17 input  -57.11 | X-H torsion

> <Gold.Protein.ActiveResidues>
 VAL166  LYS551  ARG553  GLY616  TRP617  ASP618  TYR619  PRO620  LYS621  CYS622 
 ASP623  PHE694  ASN695  SER759  ASP760  ASP761  ALA762  ILE779  LEU786  VAL792 
 PHE793  MET794  SER795  GLU796  ALA797  LYS798  CYS799  TRP800  GLU811  SER814 

> <Gold.Protein.RotatedAtoms>
  151.6545  135.0997  160.0166 H   0  0  0  0  0  0  0  0  0  0  0  0  # atno 6907 bound_to 6896
  152.3982  133.6774  159.6302 H   0  0  0  0  0  0  0  0  0  0  0  0  # atno 6908 bound_to 6896
  150.7886  133.8754  159.3311 H   0  0  0  0  0  0  0  0  0  0  0  0  # atno 6909 bound_to 6896
  144.7345  139.9098  143.6414 H   0  0  0  0  0  0  0  0  0  0  0  0  # atno 7974 bound_to 7965
  154.4031  140.1317  156.4367 H   0  0  0  0  0  0  0  0  0  0  0  0  # atno 8008 bound_to 7997
  155.7499  140.3488  155.5125 H   0  0  0  0  0  0  0  0  0  0  0  0  # atno 8009 bound_to 7997
  155.8960  140.1011  157.1375 H   0  0  0  0  0  0  0  0  0  0  0  0  # atno 8010 bound_to 7997
  140.4336  144.1290  150.6163 H   0  0  0  0  0  0  0  0  0  0  0  0  # atno 10167 bound_to 10162
  156.1496  130.4152  149.9967 H   0  0  0  0  0  0  0  0  0  0  0  0  # atno 10718 bound_to 10713
  154.0349  135.2894  155.3363 H   0  0  0  0  0  0  0  0  0  0  0  0  # atno 10763 bound_to 10752
  154.6965  135.5205  153.8469 H   0  0  0  0  0  0  0  0  0  0  0  0  # atno 10764 bound_to 10752
  153.0624  135.6619  154.0558 H   0  0  0  0  0  0  0  0  0  0  0  0  # atno 10765 bound_to 10752
  139.9504  134.7236  156.0875 H   0  0  0  0  0  0  0  0  0  0  0  0  # atno 11005 bound_to 11000
  146.1009  139.4005  143.0347 LP  0  0  0  0  0  0  0  0  0  0  0  0  # atno 17320 bound_to 7965
  145.7579  140.9947  143.1215 LP  0  0  0  0  0  0  0  0  0  0  0  0  # atno 17321 bound_to 7965
  140.4400  143.2531  151.9486 LP  0  0  0  0  0  0  0  0  0  0  0  0  # atno 17342 bound_to 10162
  139.4786  144.5664  151.8159 LP  0  0  0  0  0  0  0  0  0  0  0  0  # atno 17343 bound_to 10162
  156.7829  130.9228  151.3646 LP  0  0  0  0  0  0  0  0  0  0  0  0  # atno 17370 bound_to 10713
  157.6645  130.8996  149.9903 LP  0  0  0  0  0  0  0  0  0  0  0  0  # atno 17371 bound_to 10713
  141.1166  133.6626  156.3109 LP  0  0  0  0  0  0  0  0  0  0  0  0  # atno 17394 bound_to 11000
  140.5732  134.5820  157.5462 LP  0  0  0  0  0  0  0  0  0  0  0  0  # atno 17395 bound_to 11000

$$$$
