AV-unprocessed.smi:2044|AV-procd|sdf|8301|dock1
  -GOLD-   2272010563D 1   1.00000     0.00000
 Structure written by MMmdl.
 40 41  0  0  0  0  0  0  0  0  2 V2000
  143.6266  131.9411  150.0883 C   0  0  0  0  0  0  0  0  0  0  0  0
  144.1007  133.2184  150.6919 C   0  0  0  0  0  0  0  0  0  0  0  0
  145.3240  133.8251  150.7422 C   0  0  0  0  0  0  0  0  0  0  0  0
  145.0573  135.0213  151.4699 C   0  0  0  0  0  0  0  0  0  0  0  0
  145.9976  136.0300  151.8038 N   0  0  0  0  0  0  0  0  0  0  0  0
  145.7624  137.2785  152.2409 C   0  0  0  0  0  0  0  0  0  0  0  0
  144.6509  137.7807  152.4075 O   0  0  0  0  0  0  0  0  0  0  0  0
  146.9073  137.9316  152.4873 N   0  0  0  0  0  0  0  0  0  0  0  0
  146.9936  139.2981  152.9945 C   0  0  0  0  0  0  0  0  0  0  0  0
  148.4060  139.6626  153.5266 C   0  0  1  0  0  0  0  0  0  0  0  0
  148.2975  140.7588  154.6150 C   0  0  0  0  0  0  0  0  0  0  0  0
  149.1240  138.4300  153.9899 N   0  3  0  0  0  0  0  0  0  0  0  0
  150.5347  138.7042  154.3798 C   0  0  0  0  0  0  0  0  0  0  0  0
  151.2654  137.4092  154.7698 C   0  0  0  0  0  0  0  0  0  0  0  0
  150.5740  136.7809  155.8384 O   0  0  0  0  0  0  0  0  0  0  0  0
  149.2567  136.4125  155.4589 C   0  0  0  0  0  0  0  0  0  0  0  0
  148.4499  137.6654  155.0760 C   0  0  0  0  0  0  0  0  0  0  0  0
  143.7908  135.1276  151.8273 N   0  0  0  0  0  0  0  0  0  0  0  0
  143.1696  133.9750  151.3325 O   0  0  0  0  0  0  0  0  0  0  0  0
  144.4668  131.2909  149.8439 H   0  0  0  0  0  0  0  0  0  0  0  0
  143.0689  132.1319  149.1714 H   0  0  0  0  0  0  0  0  0  0  0  0
  142.9738  131.4046  150.7771 H   0  0  0  0  0  0  0  0  0  0  0  0
  146.2471  133.4584  150.3196 H   0  0  0  0  0  0  0  0  0  0  0  0
  146.9661  135.7612  151.7106 H   0  0  0  0  0  0  0  0  0  0  0  0
  147.7787  137.4489  152.3208 H   0  0  0  0  0  0  0  0  0  0  0  0
  146.7215  139.9731  152.1823 H   0  0  0  0  0  0  0  0  0  0  0  0
  146.2239  139.4196  153.7556 H   0  0  0  0  0  0  0  0  0  0  0  0
  148.9914  140.0906  152.7110 H   0  0  0  0  0  0  0  0  0  0  0  0
  147.7458  141.6289  154.2596 H   0  0  0  0  0  0  0  0  0  0  0  0
  149.2751  141.1364  154.9148 H   0  0  0  0  0  0  0  0  0  0  0  0
  147.7851  140.3890  155.5040 H   0  0  0  0  0  0  0  0  0  0  0  0
  151.0847  139.1771  153.5687 H   0  0  0  0  0  0  0  0  0  0  0  0
  150.5517  139.4013  155.2189 H   0  0  0  0  0  0  0  0  0  0  0  0
  151.3455  136.7319  153.9179 H   0  0  0  0  0  0  0  0  0  0  0  0
  152.2815  137.6352  155.0937 H   0  0  0  0  0  0  0  0  0  0  0  0
  149.2890  135.7024  154.6309 H   0  0  0  0  0  0  0  0  0  0  0  0
  148.7797  135.9017  156.2954 H   0  0  0  0  0  0  0  0  0  0  0  0
  148.3172  138.3068  155.9490 H   0  0  0  0  0  0  0  0  0  0  0  0
  147.4620  137.3311  154.7607 H   0  0  0  0  0  0  0  0  0  0  0  0
  149.1549  137.8068  153.1956 H   0  0  0  0  0  0  0  0  0  0  0  0
  1  2  1  0  0  0  0
  1 20  1  0  0  0  0
  1 21  1  0  0  0  0
  1 22  1  0  0  0  0
  2 19  1  0  0  0  0
  2  3  2  0  0  0  0
  3  4  1  0  0  0  0
  3 23  1  0  0  0  0
  4  5  1  0  0  0  0
  4 18  2  0  0  0  0
  5  6  1  0  0  0  0
  5 24  1  0  0  0  0
  6  7  2  0  0  0  0
  6  8  1  0  0  0  0
  8  9  1  0  0  0  0
  8 25  1  0  0  0  0
  9 10  1  0  0  0  0
  9 26  1  0  0  0  0
  9 27  1  0  0  0  0
 10 11  1  0  0  0  0
 10 12  1  0  0  0  0
 10 28  1  0  0  0  0
 11 29  1  0  0  0  0
 11 30  1  0  0  0  0
 11 31  1  0  0  0  0
 12 17  1  0  0  0  0
 12 13  1  0  0  0  0
 12 40  1  0  0  0  0
 13 14  1  0  0  0  0
 13 32  1  0  0  0  0
 13 33  1  0  0  0  0
 14 15  1  0  0  0  0
 14 34  1  0  0  0  0
 14 35  1  0  0  0  0
 15 16  1  0  0  0  0
 16 17  1  0  0  0  0
 16 36  1  0  0  0  0
 16 37  1  0  0  0  0
 17 38  1  0  0  0  0
 17 39  1  0  0  0  0
 18 19  1  0  0  0  0
M  CHG  1  12   1
M  END
> <s_m_source_file>
AV-unprocessed.smi

> <i_m_source_file_index>
2044

> <i_lp_mmshare_version>
43012

> <i_f3d_flags>
0

> <s_epik_input>
W0NIM11jMVtjSF1jKG5vMSlbTkhdQyg9TylbTkhdW0NIMl1bQ0BIXShbQ0gzXSlOMltDSDJdW0NIMl1PW0NIMl1bQ0gyXTI=

> <s_epik_cmdline>
J2VwaWtfcHl0aG9uJywgJy1waCcsICc3LjAnLCAnLXRuJywgJzgnLCAnLW1hJywgJzIwMCcsICctbWV0YWxfYmluZGluZycsICctaW1hZScsICc8aW5maWxlLm1hZT4nLCAnLW9tYWUnLCAnPG91dGZpbGUubWFlPic=

> <r_epik_Ionization_Penalty>
0.707076

> <r_epik_Ionization_Penalty_Charging>
0.707039

> <r_epik_Ionization_Penalty_Neutral>
3.67886e-05

> <r_epik_State_Penalty>
0.730276

> <r_epik_Charging_Adjusted_Penalty>
1.43732

> <i_epik_Tot_Q>
1

> <i_epik_Tot_abs_Q>
1

> <r_epik_Metal_State_Penalty>
0.743216

> <b_epik_Metal_Only>
0

> <s_lp_Force_Field>
OPLS_2005

> <r_lp_Energy>
19.4768

> <b_lp_Chiralities_Consistent>
1

> <s_lp_Variant>
AV-unprocessed.smi:2044-4

> <Gold.Version>
5.8.1

> <Gold.Id.Protein>
6NUR|6NUR_protein|mol2

> <Gold.PLP.Fitness>
38.0344

> <Gold.PLP.PLP>
-27.0557

> <Gold.PLP.part.hbond>
-3.6610

> <Gold.PLP.part.metal>
0.0000

> <Gold.PLP.part.buried>
-2.7060

> <Gold.PLP.part.nonpolar>
-23.4853

> <Gold.PLP.part.repulsive>
0.9458

> <Gold.PLP.ligand.clash>
0.0000

> <Gold.PLP.ligand.torsion>
0.5341

> <Gold.PLP.Chemscore.Hbond>
4.0000

> <Gold.PLP.Chemscore.CHOScore>
0.0000

> <Gold.PLP.Chemscore.Metal>
0.0000

> <Gold.Chemscore.Hbonds>
donor molecule, donor type, donor heavy atom, donor atom, acceptor molecule, acceptor atom, score
      L1  H     5    24       P1  7948  1.00
      L1  H     8    25       P1  7948  1.00
      L1  H    12    40       P1  7948  1.92

> <Gold.PLP.Chemscore.Internal.Correction>
0.0469

> <Gold.Rescore>
     Score         DG    S(hbond)    S(metal)    S(lipo)     H(rot)  DE(clash)    DE(int)     intcor
     15.86     -19.05       2.90        0.00      68.78       1.62       1.40       1.78       ----

> <Gold.Chemscore.Fitness>
15.8611

> <Gold.Chemscore.DG>
-19.0464

> <Gold.Chemscore.ZeroCoef>
-5.4800

> <Gold.Chemscore.Hbond>
2.8950

> <Gold.Chemscore.Metal>
0.0000

> <Gold.Chemscore.Lipo>
68.7843

> <Gold.Chemscore.Internal_Hbond>
0.0000

> <Gold.Chemscore.DEClash>
1.4040

> <Gold.Chemscore.DEInternal>
1.7813

> <Gold.Chemscore.Rot>
1.6213

> <Gold.Chemscore.Internal.Correction>
   9.000000E+99

> <Gold.Chemscore.Hbonds>
donor molecule, donor type, donor heavy atom, donor atom, acceptor molecule, acceptor atom, score
      L1  H     5    24       P1  7948  0.91
      L1  H     8    25       P1  7948  1.00
      L1  H    12    40       P1  7948  0.91

> <Gold.Chemscore.Hbond.Weighted>
-9.6693

> <Gold.Chemscore.Metal.Weighted>
-0.0000

> <Gold.Chemscore.Lipo.Weighted>
-8.0478

> <Gold.Chemscore.Internal_Hbond.Weighted>
0.0000

> <Gold.Chemscore.DEClash.Weighted>
1.4040

> <Gold.Chemscore.DEInternal.Weighted>
1.7813

> <Gold.Chemscore.Rot.Weighted>
4.1506

> <Gold.Chemscore.Internal.Correction.Weighted>
   9.000000E+99

> <Gold.Protein.RotatedTorsions>
[ 6907 6896 6895 6894 ] final  -54.26 input  -60.11 | X-H torsion
[ 7974 7965 7964 7962 ] final -125.90 input  175.53 | X-H torsion
[ 8008 7997 7996 7995 ] final  -25.84 input   59.86 | X-H torsion
[ 10167 10162 10161 10158 ] final   32.61 input  -65.29 | X-H torsion
[ 10718 10713 10712 10709 ] final  -92.84 input   66.30 | X-H torsion
[ 10763 10752 10751 10750 ] final  126.46 input  -60.55 | X-H torsion
[ 11005 11000 10999 10996 ] final -129.34 input  -57.11 | X-H torsion

> <Gold.Protein.ActiveResidues>
 VAL166  LYS551  ARG553  GLY616  TRP617  ASP618  TYR619  PRO620  LYS621  CYS622 
 ASP623  PHE694  ASN695  SER759  ASP760  ASP761  ALA762  ILE779  LEU786  VAL792 
 PHE793  MET794  SER795  GLU796  ALA797  LYS798  CYS799  TRP800  GLU811  SER814 

> <Gold.Protein.RotatedAtoms>
  150.8354  134.7624  159.6887 H   0  0  0  0  0  0  0  0  0  0  0  0  # atno 6907 bound_to 6896
  152.4451  134.5507  159.9876 H   0  0  0  0  0  0  0  0  0  0  0  0  # atno 6908 bound_to 6896
  151.5659  133.3359  159.3016 H   0  0  0  0  0  0  0  0  0  0  0  0  # atno 6909 bound_to 6896
  144.9928  140.7748  143.4544 H   0  0  0  0  0  0  0  0  0  0  0  0  # atno 7974 bound_to 7965
  154.4455  140.1915  156.0682 H   0  0  0  0  0  0  0  0  0  0  0  0  # atno 8008 bound_to 7997
  156.0531  140.3306  155.7347 H   0  0  0  0  0  0  0  0  0  0  0  0  # atno 8009 bound_to 7997
  155.5527  140.0596  157.2837 H   0  0  0  0  0  0  0  0  0  0  0  0  # atno 8010 bound_to 7997
  140.4483  144.1086  150.6187 H   0  0  0  0  0  0  0  0  0  0  0  0  # atno 10167 bound_to 10162
  156.0006  130.5003  150.5686 H   0  0  0  0  0  0  0  0  0  0  0  0  # atno 10718 bound_to 10713
  153.6937  135.3294  155.3208 H   0  0  0  0  0  0  0  0  0  0  0  0  # atno 10763 bound_to 10752
  154.8433  135.4437  154.1482 H   0  0  0  0  0  0  0  0  0  0  0  0  # atno 10764 bound_to 10752
  153.2531  135.6983  153.7736 H   0  0  0  0  0  0  0  0  0  0  0  0  # atno 10765 bound_to 10752
  140.9439  134.1156  157.4125 H   0  0  0  0  0  0  0  0  0  0  0  0  # atno 11005 bound_to 11000
  145.2262  139.2136  143.5067 LP  0  0  0  0  0  0  0  0  0  0  0  0  # atno 17320 bound_to 7965
  146.3435  140.2130  142.8590 LP  0  0  0  0  0  0  0  0  0  0  0  0  # atno 17321 bound_to 7965
  140.4237  143.2600  151.9683 LP  0  0  0  0  0  0  0  0  0  0  0  0  # atno 17342 bound_to 10162
  139.4794  144.5807  151.7937 LP  0  0  0  0  0  0  0  0  0  0  0  0  # atno 17343 bound_to 10162
  157.3584  131.0745  151.1656 LP  0  0  0  0  0  0  0  0  0  0  0  0  # atno 17370 bound_to 10713
  157.2449  130.6587  149.5906 LP  0  0  0  0  0  0  0  0  0  0  0  0  # atno 17371 bound_to 10713
  139.8828  135.0045  156.6255 LP  0  0  0  0  0  0  0  0  0  0  0  0  # atno 17394 bound_to 11000
  140.7695  133.8750  155.8481 LP  0  0  0  0  0  0  0  0  0  0  0  0  # atno 17395 bound_to 11000

$$$$
