AV-unprocessed.smi:837|AV-procd|sdf|3907|dock4
  -GOLD-   22720 1363D 1   1.00000     0.00000
 Structure written by MMmdl.
 49 51  0  0  0  0  0  0  0  0  3 V2000
  154.5836  138.3132  160.2389 C   0  0  0  0  0  0  0  0  0  0  0  0
  153.4079  139.3034  160.0981 C   0  0  1  0  0  0  0  0  0  0  0  0
  153.9108  140.7615  160.1657 C   0  0  0  0  0  0  0  0  0  0  0  0
  152.7501  141.7666  160.1442 C   0  0  0  0  0  0  0  0  0  0  0  0
  151.8695  141.5675  158.9040 C   0  0  0  0  0  0  0  0  0  0  0  0
  151.3481  140.1226  158.8172 C   0  0  0  0  0  0  0  0  0  0  0  0
  152.4880  139.0712  158.8547 C   0  0  1  0  0  0  0  0  0  0  0  0
  153.2374  139.0998  157.6069 N   0  5  0  0  0  0  0  0  0  0  0  0
  153.0684  137.9197  156.9679 C   0  0  0  0  0  0  0  0  0  0  0  0
  153.5488  137.5971  155.8814 O   0  0  0  0  0  0  0  0  0  0  0  0
  152.2920  137.0859  157.6857 N   0  0  0  0  0  0  0  0  0  0  0  0
  151.9758  135.7051  157.3027 C   0  0  0  0  0  0  0  0  0  0  0  0
  151.1829  135.6625  155.9924 C   0  0  0  0  0  0  0  0  0  0  0  0
  151.3774  136.5082  155.1194 O   0  0  0  0  0  0  0  0  0  0  0  0
  150.2876  134.6707  155.8768 N   0  0  0  0  0  0  0  0  0  0  0  0
  149.3752  134.4718  154.7548 C   0  0  0  0  0  0  0  0  0  0  0  0
  148.8811  133.0151  154.6073 C   0  0  0  0  0  0  0  0  0  0  0  0
  147.6248  132.8572  153.7632 C   0  0  0  0  0  0  0  0  0  0  0  0
  147.6988  132.9080  152.3529 C   0  0  0  0  0  0  0  0  0  0  0  0
  146.5201  132.7716  151.5909 C   0  0  0  0  0  0  0  0  0  0  0  0
  145.2904  132.5946  152.2556 C   0  0  0  0  0  0  0  0  0  0  0  0
  145.2569  132.5495  153.6054 N   0  3  0  0  0  0  0  0  0  0  0  0
  146.3642  132.6684  154.3706 C   0  0  0  0  0  0  0  0  0  0  0  0
  151.8991  137.6677  158.8236 C   0  0  0  0  0  0  0  0  0  0  0  0
  151.2005  137.1809  159.7136 O   0  0  0  0  0  0  0  0  0  0  0  0
  155.2907  138.4205  159.4183 H   0  0  0  0  0  0  0  0  0  0  0  0
  154.2490  137.2762  160.2599 H   0  0  0  0  0  0  0  0  0  0  0  0
  155.1310  138.4913  161.1645 H   0  0  0  0  0  0  0  0  0  0  0  0
  152.7852  139.1548  160.9820 H   0  0  0  0  0  0  0  0  0  0  0  0
  154.4975  140.9108  161.0726 H   0  0  0  0  0  0  0  0  0  0  0  0
  154.5833  140.9619  159.3307 H   0  0  0  0  0  0  0  0  0  0  0  0
  152.1462  141.6481  161.0446 H   0  0  0  0  0  0  0  0  0  0  0  0
  153.1398  142.7845  160.1634 H   0  0  0  0  0  0  0  0  0  0  0  0
  151.0301  142.2626  158.9299 H   0  0  0  0  0  0  0  0  0  0  0  0
  152.4404  141.8097  158.0068 H   0  0  0  0  0  0  0  0  0  0  0  0
  150.6675  139.9519  159.6531 H   0  0  0  0  0  0  0  0  0  0  0  0
  150.7456  140.0069  157.9144 H   0  0  0  0  0  0  0  0  0  0  0  0
  152.8885  135.1208  157.1766 H   0  0  0  0  0  0  0  0  0  0  0  0
  151.4186  135.2156  158.1037 H   0  0  0  0  0  0  0  0  0  0  0  0
  150.2081  134.0227  156.6473 H   0  0  0  0  0  0  0  0  0  0  0  0
  148.5301  135.1574  154.8289 H   0  0  0  0  0  0  0  0  0  0  0  0
  149.9216  134.7554  153.8552 H   0  0  0  0  0  0  0  0  0  0  0  0
  149.6766  132.4110  154.1690 H   0  0  0  0  0  0  0  0  0  0  0  0
  148.6957  132.5892  155.5936 H   0  0  0  0  0  0  0  0  0  0  0  0
  148.6466  133.0594  151.8573 H   0  0  0  0  0  0  0  0  0  0  0  0
  146.5560  132.8205  150.5124 H   0  0  0  0  0  0  0  0  0  0  0  0
  144.3396  132.4958  151.7523 H   0  0  0  0  0  0  0  0  0  0  0  0
  146.2066  132.6206  155.4379 H   0  0  0  0  0  0  0  0  0  0  0  0
  144.3555  132.4253  154.0663 H   0  0  0  0  0  0  0  0  0  0  0  0
  1  2  1  0  0  0  0
  1 26  1  0  0  0  0
  1 27  1  0  0  0  0
  1 28  1  0  0  0  0
  2  7  1  0  0  0  0
  2  3  1  0  0  0  0
  2 29  1  0  0  0  0
  3  4  1  0  0  0  0
  3 30  1  0  0  0  0
  3 31  1  0  0  0  0
  4  5  1  0  0  0  0
  4 32  1  0  0  0  0
  4 33  1  0  0  0  0
  5  6  1  0  0  0  0
  5 34  1  0  0  0  0
  5 35  1  0  0  0  0
  6  7  1  0  0  0  0
  6 36  1  0  0  0  0
  6 37  1  0  0  0  0
  7 24  1  0  0  0  0
  7  8  1  0  0  0  0
  8  9  1  0  0  0  0
  9 10  2  0  0  0  0
  9 11  1  0  0  0  0
 11 12  1  0  0  0  0
 11 24  1  0  0  0  0
 12 13  1  0  0  0  0
 12 38  1  0  0  0  0
 12 39  1  0  0  0  0
 13 14  2  0  0  0  0
 13 15  1  0  0  0  0
 15 16  1  0  0  0  0
 15 40  1  0  0  0  0
 16 17  1  0  0  0  0
 16 41  1  0  0  0  0
 16 42  1  0  0  0  0
 17 18  1  0  0  0  0
 17 43  1  0  0  0  0
 17 44  1  0  0  0  0
 18 23  1  0  0  0  0
 18 19  2  0  0  0  0
 19 20  1  0  0  0  0
 19 45  1  0  0  0  0
 20 21  2  0  0  0  0
 20 46  1  0  0  0  0
 21 22  1  0  0  0  0
 21 47  1  0  0  0  0
 22 23  2  0  0  0  0
 22 49  1  0  0  0  0
 23 48  1  0  0  0  0
 24 25  2  0  0  0  0
M  CHG  1   8  -1
M  CHG  1  22   1
M  END
> <s_m_source_file>
AV-unprocessed.smi

> <i_m_source_file_index>
837

> <i_lp_mmshare_version>
43012

> <i_f3d_flags>
0

> <s_epik_input>
W0NIMl0xW0NIMl1bQ0gyXVtDSDJdW0NAQEhdKFtDSDNdKVtDQEBdMTJbTkhdQyg9TylOKEMyPU8pW0NIMl1DKD1PKVtOSF1bQ0gyXVtDSDJdYzNbY0hdW2NIXVtjSF1uW2NIXTM=

> <s_epik_cmdline>
J2VwaWtfcHl0aG9uJywgJy1waCcsICc3LjAnLCAnLXRuJywgJzgnLCAnLW1hJywgJzIwMCcsICctbWV0YWxfYmluZGluZycsICctaW1hZScsICc8aW5maWxlLm1hZT4nLCAnLW9tYWUnLCAnPG91dGZpbGUubWFlPic=

> <r_lp_tautomer_probability>
1

> <r_epik_Ionization_Penalty>
8.27169

> <r_epik_Ionization_Penalty_Charging>
8.27169

> <r_epik_Ionization_Penalty_Neutral>
1.56557e-07

> <r_epik_State_Penalty>
8.42098

> <r_epik_Charging_Adjusted_Penalty>
16.6927

> <i_epik_Tot_Q>
0

> <i_epik_Tot_abs_Q>
2

> <r_epik_Metal_State_Penalty>
4.38565

> <b_epik_Metal_Only>
1

> <s_lp_Force_Field>
OPLS_2005

> <r_lp_Energy>
17.1627

> <b_lp_Chiralities_Consistent>
1

> <s_lp_Variant>
AV-unprocessed.smi:837-16

> <Gold.Version>
5.8.1

> <Gold.Id.Protein>
6NUR|6NUR_protein|mol2

> <Gold.PLP.Fitness>
51.5738

> <Gold.PLP.PLP>
-36.2925

> <Gold.PLP.part.hbond>
-4.8929

> <Gold.PLP.part.metal>
0.0000

> <Gold.PLP.part.buried>
-3.6303

> <Gold.PLP.part.nonpolar>
-29.0856

> <Gold.PLP.part.repulsive>
0.2191

> <Gold.PLP.ligand.clash>
0.0000

> <Gold.PLP.ligand.torsion>
0.8650

> <Gold.PLP.Chemscore.Hbond>
5.6582

> <Gold.PLP.Chemscore.CHOScore>
0.0000

> <Gold.PLP.Chemscore.Metal>
0.0000

> <Gold.Chemscore.Hbonds>
donor molecule, donor type, donor heavy atom, donor atom, acceptor molecule, acceptor atom, score
      L1  H    22    49       P1 10957  2.00
      P1  H  6896  6908       L1    25  0.98
      P1  H  7997  8010       L1     8  2.00
      P1  H 10752 10763       L1    10  0.01
      P1  H 10752 10765       L1    14  0.84

> <Gold.PLP.Chemscore.Internal.Correction>
0.0366

> <Gold.Rescore>
     Score         DG    S(hbond)    S(metal)    S(lipo)     H(rot)  DE(clash)    DE(int)     intcor
     17.26     -21.18       3.20        0.00      84.69       1.92       0.14       3.78       ----

> <Gold.Chemscore.Fitness>
17.2567

> <Gold.Chemscore.DG>
-21.1762

> <Gold.Chemscore.ZeroCoef>
-5.4800

> <Gold.Chemscore.Hbond>
3.2024

> <Gold.Chemscore.Metal>
0.0000

> <Gold.Chemscore.Lipo>
84.6915

> <Gold.Chemscore.Internal_Hbond>
0.0000

> <Gold.Chemscore.DEClash>
0.1401

> <Gold.Chemscore.DEInternal>
3.7795

> <Gold.Chemscore.Rot>
1.9175

> <Gold.Chemscore.Internal.Correction>
   9.000000E+99

> <Gold.Chemscore.Hbonds>
donor molecule, donor type, donor heavy atom, donor atom, acceptor molecule, acceptor atom, score
      L1  H    22    49       P1 10957  0.50
      P1  H  6896  6908       L1    25  0.85
      P1  H  7997  8010       L1     8  0.74
      P1  H 10752 10763       L1    10  0.01
      P1  H 10752 10765       L1    14  0.15

> <Gold.Chemscore.Hbond.Weighted>
-10.6961

> <Gold.Chemscore.Metal.Weighted>
-0.0000

> <Gold.Chemscore.Lipo.Weighted>
-9.9089

> <Gold.Chemscore.Internal_Hbond.Weighted>
0.0000

> <Gold.Chemscore.DEClash.Weighted>
0.1401

> <Gold.Chemscore.DEInternal.Weighted>
3.7795

> <Gold.Chemscore.Rot.Weighted>
4.9087

> <Gold.Chemscore.Internal.Correction.Weighted>
   9.000000E+99

> <Gold.Protein.RotatedTorsions>
[ 6907 6896 6895 6894 ] final -134.86 input  -60.11 | X-H torsion
[ 7974 7965 7964 7962 ] final   -4.16 input  175.53 | X-H torsion
[ 8008 7997 7996 7995 ] final   51.07 input   59.86 | X-H torsion
[ 10167 10162 10161 10158 ] final   -0.26 input  -65.29 | X-H torsion
[ 10718 10713 10712 10709 ] final  159.96 input   66.30 | X-H torsion
[ 10763 10752 10751 10750 ] final  157.30 input  -60.55 | X-H torsion
[ 11005 11000 10999 10996 ] final  175.61 input  -57.11 | X-H torsion

> <Gold.Protein.ActiveResidues>
 VAL166  LYS551  ARG553  GLY616  TRP617  ASP618  TYR619  PRO620  LYS621  CYS622 
 ASP623  PHE694  ASN695  SER759  ASP760  ASP761  ALA762  ILE779  LEU786  VAL792 
 PHE793  MET794  SER795  GLU796  ALA797  LYS798  CYS799  TRP800  GLU811  SER814 

> <Gold.Protein.RotatedAtoms>
  150.9910  133.6150  159.2708 H   0  0  0  0  0  0  0  0  0  0  0  0  # atno 6907 bound_to 6896
  151.3371  135.0854  159.9368 H   0  0  0  0  0  0  0  0  0  0  0  0  # atno 6908 bound_to 6896
  152.5245  133.9528  159.7734 H   0  0  0  0  0  0  0  0  0  0  0  0  # atno 6909 bound_to 6896
  146.2377  140.1830  142.8332 H   0  0  0  0  0  0  0  0  0  0  0  0  # atno 7974 bound_to 7965
  155.4293  140.3450  155.4278 H   0  0  0  0  0  0  0  0  0  0  0  0  # atno 8008 bound_to 7997
  156.1346  140.1524  156.9044 H   0  0  0  0  0  0  0  0  0  0  0  0  # atno 8009 bound_to 7997
  154.4922  140.0838  156.7598 H   0  0  0  0  0  0  0  0  0  0  0  0  # atno 8010 bound_to 7997
  140.6759  143.6916  150.8023 H   0  0  0  0  0  0  0  0  0  0  0  0  # atno 10167 bound_to 10162
  157.1570  131.0578  151.2252 H   0  0  0  0  0  0  0  0  0  0  0  0  # atno 10718 bound_to 10713
  154.1981  135.2791  155.3000 H   0  0  0  0  0  0  0  0  0  0  0  0  # atno 10763 bound_to 10752
  154.5876  135.5570  153.7250 H   0  0  0  0  0  0  0  0  0  0  0  0  # atno 10764 bound_to 10752
  153.0095  135.6360  154.2119 H   0  0  0  0  0  0  0  0  0  0  0  0  # atno 10765 bound_to 10752
  140.3640  134.7087  157.4350 H   0  0  0  0  0  0  0  0  0  0  0  0  # atno 11005 bound_to 11000
  144.9919  140.8555  143.5334 LP  0  0  0  0  0  0  0  0  0  0  0  0  # atno 17320 bound_to 7965
  145.1837  139.2338  143.5279 LP  0  0  0  0  0  0  0  0  0  0  0  0  # atno 17321 bound_to 7965
  140.0609  143.5156  152.2628 LP  0  0  0  0  0  0  0  0  0  0  0  0  # atno 17342 bound_to 10162
  139.6052  144.7594  151.3079 LP  0  0  0  0  0  0  0  0  0  0  0  0  # atno 17343 bound_to 10162
  157.4168  130.7415  149.6882 LP  0  0  0  0  0  0  0  0  0  0  0  0  # atno 17370 bound_to 10713
  155.9760  130.4081  150.3807 LP  0  0  0  0  0  0  0  0  0  0  0  0  # atno 17371 bound_to 10713
  140.0604  134.6004  155.8756 LP  0  0  0  0  0  0  0  0  0  0  0  0  # atno 17394 bound_to 11000
  141.1975  133.6597  156.5745 LP  0  0  0  0  0  0  0  0  0  0  0  0  # atno 17395 bound_to 11000

$$$$
