AV-unprocessed.smi:1819|AV-procd|sdf|7383|dock3
  -GOLD-   22720 9 53D 1   1.00000     0.00000
 Structure written by MMmdl.
 28 28  0  0  0  0  0  0  0  0  2 V2000
  149.9595  135.7475  156.7409 O   0  0  0  0  0  0  0  0  0  0  0  0
  149.9706  135.9262  155.5223 C   0  0  0  0  0  0  0  0  0  0  0  0
  151.0401  136.8179  154.8807 C   0  0  0  0  0  0  0  0  0  0  0  0
  150.5897  138.2122  154.7452 N   0  0  0  0  0  0  0  0  0  0  0  0
  149.3168  138.4408  154.1936 C   0  0  0  0  0  0  0  0  0  0  0  0
  148.8281  139.6845  154.0264 C   0  0  0  0  0  0  0  0  0  0  0  0
  149.6565  140.8125  154.4346 C   0  0  0  0  0  0  0  0  0  0  0  0
  149.2245  141.9549  154.2937 O   0  0  0  0  0  0  0  0  0  0  0  0
  150.8865  140.5392  154.9604 N   0  5  0  0  0  0  0  0  0  0  0  0
  151.3715  139.2692  155.1225 C   0  0  0  0  0  0  0  0  0  0  0  0
  152.4862  139.0449  155.5968 O   0  0  0  0  0  0  0  0  0  0  0  0
  149.0854  135.3661  154.6841 N   0  0  0  0  0  0  0  0  0  0  0  0
  147.9457  134.5446  155.0784 C   0  0  0  0  0  0  0  0  0  0  0  0
  146.9299  134.4046  153.9328 C   0  0  0  0  0  0  0  0  0  0  0  0
  147.5303  133.3371  152.5898 S   0  0  0  0  0  0  0  0  0  0  0  0
  146.1849  133.5348  151.3909 C   0  0  0  0  0  0  0  0  0  0  0  0
  145.0323  133.1557  151.9398 F   0  0  0  0  0  0  0  0  0  0  0  0
  146.0819  134.8099  151.0182 F   0  0  0  0  0  0  0  0  0  0  0  0
  146.4124  132.7827  150.3147 F   0  0  0  0  0  0  0  0  0  0  0  0
  151.9416  136.7610  155.4919 H   0  0  0  0  0  0  0  0  0  0  0  0
  151.3283  136.4227  153.9045 H   0  0  0  0  0  0  0  0  0  0  0  0
  148.7708  137.5527  153.9112 H   0  0  0  0  0  0  0  0  0  0  0  0
  147.8496  139.8435  153.5981 H   0  0  0  0  0  0  0  0  0  0  0  0
  149.1798  135.5695  153.6997 H   0  0  0  0  0  0  0  0  0  0  0  0
  148.3302  133.5585  155.3393 H   0  0  0  0  0  0  0  0  0  0  0  0
  147.4606  134.9292  155.9770 H   0  0  0  0  0  0  0  0  0  0  0  0
  145.9863  134.0101  154.3115 H   0  0  0  0  0  0  0  0  0  0  0  0
  146.7154  135.3876  153.5137 H   0  0  0  0  0  0  0  0  0  0  0  0
  1  2  2  0  0  0  0
  2  3  1  0  0  0  0
  2 12  1  0  0  0  0
  3  4  1  0  0  0  0
  3 20  1  0  0  0  0
  3 21  1  0  0  0  0
  4 10  1  0  0  0  0
  4  5  1  0  0  0  0
  5  6  2  0  0  0  0
  5 22  1  0  0  0  0
  6  7  1  0  0  0  0
  6 23  1  0  0  0  0
  7  8  2  0  0  0  0
  7  9  1  0  0  0  0
  9 10  1  0  0  0  0
 10 11  2  0  0  0  0
 12 13  1  0  0  0  0
 12 24  1  0  0  0  0
 13 14  1  0  0  0  0
 13 25  1  0  0  0  0
 13 26  1  0  0  0  0
 14 15  1  0  0  0  0
 14 27  1  0  0  0  0
 14 28  1  0  0  0  0
 15 16  1  0  0  0  0
 16 17  1  0  0  0  0
 16 18  1  0  0  0  0
 16 19  1  0  0  0  0
M  CHG  1   9  -1
M  END
> <s_m_source_file>
AV-unprocessed.smi

> <i_m_source_file_index>
1819

> <i_lp_mmshare_version>
43012

> <i_f3d_flags>
0

> <s_epik_input>
RkMoRikoRilTW0NIMl1bQ0gyXVtOSF1DKD1PKVtDSDJdbjFbY0hdW2NIXWMoPU8pW25IXWMxPU8=

> <s_epik_cmdline>
J2VwaWtfcHl0aG9uJywgJy1waCcsICc3LjAnLCAnLXRuJywgJzgnLCAnLW1hJywgJzIwMCcsICctbWV0YWxfYmluZGluZycsICctaW1hZScsICc8aW5maWxlLm1hZT4nLCAnLW9tYWUnLCAnPG91dGZpbGUubWFlPic=

> <r_lp_tautomer_probability>
0.999537

> <r_epik_Ionization_Penalty>
3.04617

> <r_epik_Ionization_Penalty_Charging>
2.49125e-08

> <r_epik_Ionization_Penalty_Neutral>
3.04617

> <r_epik_State_Penalty>
3.04516

> <r_epik_Charging_Adjusted_Penalty>
3.04516

> <i_epik_Tot_Q>
-1

> <i_epik_Tot_abs_Q>
1

> <r_epik_Metal_State_Penalty>
0.457105

> <b_epik_Metal_Only>
1

> <s_lp_Force_Field>
OPLS_2005

> <r_lp_Energy>
9.91428

> <b_lp_Chiralities_Consistent>
1

> <s_lp_Variant>
AV-unprocessed.smi:1819-2

> <Gold.Version>
5.8.1

> <Gold.Id.Protein>
6NUR|6NUR_protein|mol2

> <Gold.PLP.Fitness>
39.3301

> <Gold.PLP.PLP>
-30.4169

> <Gold.PLP.part.hbond>
-3.6838

> <Gold.PLP.part.metal>
0.0000

> <Gold.PLP.part.buried>
1.3393

> <Gold.PLP.part.nonpolar>
-27.6844

> <Gold.PLP.part.repulsive>
0.7265

> <Gold.PLP.ligand.clash>
0.0000

> <Gold.PLP.ligand.torsion>
0.6564

> <Gold.PLP.Chemscore.Hbond>
2.4467

> <Gold.PLP.Chemscore.CHOScore>
0.9353

> <Gold.PLP.Chemscore.Metal>
0.0000

> <Gold.Chemscore.Hbonds>
donor molecule, donor type, donor heavy atom, donor atom, acceptor molecule, acceptor atom, score
      L1  H    12    24       P1  7948  1.00
      P1  H  7989  7998       L1     9  0.49
      P1  H  7997  8008       L1    11  0.46
      P1  H  8011  8017       L1     8  0.34
      L1  C     5    22       P1  7948  0.96

> <Gold.PLP.Chemscore.Internal.Correction>
0.0798

> <Gold.Rescore>
     Score         DG    S(hbond)    S(metal)    S(lipo)     H(rot)  DE(clash)    DE(int)     intcor
      5.38      -7.47       1.57        0.00      35.11       2.88       1.39       0.70       ----

> <Gold.Chemscore.Fitness>
5.3830

> <Gold.Chemscore.DG>
-7.4725

> <Gold.Chemscore.ZeroCoef>
-5.4800

> <Gold.Chemscore.Hbond>
1.5704

> <Gold.Chemscore.Metal>
0.0000

> <Gold.Chemscore.Lipo>
35.1093

> <Gold.Chemscore.Internal_Hbond>
0.0000

> <Gold.Chemscore.DEClash>
1.3922

> <Gold.Chemscore.DEInternal>
0.6973

> <Gold.Chemscore.Rot>
2.8751

> <Gold.Chemscore.Internal.Correction>
   9.000000E+99

> <Gold.Chemscore.Hbonds>
donor molecule, donor type, donor heavy atom, donor atom, acceptor molecule, acceptor atom, score
      L1  H    12    24       P1  7948  0.60
      P1  H  7989  7998       L1     9  0.01
      P1  H  7997  8008       L1    11  0.46
      P1  H  8011  8017       L1     8  0.13

> <Gold.Chemscore.Hbond.Weighted>
-5.2450

> <Gold.Chemscore.Metal.Weighted>
-0.0000

> <Gold.Chemscore.Lipo.Weighted>
-4.1078

> <Gold.Chemscore.Internal_Hbond.Weighted>
0.0000

> <Gold.Chemscore.DEClash.Weighted>
1.3922

> <Gold.Chemscore.DEInternal.Weighted>
0.6973

> <Gold.Chemscore.Rot.Weighted>
7.3603

> <Gold.Chemscore.Internal.Correction.Weighted>
   9.000000E+99

> <Gold.Protein.RotatedTorsions>
[ 6907 6896 6895 6894 ] final -161.35 input  -60.11 | X-H torsion
[ 7974 7965 7964 7962 ] final -162.74 input  175.53 | X-H torsion
[ 8008 7997 7996 7995 ] final  -37.37 input   59.86 | X-H torsion
[ 10167 10162 10161 10158 ] final    5.44 input  -65.29 | X-H torsion
[ 10718 10713 10712 10709 ] final -152.19 input   66.30 | X-H torsion
[ 10763 10752 10751 10750 ] final  161.13 input  -60.55 | X-H torsion
[ 11005 11000 10999 10996 ] final  -12.98 input  -57.11 | X-H torsion

> <Gold.Protein.ActiveResidues>
 VAL166  LYS551  ARG553  GLY616  TRP617  ASP618  TYR619  PRO620  LYS621  CYS622 
 ASP623  PHE694  ASN695  SER759  ASP760  ASP761  ALA762  ILE779  LEU786  VAL792 
 PHE793  MET794  SER795  GLU796  ALA797  LYS798  CYS799  TRP800  GLU811  SER814 

> <Gold.Protein.RotatedAtoms>
  151.3633  133.3881  159.2691 H   0  0  0  0  0  0  0  0  0  0  0  0  # atno 6907 bound_to 6896
  150.9708  134.9082  159.7797 H   0  0  0  0  0  0  0  0  0  0  0  0  # atno 6908 bound_to 6896
  152.5184  134.3595  159.9332 H   0  0  0  0  0  0  0  0  0  0  0  0  # atno 6909 bound_to 6896
  144.7348  140.3208  143.6171 H   0  0  0  0  0  0  0  0  0  0  0  0  # atno 7974 bound_to 7965
  154.4055  140.1606  156.2526 H   0  0  0  0  0  0  0  0  0  0  0  0  # atno 8008 bound_to 7997
  155.9106  140.3427  155.6073 H   0  0  0  0  0  0  0  0  0  0  0  0  # atno 8009 bound_to 7997
  155.7341  140.0784  157.2266 H   0  0  0  0  0  0  0  0  0  0  0  0  # atno 8010 bound_to 7997
  140.6482  143.7610  150.7532 H   0  0  0  0  0  0  0  0  0  0  0  0  # atno 10167 bound_to 10162
  156.4692  130.8250  151.2480 H   0  0  0  0  0  0  0  0  0  0  0  0  # atno 10718 bound_to 10713
  154.2581  135.2769  155.2789 H   0  0  0  0  0  0  0  0  0  0  0  0  # atno 10763 bound_to 10752
  154.5407  135.5703  153.6840 H   0  0  0  0  0  0  0  0  0  0  0  0  # atno 10764 bound_to 10752
  152.9967  135.6250  154.2731 H   0  0  0  0  0  0  0  0  0  0  0  0  # atno 10765 bound_to 10752
  140.7714  133.8436  155.9210 H   0  0  0  0  0  0  0  0  0  0  0  0  # atno 11005 bound_to 11000
  145.7570  139.1812  143.2289 LP  0  0  0  0  0  0  0  0  0  0  0  0  # atno 17320 bound_to 7965
  146.1016  140.7537  142.9546 LP  0  0  0  0  0  0  0  0  0  0  0  0  # atno 17321 bound_to 7965
  140.1256  143.4573  152.2286 LP  0  0  0  0  0  0  0  0  0  0  0  0  # atno 17342 bound_to 10162
  139.5694  144.7454  151.3932 LP  0  0  0  0  0  0  0  0  0  0  0  0  # atno 17343 bound_to 10162
  157.7492  131.0082  150.3218 LP  0  0  0  0  0  0  0  0  0  0  0  0  # atno 17370 bound_to 10713
  156.3636  130.3851  149.7231 LP  0  0  0  0  0  0  0  0  0  0  0  0  # atno 17371 bound_to 10713
  140.9570  134.1705  157.4684 LP  0  0  0  0  0  0  0  0  0  0  0  0  # atno 17394 bound_to 11000
  139.8755  134.9931  156.5627 LP  0  0  0  0  0  0  0  0  0  0  0  0  # atno 17395 bound_to 11000

$$$$
