AV-unprocessed.smi:791|AV-procd|sdf|3748|dock5
  -GOLD-   22720 1183D 1   1.00000     0.00000
 Structure written by MMmdl.
 30 32  0  0  0  0  0  0  0  0  2 V2000
  149.3927  141.1391  154.5709 C   0  0  0  0  0  0  0  0  0  0  0  0
  148.0007  141.1096  155.2245 C   0  0  0  0  0  0  0  0  0  0  0  0
  147.8963  142.1391  156.2820 N   0  3  0  0  0  0  0  0  0  0  0  0
  148.9152  141.9836  157.3436 C   0  0  0  0  0  0  0  0  0  0  0  0
  150.3372  142.0064  156.7486 C   0  0  1  0  0  0  0  0  0  0  0  0
  151.3892  141.8671  157.8053 C   0  0  0  0  0  0  0  0  0  0  0  0
  152.2049  140.8198  157.8295 N   0  0  0  0  0  0  0  0  0  0  0  0
  153.0295  141.0755  158.9343 O   0  0  0  0  0  0  0  0  0  0  0  0
  152.5965  142.2480  159.4549 C   0  0  0  0  0  0  0  0  0  0  0  0
  153.3024  142.8133  160.6398 C   0  0  0  0  0  0  0  0  0  0  0  0
  153.4371  142.0112  161.9134 C   0  0  0  0  0  0  0  0  0  0  0  0
  152.5369  143.2200  161.8784 C   0  0  0  0  0  0  0  0  0  0  0  0
  151.5943  142.8008  158.7762 N   0  0  0  0  0  0  0  0  0  0  0  0
  150.4987  140.9662  155.6233 C   0  0  0  0  0  0  0  0  0  0  0  0
  149.5310  142.0850  154.0454 H   0  0  0  0  0  0  0  0  0  0  0  0
  149.4686  140.3535  153.8184 H   0  0  0  0  0  0  0  0  0  0  0  0
  147.2277  141.2876  154.4767 H   0  0  0  0  0  0  0  0  0  0  0  0
  147.8048  140.1281  155.6581 H   0  0  0  0  0  0  0  0  0  0  0  0
  148.0118  143.0481  155.8568 H   0  0  0  0  0  0  0  0  0  0  0  0
  148.7935  142.7875  158.0701 H   0  0  0  0  0  0  0  0  0  0  0  0
  148.7351  141.0461  157.8718 H   0  0  0  0  0  0  0  0  0  0  0  0
  150.4712  142.9881  156.2894 H   0  0  0  0  0  0  0  0  0  0  0  0
  154.1454  143.4288  160.3320 H   0  0  0  0  0  0  0  0  0  0  0  0
  152.9627  141.0323  161.9469 H   0  0  0  0  0  0  0  0  0  0  0  0
  154.3711  142.0964  162.4650 H   0  0  0  0  0  0  0  0  0  0  0  0
  152.8713  144.1114  162.4050 H   0  0  0  0  0  0  0  0  0  0  0  0
  151.4628  143.0447  161.8922 H   0  0  0  0  0  0  0  0  0  0  0  0
  150.4487  139.9576  156.0363 H   0  0  0  0  0  0  0  0  0  0  0  0
  151.4788  141.0627  155.1546 H   0  0  0  0  0  0  0  0  0  0  0  0
  146.9780  142.0897  156.6996 H   0  0  0  0  0  0  0  0  0  0  0  0
  1 14  1  0  0  0  0
  1  2  1  0  0  0  0
  1 15  1  0  0  0  0
  1 16  1  0  0  0  0
  2  3  1  0  0  0  0
  2 17  1  0  0  0  0
  2 18  1  0  0  0  0
  3  4  1  0  0  0  0
  3 19  1  0  0  0  0
  3 30  1  0  0  0  0
  4  5  1  0  0  0  0
  4 20  1  0  0  0  0
  4 21  1  0  0  0  0
  5  6  1  0  0  0  0
  5 14  1  0  0  0  0
  5 22  1  0  0  0  0
  6 13  1  0  0  0  0
  6  7  2  0  0  0  0
  7  8  1  0  0  0  0
  8  9  1  0  0  0  0
  9 10  1  0  0  0  0
  9 13  2  0  0  0  0
 10 12  1  0  0  0  0
 10 11  1  0  0  0  0
 10 23  1  0  0  0  0
 11 12  1  0  0  0  0
 11 24  1  0  0  0  0
 11 25  1  0  0  0  0
 12 26  1  0  0  0  0
 12 27  1  0  0  0  0
 14 28  1  0  0  0  0
 14 29  1  0  0  0  0
M  CHG  1   3   1
M  END
> <s_m_source_file>
AV-unprocessed.smi

> <i_m_source_file_index>
791

> <i_lp_mmshare_version>
43012

> <i_f3d_flags>
0

> <s_epik_input>
W0NIMl0xW0NIMl1bQ0gyXVtOSF1bQ0gyXVtDQEhdMWMybm9jKG4yKVtDSF0zW0NIMl1bQ0gyXTM=

> <s_epik_cmdline>
J2VwaWtfcHl0aG9uJywgJy1waCcsICc3LjAnLCAnLXRuJywgJzgnLCAnLW1hJywgJzIwMCcsICctbWV0YWxfYmluZGluZycsICctaW1hZScsICc8aW5maWxlLm1hZT4nLCAnLW9tYWUnLCAnPG91dGZpbGUubWFlPic=

> <r_lp_tautomer_probability>
1

> <r_epik_Ionization_Penalty>
0.000532935

> <r_epik_Ionization_Penalty_Charging>
0.000532935

> <r_epik_Ionization_Penalty_Neutral>
2.72852e-13

> <r_epik_State_Penalty>
0.000332992

> <r_epik_Charging_Adjusted_Penalty>
0.000865928

> <i_epik_Tot_Q>
1

> <i_epik_Tot_abs_Q>
1

> <r_epik_Metal_State_Penalty>
-0

> <b_epik_Metal_Only>
0

> <s_lp_Force_Field>
OPLS_2005

> <r_lp_Energy>
11.8714

> <b_lp_Chiralities_Consistent>
1

> <s_lp_Variant>
AV-unprocessed.smi:791-1

> <Gold.Version>
5.8.1

> <Gold.Id.Protein>
6NUR|6NUR_protein|mol2

> <Gold.PLP.Fitness>
36.1242

> <Gold.PLP.PLP>
-30.3334

> <Gold.PLP.part.hbond>
-1.0000

> <Gold.PLP.part.metal>
0.0000

> <Gold.PLP.part.buried>
-1.9752

> <Gold.PLP.part.nonpolar>
-25.9869

> <Gold.PLP.part.repulsive>
0.0368

> <Gold.PLP.ligand.clash>
0.0000

> <Gold.PLP.ligand.torsion>
0.1931

> <Gold.PLP.Chemscore.Hbond>
2.0000

> <Gold.PLP.Chemscore.CHOScore>
0.0000

> <Gold.PLP.Chemscore.Metal>
0.0000

> <Gold.Chemscore.Hbonds>
donor molecule, donor type, donor heavy atom, donor atom, acceptor molecule, acceptor atom, score
      L1  H     3    19       P1  8028  2.00

> <Gold.PLP.Chemscore.Internal.Correction>
0.1769

> <Gold.Rescore>
     Score         DG    S(hbond)    S(metal)    S(lipo)     H(rot)  DE(clash)    DE(int)     intcor
     12.69     -12.89       0.85        0.00      66.02       1.23       0.11       0.09       ----

> <Gold.Chemscore.Fitness>
12.6870

> <Gold.Chemscore.DG>
-12.8863

> <Gold.Chemscore.ZeroCoef>
-5.4800

> <Gold.Chemscore.Hbond>
0.8485

> <Gold.Chemscore.Metal>
0.0000

> <Gold.Chemscore.Lipo>
66.0188

> <Gold.Chemscore.Internal_Hbond>
0.0000

> <Gold.Chemscore.DEClash>
0.1075

> <Gold.Chemscore.DEInternal>
0.0919

> <Gold.Chemscore.Rot>
1.2312

> <Gold.Chemscore.Internal.Correction>
   9.000000E+99

> <Gold.Chemscore.Hbonds>
donor molecule, donor type, donor heavy atom, donor atom, acceptor molecule, acceptor atom, score
      L1  H     3    19       P1  8028  0.64

> <Gold.Chemscore.Hbond.Weighted>
-2.8340

> <Gold.Chemscore.Metal.Weighted>
-0.0000

> <Gold.Chemscore.Lipo.Weighted>
-7.7242

> <Gold.Chemscore.Internal_Hbond.Weighted>
0.0000

> <Gold.Chemscore.DEClash.Weighted>
0.1075

> <Gold.Chemscore.DEInternal.Weighted>
0.0919

> <Gold.Chemscore.Rot.Weighted>
3.1518

> <Gold.Chemscore.Internal.Correction.Weighted>
   9.000000E+99

> <Gold.Protein.RotatedTorsions>
[ 6907 6896 6895 6894 ] final    3.40 input  -60.11 | X-H torsion
[ 7974 7965 7964 7962 ] final -153.98 input  175.53 | X-H torsion
[ 8008 7997 7996 7995 ] final  -13.97 input   59.86 | X-H torsion
[ 10167 10162 10161 10158 ] final  159.66 input  -65.29 | X-H torsion
[ 10718 10713 10712 10709 ] final -163.17 input   66.30 | X-H torsion
[ 10763 10752 10751 10750 ] final   50.15 input  -60.55 | X-H torsion
[ 11005 11000 10999 10996 ] final  -29.42 input  -57.11 | X-H torsion

> <Gold.Protein.ActiveResidues>
 VAL166  LYS551  ARG553  GLY616  TRP617  ASP618  TYR619  PRO620  LYS621  CYS622 
 ASP623  PHE694  ASN695  SER759  ASP760  ASP761  ALA762  ILE779  LEU786  VAL792 
 PHE793  MET794  SER795  GLU796  ALA797  LYS798  CYS799  TRP800  GLU811  SER814 

> <Gold.Protein.RotatedAtoms>
  151.6245  135.1029  160.0108 H   0  0  0  0  0  0  0  0  0  0  0  0  # atno 6907 bound_to 6896
  152.4140  133.7004  159.6431 H   0  0  0  0  0  0  0  0  0  0  0  0  # atno 6908 bound_to 6896
  150.8029  133.8491  159.3241 H   0  0  0  0  0  0  0  0  0  0  0  0  # atno 6909 bound_to 6896
  144.7713  140.4451  143.5905 H   0  0  0  0  0  0  0  0  0  0  0  0  # atno 7974 bound_to 7965
  154.5249  140.2235  155.8909 H   0  0  0  0  0  0  0  0  0  0  0  0  # atno 8008 bound_to 7997
  156.1702  140.3123  155.8924 H   0  0  0  0  0  0  0  0  0  0  0  0  # atno 8009 bound_to 7997
  155.3574  140.0459  157.3037 H   0  0  0  0  0  0  0  0  0  0  0  0  # atno 8010 bound_to 7997
  139.4834  144.4709  151.8577 H   0  0  0  0  0  0  0  0  0  0  0  0  # atno 10167 bound_to 10162
  156.6208  130.8889  151.2957 H   0  0  0  0  0  0  0  0  0  0  0  0  # atno 10718 bound_to 10713
  152.9785  135.5888  154.4205 H   0  0  0  0  0  0  0  0  0  0  0  0  # atno 10763 bound_to 10752
  154.3830  135.2767  155.2202 H   0  0  0  0  0  0  0  0  0  0  0  0  # atno 10764 bound_to 10752
  154.4108  135.6082  153.6006 H   0  0  0  0  0  0  0  0  0  0  0  0  # atno 10765 bound_to 10752
  140.9295  133.7347  156.0916 H   0  0  0  0  0  0  0  0  0  0  0  0  # atno 11005 bound_to 11000
  145.6317  139.1537  143.2965 LP  0  0  0  0  0  0  0  0  0  0  0  0  # atno 17320 bound_to 7965
  146.1861  140.6420  142.9167 LP  0  0  0  0  0  0  0  0  0  0  0  0  # atno 17321 bound_to 7965
  140.4178  144.2284  150.5887 LP  0  0  0  0  0  0  0  0  0  0  0  0  # atno 17342 bound_to 10162
  140.4904  143.2349  151.8827 LP  0  0  0  0  0  0  0  0  0  0  0  0  # atno 17343 bound_to 10162
  157.7228  130.9581  150.1508 LP  0  0  0  0  0  0  0  0  0  0  0  0  # atno 17370 bound_to 10713
  156.2313  130.3682  149.8442 LP  0  0  0  0  0  0  0  0  0  0  0  0  # atno 17371 bound_to 10713
  140.7881  134.3648  157.5471 LP  0  0  0  0  0  0  0  0  0  0  0  0  # atno 17394 bound_to 11000
  139.8793  134.9123  156.3058 LP  0  0  0  0  0  0  0  0  0  0  0  0  # atno 17395 bound_to 11000

$$$$
