AV-unprocessed.smi:212|AV-procd|sdf|1630|dock8
  -GOLD-   2262019583D 1   1.00000     0.00000
 Structure written by MMmdl.
 65 68  0  0  0  0  0  0  0  0  2 V2000
  146.0772  135.6018  156.5002 C   0  0  0  0  0  0  0  0  0  0  0  0
  146.8151  136.3996  155.4118 C   0  0  1  0  0  0  0  0  0  0  0  0
  146.6627  135.7587  154.0155 C   0  0  0  0  0  0  0  0  0  0  0  0
  145.2945  135.9521  153.4688 N   0  3  2  0  0  0  0  0  0  0  0  0
  145.0696  135.2420  152.1822 C   0  0  0  0  0  0  0  0  0  0  0  0
  144.9851  133.7081  152.3612 C   0  0  0  0  0  0  0  0  0  0  0  0
  143.7742  133.1509  151.5942 C   0  0  0  0  0  0  0  0  0  0  0  0
  146.2742  132.9951  151.9115 C   0  0  0  0  0  0  0  0  0  0  0  0
  144.7677  133.4143  153.7272 O   0  0  0  0  0  0  0  0  0  0  0  0
  144.9042  137.3844  153.4264 C   0  0  0  0  0  0  0  0  0  0  0  0
  145.0470  138.0347  154.8144 C   0  0  0  0  0  0  0  0  0  0  0  0
  146.3772  137.7974  155.3778 N   0  0  0  0  0  0  0  0  0  0  0  0
  147.3500  138.7245  155.1746 C   0  0  0  0  0  0  0  0  0  0  0  0
  147.4808  139.3159  153.9572 N   0  0  0  0  0  0  0  0  0  0  0  0
  148.4404  140.2211  153.7444 C   0  0  0  0  0  0  0  0  0  0  0  0
  149.3609  140.6766  154.5958 N   0  0  0  0  0  0  0  0  0  0  0  0
  149.2289  140.0956  155.8221 C   0  0  0  0  0  0  0  0  0  0  0  0
  148.2623  139.1192  156.1939 C   0  0  0  0  0  0  0  0  0  0  0  0
  148.4340  138.7693  157.5286 N   0  0  0  0  0  0  0  0  0  0  0  0
  149.4491  139.4905  157.9201 C   0  0  0  0  0  0  0  0  0  0  0  0
  149.9824  140.3201  156.9598 N   0  0  0  0  0  0  0  0  0  0  0  0
  151.1050  141.2282  157.1143 C   0  0  0  0  0  0  0  0  0  0  0  0
  151.4375  141.5206  158.6003 C   0  0  1  0  0  0  0  0  0  0  0  0
  152.1572  140.3231  159.2623 C   0  0  0  0  0  0  0  0  0  0  0  0
  153.4308  140.1104  158.6900 O   0  0  0  0  0  0  0  0  0  0  0  0
  152.2112  142.8515  158.8081 C   0  0  1  0  0  0  0  0  0  0  0  0
  151.6044  144.0964  158.1699 C   0  0  0  0  0  0  0  0  0  0  0  0
  152.1343  145.2065  159.0662 C   0  0  0  0  0  0  0  0  0  0  0  0
  152.0399  144.6329  160.3593 O   0  0  0  0  0  0  0  0  0  0  0  0
  152.4331  143.2672  160.2738 C   0  0  0  0  0  0  0  0  0  0  0  0
  146.4554  134.5809  156.5579 H   0  0  0  0  0  0  0  0  0  0  0  0
  145.0051  135.5440  156.3118 H   0  0  0  0  0  0  0  0  0  0  0  0
  146.2191  136.0591  157.4797 H   0  0  0  0  0  0  0  0  0  0  0  0
  147.8748  136.3521  155.6613 H   0  0  0  0  0  0  0  0  0  0  0  0
  147.3830  136.2031  153.3263 H   0  0  0  0  0  0  0  0  0  0  0  0
  146.8955  134.6942  154.0706 H   0  0  0  0  0  0  0  0  0  0  0  0
  144.1697  135.6217  151.6948 H   0  0  0  0  0  0  0  0  0  0  0  0
  145.8850  135.4628  151.4913 H   0  0  0  0  0  0  0  0  0  0  0  0
  143.8697  133.3308  150.5227 H   0  0  0  0  0  0  0  0  0  0  0  0
  142.8440  133.6158  151.9238 H   0  0  0  0  0  0  0  0  0  0  0  0
  143.6717  132.0742  151.7365 H   0  0  0  0  0  0  0  0  0  0  0  0
  146.4898  133.1988  150.8621 H   0  0  0  0  0  0  0  0  0  0  0  0
  146.1891  131.9135  152.0242 H   0  0  0  0  0  0  0  0  0  0  0  0
  147.1398  133.3131  152.4934 H   0  0  0  0  0  0  0  0  0  0  0  0
  144.1496  132.7014  153.7884 H   0  0  0  0  0  0  0  0  0  0  0  0
  145.5277  137.9065  152.6993 H   0  0  0  0  0  0  0  0  0  0  0  0
  143.8740  137.4821  153.0841 H   0  0  0  0  0  0  0  0  0  0  0  0
  144.8272  139.1020  154.7623 H   0  0  0  0  0  0  0  0  0  0  0  0
  144.3058  137.6143  155.4941 H   0  0  0  0  0  0  0  0  0  0  0  0
  148.4758  140.6412  152.7500 H   0  0  0  0  0  0  0  0  0  0  0  0
  149.8339  139.4429  158.9286 H   0  0  0  0  0  0  0  0  0  0  0  0
  151.9643  140.7923  156.6048 H   0  0  0  0  0  0  0  0  0  0  0  0
  150.8603  142.1420  156.5740 H   0  0  0  0  0  0  0  0  0  0  0  0
  150.4853  141.6408  159.1195 H   0  0  0  0  0  0  0  0  0  0  0  0
  152.3098  140.4984  160.3269 H   0  0  0  0  0  0  0  0  0  0  0  0
  151.5632  139.4133  159.1724 H   0  0  0  0  0  0  0  0  0  0  0  0
  154.0043  139.7581  159.3536 H   0  0  0  0  0  0  0  0  0  0  0  0
  153.2089  142.7338  158.3824 H   0  0  0  0  0  0  0  0  0  0  0  0
  151.8927  144.2226  157.1259 H   0  0  0  0  0  0  0  0  0  0  0  0
  150.5165  144.0907  158.2203 H   0  0  0  0  0  0  0  0  0  0  0  0
  153.1773  145.4320  158.8376 H   0  0  0  0  0  0  0  0  0  0  0  0
  151.5544  146.1263  158.9891 H   0  0  0  0  0  0  0  0  0  0  0  0
  151.8686  142.6707  160.9897 H   0  0  0  0  0  0  0  0  0  0  0  0
  153.4874  143.1770  160.5392 H   0  0  0  0  0  0  0  0  0  0  0  0
  144.6726  135.5131  154.1325 H   0  0  0  0  0  0  0  0  0  0  0  0
  1  2  1  0  0  0  0
  1 31  1  0  0  0  0
  1 32  1  0  0  0  0
  1 33  1  0  0  0  0
  2 12  1  0  0  0  0
  2  3  1  0  0  0  0
  2 34  1  0  0  0  0
  3  4  1  0  0  0  0
  3 35  1  0  0  0  0
  3 36  1  0  0  0  0
  4  5  1  0  0  0  0
  4 10  1  0  0  0  0
  4 65  1  0  0  0  0
  5  6  1  0  0  0  0
  5 37  1  0  0  0  0
  5 38  1  0  0  0  0
  6  7  1  0  0  0  0
  6  8  1  0  0  0  0
  6  9  1  0  0  0  0
  7 39  1  0  0  0  0
  7 40  1  0  0  0  0
  7 41  1  0  0  0  0
  8 42  1  0  0  0  0
  8 43  1  0  0  0  0
  8 44  1  0  0  0  0
  9 45  1  0  0  0  0
 10 11  1  0  0  0  0
 10 46  1  0  0  0  0
 10 47  1  0  0  0  0
 11 12  1  0  0  0  0
 11 48  1  0  0  0  0
 11 49  1  0  0  0  0
 12 13  1  0  0  0  0
 13 18  1  0  0  0  0
 13 14  2  0  0  0  0
 14 15  1  0  0  0  0
 15 16  2  0  0  0  0
 15 50  1  0  0  0  0
 16 17  1  0  0  0  0
 17 21  1  0  0  0  0
 17 18  2  0  0  0  0
 18 19  1  0  0  0  0
 19 20  2  0  0  0  0
 20 21  1  0  0  0  0
 20 51  1  0  0  0  0
 21 22  1  0  0  0  0
 22 23  1  0  0  0  0
 22 52  1  0  0  0  0
 22 53  1  0  0  0  0
 23 24  1  0  0  0  0
 23 26  1  0  0  0  0
 23 54  1  0  0  0  0
 24 25  1  0  0  0  0
 24 55  1  0  0  0  0
 24 56  1  0  0  0  0
 25 57  1  0  0  0  0
 26 30  1  0  0  0  0
 26 27  1  0  0  0  0
 26 58  1  0  0  0  0
 27 28  1  0  0  0  0
 27 59  1  0  0  0  0
 27 60  1  0  0  0  0
 28 29  1  0  0  0  0
 28 61  1  0  0  0  0
 28 62  1  0  0  0  0
 29 30  1  0  0  0  0
 30 63  1  0  0  0  0
 30 64  1  0  0  0  0
M  CHG  1   4   1
M  END
> <s_m_source_file>
AV-unprocessed.smi

> <i_m_source_file_index>
212

> <i_lp_mmshare_version>
43012

> <i_f3d_flags>
0

> <s_epik_input>
W0NIM11bQ0BASF0xW0NIMl1OKFtDSDJdQyhbQ0gzXSkoW0NIM10pW09IXSlbQ0gyXVtDSDJdTjFjKG5bY0hdbjIpYyhjMjMpbltjSF1uM1tDSDJdW0NASF0oW0NIMl1bT0hdKVtDQEBIXTRbQ0gyXVtDSDJdT1tDSDJdNA==

> <s_epik_cmdline>
J2VwaWtfcHl0aG9uJywgJy1waCcsICc3LjAnLCAnLXRuJywgJzgnLCAnLW1hJywgJzIwMCcsICctbWV0YWxfYmluZGluZycsICctaW1hZScsICc8aW5maWxlLm1hZT4nLCAnLW9tYWUnLCAnPG91dGZpbGUubWFlPic=

> <r_lp_tautomer_probability>
1

> <r_epik_Ionization_Penalty>
0.00182193

> <r_epik_Ionization_Penalty_Charging>
0.00173996

> <r_epik_Ionization_Penalty_Neutral>
8.19718e-05

> <r_epik_State_Penalty>
-0

> <r_epik_Charging_Adjusted_Penalty>
0.00173996

> <i_epik_Tot_Q>
1

> <i_epik_Tot_abs_Q>
1

> <r_epik_Metal_State_Penalty>
-0

> <b_epik_Metal_Only>
0

> <s_lp_Force_Field>
OPLS_2005

> <r_lp_Energy>
60.3061

> <b_lp_Chiralities_Consistent>
1

> <s_lp_Variant>
AV-unprocessed.smi:212-14

> <Gold.Version>
5.8.1

> <Gold.Id.Protein>
6NUR|6NUR_protein|mol2

> <Gold.PLP.Fitness>
42.7214

> <Gold.PLP.PLP>
-38.1667

> <Gold.PLP.part.hbond>
-2.1114

> <Gold.PLP.part.metal>
0.0000

> <Gold.PLP.part.buried>
-3.8547

> <Gold.PLP.part.nonpolar>
-32.5080

> <Gold.PLP.part.repulsive>
0.3811

> <Gold.PLP.ligand.clash>
0.0000

> <Gold.PLP.ligand.torsion>
2.5541

> <Gold.PLP.Chemscore.Hbond>
1.9920

> <Gold.PLP.Chemscore.CHOScore>
0.9135

> <Gold.PLP.Chemscore.Metal>
0.0000

> <Gold.Chemscore.Hbonds>
donor molecule, donor type, donor heavy atom, donor atom, acceptor molecule, acceptor atom, score
      L1  H     9    45       P1 10957  1.00
      P1  H  7997  8008       L1    25  0.96
      L1  C    15    50       P1  7957  0.98

> <Gold.PLP.Chemscore.Internal.Correction>
0.9464

> <Gold.Rescore>
     Score         DG    S(hbond)    S(metal)    S(lipo)     H(rot)  DE(clash)    DE(int)     intcor
     10.61     -13.42       1.72        0.00      93.11       3.40       0.29       2.53       ----

> <Gold.Chemscore.Fitness>
10.6078

> <Gold.Chemscore.DG>
-13.4228

> <Gold.Chemscore.ZeroCoef>
-5.4800

> <Gold.Chemscore.Hbond>
1.7215

> <Gold.Chemscore.Metal>
0.0000

> <Gold.Chemscore.Lipo>
93.1061

> <Gold.Chemscore.Internal_Hbond>
0.0000

> <Gold.Chemscore.DEClash>
0.2887

> <Gold.Chemscore.DEInternal>
2.5263

> <Gold.Chemscore.Rot>
3.3986

> <Gold.Chemscore.Internal.Correction>
   9.000000E+99

> <Gold.Chemscore.Hbonds>
donor molecule, donor type, donor heavy atom, donor atom, acceptor molecule, acceptor atom, score
      L1  H     9    45       P1 10957  0.63
      P1  H  7989  7998       L1    16  0.01
      P1  H  7997  8008       L1    25  0.30

> <Gold.Chemscore.Hbond.Weighted>
-5.7498

> <Gold.Chemscore.Metal.Weighted>
-0.0000

> <Gold.Chemscore.Lipo.Weighted>
-10.8934

> <Gold.Chemscore.Internal_Hbond.Weighted>
0.0000

> <Gold.Chemscore.DEClash.Weighted>
0.2887

> <Gold.Chemscore.DEInternal.Weighted>
2.5263

> <Gold.Chemscore.Rot.Weighted>
8.7005

> <Gold.Chemscore.Internal.Correction.Weighted>
   9.000000E+99

> <Gold.Protein.RotatedTorsions>
[ 6907 6896 6895 6894 ] final  175.23 input  -60.11 | X-H torsion
[ 7974 7965 7964 7962 ] final   93.77 input  175.53 | X-H torsion
[ 8008 7997 7996 7995 ] final  -86.19 input   59.86 | X-H torsion
[ 10167 10162 10161 10158 ] final   16.87 input  -65.29 | X-H torsion
[ 10718 10713 10712 10709 ] final   59.60 input   66.30 | X-H torsion
[ 10763 10752 10751 10750 ] final -134.96 input  -60.55 | X-H torsion
[ 11005 11000 10999 10996 ] final  -56.76 input  -57.11 | X-H torsion

> <Gold.Protein.ActiveResidues>
 VAL166  LYS551  ARG553  GLY616  TRP617  ASP618  TYR619  PRO620  LYS621  CYS622 
 ASP623  PHE694  ASN695  SER759  ASP760  ASP761  ALA762  ILE779  LEU786  VAL792 
 PHE793  MET794  SER795  GLU796  ALA797  LYS798  CYS799  TRP800  GLU811  SER814 

> <Gold.Protein.RotatedAtoms>
  151.7395  133.3321  159.3361 H   0  0  0  0  0  0  0  0  0  0  0  0  # atno 6907 bound_to 6896
  150.7579  134.6291  159.6186 H   0  0  0  0  0  0  0  0  0  0  0  0  # atno 6908 bound_to 6896
  152.3540  134.6968  160.0279 H   0  0  0  0  0  0  0  0  0  0  0  0  # atno 6909 bound_to 6896
  145.4745  139.2280  143.2916 H   0  0  0  0  0  0  0  0  0  0  0  0  # atno 7974 bound_to 7965
  154.6491  140.0582  156.9934 H   0  0  0  0  0  0  0  0  0  0  0  0  # atno 8008 bound_to 7997
  155.1399  140.3264  155.4436 H   0  0  0  0  0  0  0  0  0  0  0  0  # atno 8009 bound_to 7997
  156.2567  140.1966  156.6515 H   0  0  0  0  0  0  0  0  0  0  0  0  # atno 8010 bound_to 7997
  140.5766  143.9060  150.6755 H   0  0  0  0  0  0  0  0  0  0  0  0  # atno 10167 bound_to 10162
  157.5688  130.8891  149.9232 H   0  0  0  0  0  0  0  0  0  0  0  0  # atno 10718 bound_to 10713
  154.8711  135.3718  154.4820 H   0  0  0  0  0  0  0  0  0  0  0  0  # atno 10763 bound_to 10752
  153.5473  135.7025  153.5613 H   0  0  0  0  0  0  0  0  0  0  0  0  # atno 10764 bound_to 10752
  153.3748  135.4012  155.1778 H   0  0  0  0  0  0  0  0  0  0  0  0  # atno 10765 bound_to 10752
  141.1134  133.6610  156.4667 H   0  0  0  0  0  0  0  0  0  0  0  0  # atno 11005 bound_to 11000
  146.2377  140.5526  142.8947 LP  0  0  0  0  0  0  0  0  0  0  0  0  # atno 17320 bound_to 7965
  144.7925  140.6060  143.6532 LP  0  0  0  0  0  0  0  0  0  0  0  0  # atno 17321 bound_to 7965
  140.2549  143.3566  152.1374 LP  0  0  0  0  0  0  0  0  0  0  0  0  # atno 17342 bound_to 10162
  139.5146  144.6951  151.5653 LP  0  0  0  0  0  0  0  0  0  0  0  0  # atno 17343 bound_to 10162
  156.0735  130.3682  150.0727 LP  0  0  0  0  0  0  0  0  0  0  0  0  # atno 17370 bound_to 10713
  156.8882  130.9579  151.3591 LP  0  0  0  0  0  0  0  0  0  0  0  0  # atno 17371 bound_to 10713
  140.4712  134.6752  157.5130 LP  0  0  0  0  0  0  0  0  0  0  0  0  # atno 17394 bound_to 11000
  140.0042  134.6790  155.9482 LP  0  0  0  0  0  0  0  0  0  0  0  0  # atno 17395 bound_to 11000

$$$$
