AV-unprocessed.smi:160|AV-procd|sdf|1361|dock3
  -GOLD-   2262019 73D 1   1.00000     0.00000
 Structure written by MMmdl.
 28 29  0  0  0  0  0  0  0  0  2 V2000
  155.3689  138.9640  158.6189 N   0  5  0  0  0  0  0  0  0  0  0  0
  154.1890  139.0899  159.2648 C   0  0  0  0  0  0  0  0  0  0  0  0
  154.0240  139.0962  160.4844 O   0  0  0  0  0  0  0  0  0  0  0  0
  152.9908  139.2375  158.3572 C   0  0  0  0  0  0  0  0  0  0  0  0
  151.7551  139.5158  158.8730 N   0  0  0  0  0  0  0  0  0  0  0  0
  151.0584  139.5540  157.7451 C   0  0  0  0  0  0  0  0  0  0  0  0
  151.7832  139.3406  156.6431 N   0  0  0  0  0  0  0  0  0  0  0  0
  151.3424  139.2753  155.2119 C   0  0  2  0  0  0  0  0  0  0  0  0
  150.7456  140.4970  154.8952 O   0  0  0  0  0  0  0  0  0  0  0  0
  149.3292  140.3788  154.9818 C   0  0  1  0  0  0  0  0  0  0  0  0
  148.6266  141.5174  154.2207 C   0  0  0  0  0  0  0  0  0  0  0  0
  147.8162  142.2651  155.1021 O   0  0  0  0  0  0  0  0  0  0  0  0
  149.0922  138.9657  154.4309 C   0  0  1  0  0  0  0  0  0  0  0  0
  149.0678  138.9820  153.0119 O   0  0  0  0  0  0  0  0  0  0  0  0
  150.2807  138.1786  154.9885 C   0  0  1  0  0  0  0  0  0  0  0  0
  150.7143  137.1530  154.1133 O   0  0  0  0  0  0  0  0  0  0  0  0
  153.0633  139.1096  157.0289 N   0  0  0  0  0  0  0  0  0  0  0  0
  152.2618  139.1344  154.6420 H   0  0  0  0  0  0  0  0  0  0  0  0
  149.0258  140.3948  156.0298 H   0  0  0  0  0  0  0  0  0  0  0  0
  148.1439  138.5542  154.7781 H   0  0  0  0  0  0  0  0  0  0  0  0
  150.0044  137.7206  155.9386 H   0  0  0  0  0  0  0  0  0  0  0  0
  156.2130  138.7800  159.1743 H   0  0  0  0  0  0  0  0  0  0  0  0
  149.9952  139.7428  157.7221 H   0  0  0  0  0  0  0  0  0  0  0  0
  149.3464  142.1705  153.7259 H   0  0  0  0  0  0  0  0  0  0  0  0
  147.9746  141.1061  153.4497 H   0  0  0  0  0  0  0  0  0  0  0  0
  148.1432  143.1509  155.1328 H   0  0  0  0  0  0  0  0  0  0  0  0
  149.0140  138.0888  152.7078 H   0  0  0  0  0  0  0  0  0  0  0  0
  150.0098  136.9529  153.5161 H   0  0  0  0  0  0  0  0  0  0  0  0
  1  2  1  0  0  0  0
  1 22  1  0  0  0  0
  2  3  2  0  0  0  0
  2  4  1  0  0  0  0
  4 17  2  0  0  0  0
  4  5  1  0  0  0  0
  5  6  2  0  0  0  0
  6  7  1  0  0  0  0
  6 23  1  0  0  0  0
  7  8  1  0  0  0  0
  7 17  1  0  0  0  0
  8 18  1  0  0  0  0
  8 15  1  0  0  0  0
  8  9  1  0  0  0  0
  9 10  1  0  0  0  0
 10 19  1  0  0  0  0
 10 11  1  0  0  0  0
 10 13  1  0  0  0  0
 11 12  1  0  0  0  0
 11 24  1  0  0  0  0
 11 25  1  0  0  0  0
 12 26  1  0  0  0  0
 13 20  1  0  0  0  0
 13 14  1  0  0  0  0
 13 15  1  0  0  0  0
 14 27  1  0  0  0  0
 15 21  1  0  0  0  0
 15 16  1  0  0  0  0
 16 28  1  0  0  0  0
M  CHG  1   1  -1
M  END
> <s_m_source_file>
AV-unprocessed.smi

> <i_m_source_file_index>
160

> <i_lp_mmshare_version>
43012

> <i_f3d_flags>
0

> <s_epik_input>
W05IMl1DKD1PKWMxbltjSF1uKG4xKVtDQEBIXTJPW0NASF0oW0NIMl1bT0hdKVtDQEBIXShbT0hdKVtDQEhdMltPSF0=

> <s_epik_cmdline>
J2VwaWtfcHl0aG9uJywgJy1waCcsICc3LjAnLCAnLXRuJywgJzgnLCAnLW1hJywgJzIwMCcsICctbWV0YWxfYmluZGluZycsICctaW1hZScsICc8aW5maWxlLm1hZT4nLCAnLW9tYWUnLCAnPG91dGZpbGUubWFlPic=

> <r_lp_tautomer_probability>
1

> <r_epik_Ionization_Penalty>
6.6993

> <r_epik_Ionization_Penalty_Charging>
6.6993

> <r_epik_Ionization_Penalty_Neutral>
6.01698e-06

> <r_epik_State_Penalty>
6.69929

> <r_epik_Charging_Adjusted_Penalty>
13.3986

> <i_epik_Tot_Q>
-1

> <i_epik_Tot_abs_Q>
1

> <r_epik_Metal_State_Penalty>
2.62798

> <b_epik_Metal_Only>
1

> <s_epik_Chemistry_Notes>
This compound contains an acetal/aminal-like group ( X-CH(R)-Y where X, Y are N, S, or O) that may be acid/base labile, releasing an aldehyde.

> <s_lp_Force_Field>
OPLS_2005

> <r_lp_Energy>
44.8838

> <b_lp_Chiralities_Consistent>
1

> <s_lp_Variant>
AV-unprocessed.smi:160-19

> <Gold.Version>
5.8.1

> <Gold.Id.Protein>
6NUR|6NUR_protein|mol2

> <Gold.PLP.Fitness>
45.0225

> <Gold.PLP.PLP>
-26.3039

> <Gold.PLP.part.hbond>
-6.8087

> <Gold.PLP.part.metal>
0.0000

> <Gold.PLP.part.buried>
-1.9467

> <Gold.PLP.part.nonpolar>
-15.8100

> <Gold.PLP.part.repulsive>
0.0768

> <Gold.PLP.ligand.clash>
0.0000

> <Gold.PLP.ligand.torsion>
0.7806

> <Gold.PLP.Chemscore.Hbond>
6.7520

> <Gold.PLP.Chemscore.CHOScore>
0.0000

> <Gold.PLP.Chemscore.Metal>
0.0000

> <Gold.Chemscore.Hbonds>
donor molecule, donor type, donor heavy atom, donor atom, acceptor molecule, acceptor atom, score
      L1  H    12    26       P1  8028  1.00
      L1  H    14    27       P1  7948  1.00
      L1  H    16    28       P1  7948  0.96
      P1  H  7989  7998       L1     9  1.00
      P1  H  7997  8008       L1     1  1.98
      P1  H  7997  8009       L1    17  0.74

> <Gold.PLP.Chemscore.Internal.Correction>
0.0238

> <Gold.Rescore>
     Score         DG    S(hbond)    S(metal)    S(lipo)     H(rot)  DE(clash)    DE(int)     intcor
     12.36     -13.26       4.58        0.00      24.10       4.04       0.08       0.81       ----

> <Gold.Chemscore.Fitness>
12.3603

> <Gold.Chemscore.DG>
-13.2562

> <Gold.Chemscore.ZeroCoef>
-5.4800

> <Gold.Chemscore.Hbond>
4.5808

> <Gold.Chemscore.Metal>
0.0000

> <Gold.Chemscore.Lipo>
24.0990

> <Gold.Chemscore.Internal_Hbond>
0.0000

> <Gold.Chemscore.DEClash>
0.0811

> <Gold.Chemscore.DEInternal>
0.8149

> <Gold.Chemscore.Rot>
4.0403

> <Gold.Chemscore.Internal.Correction>
   9.000000E+99

> <Gold.Chemscore.Hbonds>
donor molecule, donor type, donor heavy atom, donor atom, acceptor molecule, acceptor atom, score
      L1  H    12    26       P1  8028  0.94
      L1  H    14    27       P1  7948  0.95
      L1  H    16    28       P1  7948  0.23
      P1  H  7989  7998       L1     9  0.25
      P1  H  7997  8008       L1     1  0.76
      P1  H  7997  8009       L1    17  0.62

> <Gold.Chemscore.Hbond.Weighted>
-15.2997

> <Gold.Chemscore.Metal.Weighted>
-0.0000

> <Gold.Chemscore.Lipo.Weighted>
-2.8196

> <Gold.Chemscore.Internal_Hbond.Weighted>
0.0000

> <Gold.Chemscore.DEClash.Weighted>
0.0811

> <Gold.Chemscore.DEInternal.Weighted>
0.8149

> <Gold.Chemscore.Rot.Weighted>
10.3431

> <Gold.Chemscore.Internal.Correction.Weighted>
   9.000000E+99

> <Gold.Protein.RotatedTorsions>
[ 6907 6896 6895 6894 ] final  -31.43 input  -60.11 | X-H torsion
[ 7974 7965 7964 7962 ] final   24.06 input  175.53 | X-H torsion
[ 8008 7997 7996 7995 ] final -152.59 input   59.86 | X-H torsion
[ 10167 10162 10161 10158 ] final -124.47 input  -65.29 | X-H torsion
[ 10718 10713 10712 10709 ] final   74.59 input   66.30 | X-H torsion
[ 10763 10752 10751 10750 ] final  163.15 input  -60.55 | X-H torsion
[ 11005 11000 10999 10996 ] final   36.19 input  -57.11 | X-H torsion

> <Gold.Protein.ActiveResidues>
 VAL166  LYS551  ARG553  GLY616  TRP617  ASP618  TYR619  PRO620  LYS621  CYS622 
 ASP623  PHE694  ASN695  SER759  ASP760  ASP761  ALA762  ILE779  LEU786  VAL792 
 PHE793  MET794  SER795  GLU796  ALA797  LYS798  CYS799  TRP800  GLU811  SER814 

> <Gold.Protein.RotatedAtoms>
  151.0921  134.9922  159.8407 H   0  0  0  0  0  0  0  0  0  0  0  0  # atno 6907 bound_to 6896
  152.5430  134.2052  159.8738 H   0  0  0  0  0  0  0  0  0  0  0  0  # atno 6908 bound_to 6896
  151.2089  133.4523  159.2631 H   0  0  0  0  0  0  0  0  0  0  0  0  # atno 6909 bound_to 6896
  146.1955  139.7657  142.8800 H   0  0  0  0  0  0  0  0  0  0  0  0  # atno 7974 bound_to 7965
  155.6575  140.0719  157.2565 H   0  0  0  0  0  0  0  0  0  0  0  0  # atno 8008 bound_to 7997
  154.4149  140.1722  156.1791 H   0  0  0  0  0  0  0  0  0  0  0  0  # atno 8009 bound_to 7997
  155.9725  140.3361  155.6591 H   0  0  0  0  0  0  0  0  0  0  0  0  # atno 8010 bound_to 7997
  139.9924  143.5626  152.2336 H   0  0  0  0  0  0  0  0  0  0  0  0  # atno 10167 bound_to 10162
  157.6599  130.9685  150.1233 H   0  0  0  0  0  0  0  0  0  0  0  0  # atno 10718 bound_to 10713
  154.2893  135.2761  155.2662 H   0  0  0  0  0  0  0  0  0  0  0  0  # atno 10763 bound_to 10752
  154.5148  135.5772  153.6637 H   0  0  0  0  0  0  0  0  0  0  0  0  # atno 10764 bound_to 10752
  152.9917  135.6190  154.3056 H   0  0  0  0  0  0  0  0  0  0  0  0  # atno 10765 bound_to 10752
  140.2350  134.3482  155.7948 H   0  0  0  0  0  0  0  0  0  0  0  0  # atno 11005 bound_to 11000
  145.3656  141.0334  143.3260 LP  0  0  0  0  0  0  0  0  0  0  0  0  # atno 17320 bound_to 7965
  144.8572  139.5231  143.6829 LP  0  0  0  0  0  0  0  0  0  0  0  0  # atno 17321 bound_to 7965
  139.6330  144.7646  151.2496 LP  0  0  0  0  0  0  0  0  0  0  0  0  # atno 17342 bound_to 10162
  140.7449  143.6447  150.8303 LP  0  0  0  0  0  0  0  0  0  0  0  0  # atno 17343 bound_to 10162
  156.2099  130.3666  149.8683 LP  0  0  0  0  0  0  0  0  0  0  0  0  # atno 17370 bound_to 10713
  156.6565  130.8765  151.3540 LP  0  0  0  0  0  0  0  0  0  0  0  0  # atno 17371 bound_to 10713
  141.2215  133.7267  156.8794 LP  0  0  0  0  0  0  0  0  0  0  0  0  # atno 17394 bound_to 11000
  140.1711  134.9099  157.2834 LP  0  0  0  0  0  0  0  0  0  0  0  0  # atno 17395 bound_to 11000

$$$$
