AV-unprocessed.smi:1865|AV-procd|sdf|7555|dock5
  -GOLD-   22720 9273D 1   1.00000     0.00000
 Structure written by MMmdl.
 41 42  0  0  0  0  0  0  0  0  2 V2000
  151.0588  140.5937  155.4427 O   0  0  0  0  0  0  0  0  0  0  0  0
  150.4047  141.6113  155.6727 C   0  0  0  0  0  0  0  0  0  0  0  0
  150.9018  142.6438  156.6891 C   0  0  0  0  0  0  0  0  0  0  0  0
  151.6112  142.0058  157.8988 C   0  0  0  0  0  0  0  0  0  0  0  0
  151.4806  142.8427  159.1841 C   0  0  0  0  0  0  0  0  0  0  0  0
  151.8705  144.3105  158.9984 C   0  0  0  0  0  0  0  0  0  0  0  0
  152.1140  144.8288  160.4180 C   0  0  0  0  0  0  0  0  0  0  0  0
  152.5444  143.6093  161.2464 C   0  0  0  0  0  0  0  0  0  0  0  0
  152.3879  142.3866  160.3326 C   0  0  0  0  0  0  0  0  0  0  0  0
  149.2339  141.8809  155.0748 N   0  0  0  0  0  0  0  0  0  0  0  0
  148.5713  141.0166  154.1051 C   0  0  0  0  0  0  0  0  0  0  0  0
  147.5045  141.7747  153.2975 C   0  0  0  0  0  0  0  0  0  0  0  0
  146.4620  142.4151  154.1930 C   0  0  0  0  0  0  0  0  0  0  0  0
  145.7280  143.5395  153.7549 C   0  0  0  0  0  0  0  0  0  0  0  0
  144.7692  144.1164  154.6137 C   0  0  0  0  0  0  0  0  0  0  0  0
  144.5663  143.5558  155.8916 C   0  0  0  0  0  0  0  0  0  0  0  0
  145.2880  142.4802  156.2763 N   0  3  0  0  0  0  0  0  0  0  0  0
  146.2150  141.8987  155.4837 C   0  0  0  0  0  0  0  0  0  0  0  0
  151.5804  143.3408  156.1948 H   0  0  0  0  0  0  0  0  0  0  0  0
  150.0428  143.2269  157.0221 H   0  0  0  0  0  0  0  0  0  0  0  0
  151.2199  141.0031  158.0777 H   0  0  0  0  0  0  0  0  0  0  0  0
  152.6700  141.8822  157.6659 H   0  0  0  0  0  0  0  0  0  0  0  0
  150.4452  142.8118  159.5276 H   0  0  0  0  0  0  0  0  0  0  0  0
  152.7941  144.3810  158.4218 H   0  0  0  0  0  0  0  0  0  0  0  0
  151.1072  144.8838  158.4715 H   0  0  0  0  0  0  0  0  0  0  0  0
  152.8586  145.6250  160.4370 H   0  0  0  0  0  0  0  0  0  0  0  0
  151.1882  145.2374  160.8248 H   0  0  0  0  0  0  0  0  0  0  0  0
  153.5740  143.7041  161.5934 H   0  0  0  0  0  0  0  0  0  0  0  0
  151.9112  143.5142  162.1293 H   0  0  0  0  0  0  0  0  0  0  0  0
  151.9851  141.5238  160.8641 H   0  0  0  0  0  0  0  0  0  0  0  0
  153.3661  142.1027  159.9419 H   0  0  0  0  0  0  0  0  0  0  0  0
  148.7609  142.7379  155.3230 H   0  0  0  0  0  0  0  0  0  0  0  0
  149.3135  140.5730  153.4390 H   0  0  0  0  0  0  0  0  0  0  0  0
  148.1093  140.1915  154.6480 H   0  0  0  0  0  0  0  0  0  0  0  0
  147.9750  142.5459  152.6857 H   0  0  0  0  0  0  0  0  0  0  0  0
  147.0007  141.0992  152.6047 H   0  0  0  0  0  0  0  0  0  0  0  0
  145.8979  143.9582  152.7735 H   0  0  0  0  0  0  0  0  0  0  0  0
  144.1985  144.9771  154.2968 H   0  0  0  0  0  0  0  0  0  0  0  0
  143.8552  143.9329  156.6121 H   0  0  0  0  0  0  0  0  0  0  0  0
  146.7288  141.0462  155.9039 H   0  0  0  0  0  0  0  0  0  0  0  0
  145.1264  142.0908  157.2056 H   0  0  0  0  0  0  0  0  0  0  0  0
  1  2  2  0  0  0  0
  2  3  1  0  0  0  0
  2 10  1  0  0  0  0
  3  4  1  0  0  0  0
  3 19  1  0  0  0  0
  3 20  1  0  0  0  0
  4  5  1  0  0  0  0
  4 21  1  0  0  0  0
  4 22  1  0  0  0  0
  5  9  1  0  0  0  0
  5  6  1  0  0  0  0
  5 23  1  0  0  0  0
  6  7  1  0  0  0  0
  6 24  1  0  0  0  0
  6 25  1  0  0  0  0
  7  8  1  0  0  0  0
  7 26  1  0  0  0  0
  7 27  1  0  0  0  0
  8  9  1  0  0  0  0
  8 28  1  0  0  0  0
  8 29  1  0  0  0  0
  9 30  1  0  0  0  0
  9 31  1  0  0  0  0
 10 11  1  0  0  0  0
 10 32  1  0  0  0  0
 11 12  1  0  0  0  0
 11 33  1  0  0  0  0
 11 34  1  0  0  0  0
 12 13  1  0  0  0  0
 12 35  1  0  0  0  0
 12 36  1  0  0  0  0
 13 18  1  0  0  0  0
 13 14  2  0  0  0  0
 14 15  1  0  0  0  0
 14 37  1  0  0  0  0
 15 16  2  0  0  0  0
 15 38  1  0  0  0  0
 16 17  1  0  0  0  0
 16 39  1  0  0  0  0
 17 18  2  0  0  0  0
 17 41  1  0  0  0  0
 18 40  1  0  0  0  0
M  CHG  1  17   1
M  END
> <s_m_source_file>
AV-unprocessed.smi

> <i_m_source_file_index>
1865

> <i_lp_mmshare_version>
43012

> <i_f3d_flags>
0

> <s_epik_input>
W0NIMl0xW0NIMl1bQ0gyXVtDSDJdW0NIXTFbQ0gyXVtDSDJdQyg9TylbTkhdW0NIMl1bQ0gyXWMyW2NIXVtjSF1bY0hdbltjSF0y

> <s_epik_cmdline>
J2VwaWtfcHl0aG9uJywgJy1waCcsICc3LjAnLCAnLXRuJywgJzgnLCAnLW1hJywgJzIwMCcsICctbWV0YWxfYmluZGluZycsICctaW1hZScsICc8aW5maWxlLm1hZT4nLCAnLW9tYWUnLCAnPG91dGZpbGUubWFlPic=

> <r_epik_Ionization_Penalty>
2.25234

> <r_epik_Ionization_Penalty_Charging>
2.25234

> <r_epik_Ionization_Penalty_Neutral>
2.26352e-08

> <r_epik_State_Penalty>
2.39956

> <r_epik_Charging_Adjusted_Penalty>
4.6519

> <i_epik_Tot_Q>
1

> <i_epik_Tot_abs_Q>
1

> <r_epik_Metal_State_Penalty>
2.41271

> <b_epik_Metal_Only>
0

> <s_lp_Force_Field>
OPLS_2005

> <r_lp_Energy>
27.3415

> <b_lp_Chiralities_Consistent>
1

> <s_lp_Variant>
AV-unprocessed.smi:1865-2

> <Gold.Version>
5.8.1

> <Gold.Id.Protein>
6NUR|6NUR_protein|mol2

> <Gold.PLP.Fitness>
47.3494

> <Gold.PLP.PLP>
-43.8996

> <Gold.PLP.part.hbond>
-2.0000

> <Gold.PLP.part.metal>
0.0000

> <Gold.PLP.part.buried>
-5.0133

> <Gold.PLP.part.nonpolar>
-35.7401

> <Gold.PLP.part.repulsive>
0.2308

> <Gold.PLP.ligand.clash>
0.0000

> <Gold.PLP.ligand.torsion>
1.0277

> <Gold.PLP.Chemscore.Hbond>
1.8163

> <Gold.PLP.Chemscore.CHOScore>
0.0000

> <Gold.PLP.Chemscore.Metal>
0.0000

> <Gold.Chemscore.Hbonds>
donor molecule, donor type, donor heavy atom, donor atom, acceptor molecule, acceptor atom, score
      L1  H    10    32       P1  8028  0.98
      P1  H  7989  7998       L1     1  0.86

> <Gold.PLP.Chemscore.Internal.Correction>
0.0563

> <Gold.Rescore>
     Score         DG    S(hbond)    S(metal)    S(lipo)     H(rot)  DE(clash)    DE(int)     intcor
     16.89     -18.53       1.36        0.00     109.68       1.69       0.68       0.96       ----

> <Gold.Chemscore.Fitness>
16.8879

> <Gold.Chemscore.DG>
-18.5346

> <Gold.Chemscore.ZeroCoef>
-5.4800

> <Gold.Chemscore.Hbond>
1.3594

> <Gold.Chemscore.Metal>
0.0000

> <Gold.Chemscore.Lipo>
109.6796

> <Gold.Chemscore.Internal_Hbond>
0.0000

> <Gold.Chemscore.DEClash>
0.6828

> <Gold.Chemscore.DEInternal>
0.9639

> <Gold.Chemscore.Rot>
1.6868

> <Gold.Chemscore.Internal.Correction>
   9.000000E+99

> <Gold.Chemscore.Hbonds>
donor molecule, donor type, donor heavy atom, donor atom, acceptor molecule, acceptor atom, score
      L1  H    10    32       P1  8028  0.89
      P1  H  7989  7998       L1     1  0.28

> <Gold.Chemscore.Hbond.Weighted>
-4.5404

> <Gold.Chemscore.Metal.Weighted>
-0.0000

> <Gold.Chemscore.Lipo.Weighted>
-12.8325

> <Gold.Chemscore.Internal_Hbond.Weighted>
0.0000

> <Gold.Chemscore.DEClash.Weighted>
0.6828

> <Gold.Chemscore.DEInternal.Weighted>
0.9639

> <Gold.Chemscore.Rot.Weighted>
4.3183

> <Gold.Chemscore.Internal.Correction.Weighted>
   9.000000E+99

> <Gold.Protein.RotatedTorsions>
[ 6907 6896 6895 6894 ] final  -52.20 input  -60.11 | X-H torsion
[ 7974 7965 7964 7962 ] final -127.23 input  175.53 | X-H torsion
[ 8008 7997 7996 7995 ] final -143.92 input   59.86 | X-H torsion
[ 10167 10162 10161 10158 ] final -168.14 input  -65.29 | X-H torsion
[ 10718 10713 10712 10709 ] final   83.10 input   66.30 | X-H torsion
[ 10763 10752 10751 10750 ] final   23.31 input  -60.55 | X-H torsion
[ 11005 11000 10999 10996 ] final  172.91 input  -57.11 | X-H torsion

> <Gold.Protein.ActiveResidues>
 VAL166  LYS551  ARG553  GLY616  TRP617  ASP618  TYR619  PRO620  LYS621  CYS622 
 ASP623  PHE694  ASN695  SER759  ASP760  ASP761  ALA762  ILE779  LEU786  VAL792 
 PHE793  MET794  SER795  GLU796  ALA797  LYS798  CYS799  TRP800  GLU811  SER814 

> <Gold.Protein.RotatedAtoms>
  150.8540  134.7873  159.7030 H   0  0  0  0  0  0  0  0  0  0  0  0  # atno 6907 bound_to 6896
  152.4597  134.5209  159.9792 H   0  0  0  0  0  0  0  0  0  0  0  0  # atno 6908 bound_to 6896
  151.5325  133.3408  159.2956 H   0  0  0  0  0  0  0  0  0  0  0  0  # atno 6909 bound_to 6896
  144.9792  140.7623  143.4623 H   0  0  0  0  0  0  0  0  0  0  0  0  # atno 7974 bound_to 7965
  155.5185  140.0589  157.2911 H   0  0  0  0  0  0  0  0  0  0  0  0  # atno 8008 bound_to 7997
  154.4526  140.1956  156.0420 H   0  0  0  0  0  0  0  0  0  0  0  0  # atno 8009 bound_to 7997
  156.0735  140.3257  155.7609 H   0  0  0  0  0  0  0  0  0  0  0  0  # atno 8010 bound_to 7997
  139.6004  144.1023  152.1736 H   0  0  0  0  0  0  0  0  0  0  0  0  # atno 10167 bound_to 10162
  157.6872  131.0076  150.2473 H   0  0  0  0  0  0  0  0  0  0  0  0  # atno 10718 bound_to 10713
  153.0848  135.6629  153.9971 H   0  0  0  0  0  0  0  0  0  0  0  0  # atno 10763 bound_to 10752
  153.9584  135.2976  155.3436 H   0  0  0  0  0  0  0  0  0  0  0  0  # atno 10764 bound_to 10752
  154.7254  135.5146  153.8950 H   0  0  0  0  0  0  0  0  0  0  0  0  # atno 10765 bound_to 10752
  140.3348  134.7326  157.4160 H   0  0  0  0  0  0  0  0  0  0  0  0  # atno 11005 bound_to 11000
  145.2446  139.2058  143.4974 LP  0  0  0  0  0  0  0  0  0  0  0  0  # atno 17320 bound_to 7965
  146.3403  140.2348  142.8594 LP  0  0  0  0  0  0  0  0  0  0  0  0  # atno 17321 bound_to 7965
  140.0618  144.5851  150.7257 LP  0  0  0  0  0  0  0  0  0  0  0  0  # atno 17342 bound_to 10162
  140.7245  143.2622  151.4167 LP  0  0  0  0  0  0  0  0  0  0  0  0  # atno 17343 bound_to 10162
  156.3076  130.3767  149.7691 LP  0  0  0  0  0  0  0  0  0  0  0  0  # atno 17370 bound_to 10713
  156.5302  130.8254  151.3234 LP  0  0  0  0  0  0  0  0  0  0  0  0  # atno 17371 bound_to 10713
  140.0830  134.5705  155.8521 LP  0  0  0  0  0  0  0  0  0  0  0  0  # atno 17394 bound_to 11000
  141.2054  133.6646  156.6178 LP  0  0  0  0  0  0  0  0  0  0  0  0  # atno 17395 bound_to 11000

$$$$
