AV-unprocessed.smi:2124|AV-procd|sdf|8669|dock4
  -GOLD-   2272011423D 1   1.00000     0.00000
 Structure written by MMmdl.
 46 48  0  0  0  0  0  0  0  0  2 V2000
  152.4344  138.2419  159.1072 C   0  0  0  0  0  0  0  0  0  0  0  0
  151.8098  137.4696  157.9651 C   0  0  0  0  0  0  0  0  0  0  0  0
  151.8799  137.9430  156.7797 N   0  0  0  0  0  0  0  0  0  0  0  0
  151.3040  137.2292  155.7150 C   0  0  0  0  0  0  0  0  0  0  0  0
  151.4371  137.8643  154.3418 C   0  0  0  0  0  0  0  0  0  0  0  0
  150.6706  136.0396  155.9237 C   0  0  0  0  0  0  0  0  0  0  0  0
  150.0320  135.2224  154.8006 C   0  0  0  0  0  0  0  0  0  0  0  0
  148.5214  134.9933  154.8979 C   0  0  0  0  0  0  0  0  0  0  0  0
  148.0316  134.4378  155.8815 O   0  0  0  0  0  0  0  0  0  0  0  0
  147.7979  135.4428  153.8586 N   0  0  0  0  0  0  0  0  0  0  0  0
  146.3424  135.3876  153.6921 C   0  0  1  0  0  0  0  0  0  0  0  0
  145.7822  136.7837  153.3547 C   0  0  0  0  0  0  0  0  0  0  0  0
  145.9074  134.2896  152.6825 C   0  0  1  0  0  0  0  0  0  0  0  0
  144.3723  134.1113  152.5648 C   0  0  0  0  0  0  0  0  0  0  0  0
  144.1146  134.2350  151.0530 C   0  0  2  0  0  0  0  0  0  0  0  0
  144.6983  133.0101  150.3260 C   0  0  0  0  0  0  0  0  0  0  0  0
  146.2156  133.2601  150.4075 C   0  0  0  0  0  0  0  0  0  0  0  0
  146.3013  134.5726  151.2103 C   0  0  1  0  0  0  0  0  0  0  0  0
  145.0953  135.3340  150.6687 C   0  0  0  0  0  0  0  0  0  0  0  0
  150.6062  135.5318  157.3056 C   0  0  0  0  0  0  0  0  0  0  0  0
  150.0332  134.4710  157.5512 O   0  0  0  0  0  0  0  0  0  0  0  0
  151.1964  136.2785  158.2823 N   0  5  0  0  0  0  0  0  0  0  0  0
  152.6714  139.2634  158.8061 H   0  0  0  0  0  0  0  0  0  0  0  0
  153.3553  137.7557  159.4294 H   0  0  0  0  0  0  0  0  0  0  0  0
  151.7517  138.2886  159.9563 H   0  0  0  0  0  0  0  0  0  0  0  0
  152.0563  137.2442  153.6939 H   0  0  0  0  0  0  0  0  0  0  0  0
  151.9009  138.8492  154.4062 H   0  0  0  0  0  0  0  0  0  0  0  0
  150.4592  137.9865  153.8763 H   0  0  0  0  0  0  0  0  0  0  0  0
  150.2303  135.7263  153.8544 H   0  0  0  0  0  0  0  0  0  0  0  0
  150.5246  134.2541  154.7058 H   0  0  0  0  0  0  0  0  0  0  0  0
  148.3092  135.8792  153.1053 H   0  0  0  0  0  0  0  0  0  0  0  0
  145.9575  135.1153  154.6751 H   0  0  0  0  0  0  0  0  0  0  0  0
  144.6959  136.8098  153.4287 H   0  0  0  0  0  0  0  0  0  0  0  0
  146.0493  137.0932  152.3440 H   0  0  0  0  0  0  0  0  0  0  0  0
  146.1664  137.5362  154.0440 H   0  0  0  0  0  0  0  0  0  0  0  0
  146.3562  133.3449  152.9925 H   0  0  0  0  0  0  0  0  0  0  0  0
  144.0348  133.1565  152.9694 H   0  0  0  0  0  0  0  0  0  0  0  0
  143.8343  134.8995  153.0925 H   0  0  0  0  0  0  0  0  0  0  0  0
  143.0729  134.4380  150.8027 H   0  0  0  0  0  0  0  0  0  0  0  0
  144.4049  132.0721  150.7986 H   0  0  0  0  0  0  0  0  0  0  0  0
  144.3700  132.9795  149.2864 H   0  0  0  0  0  0  0  0  0  0  0  0
  146.7500  132.4387  150.8863 H   0  0  0  0  0  0  0  0  0  0  0  0
  146.6350  133.3907  149.4090 H   0  0  0  0  0  0  0  0  0  0  0  0
  147.2553  135.0822  151.0816 H   0  0  0  0  0  0  0  0  0  0  0  0
  145.1437  135.5135  149.5931 H   0  0  0  0  0  0  0  0  0  0  0  0
  144.9090  136.2800  151.1794 H   0  0  0  0  0  0  0  0  0  0  0  0
  1  2  1  0  0  0  0
  1 23  1  0  0  0  0
  1 24  1  0  0  0  0
  1 25  1  0  0  0  0
  2 22  1  0  0  0  0
  2  3  2  0  0  0  0
  3  4  1  0  0  0  0
  4  5  1  0  0  0  0
  4  6  2  0  0  0  0
  5 26  1  0  0  0  0
  5 27  1  0  0  0  0
  5 28  1  0  0  0  0
  6  7  1  0  0  0  0
  6 20  1  0  0  0  0
  7  8  1  0  0  0  0
  7 29  1  0  0  0  0
  7 30  1  0  0  0  0
  8  9  2  0  0  0  0
  8 10  1  0  0  0  0
 10 11  1  0  0  0  0
 10 31  1  0  0  0  0
 11 12  1  0  0  0  0
 11 13  1  0  0  0  0
 11 32  1  0  0  0  0
 12 33  1  0  0  0  0
 12 34  1  0  0  0  0
 12 35  1  0  0  0  0
 13 18  1  0  0  0  0
 13 14  1  0  0  0  0
 13 36  1  0  0  0  0
 14 15  1  0  0  0  0
 14 37  1  0  0  0  0
 14 38  1  0  0  0  0
 15 19  1  0  0  0  0
 15 16  1  0  0  0  0
 15 39  1  0  0  0  0
 16 17  1  0  0  0  0
 16 40  1  0  0  0  0
 16 41  1  0  0  0  0
 17 18  1  0  0  0  0
 17 42  1  0  0  0  0
 17 43  1  0  0  0  0
 18 19  1  0  0  0  0
 18 44  1  0  0  0  0
 19 45  1  0  0  0  0
 19 46  1  0  0  0  0
 20 21  2  0  0  0  0
 20 22  1  0  0  0  0
M  CHG  1  22  -1
M  END
> <s_m_source_file>
AV-unprocessed.smi

> <i_m_source_file_index>
2124

> <i_lp_mmshare_version>
43012

> <i_f3d_flags>
0

> <s_epik_input>
W0NIM11jMW5jKFtDSDNdKWMoYyg9TylbbkhdMSlbQ0gyXUMoPU8pW05IXVtDQEhdKFtDSDNdKVtDQEhdKFtDSDJdW0NASF0yMylbQ0BIXShbQ0gyXTMpW0NIMl1bQ0gyXTI=

> <s_epik_cmdline>
J2VwaWtfcHl0aG9uJywgJy1waCcsICc3LjAnLCAnLXRuJywgJzgnLCAnLW1hJywgJzIwMCcsICctbWV0YWxfYmluZGluZycsICctaW1hZScsICc8aW5maWxlLm1hZT4nLCAnLW9tYWUnLCAnPG91dGZpbGUubWFlPic=

> <r_lp_tautomer_probability>
0.839158

> <r_epik_Ionization_Penalty>
6.63797

> <r_epik_Ionization_Penalty_Charging>
7.48558e-08

> <r_epik_Ionization_Penalty_Neutral>
6.63797

> <r_epik_State_Penalty>
4.49496

> <r_epik_Charging_Adjusted_Penalty>
4.49496

> <i_epik_Tot_Q>
-1

> <i_epik_Tot_abs_Q>
1

> <r_epik_Metal_State_Penalty>
0.841241

> <b_epik_Metal_Only>
1

> <s_lp_Force_Field>
OPLS_2005

> <r_lp_Energy>
56.2785

> <b_lp_Chiralities_Consistent>
1

> <s_lp_Variant>
AV-unprocessed.smi:2124-20

> <Gold.Version>
5.8.1

> <Gold.Id.Protein>
6NUR|6NUR_protein|mol2

> <Gold.PLP.Fitness>
37.3749

> <Gold.PLP.PLP>
-29.0660

> <Gold.PLP.part.hbond>
-3.0000

> <Gold.PLP.part.metal>
0.0000

> <Gold.PLP.part.buried>
-3.5221

> <Gold.PLP.part.nonpolar>
-23.4325

> <Gold.PLP.part.repulsive>
0.0175

> <Gold.PLP.ligand.clash>
0.0000

> <Gold.PLP.ligand.torsion>
0.1580

> <Gold.PLP.Chemscore.Hbond>
2.8560

> <Gold.PLP.Chemscore.CHOScore>
0.0000

> <Gold.PLP.Chemscore.Metal>
0.0000

> <Gold.Chemscore.Hbonds>
donor molecule, donor type, donor heavy atom, donor atom, acceptor molecule, acceptor atom, score
      L1  H    10    31       P1  7948  0.76
      P1  H  6896  6908       L1    21  0.66
      P1  H  6896  6909       L1    22  0.99

> <Gold.PLP.Chemscore.Internal.Correction>
0.0570

> <Gold.Rescore>
     Score         DG    S(hbond)    S(metal)    S(lipo)     H(rot)  DE(clash)    DE(int)     intcor
     14.33     -15.92       1.74        0.00      74.69       1.61       0.01       1.57       ----

> <Gold.Chemscore.Fitness>
14.3315

> <Gold.Chemscore.DG>
-15.9169

> <Gold.Chemscore.ZeroCoef>
-5.4800

> <Gold.Chemscore.Hbond>
1.7387

> <Gold.Chemscore.Metal>
0.0000

> <Gold.Chemscore.Lipo>
74.6875

> <Gold.Chemscore.Internal_Hbond>
0.0000

> <Gold.Chemscore.DEClash>
0.0127

> <Gold.Chemscore.DEInternal>
1.5726

> <Gold.Chemscore.Rot>
1.6051

> <Gold.Chemscore.Internal.Correction>
   9.000000E+99

> <Gold.Chemscore.Hbonds>
donor molecule, donor type, donor heavy atom, donor atom, acceptor molecule, acceptor atom, score
      L1  H    10    31       P1  7948  0.75
      P1  H  6896  6908       L1    21  0.38
      P1  H  6896  6909       L1    22  0.33

> <Gold.Chemscore.Hbond.Weighted>
-5.8074

> <Gold.Chemscore.Metal.Weighted>
-0.0000

> <Gold.Chemscore.Lipo.Weighted>
-8.7384

> <Gold.Chemscore.Internal_Hbond.Weighted>
0.0000

> <Gold.Chemscore.DEClash.Weighted>
0.0127

> <Gold.Chemscore.DEInternal.Weighted>
1.5726

> <Gold.Chemscore.Rot.Weighted>
4.1090

> <Gold.Chemscore.Internal.Correction.Weighted>
   9.000000E+99

> <Gold.Protein.RotatedTorsions>
[ 6907 6896 6895 6894 ] final  112.39 input  -60.11 | X-H torsion
[ 7974 7965 7964 7962 ] final  177.01 input  175.53 | X-H torsion
[ 8008 7997 7996 7995 ] final -167.71 input   59.86 | X-H torsion
[ 10167 10162 10161 10158 ] final   35.10 input  -65.29 | X-H torsion
[ 10718 10713 10712 10709 ] final -167.15 input   66.30 | X-H torsion
[ 10763 10752 10751 10750 ] final   80.17 input  -60.55 | X-H torsion
[ 11005 11000 10999 10996 ] final  -16.03 input  -57.11 | X-H torsion

> <Gold.Protein.ActiveResidues>
 VAL166  LYS551  ARG553  GLY616  TRP617  ASP618  TYR619  PRO620  LYS621  CYS622 
 ASP623  PHE694  ASN695  SER759  ASP760  ASP761  ALA762  ILE779  LEU786  VAL792 
 PHE793  MET794  SER795  GLU796  ALA797  LYS798  CYS799  TRP800  GLU811  SER814 

> <Gold.Protein.RotatedAtoms>
  152.4919  133.8523  159.7207 H   0  0  0  0  0  0  0  0  0  0  0  0  # atno 6907 bound_to 6896
  150.9057  133.7052  159.2874 H   0  0  0  0  0  0  0  0  0  0  0  0  # atno 6908 bound_to 6896
  151.4478  135.1031  159.9741 H   0  0  0  0  0  0  0  0  0  0  0  0  # atno 6909 bound_to 6896
  144.7175  140.0182  143.6440 H   0  0  0  0  0  0  0  0  0  0  0  0  # atno 7974 bound_to 7965
  155.8814  140.1009  157.1482 H   0  0  0  0  0  0  0  0  0  0  0  0  # atno 8008 bound_to 7997
  154.4005  140.1328  156.4265 H   0  0  0  0  0  0  0  0  0  0  0  0  # atno 8009 bound_to 7997
  155.7638  140.3462  155.5214 H   0  0  0  0  0  0  0  0  0  0  0  0  # atno 8010 bound_to 7997
  140.4253  144.1402  150.6152 H   0  0  0  0  0  0  0  0  0  0  0  0  # atno 10167 bound_to 10162
  156.6782  130.9111  151.3053 H   0  0  0  0  0  0  0  0  0  0  0  0  # atno 10718 bound_to 10713
  153.1012  135.4812  154.8869 H   0  0  0  0  0  0  0  0  0  0  0  0  # atno 10763 bound_to 10752
  154.7380  135.3075  154.8780 H   0  0  0  0  0  0  0  0  0  0  0  0  # atno 10764 bound_to 10752
  153.9396  135.6835  153.4798 H   0  0  0  0  0  0  0  0  0  0  0  0  # atno 10765 bound_to 10752
  140.8026  133.8202  155.9485 H   0  0  0  0  0  0  0  0  0  0  0  0  # atno 11005 bound_to 11000
  146.0202  139.3244  143.0817 LP  0  0  0  0  0  0  0  0  0  0  0  0  # atno 17320 bound_to 7965
  145.8577  140.9493  143.0716 LP  0  0  0  0  0  0  0  0  0  0  0  0  # atno 17321 bound_to 7965
  140.4488  143.2495  151.9375 LP  0  0  0  0  0  0  0  0  0  0  0  0  # atno 17342 bound_to 10162
  139.4783  144.5582  151.8280 LP  0  0  0  0  0  0  0  0  0  0  0  0  # atno 17343 bound_to 10162
  157.7053  130.9378  150.0911 LP  0  0  0  0  0  0  0  0  0  0  0  0  # atno 17370 bound_to 10713
  156.1887  130.3653  149.8938 LP  0  0  0  0  0  0  0  0  0  0  0  0  # atno 17371 bound_to 10713
  140.9279  134.2059  157.4883 LP  0  0  0  0  0  0  0  0  0  0  0  0  # atno 17394 bound_to 11000
  139.8720  134.9820  156.5140 LP  0  0  0  0  0  0  0  0  0  0  0  0  # atno 17395 bound_to 11000

$$$$
