AV-unprocessed.smi:2995|AV-procd|sdf|11407|dock4
  -GOLD-   2272016333D 1   1.00000     0.00000
 Structure written by MMmdl.
 49 51  0  0  0  0  0  0  0  0  2 V2000
  147.4585  133.3006  152.1075 C   0  0  0  0  0  0  0  0  0  0  0  0
  146.2169  133.6370  151.3008 C   0  0  0  0  0  0  0  0  0  0  0  0
  145.5192  132.6127  150.6280 C   0  0  0  0  0  0  0  0  0  0  0  0
  144.3695  132.9511  149.8895 C   0  0  0  0  0  0  0  0  0  0  0  0
  143.8929  134.2092  149.7977 N   0  0  0  0  0  0  0  0  0  0  0  0
  144.5629  135.1887  150.4407 C   0  0  0  0  0  0  0  0  0  0  0  0
  145.7398  134.9662  151.1990 C   0  0  0  0  0  0  0  0  0  0  0  0
  146.4262  136.0034  151.8902 N   0  0  0  0  0  0  0  0  0  0  0  0
  145.9084  137.0990  152.4710 C   0  0  0  0  0  0  0  0  0  0  0  0
  144.7139  137.3950  152.4955 O   0  0  0  0  0  0  0  0  0  0  0  0
  146.8691  137.8625  153.0117 N   0  0  0  0  0  0  0  0  0  0  0  0
  146.6439  139.1309  153.6988 C   0  0  2  0  0  0  0  0  0  0  0  0
  147.3618  140.2842  152.9705 C   0  0  0  0  0  0  0  0  0  0  0  0
  147.2386  141.6030  153.7569 C   0  0  0  0  0  0  0  0  0  0  0  0
  147.7471  141.4719  155.1504 N   0  3  2  0  0  0  0  0  0  0  0  0
  149.2353  141.4013  155.2630 C   0  0  0  0  0  0  0  0  0  0  0  0
  149.8379  140.1257  154.6582 C   0  0  0  0  0  0  0  0  0  0  0  0
  151.2233  139.9942  155.2975 C   0  0  0  0  0  0  0  0  0  0  0  0
  151.1526  140.7544  156.6286 C   0  0  0  0  0  0  0  0  0  0  0  0
  149.7393  141.3409  156.7122 C   0  0  0  0  0  0  0  0  0  0  0  0
  147.0187  140.3914  155.8718 C   0  0  0  0  0  0  0  0  0  0  0  0
  147.1375  139.0338  155.1526 C   0  0  0  0  0  0  0  0  0  0  0  0
  147.6849  132.2351  152.0620 H   0  0  0  0  0  0  0  0  0  0  0  0
  147.3165  133.5708  153.1540 H   0  0  0  0  0  0  0  0  0  0  0  0
  148.3213  133.8451  151.7231 H   0  0  0  0  0  0  0  0  0  0  0  0
  145.8537  131.5868  150.6734 H   0  0  0  0  0  0  0  0  0  0  0  0
  143.8143  132.1889  149.3628 H   0  0  0  0  0  0  0  0  0  0  0  0
  144.1187  136.1681  150.3543 H   0  0  0  0  0  0  0  0  0  0  0  0
  147.4336  135.9419  151.8724 H   0  0  0  0  0  0  0  0  0  0  0  0
  147.8248  137.5440  152.9413 H   0  0  0  0  0  0  0  0  0  0  0  0
  145.5723  139.3390  153.7198 H   0  0  0  0  0  0  0  0  0  0  0  0
  148.4134  140.0376  152.8202 H   0  0  0  0  0  0  0  0  0  0  0  0
  146.9381  140.4177  151.9745 H   0  0  0  0  0  0  0  0  0  0  0  0
  147.7380  142.4127  153.2266 H   0  0  0  0  0  0  0  0  0  0  0  0
  146.1878  141.8922  153.8046 H   0  0  0  0  0  0  0  0  0  0  0  0
  149.6896  142.2637  154.7740 H   0  0  0  0  0  0  0  0  0  0  0  0
  149.2312  139.2607  154.9310 H   0  0  0  0  0  0  0  0  0  0  0  0
  149.8997  140.1594  153.5700 H   0  0  0  0  0  0  0  0  0  0  0  0
  151.5022  138.9489  155.4360 H   0  0  0  0  0  0  0  0  0  0  0  0
  151.9770  140.4497  154.6540 H   0  0  0  0  0  0  0  0  0  0  0  0
  151.3624  140.1054  157.4796 H   0  0  0  0  0  0  0  0  0  0  0  0
  151.8954  141.5531  156.6375 H   0  0  0  0  0  0  0  0  0  0  0  0
  149.7373  142.3152  157.2022 H   0  0  0  0  0  0  0  0  0  0  0  0
  149.1074  140.6730  157.3000 H   0  0  0  0  0  0  0  0  0  0  0  0
  147.3532  140.3084  156.9050 H   0  0  0  0  0  0  0  0  0  0  0  0
  145.9664  140.6730  155.9301 H   0  0  0  0  0  0  0  0  0  0  0  0
  146.5558  138.2843  155.6909 H   0  0  0  0  0  0  0  0  0  0  0  0
  148.1721  138.6896  155.1780 H   0  0  0  0  0  0  0  0  0  0  0  0
  147.4929  142.3313  155.6165 H   0  0  0  0  0  0  0  0  0  0  0  0
  1  2  1  0  0  0  0
  1 23  1  0  0  0  0
  1 24  1  0  0  0  0
  1 25  1  0  0  0  0
  2  7  1  0  0  0  0
  2  3  2  0  0  0  0
  3  4  1  0  0  0  0
  3 26  1  0  0  0  0
  4  5  2  0  0  0  0
  4 27  1  0  0  0  0
  5  6  1  0  0  0  0
  6  7  2  0  0  0  0
  6 28  1  0  0  0  0
  7  8  1  0  0  0  0
  8  9  1  0  0  0  0
  8 29  1  0  0  0  0
  9 10  2  0  0  0  0
  9 11  1  0  0  0  0
 11 12  1  0  0  0  0
 11 30  1  0  0  0  0
 12 22  1  0  0  0  0
 12 13  1  0  0  0  0
 12 31  1  0  0  0  0
 13 14  1  0  0  0  0
 13 32  1  0  0  0  0
 13 33  1  0  0  0  0
 14 15  1  0  0  0  0
 14 34  1  0  0  0  0
 14 35  1  0  0  0  0
 15 16  1  0  0  0  0
 15 21  1  0  0  0  0
 15 49  1  0  0  0  0
 16 20  1  0  0  0  0
 16 17  1  0  0  0  0
 16 36  1  0  0  0  0
 17 18  1  0  0  0  0
 17 37  1  0  0  0  0
 17 38  1  0  0  0  0
 18 19  1  0  0  0  0
 18 39  1  0  0  0  0
 18 40  1  0  0  0  0
 19 20  1  0  0  0  0
 19 41  1  0  0  0  0
 19 42  1  0  0  0  0
 20 43  1  0  0  0  0
 20 44  1  0  0  0  0
 21 22  1  0  0  0  0
 21 45  1  0  0  0  0
 21 46  1  0  0  0  0
 22 47  1  0  0  0  0
 22 48  1  0  0  0  0
M  CHG  1  15   1
M  END
> <s_m_source_file>
AV-unprocessed.smi

> <i_m_source_file_index>
2995

> <i_lp_mmshare_version>
43012

> <i_f3d_flags>
0

> <s_epik_input>
W0NIM11jMVtjSF1bY0hdbltjSF1jMVtOSF1DKD1PKVtOSF1bQ0hdMltDSDJdW0NIMl1OKFtDSDJdW0NIMl0yKVtDSF0zW0NIMl1bQ0gyXVtDSDJdW0NIMl0z

> <s_epik_cmdline>
J2VwaWtfcHl0aG9uJywgJy1waCcsICc3LjAnLCAnLXRuJywgJzgnLCAnLW1hJywgJzIwMCcsICctbWV0YWxfYmluZGluZycsICctaW1hZScsICc8aW5maWxlLm1hZT4nLCAnLW9tYWUnLCAnPG91dGZpbGUubWFlPic=

> <r_epik_Ionization_Penalty>
0.0196897

> <r_epik_Ionization_Penalty_Charging>
0.00179121

> <r_epik_Ionization_Penalty_Neutral>
0.0178985

> <r_epik_State_Penalty>
0.014187

> <r_epik_Charging_Adjusted_Penalty>
0.0159782

> <i_epik_Tot_Q>
1

> <i_epik_Tot_abs_Q>
1

> <r_epik_Metal_State_Penalty>
0.013703

> <b_epik_Metal_Only>
0

> <s_lp_Force_Field>
OPLS_2005

> <r_lp_Energy>
42.3495

> <b_lp_Chiralities_Consistent>
1

> <s_lp_Variant>
AV-unprocessed.smi:2995-2

> <Gold.Version>
5.8.1

> <Gold.Id.Protein>
6NUR|6NUR_protein|mol2

> <Gold.PLP.Fitness>
42.0781

> <Gold.PLP.PLP>
-35.6480

> <Gold.PLP.part.hbond>
-1.9671

> <Gold.PLP.part.metal>
0.0000

> <Gold.PLP.part.buried>
-2.1050

> <Gold.PLP.part.nonpolar>
-33.6316

> <Gold.PLP.part.repulsive>
2.1441

> <Gold.PLP.ligand.clash>
1.5067

> <Gold.PLP.ligand.torsion>
0.2595

> <Gold.PLP.Chemscore.Hbond>
1.8001

> <Gold.PLP.Chemscore.CHOScore>
1.0000

> <Gold.PLP.Chemscore.Metal>
0.0000

> <Gold.Chemscore.Hbonds>
donor molecule, donor type, donor heavy atom, donor atom, acceptor molecule, acceptor atom, score
      L1  H     8    29       P1  7948  0.98
      L1  H    11    30       P1  7948  0.79
      L1  C     6    28       P1 10171  1.00

> <Gold.PLP.Chemscore.Internal.Correction>
0.0554

> <Gold.Rescore>
     Score         DG    S(hbond)    S(metal)    S(lipo)     H(rot)  DE(clash)    DE(int)     intcor
     15.44     -20.26       1.91        0.00      97.62       1.17       1.61       3.21       ----

> <Gold.Chemscore.Fitness>
15.4426

> <Gold.Chemscore.DG>
-20.2627

> <Gold.Chemscore.ZeroCoef>
-5.4800

> <Gold.Chemscore.Hbond>
1.9054

> <Gold.Chemscore.Metal>
0.0000

> <Gold.Chemscore.Lipo>
97.6198

> <Gold.Chemscore.Internal_Hbond>
0.0000

> <Gold.Chemscore.DEClash>
1.6074

> <Gold.Chemscore.DEInternal>
3.2126

> <Gold.Chemscore.Rot>
1.1731

> <Gold.Chemscore.Internal.Correction>
   9.000000E+99

> <Gold.Chemscore.Hbonds>
donor molecule, donor type, donor heavy atom, donor atom, acceptor molecule, acceptor atom, score
      L1  H     8    29       P1  7948  0.91
      L1  H    11    30       P1  7948  0.73

> <Gold.Chemscore.Hbond.Weighted>
-6.3642

> <Gold.Chemscore.Metal.Weighted>
-0.0000

> <Gold.Chemscore.Lipo.Weighted>
-11.4215

> <Gold.Chemscore.Internal_Hbond.Weighted>
0.0000

> <Gold.Chemscore.DEClash.Weighted>
1.6074

> <Gold.Chemscore.DEInternal.Weighted>
3.2126

> <Gold.Chemscore.Rot.Weighted>
3.0030

> <Gold.Chemscore.Internal.Correction.Weighted>
   9.000000E+99

> <Gold.Protein.RotatedTorsions>
[ 6907 6896 6895 6894 ] final   45.79 input  -60.11 | X-H torsion
[ 7974 7965 7964 7962 ] final    6.42 input  175.53 | X-H torsion
[ 8008 7997 7996 7995 ] final -136.13 input   59.86 | X-H torsion
[ 10167 10162 10161 10158 ] final   19.38 input  -65.29 | X-H torsion
[ 10718 10713 10712 10709 ] final -127.02 input   66.30 | X-H torsion
[ 10763 10752 10751 10750 ] final    8.42 input  -60.55 | X-H torsion
[ 11005 11000 10999 10996 ] final   -4.54 input  -57.11 | X-H torsion

> <Gold.Protein.ActiveResidues>
 VAL166  LYS551  ARG553  GLY616  TRP617  ASP618  TYR619  PRO620  LYS621  CYS622 
 ASP623  PHE694  ASN695  SER759  ASP760  ASP761  ALA762  ILE779  LEU786  VAL792 
 PHE793  MET794  SER795  GLU796  ALA797  LYS798  CYS799  TRP800  GLU811  SER814 

> <Gold.Protein.RotatedAtoms>
  152.2488  134.8154  160.0448 H   0  0  0  0  0  0  0  0  0  0  0  0  # atno 6907 bound_to 6896
  151.8842  133.3496  159.3784 H   0  0  0  0  0  0  0  0  0  0  0  0  # atno 6908 bound_to 6896
  150.7077  134.4915  159.5562 H   0  0  0  0  0  0  0  0  0  0  0  0  # atno 6909 bound_to 6896
  146.2435  140.0236  142.8396 H   0  0  0  0  0  0  0  0  0  0  0  0  # atno 7974 bound_to 7965
  155.3901  140.0499  157.3041 H   0  0  0  0  0  0  0  0  0  0  0  0  # atno 8008 bound_to 7997
  154.5040  140.2167  155.9250 H   0  0  0  0  0  0  0  0  0  0  0  0  # atno 8009 bound_to 7997
  156.1503  140.3137  155.8642 H   0  0  0  0  0  0  0  0  0  0  0  0  # atno 8010 bound_to 7997
  140.5583  143.9384  150.6624 H   0  0  0  0  0  0  0  0  0  0  0  0  # atno 10167 bound_to 10162
  156.1818  130.6737  151.0315 H   0  0  0  0  0  0  0  0  0  0  0  0  # atno 10718 bound_to 10713
  153.2253  135.6886  153.7953 H   0  0  0  0  0  0  0  0  0  0  0  0  # atno 10763 bound_to 10752
  153.7137  135.3278  155.3252 H   0  0  0  0  0  0  0  0  0  0  0  0  # atno 10764 bound_to 10752
  154.8289  135.4596  154.1116 H   0  0  0  0  0  0  0  0  0  0  0  0  # atno 10765 bound_to 10752
  140.6813  133.9151  155.8557 H   0  0  0  0  0  0  0  0  0  0  0  0  # atno 11005 bound_to 11000
  145.1219  140.9467  143.4595 LP  0  0  0  0  0  0  0  0  0  0  0  0  # atno 17320 bound_to 7965
  145.0473  139.3210  143.5946 LP  0  0  0  0  0  0  0  0  0  0  0  0  # atno 17321 bound_to 7965
  140.2828  143.3377  152.1135 LP  0  0  0  0  0  0  0  0  0  0  0  0  # atno 17342 bound_to 10162
  139.5058  144.6802  151.6028 LP  0  0  0  0  0  0  0  0  0  0  0  0  # atno 17343 bound_to 10162
  157.6873  131.0821  150.7206 LP  0  0  0  0  0  0  0  0  0  0  0  0  # atno 17370 bound_to 10713
  156.7263  130.4696  149.5510 LP  0  0  0  0  0  0  0  0  0  0  0  0  # atno 17371 bound_to 10713
  141.0315  134.0749  157.4009 LP  0  0  0  0  0  0  0  0  0  0  0  0  # atno 17394 bound_to 11000
  139.8951  135.0139  156.6983 LP  0  0  0  0  0  0  0  0  0  0  0  0  # atno 17395 bound_to 11000

$$$$
