AV-unprocessed.smi:3091|AV-procd|sdf|11778|dock6
  -GOLD-   2272017163D 1   1.00000     0.00000
 Structure written by MMmdl.
 29 30  0  0  0  0  0  0  0  0  2 V2000
  146.0293  138.9180  151.5262 N   0  3  0  0  0  0  0  0  0  0  0  0
  146.5566  138.5313  152.8444 C   0  0  0  0  0  0  0  0  0  0  0  0
  147.2817  139.6926  153.4925 C   0  0  0  0  0  0  0  0  0  0  0  0
  146.6246  140.9209  153.7062 C   0  0  0  0  0  0  0  0  0  0  0  0
  147.3461  141.9704  154.3078 C   0  0  0  0  0  0  0  0  0  0  0  0
  148.6365  141.8585  154.6872 N   0  0  0  0  0  0  0  0  0  0  0  0
  149.2695  140.6769  154.4806 C   0  0  0  0  0  0  0  0  0  0  0  0
  150.5892  140.5445  154.8654 O   0  0  0  0  0  0  0  0  0  0  0  0
  151.0297  139.3257  155.4684 C   0  0  2  0  0  0  0  0  0  0  0  0
  152.3931  139.5023  156.1248 C   0  0  0  0  0  0  0  0  0  0  0  0
  153.3502  139.2087  154.9790 C   0  0  0  0  0  0  0  0  0  0  0  0
  152.7268  138.1216  154.3173 O   0  0  0  0  0  0  0  0  0  0  0  0
  151.3160  138.3157  154.3468 C   0  0  0  0  0  0  0  0  0  0  0  0
  148.6299  139.5695  153.8864 C   0  0  0  0  0  0  0  0  0  0  0  0
  145.2613  139.5632  151.6442 H   0  0  0  0  0  0  0  0  0  0  0  0
  145.7069  138.0938  151.0395 H   0  0  0  0  0  0  0  0  0  0  0  0
  145.7339  138.2031  153.4806 H   0  0  0  0  0  0  0  0  0  0  0  0
  147.2340  137.6847  152.7288 H   0  0  0  0  0  0  0  0  0  0  0  0
  145.5923  141.0602  153.4195 H   0  0  0  0  0  0  0  0  0  0  0  0
  146.8746  142.9251  154.4880 H   0  0  0  0  0  0  0  0  0  0  0  0
  150.2845  138.9239  156.1569 H   0  0  0  0  0  0  0  0  0  0  0  0
  152.5493  140.4867  156.5663 H   0  0  0  0  0  0  0  0  0  0  0  0
  152.5238  138.7571  156.9103 H   0  0  0  0  0  0  0  0  0  0  0  0
  153.4200  140.0606  154.3007 H   0  0  0  0  0  0  0  0  0  0  0  0
  154.3537  138.9522  155.3189 H   0  0  0  0  0  0  0  0  0  0  0  0
  150.8268  137.3594  154.5338 H   0  0  0  0  0  0  0  0  0  0  0  0
  150.9699  138.6816  153.3792 H   0  0  0  0  0  0  0  0  0  0  0  0
  149.1685  138.6445  153.7391 H   0  0  0  0  0  0  0  0  0  0  0  0
  146.7622  139.3592  150.9893 H   0  0  0  0  0  0  0  0  0  0  0  0
  1  2  1  0  0  0  0
  1 15  1  0  0  0  0
  1 16  1  0  0  0  0
  1 29  1  0  0  0  0
  2  3  1  0  0  0  0
  2 17  1  0  0  0  0
  2 18  1  0  0  0  0
  3 14  1  0  0  0  0
  3  4  2  0  0  0  0
  4  5  1  0  0  0  0
  4 19  1  0  0  0  0
  5  6  2  0  0  0  0
  5 20  1  0  0  0  0
  6  7  1  0  0  0  0
  7  8  1  0  0  0  0
  7 14  2  0  0  0  0
  8  9  1  0  0  0  0
  9 13  1  0  0  0  0
  9 10  1  0  0  0  0
  9 21  1  0  0  0  0
 10 11  1  0  0  0  0
 10 22  1  0  0  0  0
 10 23  1  0  0  0  0
 11 12  1  0  0  0  0
 11 24  1  0  0  0  0
 11 25  1  0  0  0  0
 12 13  1  0  0  0  0
 13 26  1  0  0  0  0
 13 27  1  0  0  0  0
 14 28  1  0  0  0  0
M  CHG  1   1   1
M  END
> <s_m_source_file>
AV-unprocessed.smi

> <i_m_source_file_index>
3091

> <i_lp_mmshare_version>
43012

> <i_f3d_flags>
0

> <s_epik_input>
W05IMl1bQ0gyXWMxW2NIXVtjSF1uYyhbY0hdMSlPW0NAQEhdMltDSDJdW0NIMl1PW0NIMl0y

> <s_epik_cmdline>
J2VwaWtfcHl0aG9uJywgJy1waCcsICc3LjAnLCAnLXRuJywgJzgnLCAnLW1hJywgJzIwMCcsICctbWV0YWxfYmluZGluZycsICctaW1hZScsICc8aW5maWxlLm1hZT4nLCAnLW9tYWUnLCAnPG91dGZpbGUubWFlPic=

> <r_lp_tautomer_probability>
1

> <r_epik_Ionization_Penalty>
0.0773124

> <r_epik_Ionization_Penalty_Charging>
0.0773118

> <r_epik_Ionization_Penalty_Neutral>
5.92883e-07

> <r_epik_State_Penalty>
0.0682686

> <r_epik_Charging_Adjusted_Penalty>
0.14558

> <i_epik_Tot_Q>
1

> <i_epik_Tot_abs_Q>
1

> <r_epik_Metal_State_Penalty>
0.0682821

> <b_epik_Metal_Only>
0

> <s_lp_Force_Field>
OPLS_2005

> <r_lp_Energy>
12.9222

> <b_lp_Chiralities_Consistent>
1

> <s_lp_Variant>
AV-unprocessed.smi:3091-1

> <Gold.Version>
5.8.1

> <Gold.Id.Protein>
6NUR|6NUR_protein|mol2

> <Gold.PLP.Fitness>
43.2260

> <Gold.PLP.PLP>
-29.3235

> <Gold.PLP.part.hbond>
-4.4779

> <Gold.PLP.part.metal>
0.0000

> <Gold.PLP.part.buried>
-0.5927

> <Gold.PLP.part.nonpolar>
-25.8794

> <Gold.PLP.part.repulsive>
0.4194

> <Gold.PLP.ligand.clash>
0.0051

> <Gold.PLP.ligand.torsion>
0.4490

> <Gold.PLP.Chemscore.Hbond>
4.0404

> <Gold.PLP.Chemscore.CHOScore>
0.8889

> <Gold.PLP.Chemscore.Metal>
0.0000

> <Gold.Chemscore.Hbonds>
donor molecule, donor type, donor heavy atom, donor atom, acceptor molecule, acceptor atom, score
      L1  H     1    15       P1 10175  2.00
      L1  H     1    16       P1 10171  0.08
      P1  H  7989  7998       L1     8  1.00
      L1  C     5    20       P1  8028  0.05

> <Gold.PLP.Chemscore.Internal.Correction>
0.0179

> <Gold.Rescore>
     Score         DG    S(hbond)    S(metal)    S(lipo)     H(rot)  DE(clash)    DE(int)     intcor
     15.18     -16.70       2.42        0.00      61.61       1.59       0.09       1.43       ----

> <Gold.Chemscore.Fitness>
15.1831

> <Gold.Chemscore.DG>
-16.7016

> <Gold.Chemscore.ZeroCoef>
-5.4800

> <Gold.Chemscore.Hbond>
2.4222

> <Gold.Chemscore.Metal>
0.0000

> <Gold.Chemscore.Lipo>
61.6060

> <Gold.Chemscore.Internal_Hbond>
0.0000

> <Gold.Chemscore.DEClash>
0.0885

> <Gold.Chemscore.DEInternal>
1.4301

> <Gold.Chemscore.Rot>
1.5924

> <Gold.Chemscore.Internal.Correction>
   9.000000E+99

> <Gold.Chemscore.Hbonds>
donor molecule, donor type, donor heavy atom, donor atom, acceptor molecule, acceptor atom, score
      L1  H     1    15       P1 10175  0.68
      L1  H     1    16       P1 10171  0.09
      P1  H  7989  7998       L1     8  0.43
      P1  H 10752 10765       L1    12  0.02

> <Gold.Chemscore.Hbond.Weighted>
-8.0903

> <Gold.Chemscore.Metal.Weighted>
-0.0000

> <Gold.Chemscore.Lipo.Weighted>
-7.2079

> <Gold.Chemscore.Internal_Hbond.Weighted>
0.0000

> <Gold.Chemscore.DEClash.Weighted>
0.0885

> <Gold.Chemscore.DEInternal.Weighted>
1.4301

> <Gold.Chemscore.Rot.Weighted>
4.0765

> <Gold.Chemscore.Internal.Correction.Weighted>
   9.000000E+99

> <Gold.Protein.RotatedTorsions>
[ 6907 6896 6895 6894 ] final  -88.74 input  -60.11 | X-H torsion
[ 7974 7965 7964 7962 ] final  125.91 input  175.53 | X-H torsion
[ 8008 7997 7996 7995 ] final   50.59 input   59.86 | X-H torsion
[ 10167 10162 10161 10158 ] final -145.90 input  -65.29 | X-H torsion
[ 10718 10713 10712 10709 ] final    8.65 input   66.30 | X-H torsion
[ 10763 10752 10751 10750 ] final  135.13 input  -60.55 | X-H torsion
[ 11005 11000 10999 10996 ] final   45.84 input  -57.11 | X-H torsion

> <Gold.Protein.ActiveResidues>
 VAL166  LYS551  ARG553  GLY616  TRP617  ASP618  TYR619  PRO620  LYS621  CYS622 
 ASP623  PHE694  ASN695  SER759  ASP760  ASP761  ALA762  ILE779  LEU786  VAL792 
 PHE793  MET794  SER795  GLU796  ALA797  LYS798  CYS799  TRP800  GLU811  SER814 

> <Gold.Protein.RotatedAtoms>
  150.6870  134.2695  159.4581 H   0  0  0  0  0  0  0  0  0  0  0  0  # atno 6907 bound_to 6896
  152.0618  134.9587  160.0584 H   0  0  0  0  0  0  0  0  0  0  0  0  # atno 6908 bound_to 6896
  152.1011  133.4215  159.4624 H   0  0  0  0  0  0  0  0  0  0  0  0  # atno 6909 bound_to 6896
  145.0677  139.3754  143.4973 H   0  0  0  0  0  0  0  0  0  0  0  0  # atno 7974 bound_to 7965
  155.4212  140.3446  155.4271 H   0  0  0  0  0  0  0  0  0  0  0  0  # atno 8008 bound_to 7997
  156.1392  140.1537  156.8978 H   0  0  0  0  0  0  0  0  0  0  0  0  # atno 8009 bound_to 7997
  154.4957  140.0828  156.7671 H   0  0  0  0  0  0  0  0  0  0  0  0  # atno 8010 bound_to 7997
  139.7763  143.8165  152.2632 H   0  0  0  0  0  0  0  0  0  0  0  0  # atno 10167 bound_to 10162
  156.9548  130.5910  149.5658 H   0  0  0  0  0  0  0  0  0  0  0  0  # atno 10718 bound_to 10713
  153.8349  135.3099  155.3421 H   0  0  0  0  0  0  0  0  0  0  0  0  # atno 10763 bound_to 10752
  154.7957  135.4756  154.0159 H   0  0  0  0  0  0  0  0  0  0  0  0  # atno 10764 bound_to 10752
  153.1611  135.6861  153.8832 H   0  0  0  0  0  0  0  0  0  0  0  0  # atno 10765 bound_to 10752
  140.1423  134.4567  155.8441 H   0  0  0  0  0  0  0  0  0  0  0  0  # atno 11005 bound_to 11000
  146.3527  140.0407  142.8643 LP  0  0  0  0  0  0  0  0  0  0  0  0  # atno 17320 bound_to 7965
  145.1331  140.9529  143.4533 LP  0  0  0  0  0  0  0  0  0  0  0  0  # atno 17321 bound_to 7965
  139.8215  144.7294  150.9567 LP  0  0  0  0  0  0  0  0  0  0  0  0  # atno 17342 bound_to 10162
  140.7816  143.4155  151.0924 LP  0  0  0  0  0  0  0  0  0  0  0  0  # atno 17343 bound_to 10162
  156.0347  130.5436  150.8624 LP  0  0  0  0  0  0  0  0  0  0  0  0  # atno 17370 bound_to 10713
  157.5698  131.0946  150.9435 LP  0  0  0  0  0  0  0  0  0  0  0  0  # atno 17371 bound_to 10713
  141.2187  133.6838  156.7269 LP  0  0  0  0  0  0  0  0  0  0  0  0  # atno 17394 bound_to 11000
  140.2707  134.8394  157.3844 LP  0  0  0  0  0  0  0  0  0  0  0  0  # atno 17395 bound_to 11000

$$$$
