AV-unprocessed.smi:2262|AV-procd|sdf|9139|dock4
  -GOLD-   2272012343D 1   1.00000     0.00000
 Structure written by MMmdl.
 43 44  0  0  0  0  0  0  0  0  2 V2000
  146.8654  142.4995  157.2215 C   0  0  0  0  0  0  0  0  0  0  0  0
  147.3703  141.7106  156.0772 N   0  3  2  0  0  0  0  0  0  0  0  0
  146.7704  142.1364  154.7884 C   0  0  0  0  0  0  0  0  0  0  0  0
  147.4137  141.3918  153.6040 C   0  0  0  0  0  0  0  0  0  0  0  0
  147.3416  139.8632  153.7710 C   0  0  2  0  0  0  0  0  0  0  0  0
  145.9729  139.3864  153.5699 N   0  0  0  0  0  0  0  0  0  0  0  0
  145.6031  138.0972  153.5355 C   0  0  0  0  0  0  0  0  0  0  0  0
  146.3884  137.1645  153.7072 O   0  0  0  0  0  0  0  0  0  0  0  0
  144.2856  137.9714  153.2952 N   0  0  0  0  0  0  0  0  0  0  0  0
  143.5323  136.7744  153.1588 C   0  0  0  0  0  0  0  0  0  0  0  0
  142.2141  136.8309  153.6631 C   0  0  0  0  0  0  0  0  0  0  0  0
  141.3901  135.6930  153.5720 C   0  0  0  0  0  0  0  0  0  0  0  0
  141.9048  134.5271  152.9777 C   0  0  0  0  0  0  0  0  0  0  0  0
  143.2267  134.5470  152.4944 C   0  0  0  0  0  0  0  0  0  0  0  0
  143.7349  133.4073  151.9060 O   0  0  0  0  0  0  0  0  0  0  0  0
  145.0485  133.4553  151.3554 C   0  0  0  0  0  0  0  0  0  0  0  0
  145.2124  132.2977  150.3656 C   0  0  0  0  0  0  0  0  0  0  0  0
  144.9083  131.1389  150.9493 F   0  0  0  0  0  0  0  0  0  0  0  0
  144.4153  132.4793  149.3134 F   0  0  0  0  0  0  0  0  0  0  0  0
  144.0165  135.6451  152.5864 N   0  0  0  0  0  0  0  0  0  0  0  0
  147.8971  139.4581  155.1518 C   0  0  0  0  0  0  0  0  0  0  0  0
  147.2381  140.2490  156.2957 C   0  0  0  0  0  0  0  0  0  0  0  0
  145.7951  142.3441  157.3631 H   0  0  0  0  0  0  0  0  0  0  0  0
  147.0391  143.5641  157.0616 H   0  0  0  0  0  0  0  0  0  0  0  0
  147.3777  142.2148  158.1413 H   0  0  0  0  0  0  0  0  0  0  0  0
  145.6941  141.9589  154.8092 H   0  0  0  0  0  0  0  0  0  0  0  0
  146.9106  143.2102  154.6586 H   0  0  0  0  0  0  0  0  0  0  0  0
  146.9419  141.6942  152.6682 H   0  0  0  0  0  0  0  0  0  0  0  0
  148.4595  141.6910  153.5244 H   0  0  0  0  0  0  0  0  0  0  0  0
  147.9672  139.4137  152.9975 H   0  0  0  0  0  0  0  0  0  0  0  0
  145.2622  140.0869  153.4176 H   0  0  0  0  0  0  0  0  0  0  0  0
  143.7628  138.8273  153.1851 H   0  0  0  0  0  0  0  0  0  0  0  0
  141.8331  137.7350  154.1158 H   0  0  0  0  0  0  0  0  0  0  0  0
  140.3791  135.7150  153.9510 H   0  0  0  0  0  0  0  0  0  0  0  0
  141.2982  133.6377  152.8913 H   0  0  0  0  0  0  0  0  0  0  0  0
  145.2270  134.4066  150.8508 H   0  0  0  0  0  0  0  0  0  0  0  0
  145.7855  133.3549  152.1541 H   0  0  0  0  0  0  0  0  0  0  0  0
  146.2340  132.2291  149.9912 H   0  0  0  0  0  0  0  0  0  0  0  0
  147.7751  138.3872  155.3185 H   0  0  0  0  0  0  0  0  0  0  0  0
  148.9722  139.6420  155.1691 H   0  0  0  0  0  0  0  0  0  0  0  0
  147.7100  139.9775  157.2408 H   0  0  0  0  0  0  0  0  0  0  0  0
  146.1831  139.9838  156.3818 H   0  0  0  0  0  0  0  0  0  0  0  0
  148.3599  141.9030  156.0120 H   0  0  0  0  0  0  0  0  0  0  0  0
  1  2  1  0  0  0  0
  1 23  1  0  0  0  0
  1 24  1  0  0  0  0
  1 25  1  0  0  0  0
  2 22  1  0  0  0  0
  2  3  1  0  0  0  0
  2 43  1  0  0  0  0
  3  4  1  0  0  0  0
  3 26  1  0  0  0  0
  3 27  1  0  0  0  0
  4  5  1  0  0  0  0
  4 28  1  0  0  0  0
  4 29  1  0  0  0  0
  5  6  1  0  0  0  0
  5 21  1  0  0  0  0
  5 30  1  0  0  0  0
  6  7  1  0  0  0  0
  6 31  1  0  0  0  0
  7  8  2  0  0  0  0
  7  9  1  0  0  0  0
  9 10  1  0  0  0  0
  9 32  1  0  0  0  0
 10 20  1  0  0  0  0
 10 11  2  0  0  0  0
 11 12  1  0  0  0  0
 11 33  1  0  0  0  0
 12 13  2  0  0  0  0
 12 34  1  0  0  0  0
 13 14  1  0  0  0  0
 13 35  1  0  0  0  0
 14 15  1  0  0  0  0
 14 20  2  0  0  0  0
 15 16  1  0  0  0  0
 16 17  1  0  0  0  0
 16 36  1  0  0  0  0
 16 37  1  0  0  0  0
 17 18  1  0  0  0  0
 17 19  1  0  0  0  0
 17 38  1  0  0  0  0
 21 22  1  0  0  0  0
 21 39  1  0  0  0  0
 21 40  1  0  0  0  0
 22 41  1  0  0  0  0
 22 42  1  0  0  0  0
M  CHG  1   2   1
M  END
> <s_m_source_file>
AV-unprocessed.smi

> <i_m_source_file_index>
2262

> <i_lp_mmshare_version>
43012

> <i_f3d_flags>
0

> <s_epik_input>
W0NIM11OMVtDSDJdW0NIMl1bQ0hdKFtDSDJdW0NIMl0xKVtOSF1DKD1PKVtOSF1jMltjSF1bY0hdW2NIXWMobjIpT1tDSDJdW0NIXShGKUY=

> <s_epik_cmdline>
J2VwaWtfcHl0aG9uJywgJy1waCcsICc3LjAnLCAnLXRuJywgJzgnLCAnLW1hJywgJzIwMCcsICctbWV0YWxfYmluZGluZycsICctaW1hZScsICc8aW5maWxlLm1hZT4nLCAnLW9tYWUnLCAnPG91dGZpbGUubWFlPic=

> <r_lp_tautomer_probability>
1

> <r_epik_Ionization_Penalty>
0.00369782

> <r_epik_Ionization_Penalty_Charging>
0.00366825

> <r_epik_Ionization_Penalty_Neutral>
2.95729e-05

> <r_epik_State_Penalty>
0.00261101

> <r_epik_Charging_Adjusted_Penalty>
0.00627926

> <i_epik_Tot_Q>
1

> <i_epik_Tot_abs_Q>
1

> <r_epik_Metal_State_Penalty>
-0

> <b_epik_Metal_Only>
0

> <s_lp_Force_Field>
OPLS_2005

> <r_lp_Energy>
16.3431

> <b_lp_Chiralities_Consistent>
1

> <s_lp_Variant>
AV-unprocessed.smi:2262-2

> <Gold.Version>
5.8.1

> <Gold.Id.Protein>
6NUR|6NUR_protein|mol2

> <Gold.PLP.Fitness>
40.5327

> <Gold.PLP.PLP>
-35.5106

> <Gold.PLP.part.hbond>
-2.0172

> <Gold.PLP.part.metal>
0.0000

> <Gold.PLP.part.buried>
-7.6748

> <Gold.PLP.part.nonpolar>
-25.6906

> <Gold.PLP.part.repulsive>
0.3895

> <Gold.PLP.ligand.clash>
0.0000

> <Gold.PLP.ligand.torsion>
0.3888

> <Gold.PLP.Chemscore.Hbond>
1.9280

> <Gold.PLP.Chemscore.CHOScore>
0.0000

> <Gold.PLP.Chemscore.Metal>
0.0000

> <Gold.Chemscore.Hbonds>
donor molecule, donor type, donor heavy atom, donor atom, acceptor molecule, acceptor atom, score
      L1  H     6    31       P1 10175  0.90
      L1  H     9    32       P1 10175  0.98

> <Gold.PLP.Chemscore.Internal.Correction>
0.0158

> <Gold.Rescore>
     Score         DG    S(hbond)    S(metal)    S(lipo)     H(rot)  DE(clash)    DE(int)     intcor
     12.70     -14.63       1.95        0.00      58.56       1.64       0.05       1.88       ----

> <Gold.Chemscore.Fitness>
12.7024

> <Gold.Chemscore.DG>
-14.6318

> <Gold.Chemscore.ZeroCoef>
-5.4800

> <Gold.Chemscore.Hbond>
1.9482

> <Gold.Chemscore.Metal>
0.0000

> <Gold.Chemscore.Lipo>
58.5627

> <Gold.Chemscore.Internal_Hbond>
0.0000

> <Gold.Chemscore.DEClash>
0.0457

> <Gold.Chemscore.DEInternal>
1.8838

> <Gold.Chemscore.Rot>
1.6434

> <Gold.Chemscore.Internal.Correction>
   9.000000E+99

> <Gold.Chemscore.Hbonds>
donor molecule, donor type, donor heavy atom, donor atom, acceptor molecule, acceptor atom, score
      L1  H     6    31       P1 10175  0.86
      L1  H     9    32       P1 10175  0.93

> <Gold.Chemscore.Hbond.Weighted>
-6.5070

> <Gold.Chemscore.Metal.Weighted>
-0.0000

> <Gold.Chemscore.Lipo.Weighted>
-6.8518

> <Gold.Chemscore.Internal_Hbond.Weighted>
0.0000

> <Gold.Chemscore.DEClash.Weighted>
0.0457

> <Gold.Chemscore.DEInternal.Weighted>
1.8838

> <Gold.Chemscore.Rot.Weighted>
4.2070

> <Gold.Chemscore.Internal.Correction.Weighted>
   9.000000E+99

> <Gold.Protein.RotatedTorsions>
[ 6907 6896 6895 6894 ] final  161.71 input  -60.11 | X-H torsion
[ 7974 7965 7964 7962 ] final   19.19 input  175.53 | X-H torsion
[ 8008 7997 7996 7995 ] final  -58.04 input   59.86 | X-H torsion
[ 10167 10162 10161 10158 ] final  -11.48 input  -65.29 | X-H torsion
[ 10718 10713 10712 10709 ] final  -24.72 input   66.30 | X-H torsion
[ 10763 10752 10751 10750 ] final -154.90 input  -60.55 | X-H torsion
[ 11005 11000 10999 10996 ] final   96.61 input  -57.11 | X-H torsion

> <Gold.Protein.ActiveResidues>
 VAL166  LYS551  ARG553  GLY616  TRP617  ASP618  TYR619  PRO620  LYS621  CYS622 
 ASP623  PHE694  ASN695  SER759  ASP760  ASP761  ALA762  ILE779  LEU786  VAL792 
 PHE793  MET794  SER795  GLU796  ALA797  LYS798  CYS799  TRP800  GLU811  SER814 

> <Gold.Protein.RotatedAtoms>
  151.9515  133.3667  159.4001 H   0  0  0  0  0  0  0  0  0  0  0  0  # atno 6907 bound_to 6896
  150.6980  134.4335  159.5269 H   0  0  0  0  0  0  0  0  0  0  0  0  # atno 6908 bound_to 6896
  152.2009  134.8588  160.0558 H   0  0  0  0  0  0  0  0  0  0  0  0  # atno 6909 bound_to 6896
  146.2158  139.8348  142.8653 H   0  0  0  0  0  0  0  0  0  0  0  0  # atno 7974 bound_to 7965
  154.4292  140.1093  156.5894 H   0  0  0  0  0  0  0  0  0  0  0  0  # atno 8008 bound_to 7997
  155.6028  140.3493  155.4580 H   0  0  0  0  0  0  0  0  0  0  0  0  # atno 8009 bound_to 7997
  156.0160  140.1229  157.0396 H   0  0  0  0  0  0  0  0  0  0  0  0  # atno 8010 bound_to 7997
  140.7139  143.5635  150.9170 H   0  0  0  0  0  0  0  0  0  0  0  0  # atno 10167 bound_to 10162
  156.4738  130.4530  149.6853 H   0  0  0  0  0  0  0  0  0  0  0  0  # atno 10718 bound_to 10713
  154.7826  135.3179  154.7957 H   0  0  0  0  0  0  0  0  0  0  0  0  # atno 10763 bound_to 10752
  153.8665  135.6848  153.4782 H   0  0  0  0  0  0  0  0  0  0  0  0  # atno 10764 bound_to 10752
  153.1467  135.4716  154.9514 H   0  0  0  0  0  0  0  0  0  0  0  0  # atno 10765 bound_to 10752
  139.8780  134.8959  156.4184 H   0  0  0  0  0  0  0  0  0  0  0  0  # atno 11005 bound_to 11000
  145.2959  141.0180  143.3636 LP  0  0  0  0  0  0  0  0  0  0  0  0  # atno 17320 bound_to 7965
  144.9042  139.4610  143.6618 LP  0  0  0  0  0  0  0  0  0  0  0  0  # atno 17321 bound_to 7965
  139.9360  143.6437  152.3065 LP  0  0  0  0  0  0  0  0  0  0  0  0  # atno 17342 bound_to 10162
  139.6905  144.7647  151.1448 LP  0  0  0  0  0  0  0  0  0  0  0  0  # atno 17343 bound_to 10162
  156.3591  130.7472  151.2441 LP  0  0  0  0  0  0  0  0  0  0  0  0  # atno 17370 bound_to 10713
  157.7489  131.0355  150.4368 LP  0  0  0  0  0  0  0  0  0  0  0  0  # atno 17371 bound_to 10713
  140.9151  133.7684  155.9838 LP  0  0  0  0  0  0  0  0  0  0  0  0  # atno 17394 bound_to 11000
  140.8503  134.2962  157.5278 LP  0  0  0  0  0  0  0  0  0  0  0  0  # atno 17395 bound_to 11000

$$$$
