#       Name:                AV-unprocessed.smi:2528
#       Creating user name   scv26
#       Creation time:       Fri Mar 27 13:59:45 2020


#       File generated by GOLD software.
#

@<TRIPOS>MOLECULE
AV-unprocessed.smi:2528
    49    51     1
SMALL
NO_CHARGES


@<TRIPOS>ATOM
      1 ****        -1.5943   1.0222  -0.8792 O.2            1 S1                 0.0000
      2 ****        -2.0687  -0.0930  -1.0953 C.2            1 S1                 0.0000
      3 ****        -1.3253  -1.1975  -1.2546 N.am           1 S1                 0.0000
      4 ****         0.1305  -1.2580  -1.1729 C.3            1 S1                 0.0000
      5 ****         0.5968  -1.7229   0.2232 C.3            1 S1                 0.0000
      6 ****         2.1112  -2.0024   0.2972 C.3            1 S1                 0.0000
      7 ****         2.9157  -0.7863   0.3036 N.3            1 S1                 0.0000
      8 ****         4.3407  -1.1001   0.4041 C.3            1 S1                 0.0000
      9 ****         5.2237   0.1574   0.3884 C.3            1 S1                 0.0000
     10 ****         4.8108   1.1103   1.5187 C.3            1 S1                 0.0000
     11 ****         3.3044   1.3993   1.4370 C.3            1 S1                 0.0000
     12 ****         2.4894   0.0895   1.3985 C.3            1 S1                 0.0000
     13 ****         0.9836   0.3985   1.2982 C.3            1 S1                 0.0000
     14 ****         0.2271  -0.8093   1.2578 O.3            1 S1                 0.0000
     15 ****        -3.3800  -0.3714  -1.2021 N.am           1 S1                 0.0000
     16 ****        -4.4794   0.5229  -1.1023 C.ar           1 S1                 0.0000
     17 ****        -5.7522  -0.0742  -1.2484 C.ar           1 S1                 0.0000
     18 ****        -6.9076   0.7273  -1.1678 C.ar           1 S1                 0.0000
     19 ****        -6.7605   2.1076  -0.9428 C.ar           1 S1                 0.0000
     20 ****        -5.4579   2.6223  -0.8088 C.ar           1 S1                 0.0000
     21 ****        -4.3495   1.8559  -0.8859 N.ar           1 S1                 0.0000
     22 ****        -1.8033  -2.0691  -1.4297 H              1 S1                 0.0000
     23 ****         0.4636  -1.9774  -1.9212 H              1 S1                 0.0000
     24 ****         0.5849  -0.3071  -1.4539 H              1 S1                 0.0000
     25 ****         0.0825  -2.6599   0.4403 H              1 S1                 0.0000
     26 ****         2.3147  -2.5722   1.2052 H              1 S1                 0.0000
     27 ****         2.4080  -2.6408  -0.5358 H              1 S1                 0.0000
     28 ****         4.5320  -1.6633   1.3190 H              1 S1                 0.0000
     29 ****         4.6317  -1.7484  -0.4231 H              1 S1                 0.0000
     30 ****         6.2734  -0.1181   0.4932 H              1 S1                 0.0000
     31 ****         5.1271   0.6618  -0.5740 H              1 S1                 0.0000
     32 ****         5.0451   0.6583   2.4832 H              1 S1                 0.0000
     33 ****         5.3793   2.0388   1.4604 H              1 S1                 0.0000
     34 ****         2.9995   2.0086   2.2886 H              1 S1                 0.0000
     35 ****         3.0970   1.9894   0.5430 H              1 S1                 0.0000
     36 ****         2.6551  -0.4326   2.3426 H              1 S1                 0.0000
     37 ****         0.6572   0.9792   2.1610 H              1 S1                 0.0000
     38 ****         0.7736   1.0063   0.4184 H              1 S1                 0.0000
     39 ****        -3.6199  -1.3359  -1.3759 H              1 S1                 0.0000
     40 ****        -5.8472  -1.1365  -1.4209 H              1 S1                 0.0000
     41 ****        -7.8889   0.2901  -1.2767 H              1 S1                 0.0000
     42 ****        -7.6224   2.7549  -0.8750 H              1 S1                 0.0000
     43 ****        -5.3010   3.6766  -0.6356 H              1 S1                 0.0000
     44 ****        -0.6034   1.1399  -0.8139 LP             1 S1                 0.0000
     45 ****        -2.1998   1.8103  -0.7689 LP             1 S1                 0.0000
     46 ****         2.7753  -0.3054  -0.5618 LP             1 S1                 0.0000
     47 ****         0.3391  -1.2743   2.1360 LP             1 S1                 0.0000
     48 ****        -0.7347  -0.5680   1.1287 LP             1 S1                 0.0000
     49 ****        -3.4431   2.2659  -0.7847 LP             1 S1                 0.0000
@<TRIPOS>BOND
    1    1    2 2     
    2    2    3 am    
    3    2   15 am    
    4    3    4 1     
    5    3   22 1     
    6    4    5 1     
    7    4   23 1     
    8    4   24 1     
    9    5   14 1     
   10    5    6 1     
   11    5   25 1     
   12    6    7 1     
   13    6   26 1     
   14    6   27 1     
   15    7   12 1     
   16    7    8 1     
   17    8    9 1     
   18    8   28 1     
   19    8   29 1     
   20    9   10 1     
   21    9   30 1     
   22    9   31 1     
   23   10   11 1     
   24   10   32 1     
   25   10   33 1     
   26   11   12 1     
   27   11   34 1     
   28   11   35 1     
   29   12   13 1     
   30   12   36 1     
   31   13   14 1     
   32   13   37 1     
   33   13   38 1     
   34   15   16 1     
   35   15   39 1     
   36   16   21 ar    
   37   16   17 ar    
   38   17   18 ar    
   39   17   40 1     
   40   18   19 ar    
   41   18   41 1     
   42   19   20 ar    
   43   19   42 1     
   44   20   21 ar    
   45   20   43 1     
   46    1   44 1     
   47    1   45 1     
   48    7   46 1     
   49   14   47 1     
   50   14   48 1     
   51   21   49 1     
@<TRIPOS>SUBSTRUCTURE
      1 S1             1
@<TRIPOS>SET
LONE_PAIRS      STATIC     ATOMS    <user>   **** ""
6 44 45 46 47 48 49
DONOR_HYDROGENS      STATIC     ATOMS    <user>   **** ""
2 22 39
ATOM$BLUE        STATIC     ATOMS    COLORGROUP SYSTEM
6 44 45 46 47 48 49
ATOM$RED        STATIC     ATOMS    COLORGROUP SYSTEM
2 22 39
