#       Name:                AV-unprocessed.smi:1435
#       Creating user name   scv26
#       Creation time:       Fri Mar 27 05:53:03 2020


#       File generated by GOLD software.
#

@<TRIPOS>MOLECULE
AV-unprocessed.smi:1435
    46    47     1
SMALL
NO_CHARGES


@<TRIPOS>ATOM
      1 ****        -0.1537   1.3037   2.5101 O.2            1 S1                 0.0000
      2 ****         0.6076   0.3374   2.4657 C.2            1 S1                 0.0000
      3 ****         2.1200   0.5559   2.3961 C.3            1 S1                 0.0000
      4 ****         2.5382   1.3984   1.1779 C.3            1 S1                 0.0000
      5 ****         2.4018   0.4400  -0.3973 S.o2           1 S1                 0.0000
      6 ****         3.2982  -0.7226  -0.3087 O.2            1 S1                 0.0000
      7 ****         0.9748   0.2249  -0.6831 O.2            1 S1                 0.0000
      8 ****         3.0950   1.6305  -1.6393 C.3            1 S1                 0.0000
      9 ****         2.1225   2.7804  -1.9319 C.3            1 S1                 0.0000
     10 ****         1.2243   2.3020  -3.0828 C.3            1 S1                 0.0000
     11 ****         1.8998   1.0579  -3.6786 C.3            1 S1                 0.0000
     12 ****         3.2705   0.9607  -3.0048 C.3            1 S1                 0.0000
     13 ****         0.1858  -0.9361   2.4549 N.am           1 S1                 0.0000
     14 ****        -1.2110  -1.3507   2.4271 C.3            1 S1                 0.0000
     15 ****        -1.7859  -1.2748   1.0033 C.3            1 S1                 0.0000
     16 ****        -3.2369  -1.7088   0.9497 C.ar           1 S1                 0.0000
     17 ****        -3.5817  -3.0631   0.7628 C.ar           1 S1                 0.0000
     18 ****        -4.9444  -3.4167   0.7252 C.ar           1 S1                 0.0000
     19 ****        -5.9060  -2.3975   0.8763 C.ar           1 S1                 0.0000
     20 ****        -5.5869  -1.0975   1.0558 N.ar           1 S1                 0.0000
     21 ****        -4.2780  -0.7669   1.0907 C.ar           1 S1                 0.0000
     22 ****         2.4197   1.0705   3.3094 H              1 S1                 0.0000
     23 ****         2.6480  -0.3988   2.3952 H              1 S1                 0.0000
     24 ****         1.9360   2.3030   1.0950 H              1 S1                 0.0000
     25 ****         3.5765   1.7115   1.2846 H              1 S1                 0.0000
     26 ****         4.0477   1.9913  -1.2510 H              1 S1                 0.0000
     27 ****         1.5452   3.0873  -1.0602 H              1 S1                 0.0000
     28 ****         2.6903   3.6514  -2.2613 H              1 S1                 0.0000
     29 ****         0.2274   2.0506  -2.7190 H              1 S1                 0.0000
     30 ****         1.1076   3.0872  -3.8306 H              1 S1                 0.0000
     31 ****         1.3093   0.1716  -3.4436 H              1 S1                 0.0000
     32 ****         1.9834   1.1134  -4.7644 H              1 S1                 0.0000
     33 ****         3.9994   1.5233  -3.5895 H              1 S1                 0.0000
     34 ****         3.6318  -0.0656  -2.9361 H              1 S1                 0.0000
     35 ****         0.8810  -1.6674   2.4171 H              1 S1                 0.0000
     36 ****        -1.2689  -2.3742   2.7980 H              1 S1                 0.0000
     37 ****        -1.7988  -0.7373   3.1123 H              1 S1                 0.0000
     38 ****        -1.7093  -0.2575   0.6169 H              1 S1                 0.0000
     39 ****        -1.2014  -1.9026   0.3294 H              1 S1                 0.0000
     40 ****        -2.8172  -3.8182   0.6524 H              1 S1                 0.0000
     41 ****        -5.2457  -4.4441   0.5847 H              1 S1                 0.0000
     42 ****        -6.9597  -2.6331   0.8531 H              1 S1                 0.0000
     43 ****        -4.0558   0.2797   1.2384 H              1 S1                 0.0000
     44 ****         0.2164   2.2327   2.5007 LP             1 S1                 0.0000
     45 ****        -1.1422   1.1598   2.5556 LP             1 S1                 0.0000
     46 ****        -6.2975  -0.4016   1.1596 LP             1 S1                 0.0000
@<TRIPOS>BOND
    1    1    2 2     
    2    2    3 1     
    3    2   13 am    
    4    3    4 1     
    5    3   22 1     
    6    3   23 1     
    7    4    5 1     
    8    4   24 1     
    9    4   25 1     
   10    5    6 2     
   11    5    7 2     
   12    5    8 1     
   13    8   12 1     
   14    8    9 1     
   15    8   26 1     
   16    9   10 1     
   17    9   27 1     
   18    9   28 1     
   19   10   11 1     
   20   10   29 1     
   21   10   30 1     
   22   11   12 1     
   23   11   31 1     
   24   11   32 1     
   25   12   33 1     
   26   12   34 1     
   27   13   14 1     
   28   13   35 1     
   29   14   15 1     
   30   14   36 1     
   31   14   37 1     
   32   15   16 1     
   33   15   38 1     
   34   15   39 1     
   35   16   21 ar    
   36   16   17 ar    
   37   17   18 ar    
   38   17   40 1     
   39   18   19 ar    
   40   18   41 1     
   41   19   20 ar    
   42   19   42 1     
   43   20   21 ar    
   44   21   43 1     
   45    1   44 1     
   46    1   45 1     
   47   20   46 1     
@<TRIPOS>SUBSTRUCTURE
      1 S1             1
@<TRIPOS>SET
LONE_PAIRS      STATIC     ATOMS    <user>   **** ""
5 44 45 6 7 46
DONOR_HYDROGENS      STATIC     ATOMS    <user>   **** ""
1 35
ATOM$BLUE        STATIC     ATOMS    COLORGROUP SYSTEM
5 44 45 6 7 46
ATOM$RED        STATIC     ATOMS    COLORGROUP SYSTEM
1 35
