AV-unprocessed.smi:2812|AV-procd|sdf|10834|dock4
  -GOLD-   2272015273D 1   1.00000     0.00000
 Structure written by MMmdl.
 55 56  0  0  0  0  0  0  0  0  2 V2000
  144.4097  135.2071  150.5649 C   0  0  0  0  0  0  0  0  0  0  0  0
  144.8375  133.7948  150.9350 C   0  0  0  0  0  0  0  0  0  0  0  0
  144.0893  132.6777  150.3958 C   0  0  0  0  0  0  0  0  0  0  0  0
  144.4273  131.4271  150.7399 C   0  0  0  0  0  0  0  0  0  0  0  0
  145.4931  131.1657  151.6134 N   0  0  0  0  0  0  0  0  0  0  0  0
  145.7845  129.7659  151.9327 C   0  0  0  0  0  0  0  0  0  0  0  0
  146.2474  132.1620  152.1596 C   0  0  0  0  0  0  0  0  0  0  0  0
  147.1770  131.9119  152.9307 O   0  0  0  0  0  0  0  0  0  0  0  0
  145.8821  133.5381  151.7705 C   0  0  0  0  0  0  0  0  0  0  0  0
  146.6596  134.5587  152.3298 N   0  0  0  0  0  0  0  0  0  0  0  0
  146.4644  135.0823  153.5506 C   0  0  0  0  0  0  0  0  0  0  0  0
  145.5994  134.7058  154.3426 O   0  0  0  0  0  0  0  0  0  0  0  0
  147.3314  136.0701  153.8105 N   0  0  0  0  0  0  0  0  0  0  0  0
  147.3925  136.8111  155.0666 C   0  0  0  0  0  0  0  0  0  0  0  0
  148.7225  137.6026  155.2382 C   0  0  1  0  0  0  0  0  0  0  0  0
  149.8594  136.6017  155.5783 C   0  0  0  0  0  0  0  0  0  0  0  0
  151.2403  137.2560  155.6407 C   0  0  0  0  0  0  0  0  0  0  0  0
  151.5143  137.9702  154.3199 C   0  0  0  0  0  0  0  0  0  0  0  0
  150.4206  139.0099  154.0603 C   0  0  0  0  0  0  0  0  0  0  0  0
  149.0579  138.4080  154.0180 N   0  3  2  0  0  0  0  0  0  0  0  0
  148.0512  139.4493  153.6625 C   0  0  0  0  0  0  0  0  0  0  0  0
  148.3351  140.7827  154.3819 C   0  0  0  0  0  0  0  0  0  0  0  0
  148.3694  140.5834  155.9043 C   0  0  0  0  0  0  0  0  0  0  0  0
  147.3127  141.8679  154.0054 C   0  0  0  0  0  0  0  0  0  0  0  0
  143.3952  135.2144  150.1658 H   0  0  0  0  0  0  0  0  0  0  0  0
  145.0714  135.6198  149.8036 H   0  0  0  0  0  0  0  0  0  0  0  0
  144.4257  135.8648  151.4345 H   0  0  0  0  0  0  0  0  0  0  0  0
  143.2644  132.8461  149.7191 H   0  0  0  0  0  0  0  0  0  0  0  0
  143.9065  130.5570  150.3682 H   0  0  0  0  0  0  0  0  0  0  0  0
  146.7999  129.5071  151.6288 H   0  0  0  0  0  0  0  0  0  0  0  0
  145.1090  129.0703  151.4340 H   0  0  0  0  0  0  0  0  0  0  0  0
  145.6955  129.5907  153.0059 H   0  0  0  0  0  0  0  0  0  0  0  0
  147.3198  135.0097  151.7134 H   0  0  0  0  0  0  0  0  0  0  0  0
  148.0024  136.3178  153.0977 H   0  0  0  0  0  0  0  0  0  0  0  0
  146.5490  137.5017  155.0851 H   0  0  0  0  0  0  0  0  0  0  0  0
  147.2089  136.0992  155.8687 H   0  0  0  0  0  0  0  0  0  0  0  0
  148.6237  138.3052  156.0673 H   0  0  0  0  0  0  0  0  0  0  0  0
  149.6653  136.1156  156.5348 H   0  0  0  0  0  0  0  0  0  0  0  0
  149.8806  135.8062  154.8317 H   0  0  0  0  0  0  0  0  0  0  0  0
  151.2822  137.9648  156.4689 H   0  0  0  0  0  0  0  0  0  0  0  0
  152.0064  136.5034  155.8296 H   0  0  0  0  0  0  0  0  0  0  0  0
  152.4900  138.4557  154.3538 H   0  0  0  0  0  0  0  0  0  0  0  0
  151.5510  137.2501  153.5012 H   0  0  0  0  0  0  0  0  0  0  0  0
  150.4574  139.7742  154.8385 H   0  0  0  0  0  0  0  0  0  0  0  0
  150.6241  139.5137  153.1146 H   0  0  0  0  0  0  0  0  0  0  0  0
  147.9835  139.6242  152.5914 H   0  0  0  0  0  0  0  0  0  0  0  0
  147.0533  139.0963  153.9281 H   0  0  0  0  0  0  0  0  0  0  0  0
  149.3230  141.1339  154.0811 H   0  0  0  0  0  0  0  0  0  0  0  0
  147.4094  140.2268  156.2795 H   0  0  0  0  0  0  0  0  0  0  0  0
  148.6012  141.5166  156.4185 H   0  0  0  0  0  0  0  0  0  0  0  0
  149.1298  139.8557  156.1900 H   0  0  0  0  0  0  0  0  0  0  0  0
  146.2982  141.5644  154.2658 H   0  0  0  0  0  0  0  0  0  0  0  0
  147.3321  142.0828  152.9368 H   0  0  0  0  0  0  0  0  0  0  0  0
  147.5230  142.8022  154.5265 H   0  0  0  0  0  0  0  0  0  0  0  0
  149.0611  137.7474  153.2540 H   0  0  0  0  0  0  0  0  0  0  0  0
  1  2  1  0  0  0  0
  1 25  1  0  0  0  0
  1 26  1  0  0  0  0
  1 27  1  0  0  0  0
  2  9  2  0  0  0  0
  2  3  1  0  0  0  0
  3  4  2  0  0  0  0
  3 28  1  0  0  0  0
  4  5  1  0  0  0  0
  4 29  1  0  0  0  0
  5  6  1  0  0  0  0
  5  7  1  0  0  0  0
  6 30  1  0  0  0  0
  6 31  1  0  0  0  0
  6 32  1  0  0  0  0
  7  8  2  0  0  0  0
  7  9  1  0  0  0  0
  9 10  1  0  0  0  0
 10 11  1  0  0  0  0
 10 33  1  0  0  0  0
 11 12  2  0  0  0  0
 11 13  1  0  0  0  0
 13 14  1  0  0  0  0
 13 34  1  0  0  0  0
 14 15  1  0  0  0  0
 14 35  1  0  0  0  0
 14 36  1  0  0  0  0
 15 20  1  0  0  0  0
 15 16  1  0  0  0  0
 15 37  1  0  0  0  0
 16 17  1  0  0  0  0
 16 38  1  0  0  0  0
 16 39  1  0  0  0  0
 17 18  1  0  0  0  0
 17 40  1  0  0  0  0
 17 41  1  0  0  0  0
 18 19  1  0  0  0  0
 18 42  1  0  0  0  0
 18 43  1  0  0  0  0
 19 20  1  0  0  0  0
 19 44  1  0  0  0  0
 19 45  1  0  0  0  0
 20 21  1  0  0  0  0
 20 55  1  0  0  0  0
 21 22  1  0  0  0  0
 21 46  1  0  0  0  0
 21 47  1  0  0  0  0
 22 23  1  0  0  0  0
 22 24  1  0  0  0  0
 22 48  1  0  0  0  0
 23 49  1  0  0  0  0
 23 50  1  0  0  0  0
 23 51  1  0  0  0  0
 24 52  1  0  0  0  0
 24 53  1  0  0  0  0
 24 54  1  0  0  0  0
M  CHG  1  20   1
M  END
> <s_m_source_file>
AV-unprocessed.smi

> <i_m_source_file_index>
2812

> <i_lp_mmshare_version>
43012

> <i_f3d_flags>
0

> <s_epik_input>
W0NIM11jMVtjSF1bY0hdbihbQ0gzXSljKD1PKWMxW05IXUMoPU8pW05IXVtDSDJdW0NAQEhdMltDSDJdW0NIMl1bQ0gyXVtDSDJdTjJbQ0gyXVtDSF0oW0NIM10pW0NIM10=

> <s_epik_cmdline>
J2VwaWtfcHl0aG9uJywgJy1waCcsICc3LjAnLCAnLXRuJywgJzgnLCAnLW1hJywgJzIwMCcsICctbWV0YWxfYmluZGluZycsICctaW1hZScsICc8aW5maWxlLm1hZT4nLCAnLW9tYWUnLCAnPG91dGZpbGUubWFlPic=

> <r_lp_tautomer_probability>
1

> <r_epik_Ionization_Penalty>
0.0010902

> <r_epik_Ionization_Penalty_Charging>
0.00107091

> <r_epik_Ionization_Penalty_Neutral>
1.92854e-05

> <r_epik_State_Penalty>
0.000697184

> <r_epik_Charging_Adjusted_Penalty>
0.0017681

> <i_epik_Tot_Q>
1

> <i_epik_Tot_abs_Q>
1

> <r_epik_Metal_State_Penalty>
-0

> <b_epik_Metal_Only>
0

> <s_lp_Force_Field>
OPLS_2005

> <r_lp_Energy>
40.1667

> <b_lp_Chiralities_Consistent>
1

> <s_lp_Variant>
AV-unprocessed.smi:2812-2

> <Gold.Version>
5.8.1

> <Gold.Id.Protein>
6NUR|6NUR_protein|mol2

> <Gold.PLP.Fitness>
52.3285

> <Gold.PLP.PLP>
-42.2461

> <Gold.PLP.part.hbond>
-3.0000

> <Gold.PLP.part.metal>
0.0000

> <Gold.PLP.part.buried>
-5.9003

> <Gold.PLP.part.nonpolar>
-34.4005

> <Gold.PLP.part.repulsive>
0.2158

> <Gold.PLP.ligand.clash>
0.0000

> <Gold.PLP.ligand.torsion>
1.1817

> <Gold.PLP.Chemscore.Hbond>
3.8160

> <Gold.PLP.Chemscore.CHOScore>
0.0000

> <Gold.PLP.Chemscore.Metal>
0.0000

> <Gold.Chemscore.Hbonds>
donor molecule, donor type, donor heavy atom, donor atom, acceptor molecule, acceptor atom, score
      L1  H    10    33       P1  7948  0.80
      L1  H    13    34       P1  7948  1.00
      L1  H    20    55       P1  7948  1.98

> <Gold.PLP.Chemscore.Internal.Correction>
0.9978

> <Gold.Rescore>
     Score         DG    S(hbond)    S(metal)    S(lipo)     H(rot)  DE(clash)    DE(int)     intcor
     20.47     -21.70       2.56        0.00      98.64       1.52       0.04       1.19       ----

> <Gold.Chemscore.Fitness>
20.4749

> <Gold.Chemscore.DG>
-21.7045

> <Gold.Chemscore.ZeroCoef>
-5.4800

> <Gold.Chemscore.Hbond>
2.5639

> <Gold.Chemscore.Metal>
0.0000

> <Gold.Chemscore.Lipo>
98.6435

> <Gold.Chemscore.Internal_Hbond>
0.0000

> <Gold.Chemscore.DEClash>
0.0424

> <Gold.Chemscore.DEInternal>
1.1872

> <Gold.Chemscore.Rot>
1.5157

> <Gold.Chemscore.Internal.Correction>
   9.000000E+99

> <Gold.Chemscore.Hbonds>
donor molecule, donor type, donor heavy atom, donor atom, acceptor molecule, acceptor atom, score
      L1  H    10    33       P1  7948  0.65
      L1  H    13    34       P1  7948  0.96
      L1  H    20    55       P1  7948  0.92

> <Gold.Chemscore.Hbond.Weighted>
-8.5635

> <Gold.Chemscore.Metal.Weighted>
-0.0000

> <Gold.Chemscore.Lipo.Weighted>
-11.5413

> <Gold.Chemscore.Internal_Hbond.Weighted>
0.0000

> <Gold.Chemscore.DEClash.Weighted>
0.0424

> <Gold.Chemscore.DEInternal.Weighted>
1.1872

> <Gold.Chemscore.Rot.Weighted>
3.8803

> <Gold.Chemscore.Internal.Correction.Weighted>
   9.000000E+99

> <Gold.Protein.RotatedTorsions>
[ 6907 6896 6895 6894 ] final  111.69 input  -60.11 | X-H torsion
[ 7974 7965 7964 7962 ] final  -77.38 input  175.53 | X-H torsion
[ 8008 7997 7996 7995 ] final  -77.04 input   59.86 | X-H torsion
[ 10167 10162 10161 10158 ] final -144.73 input  -65.29 | X-H torsion
[ 10718 10713 10712 10709 ] final   65.44 input   66.30 | X-H torsion
[ 10763 10752 10751 10750 ] final   70.59 input  -60.55 | X-H torsion
[ 11005 11000 10999 10996 ] final -134.40 input  -57.11 | X-H torsion

> <Gold.Protein.ActiveResidues>
 VAL166  LYS551  ARG553  GLY616  TRP617  ASP618  TYR619  PRO620  LYS621  CYS622 
 ASP623  PHE694  ASN695  SER759  ASP760  ASP761  ALA762  ILE779  LEU786  VAL792 
 PHE793  MET794  SER795  GLU796  ALA797  LYS798  CYS799  TRP800  GLU811  SER814 

> <Gold.Protein.RotatedAtoms>
  152.4956  133.8622  159.7255 H   0  0  0  0  0  0  0  0  0  0  0  0  # atno 6907 bound_to 6896
  150.9130  133.6964  159.2857 H   0  0  0  0  0  0  0  0  0  0  0  0  # atno 6908 bound_to 6896
  151.4367  135.1020  159.9710 H   0  0  0  0  0  0  0  0  0  0  0  0  # atno 6909 bound_to 6896
  145.6004  140.9410  143.1244 H   0  0  0  0  0  0  0  0  0  0  0  0  # atno 7974 bound_to 7965
  154.5560  140.0717  156.8744 H   0  0  0  0  0  0  0  0  0  0  0  0  # atno 8008 bound_to 7997
  155.2902  140.3377  155.4235 H   0  0  0  0  0  0  0  0  0  0  0  0  # atno 8009 bound_to 7997
  156.2002  140.1719  156.7900 H   0  0  0  0  0  0  0  0  0  0  0  0  # atno 8010 bound_to 7997
  139.7872  143.8017  152.2646 H   0  0  0  0  0  0  0  0  0  0  0  0  # atno 10167 bound_to 10162
  157.6105  130.9214  149.9977 H   0  0  0  0  0  0  0  0  0  0  0  0  # atno 10718 bound_to 10713
  153.0350  135.5168  154.7464 H   0  0  0  0  0  0  0  0  0  0  0  0  # atno 10763 bound_to 10752
  154.6448  135.2917  155.0062 H   0  0  0  0  0  0  0  0  0  0  0  0  # atno 10764 bound_to 10752
  154.0967  135.6642  153.4914 H   0  0  0  0  0  0  0  0  0  0  0  0  # atno 10765 bound_to 10752
  140.8993  134.1711  157.4472 H   0  0  0  0  0  0  0  0  0  0  0  0  # atno 11005 bound_to 11000
  144.7312  139.7719  143.7346 LP  0  0  0  0  0  0  0  0  0  0  0  0  # atno 17320 bound_to 7965
  146.1580  139.4685  143.0006 LP  0  0  0  0  0  0  0  0  0  0  0  0  # atno 17321 bound_to 7965
  139.8098  144.7340  150.9713 LP  0  0  0  0  0  0  0  0  0  0  0  0  # atno 17342 bound_to 10162
  140.7820  143.4262  151.0764 LP  0  0  0  0  0  0  0  0  0  0  0  0  # atno 17343 bound_to 10162
  156.1207  130.3646  149.9893 LP  0  0  0  0  0  0  0  0  0  0  0  0  # atno 17370 bound_to 10713
  156.7973  130.9278  151.3646 LP  0  0  0  0  0  0  0  0  0  0  0  0  # atno 17371 bound_to 10713
  139.8740  134.9891  156.5443 LP  0  0  0  0  0  0  0  0  0  0  0  0  # atno 17394 bound_to 11000
  140.8250  133.8324  155.8930 LP  0  0  0  0  0  0  0  0  0  0  0  0  # atno 17395 bound_to 11000

$$$$
