AV-unprocessed.smi:2069|AV-procd|sdf|8436|dock4
  -GOLD-   2272011133D 1   1.00000     0.00000
 Structure written by MMmdl.
 37 38  0  0  0  0  0  0  0  0  2 V2000
  146.7456  133.7274  161.5877 C   0  0  0  0  0  0  0  0  0  0  0  0
  147.3145  134.9658  160.9848 C   0  0  0  0  0  0  0  0  0  0  0  0
  147.1248  136.1775  161.5123 N   0  0  0  0  0  0  0  0  0  0  0  0
  147.7530  137.1718  160.7767 N   0  0  0  0  0  0  0  0  0  0  0  0
  148.4155  136.6994  159.7113 C   0  0  0  0  0  0  0  0  0  0  0  0
  149.0855  137.5022  158.8683 N   0  5  0  0  0  0  0  0  0  0  0  0
  150.4346  137.5764  158.9321 C   0  0  0  0  0  0  0  0  0  0  0  0
  151.1970  136.6993  159.3446 O   0  0  0  0  0  0  0  0  0  0  0  0
  150.9315  138.7389  158.4893 N   0  0  0  0  0  0  0  0  0  0  0  0
  152.3462  139.0956  158.4513 C   0  0  0  0  0  0  0  0  0  0  0  0
  152.7450  140.0494  159.6109 C   0  0  1  0  0  0  0  0  0  0  0  0
  154.2779  140.2756  159.5635 C   0  0  0  0  0  0  0  0  0  0  0  0
  151.9808  141.3193  159.6196 N   0  0  0  0  0  0  0  0  0  0  0  0
  152.5852  142.3407  160.4829 C   0  0  0  0  0  0  0  0  0  0  0  0
  151.8122  143.6710  160.4673 C   0  0  0  0  0  0  0  0  0  0  0  0
  151.7120  144.1539  159.1348 O   0  0  0  0  0  0  0  0  0  0  0  0
  151.0597  143.2253  158.2800 C   0  0  0  0  0  0  0  0  0  0  0  0
  151.8302  141.8937  158.2776 C   0  0  0  0  0  0  0  0  0  0  0  0
  148.2911  134.9497  159.5259 S   0  0  0  0  0  0  0  0  0  0  0  0
  147.3194  133.4466  162.4708 H   0  0  0  0  0  0  0  0  0  0  0  0
  146.7799  132.9065  160.8713 H   0  0  0  0  0  0  0  0  0  0  0  0
  145.7080  133.8923  161.8794 H   0  0  0  0  0  0  0  0  0  0  0  0
  150.2752  139.4316  158.1602 H   0  0  0  0  0  0  0  0  0  0  0  0
  152.9581  138.1927  158.4871 H   0  0  0  0  0  0  0  0  0  0  0  0
  152.5060  139.5550  157.4773 H   0  0  0  0  0  0  0  0  0  0  0  0
  152.5296  139.5227  160.5419 H   0  0  0  0  0  0  0  0  0  0  0  0
  154.8365  139.3424  159.5006 H   0  0  0  0  0  0  0  0  0  0  0  0
  154.6515  140.7685  160.4598 H   0  0  0  0  0  0  0  0  0  0  0  0
  154.5592  140.8817  158.7018 H   0  0  0  0  0  0  0  0  0  0  0  0
  152.6115  142.0052  161.5176 H   0  0  0  0  0  0  0  0  0  0  0  0
  153.6180  142.5181  160.1791 H   0  0  0  0  0  0  0  0  0  0  0  0
  150.8156  143.5434  160.8927 H   0  0  0  0  0  0  0  0  0  0  0  0
  152.3267  144.4145  161.0762 H   0  0  0  0  0  0  0  0  0  0  0  0
  150.0300  143.0757  158.6088 H   0  0  0  0  0  0  0  0  0  0  0  0
  151.0167  143.6394  157.2726 H   0  0  0  0  0  0  0  0  0  0  0  0
  152.8127  142.0449  157.8275 H   0  0  0  0  0  0  0  0  0  0  0  0
  151.2852  141.2124  157.6270 H   0  0  0  0  0  0  0  0  0  0  0  0
  1  2  1  0  0  0  0
  1 20  1  0  0  0  0
  1 21  1  0  0  0  0
  1 22  1  0  0  0  0
  2 19  1  0  0  0  0
  2  3  2  0  0  0  0
  3  4  1  0  0  0  0
  4  5  2  0  0  0  0
  5  6  1  0  0  0  0
  5 19  1  0  0  0  0
  6  7  1  0  0  0  0
  7  8  2  0  0  0  0
  7  9  1  0  0  0  0
  9 10  1  0  0  0  0
  9 23  1  0  0  0  0
 10 11  1  0  0  0  0
 10 24  1  0  0  0  0
 10 25  1  0  0  0  0
 11 12  1  0  0  0  0
 11 13  1  0  0  0  0
 11 26  1  0  0  0  0
 12 27  1  0  0  0  0
 12 28  1  0  0  0  0
 12 29  1  0  0  0  0
 13 18  1  0  0  0  0
 13 14  1  0  0  0  0
 14 15  1  0  0  0  0
 14 30  1  0  0  0  0
 14 31  1  0  0  0  0
 15 16  1  0  0  0  0
 15 32  1  0  0  0  0
 15 33  1  0  0  0  0
 16 17  1  0  0  0  0
 17 18  1  0  0  0  0
 17 34  1  0  0  0  0
 17 35  1  0  0  0  0
 18 36  1  0  0  0  0
 18 37  1  0  0  0  0
M  CHG  1   6  -1
M  END
> <s_m_source_file>
AV-unprocessed.smi

> <i_m_source_file_index>
2069

> <i_lp_mmshare_version>
43012

> <i_f3d_flags>
0

> <s_epik_input>
W0NIM11jMW5uYyhzMSlbTkhdQyg9TylbTkhdW0NIMl1bQ0BIXShbQ0gzXSlOMltDSDJdW0NIMl1PW0NIMl1bQ0gyXTI=

> <s_epik_cmdline>
J2VwaWtfcHl0aG9uJywgJy1waCcsICc3LjAnLCAnLXRuJywgJzgnLCAnLW1hJywgJzIwMCcsICctbWV0YWxfYmluZGluZycsICctaW1hZScsICc8aW5maWxlLm1hZT4nLCAnLW9tYWUnLCAnPG91dGZpbGUubWFlPic=

> <r_lp_tautomer_probability>
1

> <r_epik_Ionization_Penalty>
3.82002

> <r_epik_Ionization_Penalty_Charging>
3.36369

> <r_epik_Ionization_Penalty_Neutral>
0.456339

> <r_epik_State_Penalty>
3.571

> <r_epik_Charging_Adjusted_Penalty>
6.93469

> <i_epik_Tot_Q>
-1

> <i_epik_Tot_abs_Q>
1

> <r_epik_Metal_State_Penalty>
0.710436

> <b_epik_Metal_Only>
1

> <s_lp_Force_Field>
OPLS_2005

> <r_lp_Energy>
26.7527

> <b_lp_Chiralities_Consistent>
1

> <s_lp_Variant>
AV-unprocessed.smi:2069-6

> <Gold.Version>
5.8.1

> <Gold.Id.Protein>
6NUR|6NUR_protein|mol2

> <Gold.PLP.Fitness>
37.4290

> <Gold.PLP.PLP>
-31.6298

> <Gold.PLP.part.hbond>
-3.0000

> <Gold.PLP.part.metal>
0.0000

> <Gold.PLP.part.buried>
-4.6936

> <Gold.PLP.part.nonpolar>
-24.0770

> <Gold.PLP.part.repulsive>
0.1796

> <Gold.PLP.ligand.clash>
0.0000

> <Gold.PLP.ligand.torsion>
1.2994

> <Gold.PLP.Chemscore.Hbond>
2.7600

> <Gold.PLP.Chemscore.CHOScore>
0.0000

> <Gold.PLP.Chemscore.Metal>
0.0000

> <Gold.Chemscore.Hbonds>
donor molecule, donor type, donor heavy atom, donor atom, acceptor molecule, acceptor atom, score
      P1  H  6896  6907       L1     8  0.99
      P1  H  6931  6943       L1     4  0.85
      P1  H  6934  6947       L1     4  0.90

> <Gold.PLP.Chemscore.Internal.Correction>
0.1180

> <Gold.Rescore>
     Score         DG    S(hbond)    S(metal)    S(lipo)     H(rot)  DE(clash)    DE(int)     intcor
     17.62     -18.67       2.44        0.00      77.46       1.57       0.01       1.04       ----

> <Gold.Chemscore.Fitness>
17.6166

> <Gold.Chemscore.DG>
-18.6694

> <Gold.Chemscore.ZeroCoef>
-5.4800

> <Gold.Chemscore.Hbond>
2.4412

> <Gold.Chemscore.Metal>
0.0000

> <Gold.Chemscore.Lipo>
77.4644

> <Gold.Chemscore.Internal_Hbond>
0.0000

> <Gold.Chemscore.DEClash>
0.0147

> <Gold.Chemscore.DEInternal>
1.0382

> <Gold.Chemscore.Rot>
1.5732

> <Gold.Chemscore.Internal.Correction>
   9.000000E+99

> <Gold.Chemscore.Hbonds>
donor molecule, donor type, donor heavy atom, donor atom, acceptor molecule, acceptor atom, score
      P1  H  6896  6907       L1     8  0.94
      P1  H  6931  6943       L1     4  0.42
      P1  H  6934  6947       L1     4  0.84

> <Gold.Chemscore.Hbond.Weighted>
-8.1535

> <Gold.Chemscore.Metal.Weighted>
-0.0000

> <Gold.Chemscore.Lipo.Weighted>
-9.0633

> <Gold.Chemscore.Internal_Hbond.Weighted>
0.0000

> <Gold.Chemscore.DEClash.Weighted>
0.0147

> <Gold.Chemscore.DEInternal.Weighted>
1.0382

> <Gold.Chemscore.Rot.Weighted>
4.0274

> <Gold.Chemscore.Internal.Correction.Weighted>
   9.000000E+99

> <Gold.Protein.RotatedTorsions>
[ 6907 6896 6895 6894 ] final  -30.86 input  -60.11 | X-H torsion
[ 7974 7965 7964 7962 ] final  179.18 input  175.53 | X-H torsion
[ 8008 7997 7996 7995 ] final  163.48 input   59.86 | X-H torsion
[ 10167 10162 10161 10158 ] final  -22.82 input  -65.29 | X-H torsion
[ 10718 10713 10712 10709 ] final  -76.94 input   66.30 | X-H torsion
[ 10763 10752 10751 10750 ] final   17.51 input  -60.55 | X-H torsion
[ 11005 11000 10999 10996 ] final   78.86 input  -57.11 | X-H torsion

> <Gold.Protein.ActiveResidues>
 VAL166  LYS551  ARG553  GLY616  TRP617  ASP618  TYR619  PRO620  LYS621  CYS622 
 ASP623  PHE694  ASN695  SER759  ASP760  ASP761  ALA762  ILE779  LEU786  VAL792 
 PHE793  MET794  SER795  GLU796  ALA797  LYS798  CYS799  TRP800  GLU811  SER814 

> <Gold.Protein.RotatedAtoms>
  151.0999  134.9966  159.8443 H   0  0  0  0  0  0  0  0  0  0  0  0  # atno 6907 bound_to 6896
  152.5436  134.1963  159.8704 H   0  0  0  0  0  0  0  0  0  0  0  0  # atno 6908 bound_to 6896
  151.2005  133.4569  159.2629 H   0  0  0  0  0  0  0  0  0  0  0  0  # atno 6909 bound_to 6896
  144.7148  140.0509  143.6435 H   0  0  0  0  0  0  0  0  0  0  0  0  # atno 7974 bound_to 7965
  156.1954  140.1722  156.8009 H   0  0  0  0  0  0  0  0  0  0  0  0  # atno 8008 bound_to 7997
  154.5523  140.0715  156.8718 H   0  0  0  0  0  0  0  0  0  0  0  0  # atno 8009 bound_to 7997
  155.3006  140.3361  155.4250 H   0  0  0  0  0  0  0  0  0  0  0  0  # atno 8010 bound_to 7997
  140.7287  143.4500  151.0530 H   0  0  0  0  0  0  0  0  0  0  0  0  # atno 10167 bound_to 10162
  156.0159  130.4478  150.3270 H   0  0  0  0  0  0  0  0  0  0  0  0  # atno 10718 bound_to 10713
  153.1332  135.6744  153.9144 H   0  0  0  0  0  0  0  0  0  0  0  0  # atno 10763 bound_to 10752
  153.8624  135.3080  155.3439 H   0  0  0  0  0  0  0  0  0  0  0  0  # atno 10764 bound_to 10752
  154.7726  135.4931  153.9761 H   0  0  0  0  0  0  0  0  0  0  0  0  # atno 10765 bound_to 10752
  139.9196  134.7797  156.1704 H   0  0  0  0  0  0  0  0  0  0  0  0  # atno 11005 bound_to 11000
  145.9945  139.3041  143.0965 LP  0  0  0  0  0  0  0  0  0  0  0  0  # atno 17320 bound_to 7965
  145.8865  140.9330  143.0574 LP  0  0  0  0  0  0  0  0  0  0  0  0  # atno 17321 bound_to 7965
  139.8175  143.7865  152.3175 LP  0  0  0  0  0  0  0  0  0  0  0  0  # atno 17342 bound_to 10162
  139.7936  144.7401  150.9920 LP  0  0  0  0  0  0  0  0  0  0  0  0  # atno 17343 bound_to 10162
  157.1369  131.0286  151.2945 LP  0  0  0  0  0  0  0  0  0  0  0  0  # atno 17370 bound_to 10713
  157.4504  130.7595  149.7146 LP  0  0  0  0  0  0  0  0  0  0  0  0  # atno 17371 bound_to 10713
  141.0704  133.6799  156.2129 LP  0  0  0  0  0  0  0  0  0  0  0  0  # atno 17394 bound_to 11000
  140.6516  134.5061  157.5578 LP  0  0  0  0  0  0  0  0  0  0  0  0  # atno 17395 bound_to 11000

$$$$
