#       Name:                AV-unprocessed.smi:964
#       Creating user name   scv26
#       Creation time:       Fri Mar 27 02:18:49 2020


#       File generated by GOLD software.
#

@<TRIPOS>MOLECULE
AV-unprocessed.smi:964
    22    22     1
SMALL
NO_CHARGES


@<TRIPOS>ATOM
      1 ****        -3.4723   1.2141   0.5621 C.3            1 S1                 0.0000
      2 ****        -2.3134   0.2790   0.4816 C.2            1 S1                 0.0000
      3 ****        -1.0471   0.7151   0.5431 N.pl3          1 S1                 0.0000
      4 ****        -0.3364  -0.4181   0.4431 C.2            1 S1                 0.0000
      5 ****         1.1572  -0.4270   0.4569 C.3            1 S1                 0.0000
      6 ****         1.7567  -0.5464  -0.9510 C.3            1 S1                 0.0000
      7 ****         3.2282  -0.5783  -0.9073 N.4            1 S1                 1.0000
      8 ****        -1.1003  -1.5072   0.3174 N.2            1 S1                 0.0000
      9 ****        -2.4060  -1.0470   0.3440 N.2            1 S1                 0.0000
     10 ****        -0.7150   1.6632   0.6454 H              1 S1                 0.0000
     11 ****        -4.4102   0.6583   0.5829 H              1 S1                 0.0000
     12 ****        -3.4792   1.8775  -0.3030 H              1 S1                 0.0000
     13 ****        -3.4059   1.8168   1.4681 H              1 S1                 0.0000
     14 ****         1.4892  -1.2607   1.0773 H              1 S1                 0.0000
     15 ****         1.5128   0.4833   0.9421 H              1 S1                 0.0000
     16 ****         1.4039  -1.4566  -1.4375 H              1 S1                 0.0000
     17 ****         1.4407   0.2933  -1.5707 H              1 S1                 0.0000
     18 ****         3.5911  -0.6563  -1.8469 H              1 S1                 0.0000
     19 ****         3.5320  -1.3742  -0.3644 H              1 S1                 0.0000
     20 ****         3.5743   0.2703  -0.4828 H              1 S1                 0.0000
     21 ****        -0.7938  -2.4544   0.2239 LP             1 S1                 0.0000
     22 ****        -3.2417  -1.5918   0.2748 LP             1 S1                 0.0000
@<TRIPOS>BOND
    1    1   11 1     
    2    1   12 1     
    3    1   13 1     
    4    1    2 1     
    5    2    3 1     
    6    2    9 2     
    7    3   10 1     
    8    3    4 1     
    9    4    8 2     
   10    4    5 1     
   11    5    6 1     
   12    5   14 1     
   13    5   15 1     
   14    6    7 1     
   15    6   16 1     
   16    6   17 1     
   17    7   18 1     
   18    7   19 1     
   19    7   20 1     
   20    8    9 1     
   21    8   21 1     
   22    9   22 1     
@<TRIPOS>SUBSTRUCTURE
      1 S1             1
@<TRIPOS>SET
LONE_PAIRS      STATIC     ATOMS    <user>   **** ""
2 21 22
DONOR_HYDROGENS      STATIC     ATOMS    <user>   **** ""
4 10 18 19 20
ATOM$BLUE        STATIC     ATOMS    COLORGROUP SYSTEM
2 21 22
ATOM$RED        STATIC     ATOMS    COLORGROUP SYSTEM
4 10 18 19 20
