AV-unprocessed.smi:2510|AV-procd|sdf|9885|dock7
  -GOLD-   2272013523D 1   1.00000     0.00000
 Structure written by MMmdl.
 48 49  0  0  0  0  0  0  0  0  1 V2000
  146.7472  138.6970  151.9877 C   0  0  0  0  0  0  0  0  0  0  0  0
  146.5664  137.9499  153.3198 C   0  0  0  0  0  0  0  0  0  0  0  0
  146.8187  138.7974  154.5904 C   0  0  0  0  0  0  0  0  0  0  0  0
  146.8340  137.8489  155.8190 C   0  0  0  0  0  0  0  0  0  0  0  0
  147.9452  136.7873  155.8124 C   0  0  0  0  0  0  0  0  0  0  0  0
  147.9855  139.8208  154.4378 C   0  0  2  0  0  0  0  0  0  0  0  0
  148.6405  140.1553  155.7015 N   0  0  0  0  0  0  0  0  0  0  0  0
  149.9415  140.4490  155.8406 C   0  0  0  0  0  0  0  0  0  0  0  0
  150.7130  140.5931  154.8927 O   0  0  0  0  0  0  0  0  0  0  0  0
  150.4570  140.5549  157.2757 C   0  0  0  0  0  0  0  0  0  0  0  0
  150.9336  141.9461  157.5487 C   0  0  0  0  0  0  0  0  0  0  0  0
  151.3591  142.5447  158.7018 C   0  0  0  0  0  0  0  0  0  0  0  0
  151.7320  143.8602  158.2989 C   0  0  0  0  0  0  0  0  0  0  0  0
  152.2995  144.9621  159.1440 C   0  0  0  0  0  0  0  0  0  0  0  0
  151.5389  144.0671  157.0048 N   0  0  0  0  0  0  0  0  0  0  0  0
  151.0492  142.8957  156.5590 N   0  0  0  0  0  0  0  0  0  0  0  0
  146.9650  140.8937  154.0203 C   0  0  2  0  0  0  0  0  0  0  0  0
  147.1621  142.3627  154.3901 C   0  0  0  0  0  0  0  0  0  0  0  0
  145.8870  140.0349  154.7069 C   0  0  2  0  0  0  0  0  0  0  0  0
  145.6725  140.4160  156.0622 O   0  0  0  0  0  0  0  0  0  0  0  0
  144.8442  141.5579  156.1960 C   0  0  0  0  0  0  0  0  0  0  0  0
  150.8148  142.7553  155.5864 H   0  0  0  0  0  0  0  0  0  0  0  0
  146.4232  138.0738  151.1541 H   0  0  0  0  0  0  0  0  0  0  0  0
  147.7898  138.9554  151.8049 H   0  0  0  0  0  0  0  0  0  0  0  0
  146.1619  139.6161  151.9575 H   0  0  0  0  0  0  0  0  0  0  0  0
  145.5479  137.5621  153.3324 H   0  0  0  0  0  0  0  0  0  0  0  0
  147.1904  137.0568  153.3187 H   0  0  0  0  0  0  0  0  0  0  0  0
  146.8753  138.4152  156.7488 H   0  0  0  0  0  0  0  0  0  0  0  0
  145.8961  137.2997  155.8841 H   0  0  0  0  0  0  0  0  0  0  0  0
  147.8017  136.0838  156.6327 H   0  0  0  0  0  0  0  0  0  0  0  0
  148.9332  137.2288  155.9380 H   0  0  0  0  0  0  0  0  0  0  0  0
  147.9429  136.2144  154.8849 H   0  0  0  0  0  0  0  0  0  0  0  0
  148.6828  139.5860  153.6320 H   0  0  0  0  0  0  0  0  0  0  0  0
  148.0848  140.0558  156.5390 H   0  0  0  0  0  0  0  0  0  0  0  0
  149.6651  140.2813  157.9742 H   0  0  0  0  0  0  0  0  0  0  0  0
  151.2685  139.8415  157.4228 H   0  0  0  0  0  0  0  0  0  0  0  0
  151.4174  142.1009  159.6847 H   0  0  0  0  0  0  0  0  0  0  0  0
  152.2191  144.7259  160.2049 H   0  0  0  0  0  0  0  0  0  0  0  0
  151.7742  145.9022  158.9730 H   0  0  0  0  0  0  0  0  0  0  0  0
  153.3541  145.1221  158.9188 H   0  0  0  0  0  0  0  0  0  0  0  0
  146.8221  140.8175  152.9412 H   0  0  0  0  0  0  0  0  0  0  0  0
  147.2326  142.5086  155.4681 H   0  0  0  0  0  0  0  0  0  0  0  0
  146.3328  142.9721  154.0311 H   0  0  0  0  0  0  0  0  0  0  0  0
  148.0749  142.7589  153.9458 H   0  0  0  0  0  0  0  0  0  0  0  0
  144.9634  139.9267  154.1348 H   0  0  0  0  0  0  0  0  0  0  0  0
  144.7596  141.8255  157.2490 H   0  0  0  0  0  0  0  0  0  0  0  0
  143.8408  141.3571  155.8186 H   0  0  0  0  0  0  0  0  0  0  0  0
  145.2515  142.4161  155.6615 H   0  0  0  0  0  0  0  0  0  0  0  0
  1  2  1  0  0  0  0
  1 23  1  0  0  0  0
  1 24  1  0  0  0  0
  1 25  1  0  0  0  0
  2  3  1  0  0  0  0
  2 26  1  0  0  0  0
  2 27  1  0  0  0  0
  3 19  1  0  0  0  0
  3  4  1  0  0  0  0
  3  6  1  0  0  0  0
  4  5  1  0  0  0  0
  4 28  1  0  0  0  0
  4 29  1  0  0  0  0
  5 30  1  0  0  0  0
  5 31  1  0  0  0  0
  5 32  1  0  0  0  0
  6  7  1  0  0  0  0
  6 17  1  0  0  0  0
  6 33  1  0  0  0  0
  7  8  1  0  0  0  0
  7 34  1  0  0  0  0
  8  9  2  0  0  0  0
  8 10  1  0  0  0  0
 10 35  1  0  0  0  0
 10 36  1  0  0  0  0
 10 11  1  0  0  0  0
 11 16  1  0  0  0  0
 11 12  2  0  0  0  0
 12 13  1  0  0  0  0
 12 37  1  0  0  0  0
 13 14  1  0  0  0  0
 13 15  2  0  0  0  0
 14 38  1  0  0  0  0
 14 39  1  0  0  0  0
 14 40  1  0  0  0  0
 15 16  1  0  0  0  0
 16 22  1  0  0  0  0
 17 18  1  0  0  0  0
 17 19  1  0  0  0  0
 17 41  1  0  0  0  0
 18 42  1  0  0  0  0
 18 43  1  0  0  0  0
 18 44  1  0  0  0  0
 19 20  1  0  0  0  0
 19 45  1  0  0  0  0
 20 21  1  0  0  0  0
 21 46  1  0  0  0  0
 21 47  1  0  0  0  0
 21 48  1  0  0  0  0
M  END
> <s_m_source_file>
AV-unprocessed.smi

> <i_m_source_file_index>
2510

> <i_lp_mmshare_version>
43012

> <i_f3d_flags>
0

> <s_epik_input>
W0NIM11PW0NAQEhdMVtDQEhdKFtDSDNdKVtDQEBIXShDMShbQ0gyXVtDSDNdKVtDSDJdW0NIM10pW05IXUMoPU8pW0NIMl1jMltjSF1jKFtDSDNdKVtuSF1uMg==

> <s_epik_cmdline>
J2VwaWtfcHl0aG9uJywgJy1waCcsICc3LjAnLCAnLXRuJywgJzgnLCAnLW1hJywgJzIwMCcsICctbWV0YWxfYmluZGluZycsICctaW1hZScsICc8aW5maWxlLm1hZT4nLCAnLW9tYWUnLCAnPG91dGZpbGUubWFlPic=

> <r_lp_tautomer_probability>
0.5

> <r_epik_Ionization_Penalty>
0.000134763

> <r_epik_Ionization_Penalty_Charging>
0

> <r_epik_Ionization_Penalty_Neutral>
0.000134763

> <r_epik_State_Penalty>
0.41068

> <r_epik_Charging_Adjusted_Penalty>
0.41068

> <i_epik_Tot_Q>
0

> <i_epik_Tot_abs_Q>
0

> <r_epik_Metal_State_Penalty>
0.410661

> <b_epik_Metal_Only>
0

> <s_lp_Force_Field>
OPLS_2005

> <r_lp_Energy>
25.7229

> <b_lp_Chiralities_Consistent>
1

> <s_lp_Variant>
AV-unprocessed.smi:2510-16

> <Gold.Version>
5.8.1

> <Gold.Id.Protein>
6NUR|6NUR_protein|mol2

> <Gold.PLP.Fitness>
31.5003

> <Gold.PLP.PLP>
-29.1215

> <Gold.PLP.part.hbond>
-2.0000

> <Gold.PLP.part.metal>
0.0000

> <Gold.PLP.part.buried>
-1.8942

> <Gold.PLP.part.nonpolar>
-26.2914

> <Gold.PLP.part.repulsive>
1.4034

> <Gold.PLP.ligand.clash>
0.0000

> <Gold.PLP.ligand.torsion>
0.5684

> <Gold.PLP.Chemscore.Hbond>
0.9600

> <Gold.PLP.Chemscore.CHOScore>
0.0000

> <Gold.PLP.Chemscore.Metal>
0.0000

> <Gold.Chemscore.Hbonds>
donor molecule, donor type, donor heavy atom, donor atom, acceptor molecule, acceptor atom, score
      P1  H  7989  7998       L1     9  0.98

> <Gold.PLP.Chemscore.Internal.Correction>
0.6357

> <Gold.Rescore>
     Score         DG    S(hbond)    S(metal)    S(lipo)     H(rot)  DE(clash)    DE(int)     intcor
     11.96     -13.86       0.96        0.00      83.75       1.81       0.35       1.55       ----

> <Gold.Chemscore.Fitness>
11.9578

> <Gold.Chemscore.DG>
-13.8578

> <Gold.Chemscore.ZeroCoef>
-5.4800

> <Gold.Chemscore.Hbond>
0.9621

> <Gold.Chemscore.Metal>
0.0000

> <Gold.Chemscore.Lipo>
83.7485

> <Gold.Chemscore.Internal_Hbond>
0.0000

> <Gold.Chemscore.DEClash>
0.3516

> <Gold.Chemscore.DEInternal>
1.5483

> <Gold.Chemscore.Rot>
1.8102

> <Gold.Chemscore.Internal.Correction>
   9.000000E+99

> <Gold.Chemscore.Hbonds>
donor molecule, donor type, donor heavy atom, donor atom, acceptor molecule, acceptor atom, score
      P1  H  7989  7998       L1     9  0.93

> <Gold.Chemscore.Hbond.Weighted>
-3.2133

> <Gold.Chemscore.Metal.Weighted>
-0.0000

> <Gold.Chemscore.Lipo.Weighted>
-9.7986

> <Gold.Chemscore.Internal_Hbond.Weighted>
0.0000

> <Gold.Chemscore.DEClash.Weighted>
0.3516

> <Gold.Chemscore.DEInternal.Weighted>
1.5483

> <Gold.Chemscore.Rot.Weighted>
4.6341

> <Gold.Chemscore.Internal.Correction.Weighted>
   9.000000E+99

> <Gold.Protein.RotatedTorsions>
[ 6907 6896 6895 6894 ] final  -78.73 input  -60.11 | X-H torsion
[ 7974 7965 7964 7962 ] final  -10.19 input  175.53 | X-H torsion
[ 8008 7997 7996 7995 ] final  -99.60 input   59.86 | X-H torsion
[ 10167 10162 10161 10158 ] final  -75.46 input  -65.29 | X-H torsion
[ 10718 10713 10712 10709 ] final   -7.52 input   66.30 | X-H torsion
[ 10763 10752 10751 10750 ] final  143.23 input  -60.55 | X-H torsion
[ 11005 11000 10999 10996 ] final   56.41 input  -57.11 | X-H torsion

> <Gold.Protein.ActiveResidues>
 VAL166  LYS551  ARG553  GLY616  TRP617  ASP618  TYR619  PRO620  LYS621  CYS622 
 ASP623  PHE694  ASN695  SER759  ASP760  ASP761  ALA762  ILE779  LEU786  VAL792 
 PHE793  MET794  SER795  GLU796  ALA797  LYS798  CYS799  TRP800  GLU811  SER814 

> <Gold.Protein.RotatedAtoms>
  150.6966  134.4228  159.5212 H   0  0  0  0  0  0  0  0  0  0  0  0  # atno 6907 bound_to 6896
  152.1968  134.8620  160.0521 H   0  0  0  0  0  0  0  0  0  0  0  0  # atno 6908 bound_to 6896
  151.9555  133.3644  159.4053 H   0  0  0  0  0  0  0  0  0  0  0  0  # atno 6909 bound_to 6896
  146.2228  140.2728  142.8357 H   0  0  0  0  0  0  0  0  0  0  0  0  # atno 7974 bound_to 7965
  154.8171  140.0446  157.1384 H   0  0  0  0  0  0  0  0  0  0  0  0  # atno 8008 bound_to 7997
  154.9302  140.3039  155.5151 H   0  0  0  0  0  0  0  0  0  0  0  0  # atno 8009 bound_to 7997
  156.2977  140.2324  156.4361 H   0  0  0  0  0  0  0  0  0  0  0  0  # atno 8010 bound_to 7997
  140.4940  143.2374  151.7860 H   0  0  0  0  0  0  0  0  0  0  0  0  # atno 10167 bound_to 10162
  156.7160  130.5136  149.5880 H   0  0  0  0  0  0  0  0  0  0  0  0  # atno 10718 bound_to 10713
  153.9689  135.2952  155.3428 H   0  0  0  0  0  0  0  0  0  0  0  0  # atno 10763 bound_to 10752
  154.7333  135.5058  153.9003 H   0  0  0  0  0  0  0  0  0  0  0  0  # atno 10764 bound_to 10752
  153.0910  135.6707  153.9967 H   0  0  0  0  0  0  0  0  0  0  0  0  # atno 10765 bound_to 10752
  140.0531  134.5708  155.9240 H   0  0  0  0  0  0  0  0  0  0  0  0  # atno 11005 bound_to 11000
  144.9255  140.7916  143.5721 LP  0  0  0  0  0  0  0  0  0  0  0  0  # atno 17320 bound_to 7965
  145.2668  139.1970  143.4863 LP  0  0  0  0  0  0  0  0  0  0  0  0  # atno 17321 bound_to 7965
  139.4857  144.4611  151.9540 LP  0  0  0  0  0  0  0  0  0  0  0  0  # atno 17342 bound_to 10162
  140.3698  144.2869  150.5921 LP  0  0  0  0  0  0  0  0  0  0  0  0  # atno 17343 bound_to 10162
  156.1628  130.6385  151.0740 LP  0  0  0  0  0  0  0  0  0  0  0  0  # atno 17370 bound_to 10713
  157.6917  131.0807  150.7087 LP  0  0  0  0  0  0  0  0  0  0  0  0  # atno 17371 bound_to 10713
  141.1939  133.6581  156.5572 LP  0  0  0  0  0  0  0  0  0  0  0  0  # atno 17394 bound_to 11000
  140.3886  134.7460  157.4707 LP  0  0  0  0  0  0  0  0  0  0  0  0  # atno 17395 bound_to 11000

$$$$
