AV-unprocessed.smi:817|AV-procd|sdf|3828|dock9
  -GOLD-   22720 1273D 1   1.00000     0.00000
 Structure written by MMmdl.
 48 49  0  0  0  0  0  0  0  0  2 V2000
  148.2859  140.8778  153.7786 C   0  0  0  0  0  0  0  0  0  0  0  0
  148.8564  139.8309  154.7457 C   0  0  2  0  0  0  0  0  0  0  0  0
  150.3289  139.5178  154.4233 C   0  0  0  0  0  0  0  0  0  0  0  0
  150.8917  138.4227  155.3410 C   0  0  0  0  0  0  0  0  0  0  0  0
  150.0074  137.1629  155.3068 C   0  0  0  0  0  0  0  0  0  0  0  0
  148.5335  137.4507  155.7243 C   0  0  1  0  0  0  0  0  0  0  0  0
  147.6817  136.1522  155.5827 C   0  0  0  0  0  0  0  0  0  0  0  0
  147.5681  135.6822  154.2004 N   0  0  0  0  0  0  0  0  0  0  0  0
  146.5729  134.9584  153.6598 C   0  0  0  0  0  0  0  0  0  0  0  0
  145.6159  134.5918  154.3373 O   0  0  0  0  0  0  0  0  0  0  0  0
  146.7473  134.6744  152.3539 N   0  0  0  0  0  0  0  0  0  0  0  0
  145.8966  133.9451  151.4801 C   0  0  0  0  0  0  0  0  0  0  0  0
  144.5037  134.0620  151.6671 C   0  0  0  0  0  0  0  0  0  0  0  0
  143.6347  133.3398  150.8277 C   0  0  0  0  0  0  0  0  0  0  0  0
  144.1961  132.5169  149.8326 C   0  0  0  0  0  0  0  0  0  0  0  0
  145.5261  132.3805  149.6492 N   0  0  0  0  0  0  0  0  0  0  0  0
  146.3541  133.0771  150.4572 C   0  0  0  0  0  0  0  0  0  0  0  0
  148.4798  137.9634  157.1451 N   0  3  0  0  0  0  0  0  0  0  0  0
  149.1273  137.1047  158.1721 C   0  0  0  0  0  0  0  0  0  0  0  0
  147.1473  138.4207  157.6217 C   0  0  0  0  0  0  0  0  0  0  0  0
  148.0149  138.5350  154.7295 C   0  0  0  0  0  0  0  0  0  0  0  0
  148.2915  140.5138  152.7505 H   0  0  0  0  0  0  0  0  0  0  0  0
  148.8689  141.7989  153.8080 H   0  0  0  0  0  0  0  0  0  0  0  0
  147.2571  141.1313  154.0357 H   0  0  0  0  0  0  0  0  0  0  0  0
  148.8144  140.2636  155.7459 H   0  0  0  0  0  0  0  0  0  0  0  0
  150.4156  139.1947  153.3849 H   0  0  0  0  0  0  0  0  0  0  0  0
  150.9339  140.4207  154.5151 H   0  0  0  0  0  0  0  0  0  0  0  0
  151.9046  138.1691  155.0272 H   0  0  0  0  0  0  0  0  0  0  0  0
  150.9752  138.7999  156.3607 H   0  0  0  0  0  0  0  0  0  0  0  0
  150.0336  136.7754  154.2877 H   0  0  0  0  0  0  0  0  0  0  0  0
  150.4522  136.3710  155.9077 H   0  0  0  0  0  0  0  0  0  0  0  0
  148.1182  135.3441  156.1699 H   0  0  0  0  0  0  0  0  0  0  0  0
  146.6730  136.3151  155.9623 H   0  0  0  0  0  0  0  0  0  0  0  0
  148.3295  135.9293  153.5845 H   0  0  0  0  0  0  0  0  0  0  0  0
  147.6218  134.9760  151.9506 H   0  0  0  0  0  0  0  0  0  0  0  0
  144.1026  134.6997  152.4412 H   0  0  0  0  0  0  0  0  0  0  0  0
  142.5636  133.4145  150.9431 H   0  0  0  0  0  0  0  0  0  0  0  0
  143.5603  131.9490  149.1696 H   0  0  0  0  0  0  0  0  0  0  0  0
  147.4036  132.9059  150.2770 H   0  0  0  0  0  0  0  0  0  0  0  0
  148.6109  136.1529  158.2917 H   0  0  0  0  0  0  0  0  0  0  0  0
  149.1107  137.6028  159.1420 H   0  0  0  0  0  0  0  0  0  0  0  0
  150.1760  136.9097  157.9566 H   0  0  0  0  0  0  0  0  0  0  0  0
  146.4239  137.6065  157.6541 H   0  0  0  0  0  0  0  0  0  0  0  0
  146.7398  139.2273  157.0146 H   0  0  0  0  0  0  0  0  0  0  0  0
  147.2259  138.8220  158.6327 H   0  0  0  0  0  0  0  0  0  0  0  0
  146.9628  138.7595  154.9016 H   0  0  0  0  0  0  0  0  0  0  0  0
  148.0422  138.1422  153.7122 H   0  0  0  0  0  0  0  0  0  0  0  0
  149.0419  138.8027  157.1266 H   0  0  0  0  0  0  0  0  0  0  0  0
  1  2  1  0  0  0  0
  1 22  1  0  0  0  0
  1 23  1  0  0  0  0
  1 24  1  0  0  0  0
  2 21  1  0  0  0  0
  2  3  1  0  0  0  0
  2 25  1  0  0  0  0
  3  4  1  0  0  0  0
  3 26  1  0  0  0  0
  3 27  1  0  0  0  0
  4  5  1  0  0  0  0
  4 28  1  0  0  0  0
  4 29  1  0  0  0  0
  5  6  1  0  0  0  0
  5 30  1  0  0  0  0
  5 31  1  0  0  0  0
  6  7  1  0  0  0  0
  6 18  1  0  0  0  0
  6 21  1  0  0  0  0
  7  8  1  0  0  0  0
  7 32  1  0  0  0  0
  7 33  1  0  0  0  0
  8  9  1  0  0  0  0
  8 34  1  0  0  0  0
  9 10  2  0  0  0  0
  9 11  1  0  0  0  0
 11 12  1  0  0  0  0
 11 35  1  0  0  0  0
 12 17  1  0  0  0  0
 12 13  2  0  0  0  0
 13 14  1  0  0  0  0
 13 36  1  0  0  0  0
 14 15  2  0  0  0  0
 14 37  1  0  0  0  0
 15 16  1  0  0  0  0
 15 38  1  0  0  0  0
 16 17  2  0  0  0  0
 17 39  1  0  0  0  0
 18 19  1  0  0  0  0
 18 20  1  0  0  0  0
 18 48  1  0  0  0  0
 19 40  1  0  0  0  0
 19 41  1  0  0  0  0
 19 42  1  0  0  0  0
 20 43  1  0  0  0  0
 20 44  1  0  0  0  0
 20 45  1  0  0  0  0
 21 46  1  0  0  0  0
 21 47  1  0  0  0  0
M  CHG  1  18   1
M  END
> <s_m_source_file>
AV-unprocessed.smi

> <i_m_source_file_index>
817

> <i_lp_mmshare_version>
43012

> <i_f3d_flags>
0

> <s_epik_input>
W0NIM11bQ0BASF0oW0NIMl0xKVtDSDJdW0NIMl1bQ0gyXVtDQF0xKE4oW0NIM10pW0NIM10pW0NIMl1bTkhdQyg9TylbTkhdYzJbY0hdW2NIXVtjSF1uW2NIXTI=

> <s_epik_cmdline>
J2VwaWtfcHl0aG9uJywgJy1waCcsICc3LjAnLCAnLXRuJywgJzgnLCAnLW1hJywgJzIwMCcsICctbWV0YWxfYmluZGluZycsICctaW1hZScsICc8aW5maWxlLm1hZT4nLCAnLW9tYWUnLCAnPG91dGZpbGUubWFlPic=

> <r_lp_tautomer_probability>
1

> <r_epik_Ionization_Penalty>
0.00584939

> <r_epik_Ionization_Penalty_Charging>
0.00160539

> <r_epik_Ionization_Penalty_Neutral>
0.004244

> <r_epik_State_Penalty>
-0

> <r_epik_Charging_Adjusted_Penalty>
0.00160539

> <i_epik_Tot_Q>
1

> <i_epik_Tot_abs_Q>
1

> <r_epik_Metal_State_Penalty>
-0

> <b_epik_Metal_Only>
0

> <s_lp_Force_Field>
OPLS_2005

> <r_lp_Energy>
44.2375

> <b_lp_Chiralities_Consistent>
1

> <s_lp_Variant>
AV-unprocessed.smi:817-1

> <Gold.Version>
5.8.1

> <Gold.Id.Protein>
6NUR|6NUR_protein|mol2

> <Gold.PLP.Fitness>
36.5096

> <Gold.PLP.PLP>
-28.4465

> <Gold.PLP.part.hbond>
-2.0000

> <Gold.PLP.part.metal>
0.0000

> <Gold.PLP.part.buried>
-3.5624

> <Gold.PLP.part.nonpolar>
-23.2479

> <Gold.PLP.part.repulsive>
0.2740

> <Gold.PLP.ligand.clash>
0.0000

> <Gold.PLP.ligand.torsion>
0.5281

> <Gold.PLP.Chemscore.Hbond>
2.0000

> <Gold.PLP.Chemscore.CHOScore>
1.0000

> <Gold.PLP.Chemscore.Metal>
0.0000

> <Gold.Chemscore.Hbonds>
donor molecule, donor type, donor heavy atom, donor atom, acceptor molecule, acceptor atom, score
      L1  H     8    34       P1  7948  0.99
      L1  H    11    35       P1  7948  1.00
      L1  C    17    39       P1 10747  0.91

> <Gold.PLP.Chemscore.Internal.Correction>
0.1194

> <Gold.Rescore>
     Score         DG    S(hbond)    S(metal)    S(lipo)     H(rot)  DE(clash)    DE(int)     intcor
     14.53     -16.73       1.89        0.00      73.79       1.44       0.43       1.77       ----

> <Gold.Chemscore.Fitness>
14.5345

> <Gold.Chemscore.DG>
-16.7289

> <Gold.Chemscore.ZeroCoef>
-5.4800

> <Gold.Chemscore.Hbond>
1.8873

> <Gold.Chemscore.Metal>
0.0000

> <Gold.Chemscore.Lipo>
73.7867

> <Gold.Chemscore.Internal_Hbond>
0.0000

> <Gold.Chemscore.DEClash>
0.4286

> <Gold.Chemscore.DEInternal>
1.7658

> <Gold.Chemscore.Rot>
1.4405

> <Gold.Chemscore.Internal.Correction>
   9.000000E+99

> <Gold.Chemscore.Hbonds>
donor molecule, donor type, donor heavy atom, donor atom, acceptor molecule, acceptor atom, score
      L1  H     8    34       P1  7948  0.94
      L1  H    11    35       P1  7948  0.78

> <Gold.Chemscore.Hbond.Weighted>
-6.3036

> <Gold.Chemscore.Metal.Weighted>
-0.0000

> <Gold.Chemscore.Lipo.Weighted>
-8.6330

> <Gold.Chemscore.Internal_Hbond.Weighted>
0.0000

> <Gold.Chemscore.DEClash.Weighted>
0.4286

> <Gold.Chemscore.DEInternal.Weighted>
1.7658

> <Gold.Chemscore.Rot.Weighted>
3.6878

> <Gold.Chemscore.Internal.Correction.Weighted>
   9.000000E+99

> <Gold.Protein.RotatedTorsions>
[ 6907 6896 6895 6894 ] final  -51.93 input  -60.11 | X-H torsion
[ 7974 7965 7964 7962 ] final -172.98 input  175.53 | X-H torsion
[ 8008 7997 7996 7995 ] final  113.29 input   59.86 | X-H torsion
[ 10167 10162 10161 10158 ] final  -68.20 input  -65.29 | X-H torsion
[ 10718 10713 10712 10709 ] final  127.78 input   66.30 | X-H torsion
[ 10763 10752 10751 10750 ] final  172.90 input  -60.55 | X-H torsion
[ 11005 11000 10999 10996 ] final -156.45 input  -57.11 | X-H torsion

> <Gold.Protein.ActiveResidues>
 VAL166  LYS551  ARG553  GLY616  TRP617  ASP618  TYR619  PRO620  LYS621  CYS622 
 ASP623  PHE694  ASN695  SER759  ASP760  ASP761  ALA762  ILE779  LEU786  VAL792 
 PHE793  MET794  SER795  GLU796  ALA797  LYS798  CYS799  TRP800  GLU811  SER814 

> <Gold.Protein.RotatedAtoms>
  150.8565  134.7906  159.7049 H   0  0  0  0  0  0  0  0  0  0  0  0  # atno 6907 bound_to 6896
  152.4615  134.5169  159.9781 H   0  0  0  0  0  0  0  0  0  0  0  0  # atno 6908 bound_to 6896
  151.5281  133.3416  159.2949 H   0  0  0  0  0  0  0  0  0  0  0  0  # atno 6909 bound_to 6896
  144.7141  140.1690  143.6369 H   0  0  0  0  0  0  0  0  0  0  0  0  # atno 7974 bound_to 7965
  156.2248  140.2982  156.0040 H   0  0  0  0  0  0  0  0  0  0  0  0  # atno 8008 bound_to 7997
  155.2386  140.0421  157.2989 H   0  0  0  0  0  0  0  0  0  0  0  0  # atno 8009 bound_to 7997
  154.5898  140.2398  155.7945 H   0  0  0  0  0  0  0  0  0  0  0  0  # atno 8010 bound_to 7997
  140.5525  143.2312  151.6884 H   0  0  0  0  0  0  0  0  0  0  0  0  # atno 10167 bound_to 10162
  157.5303  131.1098  150.9020 H   0  0  0  0  0  0  0  0  0  0  0  0  # atno 10718 bound_to 10713
  154.4325  135.2760  155.1903 H   0  0  0  0  0  0  0  0  0  0  0  0  # atno 10763 bound_to 10752
  154.3803  135.6089  153.5791 H   0  0  0  0  0  0  0  0  0  0  0  0  # atno 10764 bound_to 10752
  152.9837  135.5878  154.4639 H   0  0  0  0  0  0  0  0  0  0  0  0  # atno 10765 bound_to 10752
  140.6754  134.4202  157.5229 H   0  0  0  0  0  0  0  0  0  0  0  0  # atno 11005 bound_to 11000
  145.8961  139.2403  143.1521 LP  0  0  0  0  0  0  0  0  0  0  0  0  # atno 17320 bound_to 7965
  145.9856  140.8646  143.0092 LP  0  0  0  0  0  0  0  0  0  0  0  0  # atno 17321 bound_to 7965
  139.5033  144.3795  152.0390 LP  0  0  0  0  0  0  0  0  0  0  0  0  # atno 17342 bound_to 10162
  140.2913  144.3750  150.6088 LP  0  0  0  0  0  0  0  0  0  0  0  0  # atno 17343 bound_to 10162
  156.9603  130.5453  149.5285 LP  0  0  0  0  0  0  0  0  0  0  0  0  # atno 17370 bound_to 10713
  156.0417  130.5499  150.8786 LP  0  0  0  0  0  0  0  0  0  0  0  0  # atno 17371 bound_to 10713
  139.8968  134.8651  156.2071 LP  0  0  0  0  0  0  0  0  0  0  0  0  # atno 17394 bound_to 11000
  141.0359  133.6963  156.1512 LP  0  0  0  0  0  0  0  0  0  0  0  0  # atno 17395 bound_to 11000

$$$$
