AV-unprocessed.smi:3150|AV-procd|sdf|12014|dock3
  -GOLD-   2272017423D 1   1.00000     0.00000
 Structure written by MMmdl.
 32 33  0  0  0  0  0  0  0  0  2 V2000
  155.3144  140.9451  160.8775 C   0  0  0  0  0  0  0  0  0  0  0  0
  153.9059  141.1296  160.2925 C   0  0  1  0  0  0  0  0  0  0  0  0
  153.7884  142.4867  159.8722 O   0  0  0  0  0  0  0  0  0  0  0  0
  152.4934  143.0577  160.0159 C   0  0  0  0  0  0  0  0  0  0  0  0
  152.4561  144.3759  159.2735 C   0  0  0  0  0  0  0  0  0  0  0  0
  151.1336  145.0490  158.9831 C   0  0  0  0  0  0  0  0  0  0  0  0
  151.9345  144.4485  157.8560 C   0  0  0  0  0  0  0  0  0  0  0  0
  153.6567  140.1795  159.1093 C   0  0  0  0  0  0  0  0  0  0  0  0
  154.5295  139.3768  158.7753 O   0  0  0  0  0  0  0  0  0  0  0  0
  152.4651  140.3147  158.4985 N   0  0  0  0  0  0  0  0  0  0  0  0
  151.9509  139.6046  157.3788 C   0  0  0  0  0  0  0  0  0  0  0  0
  152.6947  138.7294  156.6561 N   0  0  0  0  0  0  0  0  0  0  0  0
  152.1338  138.0947  155.6063 C   0  0  0  0  0  0  0  0  0  0  0  0
  150.7992  138.2905  155.2102 C   0  0  0  0  0  0  0  0  0  0  0  0
  150.0160  139.1943  155.9489 C   0  0  0  0  0  0  0  0  0  0  0  0
  150.5942  139.8617  157.0472 C   0  0  0  0  0  0  0  0  0  0  0  0
  149.8312  140.7429  157.7650 O   0  5  0  0  0  0  0  0  0  0  0  0
  155.4767  139.9169  161.2025 H   0  0  0  0  0  0  0  0  0  0  0  0
  155.4594  141.5904  161.7440 H   0  0  0  0  0  0  0  0  0  0  0  0
  156.0878  141.1941  160.1498 H   0  0  0  0  0  0  0  0  0  0  0  0
  153.1807  140.9318  161.0845 H   0  0  0  0  0  0  0  0  0  0  0  0
  151.7167  142.3998  159.6242 H   0  0  0  0  0  0  0  0  0  0  0  0
  152.2768  143.2408  161.0690 H   0  0  0  0  0  0  0  0  0  0  0  0
  153.2806  145.0427  159.5189 H   0  0  0  0  0  0  0  0  0  0  0  0
  150.2242  144.5314  159.2823 H   0  0  0  0  0  0  0  0  0  0  0  0
  151.0965  146.1342  159.0515 H   0  0  0  0  0  0  0  0  0  0  0  0
  152.4342  145.1322  157.1727 H   0  0  0  0  0  0  0  0  0  0  0  0
  151.5607  143.5307  157.4062 H   0  0  0  0  0  0  0  0  0  0  0  0
  151.8453  141.0204  158.8695 H   0  0  0  0  0  0  0  0  0  0  0  0
  152.7699  137.4094  155.0658 H   0  0  0  0  0  0  0  0  0  0  0  0
  150.3877  137.7622  154.3632 H   0  0  0  0  0  0  0  0  0  0  0  0
  148.9862  139.3720  155.6747 H   0  0  0  0  0  0  0  0  0  0  0  0
  1  2  1  0  0  0  0
  1 18  1  0  0  0  0
  1 19  1  0  0  0  0
  1 20  1  0  0  0  0
  2  3  1  0  0  0  0
  2  8  1  0  0  0  0
  2 21  1  0  0  0  0
  3  4  1  0  0  0  0
  4  5  1  0  0  0  0
  4 22  1  0  0  0  0
  4 23  1  0  0  0  0
  5  7  1  0  0  0  0
  5  6  1  0  0  0  0
  5 24  1  0  0  0  0
  6  7  1  0  0  0  0
  6 25  1  0  0  0  0
  6 26  1  0  0  0  0
  7 27  1  0  0  0  0
  7 28  1  0  0  0  0
  8  9  2  0  0  0  0
  8 10  1  0  0  0  0
 10 29  1  0  0  0  0
 10 11  1  0  0  0  0
 11 16  2  0  0  0  0
 11 12  1  0  0  0  0
 12 13  2  0  0  0  0
 13 30  1  0  0  0  0
 13 14  1  0  0  0  0
 14 31  1  0  0  0  0
 14 15  2  0  0  0  0
 15 16  1  0  0  0  0
 15 32  1  0  0  0  0
 16 17  1  0  0  0  0
M  CHG  1  17  -1
M  END
> <s_m_source_file>
AV-unprocessed.smi

> <i_m_source_file_index>
3150

> <i_lp_mmshare_version>
43012

> <i_f3d_flags>
0

> <s_epik_input>
W0NIMl0xW0NIMl1bQ0hdMVtDSDJdT1tDQEBIXShbQ0gzXSlDKD1PKVtOSF1jMm5bY0hdW2NIXVtjSF1jMltPSF0=

> <s_epik_cmdline>
J2VwaWtfcHl0aG9uJywgJy1waCcsICc3LjAnLCAnLXRuJywgJzgnLCAnLW1hJywgJzIwMCcsICctbWV0YWxfYmluZGluZycsICctaW1hZScsICc8aW5maWxlLm1hZT4nLCAnLW9tYWUnLCAnPG91dGZpbGUubWFlPic=

> <r_epik_Ionization_Penalty>
4.12024

> <r_epik_Ionization_Penalty_Charging>
2.08551

> <r_epik_Ionization_Penalty_Neutral>
2.03473

> <r_epik_State_Penalty>
2.65726

> <r_epik_Charging_Adjusted_Penalty>
4.74277

> <i_epik_Tot_Q>
-1

> <i_epik_Tot_abs_Q>
1

> <r_epik_Metal_State_Penalty>
0.600747

> <b_epik_Metal_Only>
0

> <s_lp_Force_Field>
OPLS_2005

> <r_lp_Energy>
13.8702

> <b_lp_Chiralities_Consistent>
1

> <s_lp_Variant>
AV-unprocessed.smi:3150-8

> <Gold.Version>
5.8.1

> <Gold.Id.Protein>
6NUR|6NUR_protein|mol2

> <Gold.PLP.Fitness>
43.8403

> <Gold.PLP.PLP>
-39.9824

> <Gold.PLP.part.hbond>
-2.0000

> <Gold.PLP.part.metal>
0.0000

> <Gold.PLP.part.buried>
-4.0097

> <Gold.PLP.part.nonpolar>
-33.4893

> <Gold.PLP.part.repulsive>
0.1508

> <Gold.PLP.ligand.clash>
0.0000

> <Gold.PLP.ligand.torsion>
0.7732

> <Gold.PLP.Chemscore.Hbond>
1.6000

> <Gold.PLP.Chemscore.CHOScore>
0.0000

> <Gold.PLP.Chemscore.Metal>
0.0000

> <Gold.Chemscore.Hbonds>
donor molecule, donor type, donor heavy atom, donor atom, acceptor molecule, acceptor atom, score
      P1  H  7997  8009       L1     9  1.00
      P1  H  7997  8010       L1    12  0.01

> <Gold.PLP.Chemscore.Internal.Correction>
0.6042

> <Gold.Rescore>
     Score         DG    S(hbond)    S(metal)    S(lipo)     H(rot)  DE(clash)    DE(int)     intcor
     13.36     -15.64       0.91        0.00      96.69       1.64       0.05       2.23       ----

> <Gold.Chemscore.Fitness>
13.3626

> <Gold.Chemscore.DG>
-15.6444

> <Gold.Chemscore.ZeroCoef>
-5.4800

> <Gold.Chemscore.Hbond>
0.9122

> <Gold.Chemscore.Metal>
0.0000

> <Gold.Chemscore.Lipo>
96.6906

> <Gold.Chemscore.Internal_Hbond>
0.0000

> <Gold.Chemscore.DEClash>
0.0513

> <Gold.Chemscore.DEInternal>
2.2305

> <Gold.Chemscore.Rot>
1.6387

> <Gold.Chemscore.Internal.Correction>
   9.000000E+99

> <Gold.Chemscore.Hbonds>
donor molecule, donor type, donor heavy atom, donor atom, acceptor molecule, acceptor atom, score
      P1  H  7997  8009       L1     9  0.58
      P1  H  7997  8010       L1    12  0.01

> <Gold.Chemscore.Hbond.Weighted>
-3.0466

> <Gold.Chemscore.Metal.Weighted>
-0.0000

> <Gold.Chemscore.Lipo.Weighted>
-11.3128

> <Gold.Chemscore.Internal_Hbond.Weighted>
0.0000

> <Gold.Chemscore.DEClash.Weighted>
0.0513

> <Gold.Chemscore.DEInternal.Weighted>
2.2305

> <Gold.Chemscore.Rot.Weighted>
4.1950

> <Gold.Chemscore.Internal.Correction.Weighted>
   9.000000E+99

> <Gold.Protein.RotatedTorsions>
[ 6907 6896 6895 6894 ] final  135.13 input  -60.11 | X-H torsion
[ 7974 7965 7964 7962 ] final   54.72 input  175.53 | X-H torsion
[ 8008 7997 7996 7995 ] final  107.09 input   59.86 | X-H torsion
[ 10167 10162 10161 10158 ] final   57.26 input  -65.29 | X-H torsion
[ 10718 10713 10712 10709 ] final  -69.45 input   66.30 | X-H torsion
[ 10763 10752 10751 10750 ] final -174.18 input  -60.55 | X-H torsion
[ 11005 11000 10999 10996 ] final -135.13 input  -57.11 | X-H torsion

> <Gold.Protein.ActiveResidues>
 VAL166  LYS551  ARG553  GLY616  TRP617  ASP618  TYR619  PRO620  LYS621  CYS622 
 ASP623  PHE694  ASN695  SER759  ASP760  ASP761  ALA762  ILE779  LEU786  VAL792 
 PHE793  MET794  SER795  GLU796  ALA797  LYS798  CYS799  TRP800  GLU811  SER814 

> <Gold.Protein.RotatedAtoms>
  152.3038  133.5682  159.5635 H   0  0  0  0  0  0  0  0  0  0  0  0  # atno 6907 bound_to 6896
  150.7290  134.0253  159.3724 H   0  0  0  0  0  0  0  0  0  0  0  0  # atno 6908 bound_to 6896
  151.8151  135.0669  160.0469 H   0  0  0  0  0  0  0  0  0  0  0  0  # atno 6909 bound_to 6896
  145.9579  139.4032  143.0266 H   0  0  0  0  0  0  0  0  0  0  0  0  # atno 7974 bound_to 7965
  156.1796  140.3101  155.9124 H   0  0  0  0  0  0  0  0  0  0  0  0  # atno 8008 bound_to 7997
  155.3412  140.0466  157.3062 H   0  0  0  0  0  0  0  0  0  0  0  0  # atno 8009 bound_to 7997
  154.5328  140.2236  155.8784 H   0  0  0  0  0  0  0  0  0  0  0  0  # atno 8010 bound_to 7997
  140.1999  144.3999  150.6534 H   0  0  0  0  0  0  0  0  0  0  0  0  # atno 10167 bound_to 10162
  156.0455  130.4313  150.2149 H   0  0  0  0  0  0  0  0  0  0  0  0  # atno 10718 bound_to 10713
  154.5992  135.2853  155.0554 H   0  0  0  0  0  0  0  0  0  0  0  0  # atno 10763 bound_to 10752
  154.1825  135.6454  153.5042 H   0  0  0  0  0  0  0  0  0  0  0  0  # atno 10764 bound_to 10752
  153.0150  135.5427  154.6705 H   0  0  0  0  0  0  0  0  0  0  0  0  # atno 10765 bound_to 10752
  140.8927  134.1792  157.4517 H   0  0  0  0  0  0  0  0  0  0  0  0  # atno 11005 bound_to 11000
  145.8080  140.9739  143.0963 LP  0  0  0  0  0  0  0  0  0  0  0  0  # atno 17320 bound_to 7965
  144.6809  139.9885  143.7484 LP  0  0  0  0  0  0  0  0  0  0  0  0  # atno 17321 bound_to 7965
  140.6398  143.2201  151.6316 LP  0  0  0  0  0  0  0  0  0  0  0  0  # atno 17342 bound_to 10162
  139.5221  144.3172  152.0942 LP  0  0  0  0  0  0  0  0  0  0  0  0  # atno 17343 bound_to 10162
  157.0240  130.9987  151.3331 LP  0  0  0  0  0  0  0  0  0  0  0  0  # atno 17370 bound_to 10713
  157.5324  130.8067  149.7933 LP  0  0  0  0  0  0  0  0  0  0  0  0  # atno 17371 bound_to 10713
  139.8731  134.9865  156.5327 LP  0  0  0  0  0  0  0  0  0  0  0  0  # atno 17394 bound_to 11000
  140.8327  133.8266  155.9000 LP  0  0  0  0  0  0  0  0  0  0  0  0  # atno 17395 bound_to 11000

$$$$
