AV-unprocessed.smi:1452|AV-procd|sdf|5903|dock3
  -GOLD-   22720 5593D 1   1.00000     0.00000
 Structure written by MMmdl.
 40 42  0  0  0  0  0  0  0  0  2 V2000
  149.4559  134.1528  155.7367 O   0  0  0  0  0  0  0  0  0  0  0  0
  149.2528  134.7488  154.6804 C   0  0  0  0  0  0  0  0  0  0  0  0
  149.9280  135.8779  154.3760 N   0  0  0  0  0  0  0  0  0  0  0  0
  150.9294  136.6032  155.0877 C   0  0  0  0  0  0  0  0  0  0  0  0
  151.2690  137.8483  154.5117 C   0  0  0  0  0  0  0  0  0  0  0  0
  152.2491  138.6545  155.1223 C   0  0  0  0  0  0  0  0  0  0  0  0
  152.8685  138.1948  156.2977 C   0  0  0  0  0  0  0  0  0  0  0  0
  152.4755  136.9443  156.8075 C   0  0  0  0  0  0  0  0  0  0  0  0
  151.5368  136.1701  156.2226 N   0  0  0  0  0  0  0  0  0  0  0  0
  148.3596  134.3260  153.7712 N   0  0  0  0  0  0  0  0  0  0  0  0
  147.5143  133.1434  153.8935 C   0  0  2  0  0  0  0  0  0  0  0  0
  148.3020  131.8878  154.3082 C   0  0  0  0  0  0  0  0  0  0  0  0
  147.6777  130.7292  153.5056 C   0  0  0  0  0  0  0  0  0  0  0  0
  146.5364  131.3241  152.7846 N   0  3  2  0  0  0  0  0  0  0  0  0
  146.0841  130.6371  151.5553 C   0  0  0  0  0  0  0  0  0  0  0  0
  144.8392  131.3571  150.9997 C   0  0  0  0  0  0  0  0  0  0  0  0
  145.0905  132.8662  150.8054 C   0  0  0  0  0  0  0  0  0  0  0  0
  145.6491  133.5075  152.0903 C   0  0  0  0  0  0  0  0  0  0  0  0
  146.8935  132.7322  152.5556 C   0  0  1  0  0  0  0  0  0  0  0  0
  149.6947  136.2706  153.4755 H   0  0  0  0  0  0  0  0  0  0  0  0
  150.7840  138.1887  153.6080 H   0  0  0  0  0  0  0  0  0  0  0  0
  152.5197  139.6091  154.6956 H   0  0  0  0  0  0  0  0  0  0  0  0
  153.6241  138.7851  156.7949 H   0  0  0  0  0  0  0  0  0  0  0  0
  152.9252  136.5546  157.7086 H   0  0  0  0  0  0  0  0  0  0  0  0
  148.2586  134.8753  152.9287 H   0  0  0  0  0  0  0  0  0  0  0  0
  146.7233  133.3104  154.6278 H   0  0  0  0  0  0  0  0  0  0  0  0
  149.3606  131.9791  154.0596 H   0  0  0  0  0  0  0  0  0  0  0  0
  148.2328  131.7195  155.3835 H   0  0  0  0  0  0  0  0  0  0  0  0
  148.4050  130.3329  152.7952 H   0  0  0  0  0  0  0  0  0  0  0  0
  147.3467  129.9103  154.1446 H   0  0  0  0  0  0  0  0  0  0  0  0
  146.8855  130.6327  150.8149 H   0  0  0  0  0  0  0  0  0  0  0  0
  145.8478  129.5970  151.7825 H   0  0  0  0  0  0  0  0  0  0  0  0
  144.5351  130.9043  150.0558 H   0  0  0  0  0  0  0  0  0  0  0  0
  144.0054  131.2186  151.6892 H   0  0  0  0  0  0  0  0  0  0  0  0
  145.7995  133.0127  149.9896 H   0  0  0  0  0  0  0  0  0  0  0  0
  144.1684  133.3653  150.5062 H   0  0  0  0  0  0  0  0  0  0  0  0
  145.8993  134.5519  151.9034 H   0  0  0  0  0  0  0  0  0  0  0  0
  144.8875  133.5016  152.8710 H   0  0  0  0  0  0  0  0  0  0  0  0
  147.6596  132.7744  151.7776 H   0  0  0  0  0  0  0  0  0  0  0  0
  145.7600  131.3297  153.4306 H   0  0  0  0  0  0  0  0  0  0  0  0
  1  2  2  0  0  0  0
  2  3  1  0  0  0  0
  2 10  1  0  0  0  0
  3  4  1  0  0  0  0
  3 20  1  0  0  0  0
  4  9  1  0  0  0  0
  4  5  2  0  0  0  0
  5  6  1  0  0  0  0
  5 21  1  0  0  0  0
  6  7  2  0  0  0  0
  6 22  1  0  0  0  0
  7  8  1  0  0  0  0
  7 23  1  0  0  0  0
  8  9  2  0  0  0  0
  8 24  1  0  0  0  0
 10 11  1  0  0  0  0
 10 25  1  0  0  0  0
 11 19  1  0  0  0  0
 11 12  1  0  0  0  0
 11 26  1  0  0  0  0
 12 13  1  0  0  0  0
 12 27  1  0  0  0  0
 12 28  1  0  0  0  0
 13 14  1  0  0  0  0
 13 29  1  0  0  0  0
 13 30  1  0  0  0  0
 14 19  1  0  0  0  0
 14 15  1  0  0  0  0
 14 40  1  0  0  0  0
 15 16  1  0  0  0  0
 15 31  1  0  0  0  0
 15 32  1  0  0  0  0
 16 17  1  0  0  0  0
 16 33  1  0  0  0  0
 16 34  1  0  0  0  0
 17 18  1  0  0  0  0
 17 35  1  0  0  0  0
 17 36  1  0  0  0  0
 18 19  1  0  0  0  0
 18 37  1  0  0  0  0
 18 38  1  0  0  0  0
 19 39  1  0  0  0  0
M  CHG  1  14   1
M  END
> <s_m_source_file>
AV-unprocessed.smi

> <i_m_source_file_index>
1452

> <i_lp_mmshare_version>
43012

> <i_f3d_flags>
0

> <s_epik_input>
W0NIMl0xW0NIMl1bQ0gyXVtDSDJdW0NASF0oTjEyKVtDQEBIXShbQ0gyXVtDSDJdMilbTkhdQyg9TylbTkhdYzNbY0hdW2NIXVtjSF1bY0hdbjM=

> <s_epik_cmdline>
J2VwaWtfcHl0aG9uJywgJy1waCcsICc3LjAnLCAnLXRuJywgJzgnLCAnLW1hJywgJzIwMCcsICctbWV0YWxfYmluZGluZycsICctaW1hZScsICc8aW5maWxlLm1hZT4nLCAnLW9tYWUnLCAnPG91dGZpbGUubWFlPic=

> <r_epik_Ionization_Penalty>
0.00100813

> <r_epik_Ionization_Penalty_Charging>
0.000974069

> <r_epik_Ionization_Penalty_Neutral>
3.40643e-05

> <r_epik_State_Penalty>
0.000633842

> <r_epik_Charging_Adjusted_Penalty>
0.00160791

> <i_epik_Tot_Q>
1

> <i_epik_Tot_abs_Q>
1

> <r_epik_Metal_State_Penalty>
-0

> <b_epik_Metal_Only>
0

> <s_lp_Force_Field>
OPLS_2005

> <r_lp_Energy>
38.1413

> <b_lp_Chiralities_Consistent>
1

> <s_lp_Variant>
AV-unprocessed.smi:1452-1

> <Gold.Version>
5.8.1

> <Gold.Id.Protein>
6NUR|6NUR_protein|mol2

> <Gold.PLP.Fitness>
36.0278

> <Gold.PLP.PLP>
-30.2443

> <Gold.PLP.part.hbond>
-3.5474

> <Gold.PLP.part.metal>
0.0000

> <Gold.PLP.part.buried>
-2.2078

> <Gold.PLP.part.nonpolar>
-25.1486

> <Gold.PLP.part.repulsive>
0.0979

> <Gold.PLP.ligand.clash>
0.0000

> <Gold.PLP.ligand.torsion>
0.1697

> <Gold.PLP.Chemscore.Hbond>
2.0378

> <Gold.PLP.Chemscore.CHOScore>
0.0000

> <Gold.PLP.Chemscore.Metal>
0.0000

> <Gold.Chemscore.Hbonds>
donor molecule, donor type, donor heavy atom, donor atom, acceptor molecule, acceptor atom, score
      L1  H     3    20       P1  7948  1.00
      L1  H    10    25       P1  7948  0.94
      P1  H 10752 10763       L1     9  0.09

> <Gold.PLP.Chemscore.Internal.Correction>
0.0093

> <Gold.Rescore>
     Score         DG    S(hbond)    S(metal)    S(lipo)     H(rot)  DE(clash)    DE(int)     intcor
     14.96     -17.36       1.68        0.00      75.58       1.00       0.03       2.37       ----

> <Gold.Chemscore.Fitness>
14.9550

> <Gold.Chemscore.DG>
-17.3599

> <Gold.Chemscore.ZeroCoef>
-5.4800

> <Gold.Chemscore.Hbond>
1.6757

> <Gold.Chemscore.Metal>
0.0000

> <Gold.Chemscore.Lipo>
75.5821

> <Gold.Chemscore.Internal_Hbond>
0.0000

> <Gold.Chemscore.DEClash>
0.0341

> <Gold.Chemscore.DEInternal>
2.3708

> <Gold.Chemscore.Rot>
1.0000

> <Gold.Chemscore.Internal.Correction>
   9.000000E+99

> <Gold.Chemscore.Hbonds>
donor molecule, donor type, donor heavy atom, donor atom, acceptor molecule, acceptor atom, score
      L1  H     3    20       P1  7948  0.29
      L1  H    10    25       P1  7948  0.68

> <Gold.Chemscore.Hbond.Weighted>
-5.5968

> <Gold.Chemscore.Metal.Weighted>
-0.0000

> <Gold.Chemscore.Lipo.Weighted>
-8.8431

> <Gold.Chemscore.Internal_Hbond.Weighted>
0.0000

> <Gold.Chemscore.DEClash.Weighted>
0.0341

> <Gold.Chemscore.DEInternal.Weighted>
2.3708

> <Gold.Chemscore.Rot.Weighted>
2.5600

> <Gold.Chemscore.Internal.Correction.Weighted>
   9.000000E+99

> <Gold.Protein.RotatedTorsions>
[ 6907 6896 6895 6894 ] final  -97.57 input  -60.11 | X-H torsion
[ 7974 7965 7964 7962 ] final  -70.46 input  175.53 | X-H torsion
[ 8008 7997 7996 7995 ] final  130.93 input   59.86 | X-H torsion
[ 10167 10162 10161 10158 ] final  -15.06 input  -65.29 | X-H torsion
[ 10718 10713 10712 10709 ] final   58.61 input   66.30 | X-H torsion
[ 10763 10752 10751 10750 ] final   84.52 input  -60.55 | X-H torsion
[ 11005 11000 10999 10996 ] final  174.55 input  -57.11 | X-H torsion

> <Gold.Protein.ActiveResidues>
 VAL166  LYS551  ARG553  GLY616  TRP617  ASP618  TYR619  PRO620  LYS621  CYS622 
 ASP623  PHE694  ASN695  SER759  ASP760  ASP761  ALA762  ILE779  LEU786  VAL792 
 PHE793  MET794  SER795  GLU796  ALA797  LYS798  CYS799  TRP800  GLU811  SER814 

> <Gold.Protein.RotatedAtoms>
  150.7020  134.1328  159.4075 H   0  0  0  0  0  0  0  0  0  0  0  0  # atno 6907 bound_to 6896
  151.9313  135.0252  160.0538 H   0  0  0  0  0  0  0  0  0  0  0  0  # atno 6908 bound_to 6896
  152.2173  133.4921  159.5179 H   0  0  0  0  0  0  0  0  0  0  0  0  # atno 6909 bound_to 6896
  145.6907  140.9154  143.0783 H   0  0  0  0  0  0  0  0  0  0  0  0  # atno 7974 bound_to 7965
  156.2962  140.2584  156.2843 H   0  0  0  0  0  0  0  0  0  0  0  0  # atno 8008 bound_to 7997
  154.9571  140.0393  157.2191 H   0  0  0  0  0  0  0  0  0  0  0  0  # atno 8009 bound_to 7997
  154.7981  140.2823  155.5946 H   0  0  0  0  0  0  0  0  0  0  0  0  # atno 8010 bound_to 7997
  140.7212  143.5257  150.9580 H   0  0  0  0  0  0  0  0  0  0  0  0  # atno 10167 bound_to 10162
  157.5610  130.8835  149.9111 H   0  0  0  0  0  0  0  0  0  0  0  0  # atno 10718 bound_to 10713
  153.1390  135.4651  154.9466 H   0  0  0  0  0  0  0  0  0  0  0  0  # atno 10763 bound_to 10752
  154.7730  135.3165  154.8152 H   0  0  0  0  0  0  0  0  0  0  0  0  # atno 10764 bound_to 10752
  153.8678  135.6906  153.4831 H   0  0  0  0  0  0  0  0  0  0  0  0  # atno 10765 bound_to 10752
  140.3525  134.7182  157.4277 H   0  0  0  0  0  0  0  0  0  0  0  0  # atno 11005 bound_to 11000
  144.6997  139.8818  143.7447 LP  0  0  0  0  0  0  0  0  0  0  0  0  # atno 17320 bound_to 7965
  146.0884  139.3873  143.0421 LP  0  0  0  0  0  0  0  0  0  0  0  0  # atno 17321 bound_to 7965
  139.8975  143.6876  152.3136 LP  0  0  0  0  0  0  0  0  0  0  0  0  # atno 17342 bound_to 10162
  139.7214  144.7602  151.0949 LP  0  0  0  0  0  0  0  0  0  0  0  0  # atno 17343 bound_to 10162
  156.0662  130.3692  150.0873 LP  0  0  0  0  0  0  0  0  0  0  0  0  # atno 17370 bound_to 10713
  156.9036  130.9628  151.3573 LP  0  0  0  0  0  0  0  0  0  0  0  0  # atno 17371 bound_to 10713
  140.0691  134.5887  155.8662 LP  0  0  0  0  0  0  0  0  0  0  0  0  # atno 17394 bound_to 11000
  141.2008  133.6614  156.5915 LP  0  0  0  0  0  0  0  0  0  0  0  0  # atno 17395 bound_to 11000

$$$$
