#       Name:                AV-unprocessed.smi:2994
#       Creating user name   scv26
#       Creation time:       Fri Mar 27 16:32:50 2020


#       File generated by GOLD software.
#

@<TRIPOS>MOLECULE
AV-unprocessed.smi:2994
    52    54     1
SMALL
NO_CHARGES


@<TRIPOS>ATOM
      1 ****        -4.9645  -2.2533   1.1016 C.3            1 S1                 0.0000
      2 ****        -4.4876  -1.3448   2.2469 C.3            1 S1                 0.0000
      3 ****        -3.0319  -1.2321   2.2205 N.am           1 S1                 0.0000
      4 ****        -2.3267  -0.4191   1.4203 C.2            1 S1                 0.0000
      5 ****        -2.8431   0.3349   0.5961 O.2            1 S1                 0.0000
      6 ****        -1.0066  -0.5568   1.6346 N.am           1 S1                 0.0000
      7 ****         0.0799   0.0867   0.9804 C.ar           1 S1                 0.0000
      8 ****        -0.0350   1.2493   0.1809 C.ar           1 S1                 0.0000
      9 ****         1.1252   1.7889  -0.4062 C.ar           1 S1                 0.0000
     10 ****         2.3654   1.1520  -0.1775 C.ar           1 S1                 0.0000
     11 ****         3.6265   1.7100  -0.7698 C.2            1 S1                 0.0000
     12 ****         4.5120   2.1024  -0.0086 O.2            1 S1                 0.0000
     13 ****         3.7294   1.7729  -2.1216 N.am           1 S1                 0.0000
     14 ****         2.8755   1.0565  -3.0830 C.3            1 S1                 0.0000
     15 ****         3.6870  -0.0886  -3.7176 C.3            1 S1                 0.0000
     16 ****         4.9770   0.4401  -4.3713 C.3            1 S1                 0.0000
     17 ****         5.7748   1.3327  -3.4036 C.3            1 S1                 0.0000
     18 ****         4.8712   2.4154  -2.7865 C.3            1 S1                 0.0000
     19 ****         2.4855   0.0572   0.6059 N.ar           1 S1                 0.0000
     20 ****         1.3689  -0.4559   1.1639 C.ar           1 S1                 0.0000
     21 ****        -5.0054  -1.8469   3.5816 C.3            1 S1                 0.0000
     22 ****        -6.4312  -1.5920   4.0083 C.3            1 S1                 0.0000
     23 ****        -5.2921  -0.8954   4.7183 C.3            1 S1                 0.0000
     24 ****        -6.0524  -2.3252   1.0866 H              1 S1                 0.0000
     25 ****        -4.5663  -3.2633   1.2037 H              1 S1                 0.0000
     26 ****        -4.6524  -1.8688   0.1302 H              1 S1                 0.0000
     27 ****        -4.9121  -0.3514   2.0881 H              1 S1                 0.0000
     28 ****        -2.5229  -1.8189   2.8651 H              1 S1                 0.0000
     29 ****        -0.7433  -1.2542   2.3153 H              1 S1                 0.0000
     30 ****        -0.9770   1.7462   0.0126 H              1 S1                 0.0000
     31 ****         1.0614   2.6764  -1.0190 H              1 S1                 0.0000
     32 ****         1.9687   0.6418  -2.6465 H              1 S1                 0.0000
     33 ****         2.5413   1.7522  -3.8538 H              1 S1                 0.0000
     34 ****         3.9401  -0.8217  -2.9504 H              1 S1                 0.0000
     35 ****         3.0818  -0.6126  -4.4578 H              1 S1                 0.0000
     36 ****         5.5943  -0.3900  -4.7161 H              1 S1                 0.0000
     37 ****         4.7160   1.0190  -5.2581 H              1 S1                 0.0000
     38 ****         6.2044   0.7206  -2.6093 H              1 S1                 0.0000
     39 ****         6.6123   1.7955  -3.9265 H              1 S1                 0.0000
     40 ****         4.5019   3.0834  -3.5660 H              1 S1                 0.0000
     41 ****         5.4512   3.0452  -2.1103 H              1 S1                 0.0000
     42 ****         1.5112  -1.3343   1.7766 H              1 S1                 0.0000
     43 ****        -4.6003  -2.8163   3.8669 H              1 S1                 0.0000
     44 ****        -7.0575  -0.9888   3.3538 H              1 S1                 0.0000
     45 ****        -6.9452  -2.3895   4.5410 H              1 S1                 0.0000
     46 ****        -5.0491  -1.2280   5.7254 H              1 S1                 0.0000
     47 ****        -5.1622   0.1692   4.5343 H              1 S1                 0.0000
     48 ****        -3.8378   0.3622   0.4978 LP             1 S1                 0.0000
     49 ****        -2.2679   0.9203   0.0247 LP             1 S1                 0.0000
     50 ****         4.3820   2.0453   0.9813 LP             1 S1                 0.0000
     51 ****         5.3609   2.4780  -0.3805 LP             1 S1                 0.0000
     52 ****         3.3789  -0.3619   0.7679 LP             1 S1                 0.0000
@<TRIPOS>BOND
    1    1    2 1     
    2    1   24 1     
    3    1   25 1     
    4    1   26 1     
    5    2    3 1     
    6    2   21 1     
    7    2   27 1     
    8    3    4 am    
    9    3   28 1     
   10    4    5 2     
   11    4    6 am    
   12    6    7 1     
   13    6   29 1     
   14    7   20 ar    
   15    7    8 ar    
   16    8    9 ar    
   17    8   30 1     
   18    9   10 ar    
   19    9   31 1     
   20   10   11 1     
   21   10   19 ar    
   22   11   12 2     
   23   11   13 am    
   24   13   18 1     
   25   13   14 1     
   26   14   15 1     
   27   14   32 1     
   28   14   33 1     
   29   15   16 1     
   30   15   34 1     
   31   15   35 1     
   32   16   17 1     
   33   16   36 1     
   34   16   37 1     
   35   17   18 1     
   36   17   38 1     
   37   17   39 1     
   38   18   40 1     
   39   18   41 1     
   40   19   20 ar    
   41   20   42 1     
   42   21   23 1     
   43   21   22 1     
   44   21   43 1     
   45   22   23 1     
   46   22   44 1     
   47   22   45 1     
   48   23   46 1     
   49   23   47 1     
   50    5   48 1     
   51    5   49 1     
   52   12   50 1     
   53   12   51 1     
   54   19   52 1     
@<TRIPOS>SUBSTRUCTURE
      1 S1             1
@<TRIPOS>SET
LONE_PAIRS      STATIC     ATOMS    <user>   **** ""
5 48 49 50 51 52
DONOR_HYDROGENS      STATIC     ATOMS    <user>   **** ""
2 28 29
ATOM$BLUE        STATIC     ATOMS    COLORGROUP SYSTEM
5 48 49 50 51 52
ATOM$RED        STATIC     ATOMS    COLORGROUP SYSTEM
2 28 29
