AV-unprocessed.smi:3225|AV-procd|sdf|12311|dock5
  -GOLD-   2272018153D 1   1.00000     0.00000
 Structure written by MMmdl.
 41 42  0  0  0  0  0  0  0  0  2 V2000
  144.1500  135.7621  151.2929 C   0  0  0  0  0  0  0  0  0  0  0  0
  145.6481  135.4660  151.4756 C   0  0  2  0  0  0  0  0  0  0  0  0
  145.8984  134.1642  152.2723 C   0  0  0  0  0  0  0  0  0  0  0  0
  145.3275  132.9904  151.6366 N   0  0  0  0  0  0  0  0  0  0  0  0
  145.9357  131.7863  151.3492 C   0  0  0  0  0  0  0  0  0  0  0  0
  145.0037  130.9966  150.7395 C   0  0  0  0  0  0  0  0  0  0  0  0
  143.8429  131.8180  150.6912 C   0  0  0  0  0  0  0  0  0  0  0  0
  144.0413  133.0124  151.2257 N   0  0  0  0  0  0  0  0  0  0  0  0
  146.2999  136.6224  152.1301 N   0  3  0  0  0  0  0  0  0  0  0  0
  146.0058  137.9382  151.5243 C   0  0  0  0  0  0  0  0  0  0  0  0
  146.9059  139.0292  152.1173 C   0  0  0  0  0  0  0  0  0  0  0  0
  147.2006  138.7960  153.6086 C   0  0  0  0  0  0  0  0  0  0  0  0
  148.2031  139.7295  154.1152 N   0  0  0  0  0  0  0  0  0  0  0  0
  149.4995  139.2529  154.5671 C   0  0  0  0  0  0  0  0  0  0  0  0
  150.1747  140.4786  155.1988 C   0  0  0  0  0  0  0  0  0  0  0  0
  149.3585  141.6889  154.7320 C   0  0  0  0  0  0  0  0  0  0  0  0
  148.0930  141.0621  154.1715 C   0  0  0  0  0  0  0  0  0  0  0  0
  147.1155  141.7237  153.8248 O   0  0  0  0  0  0  0  0  0  0  0  0
  143.6506  134.9742  150.7285 H   0  0  0  0  0  0  0  0  0  0  0  0
  143.9985  136.6932  150.7456 H   0  0  0  0  0  0  0  0  0  0  0  0
  143.6433  135.8548  152.2542 H   0  0  0  0  0  0  0  0  0  0  0  0
  146.0794  135.3611  150.4787 H   0  0  0  0  0  0  0  0  0  0  0  0
  146.9655  133.9824  152.4010 H   0  0  0  0  0  0  0  0  0  0  0  0
  145.4756  134.2508  153.2741 H   0  0  0  0  0  0  0  0  0  0  0  0
  146.9682  131.5923  151.6007 H   0  0  0  0  0  0  0  0  0  0  0  0
  145.1316  129.9863  150.3799 H   0  0  0  0  0  0  0  0  0  0  0  0
  142.8698  131.5848  150.2849 H   0  0  0  0  0  0  0  0  0  0  0  0
  145.9738  136.6564  153.0855 H   0  0  0  0  0  0  0  0  0  0  0  0
  146.1513  137.8931  150.4453 H   0  0  0  0  0  0  0  0  0  0  0  0
  144.9581  138.1869  151.6988 H   0  0  0  0  0  0  0  0  0  0  0  0
  147.8420  139.0676  151.5584 H   0  0  0  0  0  0  0  0  0  0  0  0
  146.4292  140.0023  151.9902 H   0  0  0  0  0  0  0  0  0  0  0  0
  146.2839  138.9034  154.1902 H   0  0  0  0  0  0  0  0  0  0  0  0
  147.5477  137.7741  153.7693 H   0  0  0  0  0  0  0  0  0  0  0  0
  149.3974  138.4338  155.2801 H   0  0  0  0  0  0  0  0  0  0  0  0
  150.0689  138.8922  153.7094 H   0  0  0  0  0  0  0  0  0  0  0  0
  150.1390  140.4062  156.2866 H   0  0  0  0  0  0  0  0  0  0  0  0
  151.2234  140.5559  154.9101 H   0  0  0  0  0  0  0  0  0  0  0  0
  149.1374  142.3781  155.5474 H   0  0  0  0  0  0  0  0  0  0  0  0
  149.8733  142.2343  153.9406 H   0  0  0  0  0  0  0  0  0  0  0  0
  147.2988  136.4731  152.1394 H   0  0  0  0  0  0  0  0  0  0  0  0
  1  2  1  0  0  0  0
  1 19  1  0  0  0  0
  1 20  1  0  0  0  0
  1 21  1  0  0  0  0
  2  3  1  0  0  0  0
  2  9  1  0  0  0  0
  2 22  1  0  0  0  0
  3  4  1  0  0  0  0
  3 23  1  0  0  0  0
  3 24  1  0  0  0  0
  4  8  1  0  0  0  0
  4  5  1  0  0  0  0
  5  6  2  0  0  0  0
  5 25  1  0  0  0  0
  6  7  1  0  0  0  0
  6 26  1  0  0  0  0
  7  8  2  0  0  0  0
  7 27  1  0  0  0  0
  9 10  1  0  0  0  0
  9 28  1  0  0  0  0
  9 41  1  0  0  0  0
 10 11  1  0  0  0  0
 10 29  1  0  0  0  0
 10 30  1  0  0  0  0
 11 12  1  0  0  0  0
 11 31  1  0  0  0  0
 11 32  1  0  0  0  0
 12 13  1  0  0  0  0
 12 33  1  0  0  0  0
 12 34  1  0  0  0  0
 13 17  1  0  0  0  0
 13 14  1  0  0  0  0
 14 15  1  0  0  0  0
 14 35  1  0  0  0  0
 14 36  1  0  0  0  0
 15 16  1  0  0  0  0
 15 37  1  0  0  0  0
 15 38  1  0  0  0  0
 16 17  1  0  0  0  0
 16 39  1  0  0  0  0
 16 40  1  0  0  0  0
 17 18  2  0  0  0  0
M  CHG  1   9   1
M  END
> <s_m_source_file>
AV-unprocessed.smi

> <i_m_source_file_index>
3225

> <i_lp_mmshare_version>
43012

> <i_f3d_flags>
0

> <s_epik_input>
bjFbY0hdW2NIXVtjSF1uMVtDSDJdW0NAQEhdKFtDSDNdKVtOSF1bQ0gyXVtDSDJdW0NIMl1OMltDSDJdW0NIMl1bQ0gyXUMyPU8=

> <s_epik_cmdline>
J2VwaWtfcHl0aG9uJywgJy1waCcsICc3LjAnLCAnLXRuJywgJzgnLCAnLW1hJywgJzIwMCcsICctbWV0YWxfYmluZGluZycsICctaW1hZScsICc8aW5maWxlLm1hZT4nLCAnLW9tYWUnLCAnPG91dGZpbGUubWFlPic=

> <r_lp_tautomer_probability>
1

> <r_epik_Ionization_Penalty>
0.00490443

> <r_epik_Ionization_Penalty_Charging>
0.00490019

> <r_epik_Ionization_Penalty_Neutral>
4.24076e-06

> <r_epik_State_Penalty>
0.00355741

> <r_epik_Charging_Adjusted_Penalty>
0.0084576

> <i_epik_Tot_Q>
1

> <i_epik_Tot_abs_Q>
1

> <r_epik_Metal_State_Penalty>
-0

> <b_epik_Metal_Only>
0

> <s_lp_Force_Field>
OPLS_2005

> <r_lp_Energy>
20.009

> <b_lp_Chiralities_Consistent>
1

> <s_lp_Variant>
AV-unprocessed.smi:3225-1

> <Gold.Version>
5.8.1

> <Gold.Id.Protein>
6NUR|6NUR_protein|mol2

> <Gold.PLP.Fitness>
45.5536

> <Gold.PLP.PLP>
-34.1447

> <Gold.PLP.part.hbond>
-1.0000

> <Gold.PLP.part.metal>
0.0000

> <Gold.PLP.part.buried>
2.0188

> <Gold.PLP.part.nonpolar>
-34.8799

> <Gold.PLP.part.repulsive>
0.3824

> <Gold.PLP.ligand.clash>
0.0000

> <Gold.PLP.ligand.torsion>
0.3224

> <Gold.PLP.Chemscore.Hbond>
2.0000

> <Gold.PLP.Chemscore.CHOScore>
2.0000

> <Gold.PLP.Chemscore.Metal>
0.0000

> <Gold.Chemscore.Hbonds>
donor molecule, donor type, donor heavy atom, donor atom, acceptor molecule, acceptor atom, score
      L1  H     9    41       P1  7948  2.00
      L1  C     5    25       P1 10747  1.00
      L1  C     7    27       P1 10952  1.00

> <Gold.PLP.Chemscore.Internal.Correction>
0.0538

> <Gold.Rescore>
     Score         DG    S(hbond)    S(metal)    S(lipo)     H(rot)  DE(clash)    DE(int)     intcor
     11.20     -12.90       0.99        0.00      82.95       2.19       0.09       1.62       ----

> <Gold.Chemscore.Fitness>
11.1981

> <Gold.Chemscore.DG>
-12.9038

> <Gold.Chemscore.ZeroCoef>
-5.4800

> <Gold.Chemscore.Hbond>
0.9944

> <Gold.Chemscore.Metal>
0.0000

> <Gold.Chemscore.Lipo>
82.9483

> <Gold.Chemscore.Internal_Hbond>
0.0000

> <Gold.Chemscore.DEClash>
0.0871

> <Gold.Chemscore.DEInternal>
1.6186

> <Gold.Chemscore.Rot>
2.1884

> <Gold.Chemscore.Internal.Correction>
   9.000000E+99

> <Gold.Chemscore.Hbonds>
donor molecule, donor type, donor heavy atom, donor atom, acceptor molecule, acceptor atom, score
      L1  H     9    41       P1  7948  1.00

> <Gold.Chemscore.Hbond.Weighted>
-3.3212

> <Gold.Chemscore.Metal.Weighted>
-0.0000

> <Gold.Chemscore.Lipo.Weighted>
-9.7049

> <Gold.Chemscore.Internal_Hbond.Weighted>
0.0000

> <Gold.Chemscore.DEClash.Weighted>
0.0871

> <Gold.Chemscore.DEInternal.Weighted>
1.6186

> <Gold.Chemscore.Rot.Weighted>
5.6023

> <Gold.Chemscore.Internal.Correction.Weighted>
   9.000000E+99

> <Gold.Protein.RotatedTorsions>
[ 6907 6896 6895 6894 ] final   40.62 input  -60.11 | X-H torsion
[ 7974 7965 7964 7962 ] final  116.85 input  175.53 | X-H torsion
[ 8008 7997 7996 7995 ] final -178.56 input   59.86 | X-H torsion
[ 10167 10162 10161 10158 ] final  155.13 input  -65.29 | X-H torsion
[ 10718 10713 10712 10709 ] final  158.30 input   66.30 | X-H torsion
[ 10763 10752 10751 10750 ] final -107.77 input  -60.55 | X-H torsion
[ 11005 11000 10999 10996 ] final  -69.69 input  -57.11 | X-H torsion

> <Gold.Protein.ActiveResidues>
 VAL166  LYS551  ARG553  GLY616  TRP617  ASP618  TYR619  PRO620  LYS621  CYS622 
 ASP623  PHE694  ASN695  SER759  ASP760  ASP761  ALA762  ILE779  LEU786  VAL792 
 PHE793  MET794  SER795  GLU796  ALA797  LYS798  CYS799  TRP800  GLU811  SER814 

> <Gold.Protein.RotatedAtoms>
  152.1849  134.8722  160.0522 H   0  0  0  0  0  0  0  0  0  0  0  0  # atno 6907 bound_to 6896
  151.9633  133.3697  159.4051 H   0  0  0  0  0  0  0  0  0  0  0  0  # atno 6908 bound_to 6896
  150.6924  134.4141  159.5219 H   0  0  0  0  0  0  0  0  0  0  0  0  # atno 6909 bound_to 6896
  145.1745  139.3083  143.4450 H   0  0  0  0  0  0  0  0  0  0  0  0  # atno 7974 bound_to 7965
  156.0202  140.1259  157.0365 H   0  0  0  0  0  0  0  0  0  0  0  0  # atno 8008 bound_to 7997
  154.4309  140.1070  156.6023 H   0  0  0  0  0  0  0  0  0  0  0  0  # atno 8009 bound_to 7997
  155.5955  140.3470  155.4581 H   0  0  0  0  0  0  0  0  0  0  0  0  # atno 8010 bound_to 7997
  139.4822  144.5125  151.8002 H   0  0  0  0  0  0  0  0  0  0  0  0  # atno 10167 bound_to 10162
  157.1798  131.0630  151.2138 H   0  0  0  0  0  0  0  0  0  0  0  0  # atno 10718 bound_to 10713
  154.8095  135.4662  154.0480 H   0  0  0  0  0  0  0  0  0  0  0  0  # atno 10763 bound_to 10752
  153.1922  135.6857  153.8344 H   0  0  0  0  0  0  0  0  0  0  0  0  # atno 10764 bound_to 10752
  153.7858  135.3250  155.3349 H   0  0  0  0  0  0  0  0  0  0  0  0  # atno 10765 bound_to 10752
  141.1559  133.6770  156.6637 H   0  0  0  0  0  0  0  0  0  0  0  0  # atno 11005 bound_to 11000
  146.3463  140.1903  142.8589 LP  0  0  0  0  0  0  0  0  0  0  0  0  # atno 17320 bound_to 7965
  145.0199  140.8784  143.5173 LP  0  0  0  0  0  0  0  0  0  0  0  0  # atno 17321 bound_to 7965
  140.4630  144.1695  150.5908 LP  0  0  0  0  0  0  0  0  0  0  0  0  # atno 17342 bound_to 10162
  140.4464  143.2505  151.9406 LP  0  0  0  0  0  0  0  0  0  0  0  0  # atno 17343 bound_to 10162
  157.3964  130.7309  149.6734 LP  0  0  0  0  0  0  0  0  0  0  0  0  # atno 17370 bound_to 10713
  155.9726  130.4132  150.4073 LP  0  0  0  0  0  0  0  0  0  0  0  0  # atno 17371 bound_to 10713
  140.3227  134.7994  157.4265 LP  0  0  0  0  0  0  0  0  0  0  0  0  # atno 17394 bound_to 11000
  140.1083  134.5380  155.8289 LP  0  0  0  0  0  0  0  0  0  0  0  0  # atno 17395 bound_to 11000

$$$$
