AV-unprocessed.smi:3299|AV-procd|sdf|12648|dock4
  -GOLD-   2272018583D 1   1.00000     0.00000
 Structure written by MMmdl.
 34 35  0  0  0  0  0  0  0  0  1 V2000
  152.2122  144.0035  161.4905 C   0  0  0  0  0  0  0  0  0  0  0  0
  151.8803  143.7109  160.0612 C   0  0  0  0  0  0  0  0  0  0  0  0
  152.2866  144.4183  158.9561 C   0  0  0  0  0  0  0  0  0  0  0  0
  151.6659  143.7336  157.4776 S   0  0  0  0  0  0  0  0  0  0  0  0
  150.8681  142.4935  158.4325 C   0  0  0  0  0  0  0  0  0  0  0  0
  150.0788  141.4763  157.8346 N   0  0  0  0  0  0  0  0  0  0  0  0
  150.0758  141.0737  156.5517 C   0  0  0  0  0  0  0  0  0  0  0  0
  150.7507  141.5693  155.6490 O   0  0  0  0  0  0  0  0  0  0  0  0
  149.2304  140.0491  156.3681 N   0  0  0  0  0  0  0  0  0  0  0  0
  148.9950  139.3601  155.1012 C   0  0  2  0  0  0  0  0  0  0  0  0
  150.3453  138.9609  154.4742 C   0  0  0  0  0  0  0  0  0  0  0  0
  150.8085  137.5433  154.8496 C   0  0  0  0  0  0  0  0  0  0  0  0
  151.8766  137.1532  154.0140 O   0  0  0  0  0  0  0  0  0  0  0  0
  148.1714  140.1829  154.1239 C   0  0  0  0  0  0  0  0  0  0  0  0
  148.1974  141.6932  154.1479 C   0  0  0  0  0  0  0  0  0  0  0  0
  146.9558  140.9513  154.5862 C   0  0  0  0  0  0  0  0  0  0  0  0
  151.0722  142.6140  159.7493 N   0  0  0  0  0  0  0  0  0  0  0  0
  152.8521  144.8816  161.5797 H   0  0  0  0  0  0  0  0  0  0  0  0
  152.7353  143.1658  161.9524 H   0  0  0  0  0  0  0  0  0  0  0  0
  151.3101  144.1925  162.0730 H   0  0  0  0  0  0  0  0  0  0  0  0
  152.9106  145.2994  158.9225 H   0  0  0  0  0  0  0  0  0  0  0  0
  149.4550  140.9881  158.4602 H   0  0  0  0  0  0  0  0  0  0  0  0
  148.7176  139.7089  157.1683 H   0  0  0  0  0  0  0  0  0  0  0  0
  148.4455  138.4384  155.3036 H   0  0  0  0  0  0  0  0  0  0  0  0
  150.2659  139.0249  153.3879 H   0  0  0  0  0  0  0  0  0  0  0  0
  151.1099  139.6838  154.7628 H   0  0  0  0  0  0  0  0  0  0  0  0
  151.1425  137.4981  155.8862 H   0  0  0  0  0  0  0  0  0  0  0  0
  149.9915  136.8300  154.7371 H   0  0  0  0  0  0  0  0  0  0  0  0
  151.5462  137.0425  153.1355 H   0  0  0  0  0  0  0  0  0  0  0  0
  148.0854  139.7265  153.1394 H   0  0  0  0  0  0  0  0  0  0  0  0
  148.7870  142.1814  154.9212 H   0  0  0  0  0  0  0  0  0  0  0  0
  148.1661  142.2093  153.1905 H   0  0  0  0  0  0  0  0  0  0  0  0
  146.0946  140.9743  153.9217 H   0  0  0  0  0  0  0  0  0  0  0  0
  146.7252  140.9458  155.6498 H   0  0  0  0  0  0  0  0  0  0  0  0
  1  2  1  0  0  0  0
  1 18  1  0  0  0  0
  1 19  1  0  0  0  0
  1 20  1  0  0  0  0
  2 17  1  0  0  0  0
  2  3  2  0  0  0  0
  3  4  1  0  0  0  0
  3 21  1  0  0  0  0
  4  5  1  0  0  0  0
  5  6  1  0  0  0  0
  5 17  2  0  0  0  0
  6  7  1  0  0  0  0
  6 22  1  0  0  0  0
  7  8  2  0  0  0  0
  7  9  1  0  0  0  0
  9 10  1  0  0  0  0
  9 23  1  0  0  0  0
 10 11  1  0  0  0  0
 10 14  1  0  0  0  0
 10 24  1  0  0  0  0
 11 12  1  0  0  0  0
 11 25  1  0  0  0  0
 11 26  1  0  0  0  0
 12 13  1  0  0  0  0
 12 27  1  0  0  0  0
 12 28  1  0  0  0  0
 13 29  1  0  0  0  0
 14 16  1  0  0  0  0
 14 15  1  0  0  0  0
 14 30  1  0  0  0  0
 15 16  1  0  0  0  0
 15 31  1  0  0  0  0
 15 32  1  0  0  0  0
 16 33  1  0  0  0  0
 16 34  1  0  0  0  0
M  END
> <s_m_source_file>
AV-unprocessed.smi

> <i_m_source_file_index>
3299

> <i_lp_mmshare_version>
43012

> <i_f3d_flags>
0

> <s_epik_input>
W0NIM11jMVtjSF1zYyhuMSlbTkhdQyg9TylbTkhdW0NASF0oW0NIMl1bQ0gyXVtPSF0pW0NIXTJbQ0gyXVtDSDJdMg==

> <s_epik_cmdline>
J2VwaWtfcHl0aG9uJywgJy1waCcsICc3LjAnLCAnLXRuJywgJzgnLCAnLW1hJywgJzIwMCcsICctbWV0YWxfYmluZGluZycsICctaW1hZScsICc8aW5maWxlLm1hZT4nLCAnLW9tYWUnLCAnPG91dGZpbGUubWFlPic=

> <r_lp_tautomer_probability>
0.999

> <r_epik_Ionization_Penalty>
0.000568872

> <r_epik_Ionization_Penalty_Charging>
0

> <r_epik_Ionization_Penalty_Neutral>
0.000568872

> <r_epik_State_Penalty>
0.000177984

> <r_epik_Charging_Adjusted_Penalty>
0.000177984

> <i_epik_Tot_Q>
0

> <i_epik_Tot_abs_Q>
0

> <r_epik_Metal_State_Penalty>
-0

> <b_epik_Metal_Only>
0

> <s_lp_Force_Field>
OPLS_2005

> <r_lp_Energy>
12.8181

> <b_lp_Chiralities_Consistent>
1

> <s_lp_Variant>
AV-unprocessed.smi:3299-1

> <Gold.Version>
5.8.1

> <Gold.Id.Protein>
6NUR|6NUR_protein|mol2

> <Gold.PLP.Fitness>
41.3425

> <Gold.PLP.PLP>
-36.5634

> <Gold.PLP.part.hbond>
-3.9963

> <Gold.PLP.part.metal>
0.0000

> <Gold.PLP.part.buried>
-2.5568

> <Gold.PLP.part.nonpolar>
-29.8647

> <Gold.PLP.part.repulsive>
0.1949

> <Gold.PLP.ligand.clash>
0.0000

> <Gold.PLP.ligand.torsion>
1.2679

> <Gold.PLP.Chemscore.Hbond>
2.0706

> <Gold.PLP.Chemscore.CHOScore>
0.0000

> <Gold.PLP.Chemscore.Metal>
0.0000

> <Gold.Chemscore.Hbonds>
donor molecule, donor type, donor heavy atom, donor atom, acceptor molecule, acceptor atom, score
      L1  H    13    29       P1  7949  1.00
      P1  H  7989  7998       L1     8  0.03
      P1  H 10752 10763       L1    13  0.73

> <Gold.PLP.Chemscore.Internal.Correction>
1.1029

> <Gold.Rescore>
     Score         DG    S(hbond)    S(metal)    S(lipo)     H(rot)  DE(clash)    DE(int)     intcor
     10.01     -15.82       1.80        0.00      89.37       2.39       1.84       3.97       ----

> <Gold.Chemscore.Fitness>
10.0051

> <Gold.Chemscore.DG>
-15.8171

> <Gold.Chemscore.ZeroCoef>
-5.4800

> <Gold.Chemscore.Hbond>
1.7976

> <Gold.Chemscore.Metal>
0.0000

> <Gold.Chemscore.Lipo>
89.3671

> <Gold.Chemscore.Internal_Hbond>
0.0000

> <Gold.Chemscore.DEClash>
1.8422

> <Gold.Chemscore.DEInternal>
3.9698

> <Gold.Chemscore.Rot>
2.3917

> <Gold.Chemscore.Internal.Correction>
   9.000000E+99

> <Gold.Chemscore.Hbonds>
donor molecule, donor type, donor heavy atom, donor atom, acceptor molecule, acceptor atom, score
      L1  H    13    29       P1  7949  0.88
      P1  H  7989  7998       L1     8  0.04
      P1  H 10752 10763       L1    13  0.09

> <Gold.Chemscore.Hbond.Weighted>
-6.0039

> <Gold.Chemscore.Metal.Weighted>
-0.0000

> <Gold.Chemscore.Lipo.Weighted>
-10.4559

> <Gold.Chemscore.Internal_Hbond.Weighted>
0.0000

> <Gold.Chemscore.DEClash.Weighted>
1.8422

> <Gold.Chemscore.DEInternal.Weighted>
3.9698

> <Gold.Chemscore.Rot.Weighted>
6.1228

> <Gold.Chemscore.Internal.Correction.Weighted>
   9.000000E+99

> <Gold.Protein.RotatedTorsions>
[ 6907 6896 6895 6894 ] final -174.98 input  -60.11 | X-H torsion
[ 7974 7965 7964 7962 ] final  -12.66 input  175.53 | X-H torsion
[ 8008 7997 7996 7995 ] final  -26.38 input   59.86 | X-H torsion
[ 10167 10162 10161 10158 ] final -132.40 input  -65.29 | X-H torsion
[ 10718 10713 10712 10709 ] final  -51.59 input   66.30 | X-H torsion
[ 10763 10752 10751 10750 ] final   18.46 input  -60.55 | X-H torsion
[ 11005 11000 10999 10996 ] final  -71.25 input  -57.11 | X-H torsion

> <Gold.Protein.ActiveResidues>
 VAL166  LYS551  ARG553  GLY616  TRP617  ASP618  TYR619  PRO620  LYS621  CYS622 
 ASP623  PHE694  ASN695  SER759  ASP760  ASP761  ALA762  ILE779  LEU786  VAL792 
 PHE793  MET794  SER795  GLU796  ALA797  LYS798  CYS799  TRP800  GLU811  SER814 

> <Gold.Protein.RotatedAtoms>
  151.5812  133.3377  159.3008 H   0  0  0  0  0  0  0  0  0  0  0  0  # atno 6907 bound_to 6896
  150.8312  134.7570  159.6867 H   0  0  0  0  0  0  0  0  0  0  0  0  # atno 6908 bound_to 6896
  152.4396  134.5625  159.9949 H   0  0  0  0  0  0  0  0  0  0  0  0  # atno 6909 bound_to 6896
  146.2144  140.3089  142.8381 H   0  0  0  0  0  0  0  0  0  0  0  0  # atno 7974 bound_to 7965
  154.4428  140.1901  156.0767 H   0  0  0  0  0  0  0  0  0  0  0  0  # atno 8008 bound_to 7997
  156.0470  140.3313  155.7281 H   0  0  0  0  0  0  0  0  0  0  0  0  # atno 8009 bound_to 7997
  155.5614  140.0604  157.2818 H   0  0  0  0  0  0  0  0  0  0  0  0  # atno 8010 bound_to 7997
  139.9089  143.6517  152.2579 H   0  0  0  0  0  0  0  0  0  0  0  0  # atno 10167 bound_to 10162
  156.1697  130.4149  149.9666 H   0  0  0  0  0  0  0  0  0  0  0  0  # atno 10718 bound_to 10713
  153.1247  135.6727  153.9276 H   0  0  0  0  0  0  0  0  0  0  0  0  # atno 10763 bound_to 10752
  153.8781  135.3061  155.3445 H   0  0  0  0  0  0  0  0  0  0  0  0  # atno 10764 bound_to 10752
  154.7654  135.4967  153.9624 H   0  0  0  0  0  0  0  0  0  0  0  0  # atno 10765 bound_to 10752
  141.1589  133.6812  156.6878 H   0  0  0  0  0  0  0  0  0  0  0  0  # atno 11005 bound_to 11000
  144.9002  140.7633  143.5871 LP  0  0  0  0  0  0  0  0  0  0  0  0  # atno 17320 bound_to 7965
  145.3015  139.1849  143.4687 LP  0  0  0  0  0  0  0  0  0  0  0  0  # atno 17321 bound_to 7965
  139.6959  144.7641  151.1356 LP  0  0  0  0  0  0  0  0  0  0  0  0  # atno 17342 bound_to 10162
  140.7690  143.5524  150.9190 LP  0  0  0  0  0  0  0  0  0  0  0  0  # atno 17343 bound_to 10162
  156.7470  130.9101  151.3635 LP  0  0  0  0  0  0  0  0  0  0  0  0  # atno 17370 bound_to 10713
  157.6793  130.9125  150.0228 LP  0  0  0  0  0  0  0  0  0  0  0  0  # atno 17371 bound_to 10713
  140.3054  134.8130  157.4132 LP  0  0  0  0  0  0  0  0  0  0  0  0  # atno 17394 bound_to 11000
  140.1225  134.5200  155.8171 LP  0  0  0  0  0  0  0  0  0  0  0  0  # atno 17395 bound_to 11000

$$$$
