AV-unprocessed.smi:102|AV-procd|sdf|952|dock5
  -GOLD-   2262017483D 1   1.00000     0.00000
 Structure written by MMmdl.
 44 45  0  0  0  0  0  0  0  0  1 V2000
  151.8045  144.8132  160.9613 C   0  0  0  0  0  0  0  0  0  0  0  0
  152.0480  143.3187  161.1276 C   0  0  0  0  0  0  0  0  0  0  0  0
  151.5879  142.7006  162.0871 O   0  0  0  0  0  0  0  0  0  0  0  0
  152.7942  142.8044  160.1333 O   0  0  0  0  0  0  0  0  0  0  0  0
  153.0310  141.4052  160.0495 C   0  0  0  0  0  0  0  0  0  0  0  0
  152.0396  140.7419  159.0780 C   0  0  1  0  0  0  0  0  0  0  0  0
  152.2775  141.1508  157.7376 O   0  0  0  0  0  0  0  0  0  0  0  0
  151.7036  140.2290  156.8568 C   0  0  2  0  0  0  0  0  0  0  0  0
  150.4700  140.8291  156.2081 N   0  0  0  0  0  0  0  0  0  0  0  0
  149.4743  141.4676  156.9381 C   0  0  0  0  0  0  0  0  0  0  0  0
  148.3653  141.9933  156.3658 C   0  0  0  0  0  0  0  0  0  0  0  0
  147.4437  142.5959  157.1361 F   0  0  0  0  0  0  0  0  0  0  0  0
  148.1603  141.9125  154.9225 C   0  0  0  0  0  0  0  0  0  0  0  0
  147.1889  142.3575  154.3143 O   0  0  0  0  0  0  0  0  0  0  0  0
  149.1863  141.2640  154.2297 N   0  0  0  0  0  0  0  0  0  0  0  0
  150.3333  140.7173  154.8065 C   0  0  0  0  0  0  0  0  0  0  0  0
  151.1714  140.1566  154.1017 O   0  0  0  0  0  0  0  0  0  0  0  0
  151.3962  138.9429  157.6626 C   0  0  2  0  0  0  0  0  0  0  0  0
  149.9974  138.7448  157.8541 O   0  0  0  0  0  0  0  0  0  0  0  0
  149.5489  137.7358  158.6176 C   0  0  0  0  0  0  0  0  0  0  0  0
  148.0394  137.5644  158.5166 C   0  0  0  0  0  0  0  0  0  0  0  0
  150.2339  137.0032  159.3308 O   0  0  0  0  0  0  0  0  0  0  0  0
  152.0620  139.2145  159.0059 C   0  0  1  0  0  0  0  0  0  0  0  0
  153.3926  138.7093  159.0044 O   0  0  0  0  0  0  0  0  0  0  0  0
  153.6164  137.3843  158.9463 C   0  0  0  0  0  0  0  0  0  0  0  0
  155.1003  137.0456  158.9841 C   0  0  0  0  0  0  0  0  0  0  0  0
  152.7574  136.5061  158.8731 O   0  0  0  0  0  0  0  0  0  0  0  0
  149.0876  141.1821  153.2281 H   0  0  0  0  0  0  0  0  0  0  0  0
  150.7834  144.9926  160.6252 H   0  0  0  0  0  0  0  0  0  0  0  0
  152.4902  145.2411  160.2294 H   0  0  0  0  0  0  0  0  0  0  0  0
  151.9514  145.3277  161.9112 H   0  0  0  0  0  0  0  0  0  0  0  0
  154.0395  141.2835  159.6543 H   0  0  0  0  0  0  0  0  0  0  0  0
  153.0297  140.9199  161.0265 H   0  0  0  0  0  0  0  0  0  0  0  0
  151.0289  141.0617  159.3359 H   0  0  0  0  0  0  0  0  0  0  0  0
  152.4145  140.0668  156.0445 H   0  0  0  0  0  0  0  0  0  0  0  0
  149.5635  141.5629  158.0092 H   0  0  0  0  0  0  0  0  0  0  0  0
  151.8427  138.0925  157.1446 H   0  0  0  0  0  0  0  0  0  0  0  0
  147.7564  137.3102  157.4947 H   0  0  0  0  0  0  0  0  0  0  0  0
  147.5330  138.4880  158.7976 H   0  0  0  0  0  0  0  0  0  0  0  0
  147.6987  136.7677  159.1781 H   0  0  0  0  0  0  0  0  0  0  0  0
  151.5031  138.7862  159.8398 H   0  0  0  0  0  0  0  0  0  0  0  0
  155.5514  137.4279  159.8999 H   0  0  0  0  0  0  0  0  0  0  0  0
  155.6128  137.4911  158.1313 H   0  0  0  0  0  0  0  0  0  0  0  0
  155.2478  135.9659  158.9511 H   0  0  0  0  0  0  0  0  0  0  0  0
  1  2  1  0  0  0  0
  1 29  1  0  0  0  0
  1 30  1  0  0  0  0
  1 31  1  0  0  0  0
  2  3  2  0  0  0  0
  2  4  1  0  0  0  0
  4  5  1  0  0  0  0
  5  6  1  0  0  0  0
  5 32  1  0  0  0  0
  5 33  1  0  0  0  0
  6 23  1  0  0  0  0
  6  7  1  0  0  0  0
  6 34  1  0  0  0  0
  7  8  1  0  0  0  0
  8  9  1  0  0  0  0
  8 18  1  0  0  0  0
  8 35  1  0  0  0  0
  9 16  1  0  0  0  0
  9 10  1  0  0  0  0
 10 11  2  0  0  0  0
 10 36  1  0  0  0  0
 11 12  1  0  0  0  0
 11 13  1  0  0  0  0
 13 14  2  0  0  0  0
 13 15  1  0  0  0  0
 15 28  1  0  0  0  0
 15 16  1  0  0  0  0
 16 17  2  0  0  0  0
 18 19  1  0  0  0  0
 18 23  1  0  0  0  0
 18 37  1  0  0  0  0
 19 20  1  0  0  0  0
 20 21  1  0  0  0  0
 20 22  2  0  0  0  0
 21 38  1  0  0  0  0
 21 39  1  0  0  0  0
 21 40  1  0  0  0  0
 23 24  1  0  0  0  0
 23 41  1  0  0  0  0
 24 25  1  0  0  0  0
 25 26  1  0  0  0  0
 25 27  2  0  0  0  0
 26 42  1  0  0  0  0
 26 43  1  0  0  0  0
 26 44  1  0  0  0  0
M  END
> <s_m_source_file>
AV-unprocessed.smi

> <i_m_source_file_index>
102

> <i_lp_mmshare_version>
43012

> <i_f3d_flags>
0

> <s_epik_input>
W0NIM11DKD1PKU9bQ0gyXVtDQEBIXTFPW0NASF0oW0NAQEhdKE9DKD1PKVtDSDNdKVtDQEhdMU9DKD1PKVtDSDNdKW4yW2NIXWMoRiljKD1PKVtuSF1jMj1P

> <s_epik_cmdline>
J2VwaWtfcHl0aG9uJywgJy1waCcsICc3LjAnLCAnLXRuJywgJzgnLCAnLW1hJywgJzIwMCcsICctbWV0YWxfYmluZGluZycsICctaW1hZScsICc8aW5maWxlLm1hZT4nLCAnLW9tYWUnLCAnPG91dGZpbGUubWFlPic=

> <r_lp_tautomer_probability>
0.999537

> <r_epik_Ionization_Penalty>
0.058267

> <r_epik_Ionization_Penalty_Charging>
0.058267

> <r_epik_Ionization_Penalty_Neutral>
6.57791e-16

> <r_epik_State_Penalty>
0.0503774

> <r_epik_Charging_Adjusted_Penalty>
0.108644

> <i_epik_Tot_Q>
0

> <i_epik_Tot_abs_Q>
0

> <r_epik_Metal_State_Penalty>
2.6644

> <b_epik_Metal_Only>
0

> <s_epik_Chemistry_Notes>
This compound has an ester and may undergo hydrolysis at high or low pH. This compound contains an acetal/aminal-like group ( X-CH(R)-Y where X, Y are N, S, or O) that may be acid/base labile, releasing an aldehyde.

> <s_lp_Force_Field>
OPLS_2005

> <r_lp_Energy>
12.8015

> <b_lp_Chiralities_Consistent>
1

> <s_lp_Variant>
AV-unprocessed.smi:102-8

> <Gold.Version>
5.8.1

> <Gold.Id.Protein>
6NUR|6NUR_protein|mol2

> <Gold.PLP.Fitness>
43.8294

> <Gold.PLP.PLP>
-35.8767

> <Gold.PLP.part.hbond>
-4.0000

> <Gold.PLP.part.metal>
0.0000

> <Gold.PLP.part.buried>
-8.2064

> <Gold.PLP.part.nonpolar>
-24.8557

> <Gold.PLP.part.repulsive>
0.6823

> <Gold.PLP.ligand.clash>
0.0000

> <Gold.PLP.ligand.torsion>
0.6590

> <Gold.PLP.Chemscore.Hbond>
3.0488

> <Gold.PLP.Chemscore.CHOScore>
0.0000

> <Gold.PLP.Chemscore.Metal>
0.0000

> <Gold.Chemscore.Hbonds>
donor molecule, donor type, donor heavy atom, donor atom, acceptor molecule, acceptor atom, score
      L1  H    15    28       P1  7957  0.05
      P1  H  6896  6907       L1    22  0.47
      P1  H  6896  6908       L1    27  0.15
      P1  H  6933  6945       L1     3  0.86

> <Gold.PLP.Chemscore.Internal.Correction>
0.1243

> <Gold.Rescore>
     Score         DG    S(hbond)    S(metal)    S(lipo)     H(rot)  DE(clash)    DE(int)     intcor
      4.52     -10.04       2.93        0.00      43.98       4.05       0.67       4.85       ----

> <Gold.Chemscore.Fitness>
4.5162

> <Gold.Chemscore.DG>
-10.0366

> <Gold.Chemscore.ZeroCoef>
-5.4800

> <Gold.Chemscore.Hbond>
2.9293

> <Gold.Chemscore.Metal>
0.0000

> <Gold.Chemscore.Lipo>
43.9833

> <Gold.Chemscore.Internal_Hbond>
0.0000

> <Gold.Chemscore.DEClash>
0.6703

> <Gold.Chemscore.DEInternal>
4.8501

> <Gold.Chemscore.Rot>
4.0520

> <Gold.Chemscore.Internal.Correction>
   9.000000E+99

> <Gold.Chemscore.Hbonds>
donor molecule, donor type, donor heavy atom, donor atom, acceptor molecule, acceptor atom, score
      L1  H    15    28       P1  7957  0.09
      P1  H  6896  6907       L1    22  0.47
      P1  H  6896  6908       L1    27  0.16
      P1  H  6933  6945       L1     3  0.85
      P1  H  7989  7998       L1    17  0.01

> <Gold.Chemscore.Hbond.Weighted>
-9.7837

> <Gold.Chemscore.Metal.Weighted>
-0.0000

> <Gold.Chemscore.Lipo.Weighted>
-5.1460

> <Gold.Chemscore.Internal_Hbond.Weighted>
0.0000

> <Gold.Chemscore.DEClash.Weighted>
0.6703

> <Gold.Chemscore.DEInternal.Weighted>
4.8501

> <Gold.Chemscore.Rot.Weighted>
10.3732

> <Gold.Chemscore.Internal.Correction.Weighted>
   9.000000E+99

> <Gold.Protein.RotatedTorsions>
[ 6907 6896 6895 6894 ] final  -49.78 input  -60.11 | X-H torsion
[ 7974 7965 7964 7962 ] final  110.93 input  175.53 | X-H torsion
[ 8008 7997 7996 7995 ] final  -76.34 input   59.86 | X-H torsion
[ 10167 10162 10161 10158 ] final  178.98 input  -65.29 | X-H torsion
[ 10718 10713 10712 10709 ] final  -34.20 input   66.30 | X-H torsion
[ 10763 10752 10751 10750 ] final   10.70 input  -60.55 | X-H torsion
[ 11005 11000 10999 10996 ] final  130.33 input  -57.11 | X-H torsion

> <Gold.Protein.ActiveResidues>
 VAL166  LYS551  ARG553  GLY616  TRP617  ASP618  TYR619  PRO620  LYS621  CYS622 
 ASP623  PHE694  ASN695  SER759  ASP760  ASP761  ALA762  ILE779  LEU786  VAL792 
 PHE793  MET794  SER795  GLU796  ALA797  LYS798  CYS799  TRP800  GLU811  SER814 

> <Gold.Protein.RotatedAtoms>
  150.8772  134.8156  159.7197 H   0  0  0  0  0  0  0  0  0  0  0  0  # atno 6907 bound_to 6896
  152.4754  134.4854  159.9688 H   0  0  0  0  0  0  0  0  0  0  0  0  # atno 6908 bound_to 6896
  151.4934  133.3481  159.2892 H   0  0  0  0  0  0  0  0  0  0  0  0  # atno 6909 bound_to 6896
  145.2487  139.2748  143.4079 H   0  0  0  0  0  0  0  0  0  0  0  0  # atno 7974 bound_to 7965
  154.5497  140.0729  156.8647 H   0  0  0  0  0  0  0  0  0  0  0  0  # atno 8008 bound_to 7997
  155.3018  140.3384  155.4229 H   0  0  0  0  0  0  0  0  0  0  0  0  # atno 8009 bound_to 7997
  156.1950  140.1700  156.8003 H   0  0  0  0  0  0  0  0  0  0  0  0  # atno 8010 bound_to 7997
  139.5317  144.2615  152.0703 H   0  0  0  0  0  0  0  0  0  0  0  0  # atno 10167 bound_to 10162
  156.3534  130.4312  149.7685 H   0  0  0  0  0  0  0  0  0  0  0  0  # atno 10718 bound_to 10713
  153.2004  135.6855  153.8239 H   0  0  0  0  0  0  0  0  0  0  0  0  # atno 10763 bound_to 10752
  153.7507  135.3224  155.3321 H   0  0  0  0  0  0  0  0  0  0  0  0  # atno 10764 bound_to 10752
  154.8168  135.4680  154.0767 H   0  0  0  0  0  0  0  0  0  0  0  0  # atno 10765 bound_to 10752
  139.9666  134.9589  156.9278 H   0  0  0  0  0  0  0  0  0  0  0  0  # atno 11005 bound_to 11000
  146.3308  140.2872  142.8613 LP  0  0  0  0  0  0  0  0  0  0  0  0  # atno 17320 bound_to 7965
  144.9522  140.8190  143.5564 LP  0  0  0  0  0  0  0  0  0  0  0  0  # atno 17321 bound_to 7965
  140.2079  144.4592  150.6399 LP  0  0  0  0  0  0  0  0  0  0  0  0  # atno 17342 bound_to 10162
  140.6499  143.2222  151.6101 LP  0  0  0  0  0  0  0  0  0  0  0  0  # atno 17343 bound_to 10162
  156.4877  130.8070  151.3082 LP  0  0  0  0  0  0  0  0  0  0  0  0  # atno 17370 bound_to 10713
  157.7464  130.9985  150.2856 LP  0  0  0  0  0  0  0  0  0  0  0  0  # atno 17371 bound_to 10713
  140.5384  134.0745  155.7334 LP  0  0  0  0  0  0  0  0  0  0  0  0  # atno 17394 bound_to 11000
  141.1345  133.9244  157.2463 LP  0  0  0  0  0  0  0  0  0  0  0  0  # atno 17395 bound_to 11000

$$$$
