AV-unprocessed.smi:1976|AV-procd|sdf|7985|dock9
  -GOLD-   2272010163D 1   1.00000     0.00000
 Structure written by MMmdl.
 45 47  0  0  0  0  0  0  0  0  2 V2000
  150.2777  139.7045  158.5140 O   0  0  0  0  0  0  0  0  0  0  0  0
  151.1835  139.1684  157.8745 C   0  0  0  0  0  0  0  0  0  0  0  0
  152.6557  139.4323  158.2196 C   0  0  0  0  0  0  0  0  0  0  0  0
  152.8330  140.5510  159.1600 N   0  0  0  0  0  0  0  0  0  0  0  0
  152.3328  141.8033  158.7534 C   0  0  0  0  0  0  0  0  0  0  0  0
  152.4049  142.9068  159.5216 C   0  0  0  0  0  0  0  0  0  0  0  0
  151.8915  144.2516  159.0310 C   0  0  0  0  0  0  0  0  0  0  0  0
  152.0302  145.1926  159.9653 F   0  0  0  0  0  0  0  0  0  0  0  0
  152.5493  144.6442  157.9395 F   0  0  0  0  0  0  0  0  0  0  0  0
  150.5988  144.1576  158.7226 F   0  0  0  0  0  0  0  0  0  0  0  0
  153.0662  142.7583  160.8031 C   0  0  0  0  0  0  0  0  0  0  0  0
  153.5530  141.5682  161.2062 C   0  0  0  0  0  0  0  0  0  0  0  0
  153.4406  140.3703  160.3708 C   0  0  0  0  0  0  0  0  0  0  0  0
  153.8647  139.2742  160.7369 O   0  0  0  0  0  0  0  0  0  0  0  0
  150.9601  138.3254  156.8549 N   0  0  0  0  0  0  0  0  0  0  0  0
  149.6441  137.9516  156.3448 C   0  0  2  0  0  0  0  0  0  0  0  0
  149.5004  136.4542  156.0987 C   0  0  0  0  0  0  0  0  0  0  0  0
  148.3019  136.3958  155.1492 C   0  0  0  0  0  0  0  0  0  0  0  0
  148.3729  137.6239  154.3237 N   0  3  1  0  0  0  0  0  0  0  0  0
  147.0548  138.2159  153.9880 C   0  0  0  0  0  0  0  0  0  0  0  0
  147.2239  139.4672  153.1056 C   0  0  0  0  0  0  0  0  0  0  0  0
  148.2785  140.4544  153.6472 C   0  0  0  0  0  0  0  0  0  0  0  0
  148.8450  140.0161  155.0057 C   0  0  0  0  0  0  0  0  0  0  0  0
  149.3480  138.5545  154.9602 C   0  0  1  0  0  0  0  0  0  0  0  0
  153.0902  138.5115  158.6124 H   0  0  0  0  0  0  0  0  0  0  0  0
  153.2092  139.6368  157.3016 H   0  0  0  0  0  0  0  0  0  0  0  0
  151.8777  141.8074  157.7734 H   0  0  0  0  0  0  0  0  0  0  0  0
  153.1703  143.6134  161.4546 H   0  0  0  0  0  0  0  0  0  0  0  0
  154.0371  141.4934  162.1690 H   0  0  0  0  0  0  0  0  0  0  0  0
  151.7618  137.9197  156.3938 H   0  0  0  0  0  0  0  0  0  0  0  0
  148.8671  138.2495  157.0524 H   0  0  0  0  0  0  0  0  0  0  0  0
  150.3890  136.0604  155.6024 H   0  0  0  0  0  0  0  0  0  0  0  0
  149.3423  135.8841  157.0148 H   0  0  0  0  0  0  0  0  0  0  0  0
  148.3036  135.4990  154.5292 H   0  0  0  0  0  0  0  0  0  0  0  0
  147.3810  136.3929  155.7350 H   0  0  0  0  0  0  0  0  0  0  0  0
  146.4433  137.4757  153.4707 H   0  0  0  0  0  0  0  0  0  0  0  0
  146.5250  138.4735  154.9066 H   0  0  0  0  0  0  0  0  0  0  0  0
  147.5075  139.1632  152.0974 H   0  0  0  0  0  0  0  0  0  0  0  0
  146.2617  139.9705  153.0065 H   0  0  0  0  0  0  0  0  0  0  0  0
  149.0973  140.5314  152.9307 H   0  0  0  0  0  0  0  0  0  0  0  0
  147.8530  141.4552  153.7263 H   0  0  0  0  0  0  0  0  0  0  0  0
  149.6558  140.6841  155.2972 H   0  0  0  0  0  0  0  0  0  0  0  0
  148.0743  140.1256  155.7698 H   0  0  0  0  0  0  0  0  0  0  0  0
  150.2491  138.5094  154.3462 H   0  0  0  0  0  0  0  0  0  0  0  0
  148.7920  137.3561  153.4446 H   0  0  0  0  0  0  0  0  0  0  0  0
  1  2  2  0  0  0  0
  2  3  1  0  0  0  0
  2 15  1  0  0  0  0
  3  4  1  0  0  0  0
  3 25  1  0  0  0  0
  3 26  1  0  0  0  0
  4 13  1  0  0  0  0
  4  5  1  0  0  0  0
  5  6  2  0  0  0  0
  5 27  1  0  0  0  0
  6  7  1  0  0  0  0
  6 11  1  0  0  0  0
  7  8  1  0  0  0  0
  7  9  1  0  0  0  0
  7 10  1  0  0  0  0
 11 12  2  0  0  0  0
 11 28  1  0  0  0  0
 12 13  1  0  0  0  0
 12 29  1  0  0  0  0
 13 14  2  0  0  0  0
 15 16  1  0  0  0  0
 15 30  1  0  0  0  0
 16 24  1  0  0  0  0
 16 17  1  0  0  0  0
 16 31  1  0  0  0  0
 17 18  1  0  0  0  0
 17 32  1  0  0  0  0
 17 33  1  0  0  0  0
 18 19  1  0  0  0  0
 18 34  1  0  0  0  0
 18 35  1  0  0  0  0
 19 24  1  0  0  0  0
 19 20  1  0  0  0  0
 19 45  1  0  0  0  0
 20 21  1  0  0  0  0
 20 36  1  0  0  0  0
 20 37  1  0  0  0  0
 21 22  1  0  0  0  0
 21 38  1  0  0  0  0
 21 39  1  0  0  0  0
 22 23  1  0  0  0  0
 22 40  1  0  0  0  0
 22 41  1  0  0  0  0
 23 24  1  0  0  0  0
 23 42  1  0  0  0  0
 23 43  1  0  0  0  0
 24 44  1  0  0  0  0
M  CHG  1  19   1
M  END
> <s_m_source_file>
AV-unprocessed.smi

> <i_m_source_file_index>
1976

> <i_lp_mmshare_version>
43012

> <i_f3d_flags>
0

> <s_epik_input>
W0NIMl0xW0NIMl1bQ0gyXVtDSDJdW0NASF0oTjEyKVtDQEBIXShbQ0gyXVtDSDJdMilbTkhdQyg9TylbQ0gyXW4zW2NIXWMoQyhGKShGKUYpW2NIXVtjSF1jMz1P

> <s_epik_cmdline>
J2VwaWtfcHl0aG9uJywgJy1waCcsICc3LjAnLCAnLXRuJywgJzgnLCAnLW1hJywgJzIwMCcsICctbWV0YWxfYmluZGluZycsICctaW1hZScsICc8aW5maWxlLm1hZT4nLCAnLW9tYWUnLCAnPG91dGZpbGUubWFlPic=

> <r_lp_tautomer_probability>
1

> <r_epik_Ionization_Penalty>
0.00171506

> <r_epik_Ionization_Penalty_Charging>
0.00171498

> <r_epik_Ionization_Penalty_Neutral>
7.81737e-08

> <r_epik_State_Penalty>
0.00115937

> <r_epik_Charging_Adjusted_Penalty>
0.00287436

> <i_epik_Tot_Q>
1

> <i_epik_Tot_abs_Q>
1

> <r_epik_Metal_State_Penalty>
-0

> <b_epik_Metal_Only>
0

> <s_lp_Force_Field>
OPLS_2005

> <r_lp_Energy>
51.6

> <b_lp_Chiralities_Consistent>
1

> <s_lp_Variant>
AV-unprocessed.smi:1976-3

> <Gold.Version>
5.8.1

> <Gold.Id.Protein>
6NUR|6NUR_protein|mol2

> <Gold.PLP.Fitness>
50.8965

> <Gold.PLP.PLP>
-45.4824

> <Gold.PLP.part.hbond>
-1.0000

> <Gold.PLP.part.metal>
0.0000

> <Gold.PLP.part.buried>
-3.9793

> <Gold.PLP.part.nonpolar>
-40.7171

> <Gold.PLP.part.repulsive>
0.0119

> <Gold.PLP.ligand.clash>
0.0000

> <Gold.PLP.ligand.torsion>
0.3107

> <Gold.PLP.Chemscore.Hbond>
2.0000

> <Gold.PLP.Chemscore.CHOScore>
0.0000

> <Gold.PLP.Chemscore.Metal>
0.0000

> <Gold.Chemscore.Hbonds>
donor molecule, donor type, donor heavy atom, donor atom, acceptor molecule, acceptor atom, score
      L1  H    19    45       P1  7948  2.00

> <Gold.PLP.Chemscore.Internal.Correction>
0.0355

> <Gold.Rescore>
     Score         DG    S(hbond)    S(metal)    S(lipo)     H(rot)  DE(clash)    DE(int)     intcor
     14.79     -15.08       1.00        0.00      88.13       1.58       0.01       0.27       ----

> <Gold.Chemscore.Fitness>
14.7940

> <Gold.Chemscore.DG>
-15.0774

> <Gold.Chemscore.ZeroCoef>
-5.4800

> <Gold.Chemscore.Hbond>
0.9997

> <Gold.Chemscore.Metal>
0.0000

> <Gold.Chemscore.Lipo>
88.1268

> <Gold.Chemscore.Internal_Hbond>
0.0000

> <Gold.Chemscore.DEClash>
0.0120

> <Gold.Chemscore.DEInternal>
0.2713

> <Gold.Chemscore.Rot>
1.5830

> <Gold.Chemscore.Internal.Correction>
   9.000000E+99

> <Gold.Chemscore.Hbonds>
donor molecule, donor type, donor heavy atom, donor atom, acceptor molecule, acceptor atom, score
      L1  H    19    45       P1  7948  0.97

> <Gold.Chemscore.Hbond.Weighted>
-3.3390

> <Gold.Chemscore.Metal.Weighted>
-0.0000

> <Gold.Chemscore.Lipo.Weighted>
-10.3108

> <Gold.Chemscore.Internal_Hbond.Weighted>
0.0000

> <Gold.Chemscore.DEClash.Weighted>
0.0120

> <Gold.Chemscore.DEInternal.Weighted>
0.2713

> <Gold.Chemscore.Rot.Weighted>
4.0524

> <Gold.Chemscore.Internal.Correction.Weighted>
   9.000000E+99

> <Gold.Protein.RotatedTorsions>
[ 6907 6896 6895 6894 ] final   13.39 input  -60.11 | X-H torsion
[ 7974 7965 7964 7962 ] final   91.62 input  175.53 | X-H torsion
[ 8008 7997 7996 7995 ] final   81.07 input   59.86 | X-H torsion
[ 10167 10162 10161 10158 ] final -168.77 input  -65.29 | X-H torsion
[ 10718 10713 10712 10709 ] final  -35.92 input   66.30 | X-H torsion
[ 10763 10752 10751 10750 ] final   93.20 input  -60.55 | X-H torsion
[ 11005 11000 10999 10996 ] final -175.48 input  -57.11 | X-H torsion

> <Gold.Protein.ActiveResidues>
 VAL166  LYS551  ARG553  GLY616  TRP617  ASP618  TYR619  PRO620  LYS621  CYS622 
 ASP623  PHE694  ASN695  SER759  ASP760  ASP761  ALA762  ILE779  LEU786  VAL792 
 PHE793  MET794  SER795  GLU796  ALA797  LYS798  CYS799  TRP800  GLU811  SER814 

> <Gold.Protein.RotatedAtoms>
  151.7856  135.0750  160.0379 H   0  0  0  0  0  0  0  0  0  0  0  0  # atno 6907 bound_to 6896
  152.3192  133.5831  159.5742 H   0  0  0  0  0  0  0  0  0  0  0  0  # atno 6908 bound_to 6896
  150.7361  133.9952  159.3662 H   0  0  0  0  0  0  0  0  0  0  0  0  # atno 6909 bound_to 6896
  145.5033  139.2276  143.2765 H   0  0  0  0  0  0  0  0  0  0  0  0  # atno 7974 bound_to 7965
  155.8921  140.3438  155.5964 H   0  0  0  0  0  0  0  0  0  0  0  0  # atno 8008 bound_to 7997
  155.7598  140.0831  157.2179 H   0  0  0  0  0  0  0  0  0  0  0  0  # atno 8009 bound_to 7997
  154.4034  140.1538  156.2807 H   0  0  0  0  0  0  0  0  0  0  0  0  # atno 8010 bound_to 7997
  139.5964  144.1102  152.1694 H   0  0  0  0  0  0  0  0  0  0  0  0  # atno 10167 bound_to 10162
  156.3329  130.4282  149.7856 H   0  0  0  0  0  0  0  0  0  0  0  0  # atno 10718 bound_to 10713
  153.2276  135.4334  155.0560 H   0  0  0  0  0  0  0  0  0  0  0  0  # atno 10763 bound_to 10752
  154.8281  135.3371  154.6834 H   0  0  0  0  0  0  0  0  0  0  0  0  # atno 10764 bound_to 10752
  153.7263  135.7014  153.5056 H   0  0  0  0  0  0  0  0  0  0  0  0  # atno 10765 bound_to 10752
  140.4628  134.6238  157.4850 H   0  0  0  0  0  0  0  0  0  0  0  0  # atno 11005 bound_to 11000
  146.2213  140.5835  142.9016 LP  0  0  0  0  0  0  0  0  0  0  0  0  # atno 17320 bound_to 7965
  144.7768  140.5756  143.6632 LP  0  0  0  0  0  0  0  0  0  0  0  0  # atno 17321 bound_to 7965
  140.0688  144.5796  150.7207 LP  0  0  0  0  0  0  0  0  0  0  0  0  # atno 17342 bound_to 10162
  140.7215  143.2594  151.4261 LP  0  0  0  0  0  0  0  0  0  0  0  0  # atno 17343 bound_to 10162
  156.5122  130.8177  151.3173 LP  0  0  0  0  0  0  0  0  0  0  0  0  # atno 17370 bound_to 10713
  157.7433  130.9910  150.2586 LP  0  0  0  0  0  0  0  0  0  0  0  0  # atno 17371 bound_to 10713
  139.9934  134.6949  155.9650 LP  0  0  0  0  0  0  0  0  0  0  0  0  # atno 17394 bound_to 11000
  141.1613  133.6539  156.4329 LP  0  0  0  0  0  0  0  0  0  0  0  0  # atno 17395 bound_to 11000

$$$$
