AV-unprocessed.smi:1956|AV-procd|sdf|7903|dock6
  -GOLD-   2272010 63D 1   1.00000     0.00000
 Structure written by MMmdl.
 46 47  0  0  0  0  0  0  0  0  2 V2000
  152.4480  140.2917  158.4143 C   0  0  0  0  0  0  0  0  0  0  0  0
  152.6640  139.9636  157.0462 O   0  0  0  0  0  0  0  0  0  0  0  0
  151.6559  139.3177  156.3601 C   0  0  0  0  0  0  0  0  0  0  0  0
  150.7117  138.5722  157.0934 C   0  0  0  0  0  0  0  0  0  0  0  0
  149.6812  137.9082  156.4011 C   0  0  0  0  0  0  0  0  0  0  0  0
  149.6319  138.0041  154.9897 C   0  0  0  0  0  0  0  0  0  0  0  0
  148.6343  137.3953  154.1802 N   0  0  0  0  0  0  0  0  0  0  0  0
  147.3807  137.0485  154.5191 C   0  0  0  0  0  0  0  0  0  0  0  0
  146.8842  137.1733  155.6385 O   0  0  0  0  0  0  0  0  0  0  0  0
  146.7220  136.5158  153.4797 N   0  0  0  0  0  0  0  0  0  0  0  0
  145.3430  136.0423  153.5254 C   0  0  0  0  0  0  0  0  0  0  0  0
  144.7342  135.9385  152.1131 C   0  0  0  0  0  0  0  0  0  0  0  0
  144.6887  134.5418  151.6107 N   0  3  2  0  0  0  0  0  0  0  0  0
  146.0197  133.8838  151.6755 C   0  0  0  0  0  0  0  0  0  0  0  0
  145.9256  132.3999  151.2881 C   0  0  0  0  0  0  0  0  0  0  0  0
  145.3060  132.2352  149.8953 C   0  0  0  0  0  0  0  0  0  0  0  0
  143.9420  132.9427  149.8327 C   0  0  2  0  0  0  0  0  0  0  0  0
  143.3089  132.8156  148.4398 C   0  0  0  0  0  0  0  0  0  0  0  0
  144.0841  134.4190  150.2566 C   0  0  0  0  0  0  0  0  0  0  0  0
  150.6158  138.7878  154.3518 C   0  0  0  0  0  0  0  0  0  0  0  0
  151.6068  139.4261  155.0092 N   0  0  0  0  0  0  0  0  0  0  0  0
  153.3295  140.7985  158.8066 H   0  0  0  0  0  0  0  0  0  0  0  0
  152.2844  139.3984  159.0187 H   0  0  0  0  0  0  0  0  0  0  0  0
  151.5988  140.9661  158.5337 H   0  0  0  0  0  0  0  0  0  0  0  0
  150.7735  138.5137  158.1703 H   0  0  0  0  0  0  0  0  0  0  0  0
  148.9474  137.3545  156.9658 H   0  0  0  0  0  0  0  0  0  0  0  0
  148.9274  137.1508  153.2456 H   0  0  0  0  0  0  0  0  0  0  0  0
  147.2033  136.4438  152.5948 H   0  0  0  0  0  0  0  0  0  0  0  0
  145.2970  135.0779  154.0342 H   0  0  0  0  0  0  0  0  0  0  0  0
  144.7825  136.7449  154.1406 H   0  0  0  0  0  0  0  0  0  0  0  0
  143.7338  136.3736  152.0897 H   0  0  0  0  0  0  0  0  0  0  0  0
  145.3439  136.5347  151.4326 H   0  0  0  0  0  0  0  0  0  0  0  0
  146.7159  134.4027  151.0147 H   0  0  0  0  0  0  0  0  0  0  0  0
  146.4227  133.9613  152.6861 H   0  0  0  0  0  0  0  0  0  0  0  0
  146.9169  131.9460  151.3098 H   0  0  0  0  0  0  0  0  0  0  0  0
  145.3238  131.8652  152.0243 H   0  0  0  0  0  0  0  0  0  0  0  0
  145.9778  132.6517  149.1435 H   0  0  0  0  0  0  0  0  0  0  0  0
  145.1952  131.1755  149.6623 H   0  0  0  0  0  0  0  0  0  0  0  0
  143.2740  132.4520  150.5425 H   0  0  0  0  0  0  0  0  0  0  0  0
  143.9301  133.2864  147.6771 H   0  0  0  0  0  0  0  0  0  0  0  0
  142.3274  133.2896  148.4092 H   0  0  0  0  0  0  0  0  0  0  0  0
  143.1775  131.7692  148.1624 H   0  0  0  0  0  0  0  0  0  0  0  0
  143.0986  134.8825  150.2438 H   0  0  0  0  0  0  0  0  0  0  0  0
  144.6963  134.9622  149.5344 H   0  0  0  0  0  0  0  0  0  0  0  0
  150.6132  138.9027  153.2775 H   0  0  0  0  0  0  0  0  0  0  0  0
  144.0933  134.0308  152.2469 H   0  0  0  0  0  0  0  0  0  0  0  0
  1  2  1  0  0  0  0
  1 22  1  0  0  0  0
  1 23  1  0  0  0  0
  1 24  1  0  0  0  0
  2  3  1  0  0  0  0
  3 21  1  0  0  0  0
  3  4  2  0  0  0  0
  4  5  1  0  0  0  0
  4 25  1  0  0  0  0
  5  6  2  0  0  0  0
  5 26  1  0  0  0  0
  6  7  1  0  0  0  0
  6 20  1  0  0  0  0
  7  8  1  0  0  0  0
  7 27  1  0  0  0  0
  8  9  2  0  0  0  0
  8 10  1  0  0  0  0
 10 11  1  0  0  0  0
 10 28  1  0  0  0  0
 11 12  1  0  0  0  0
 11 29  1  0  0  0  0
 11 30  1  0  0  0  0
 12 13  1  0  0  0  0
 12 31  1  0  0  0  0
 12 32  1  0  0  0  0
 13 19  1  0  0  0  0
 13 14  1  0  0  0  0
 13 46  1  0  0  0  0
 14 15  1  0  0  0  0
 14 33  1  0  0  0  0
 14 34  1  0  0  0  0
 15 16  1  0  0  0  0
 15 35  1  0  0  0  0
 15 36  1  0  0  0  0
 16 17  1  0  0  0  0
 16 37  1  0  0  0  0
 16 38  1  0  0  0  0
 17 18  1  0  0  0  0
 17 19  1  0  0  0  0
 17 39  1  0  0  0  0
 18 40  1  0  0  0  0
 18 41  1  0  0  0  0
 18 42  1  0  0  0  0
 19 43  1  0  0  0  0
 19 44  1  0  0  0  0
 20 21  2  0  0  0  0
 20 45  1  0  0  0  0
M  CHG  1  13   1
M  END
> <s_m_source_file>
AV-unprocessed.smi

> <i_m_source_file_index>
1956

> <i_lp_mmshare_version>
43012

> <i_f3d_flags>
0

> <s_epik_input>
W0NIM11PYzFbY0hdW2NIXWMoW2NIXW4xKVtOSF1DKD1PKVtOSF1bQ0gyXVtDSDJdTjJbQ0gyXVtDSDJdW0NIMl1bQ0BASF0oW0NIM10pW0NIMl0y

> <s_epik_cmdline>
J2VwaWtfcHl0aG9uJywgJy1waCcsICc3LjAnLCAnLXRuJywgJzgnLCAnLW1hJywgJzIwMCcsICctbWV0YWxfYmluZGluZycsICctaW1hZScsICc8aW5maWxlLm1hZT4nLCAnLW9tYWUnLCAnPG91dGZpbGUubWFlPic=

> <r_lp_tautomer_probability>
1

> <r_epik_Ionization_Penalty>
0.00179545

> <r_epik_Ionization_Penalty_Charging>
0.00171832

> <r_epik_Ionization_Penalty_Neutral>
7.7124e-05

> <r_epik_State_Penalty>
0.0011618

> <r_epik_Charging_Adjusted_Penalty>
0.00288012

> <i_epik_Tot_Q>
1

> <i_epik_Tot_abs_Q>
1

> <r_epik_Metal_State_Penalty>
-0

> <b_epik_Metal_Only>
0

> <s_lp_Force_Field>
OPLS_2005

> <r_lp_Energy>
19.732

> <b_lp_Chiralities_Consistent>
1

> <s_lp_Variant>
AV-unprocessed.smi:1956-4

> <Gold.Version>
5.8.1

> <Gold.Id.Protein>
6NUR|6NUR_protein|mol2

> <Gold.PLP.Fitness>
44.4578

> <Gold.PLP.PLP>
-33.4985

> <Gold.PLP.part.hbond>
-4.0000

> <Gold.PLP.part.metal>
0.0000

> <Gold.PLP.part.buried>
-2.3677

> <Gold.PLP.part.nonpolar>
-26.4324

> <Gold.PLP.part.repulsive>
0.0688

> <Gold.PLP.ligand.clash>
0.0000

> <Gold.PLP.ligand.torsion>
0.9257

> <Gold.PLP.Chemscore.Hbond>
3.2800

> <Gold.PLP.Chemscore.CHOScore>
0.9810

> <Gold.PLP.Chemscore.Metal>
0.0000

> <Gold.Chemscore.Hbonds>
donor molecule, donor type, donor heavy atom, donor atom, acceptor molecule, acceptor atom, score
      L1  H     7    27       P1  7948  1.00
      L1  H    10    28       P1  7948  0.85
      P1  H  7989  7998       L1    21  0.39
      P1  H  7997  8009       L1     2  1.00
      L1  C    20    45       P1  7957  0.86

> <Gold.PLP.Chemscore.Internal.Correction>
0.0277

> <Gold.Rescore>
     Score         DG    S(hbond)    S(metal)    S(lipo)     H(rot)  DE(clash)    DE(int)     intcor
     18.50     -20.64       2.80        0.00      87.17       1.71       0.08       2.06       ----

> <Gold.Chemscore.Fitness>
18.4967

> <Gold.Chemscore.DG>
-20.6358

> <Gold.Chemscore.ZeroCoef>
-5.4800

> <Gold.Chemscore.Hbond>
2.7952

> <Gold.Chemscore.Metal>
0.0000

> <Gold.Chemscore.Lipo>
87.1724

> <Gold.Chemscore.Internal_Hbond>
0.0000

> <Gold.Chemscore.DEClash>
0.0765

> <Gold.Chemscore.DEInternal>
2.0626

> <Gold.Chemscore.Rot>
1.7107

> <Gold.Chemscore.Internal.Correction>
   9.000000E+99

> <Gold.Chemscore.Hbonds>
donor molecule, donor type, donor heavy atom, donor atom, acceptor molecule, acceptor atom, score
      L1  H     7    27       P1  7948  0.99
      L1  H    10    28       P1  7948  0.83
      P1  H  7989  7998       L1    21  0.01
      P1  H  7997  8009       L1     2  0.78

> <Gold.Chemscore.Hbond.Weighted>
-9.3360

> <Gold.Chemscore.Metal.Weighted>
-0.0000

> <Gold.Chemscore.Lipo.Weighted>
-10.1992

> <Gold.Chemscore.Internal_Hbond.Weighted>
0.0000

> <Gold.Chemscore.DEClash.Weighted>
0.0765

> <Gold.Chemscore.DEInternal.Weighted>
2.0626

> <Gold.Chemscore.Rot.Weighted>
4.3794

> <Gold.Chemscore.Internal.Correction.Weighted>
   9.000000E+99

> <Gold.Protein.RotatedTorsions>
[ 6907 6896 6895 6894 ] final -139.98 input  -60.11 | X-H torsion
[ 7974 7965 7964 7962 ] final -138.18 input  175.53 | X-H torsion
[ 8008 7997 7996 7995 ] final -179.41 input   59.86 | X-H torsion
[ 10167 10162 10161 10158 ] final  -58.11 input  -65.29 | X-H torsion
[ 10718 10713 10712 10709 ] final  -70.02 input   66.30 | X-H torsion
[ 10763 10752 10751 10750 ] final  -83.79 input  -60.55 | X-H torsion
[ 11005 11000 10999 10996 ] final  156.60 input  -57.11 | X-H torsion

> <Gold.Protein.ActiveResidues>
 VAL166  LYS551  ARG553  GLY616  TRP617  ASP618  TYR619  PRO620  LYS621  CYS622 
 ASP623  PHE694  ASN695  SER759  ASP760  ASP761  ALA762  ILE779  LEU786  VAL792 
 PHE793  MET794  SER795  GLU796  ALA797  LYS798  CYS799  TRP800  GLU811  SER814 

> <Gold.Protein.RotatedAtoms>
  151.0547  133.5594  159.2639 H   0  0  0  0  0  0  0  0  0  0  0  0  # atno 6907 bound_to 6896
  151.2592  135.0647  159.9101 H   0  0  0  0  0  0  0  0  0  0  0  0  # atno 6908 bound_to 6896
  152.5388  134.0296  159.8072 H   0  0  0  0  0  0  0  0  0  0  0  0  # atno 6909 bound_to 6896
  144.8780  140.6465  143.5224 H   0  0  0  0  0  0  0  0  0  0  0  0  # atno 7974 bound_to 7965
  156.0301  140.1280  157.0267 H   0  0  0  0  0  0  0  0  0  0  0  0  # atno 8008 bound_to 7997
  154.4346  140.1051  156.6158 H   0  0  0  0  0  0  0  0  0  0  0  0  # atno 8009 bound_to 7997
  155.5819  140.3468  155.4545 H   0  0  0  0  0  0  0  0  0  0  0  0  # atno 8010 bound_to 7997
  140.6217  143.2422  151.5463 H   0  0  0  0  0  0  0  0  0  0  0  0  # atno 10167 bound_to 10162
  156.0427  130.4323  150.2234 H   0  0  0  0  0  0  0  0  0  0  0  0  # atno 10718 bound_to 10713
  154.5919  135.5543  153.7287 H   0  0  0  0  0  0  0  0  0  0  0  0  # atno 10763 bound_to 10752
  153.0120  135.6345  154.1837 H   0  0  0  0  0  0  0  0  0  0  0  0  # atno 10764 bound_to 10752
  154.1777  135.2888  155.3041 H   0  0  0  0  0  0  0  0  0  0  0  0  # atno 10765 bound_to 10752
  140.1690  134.8556  157.2667 H   0  0  0  0  0  0  0  0  0  0  0  0  # atno 11005 bound_to 11000
  145.4007  139.1598  143.4179 LP  0  0  0  0  0  0  0  0  0  0  0  0  # atno 17320 bound_to 7965
  146.2975  140.4103  142.8716 LP  0  0  0  0  0  0  0  0  0  0  0  0  # atno 17321 bound_to 7965
  139.5445  144.2559  152.1415 LP  0  0  0  0  0  0  0  0  0  0  0  0  # atno 17342 bound_to 10162
  140.1781  144.4871  150.6543 LP  0  0  0  0  0  0  0  0  0  0  0  0  # atno 17343 bound_to 10162
  157.0327  131.0012  151.3307 LP  0  0  0  0  0  0  0  0  0  0  0  0  # atno 17370 bound_to 10713
  157.5266  130.8031  149.7869 LP  0  0  0  0  0  0  0  0  0  0  0  0  # atno 17371 bound_to 10713
  140.2399  134.3807  155.7485 LP  0  0  0  0  0  0  0  0  0  0  0  0  # atno 17394 bound_to 11000
  141.2216  133.7260  156.8773 LP  0  0  0  0  0  0  0  0  0  0  0  0  # atno 17395 bound_to 11000

$$$$
