AV-unprocessed.smi:438|AV-procd|sdf|2578|dock3
  -GOLD-   2262022563D 1   1.00000     0.00000
 Structure written by MMmdl.
 48 49  0  0  0  0  0  0  0  0  1 V2000
  147.7358  133.1610  159.8302 C   0  0  0  0  0  0  0  0  0  0  0  0
  147.9487  134.5934  160.2840 C   0  0  0  0  0  0  0  0  0  0  0  0
  148.8278  135.3157  159.5557 N   0  0  0  0  0  0  0  0  0  0  0  0
  149.0350  136.5721  159.9472 C   0  0  0  0  0  0  0  0  0  0  0  0
  150.2648  137.4706  159.0243 S   0  0  0  0  0  0  0  0  0  0  0  0
  149.2712  138.8328  158.3277 C   0  0  0  0  0  0  0  0  0  0  0  0
  150.0931  139.9989  157.7699 C   0  0  0  0  0  0  0  0  0  0  0  0
  149.8962  140.3877  156.6190 O   0  0  0  0  0  0  0  0  0  0  0  0
  150.9896  140.5624  158.5952 N   0  0  0  0  0  0  0  0  0  0  0  0
  151.7641  141.7665  158.3059 C   0  0  1  0  0  0  0  0  0  0  0  0
  150.8031  142.9109  157.9182 C   0  0  0  0  0  0  0  0  0  0  0  0
  151.5551  144.2235  157.6604 C   0  0  0  0  0  0  0  0  0  0  0  0
  152.4041  144.6151  158.8773 C   0  0  0  0  0  0  0  0  0  0  0  0
  153.3734  143.4864  159.2602 C   0  0  0  0  0  0  0  0  0  0  0  0
  152.6355  142.1579  159.5250 C   0  0  2  0  0  0  0  0  0  0  0  0
  153.6339  141.0530  159.9144 C   0  0  0  0  0  0  0  0  0  0  0  0
  148.4575  137.2088  160.9673 N   0  0  0  0  0  0  0  0  0  0  0  0
  147.5782  136.4994  161.7064 C   0  0  0  0  0  0  0  0  0  0  0  0
  146.9767  137.1266  162.7584 O   0  0  0  0  0  0  0  0  0  0  0  0
  147.2820  135.1458  161.4073 C   0  0  0  0  0  0  0  0  0  0  0  0
  146.2980  134.3423  162.2477 C   0  0  0  0  0  0  0  0  0  0  0  0
  144.8734  134.9061  162.1662 C   0  0  0  0  0  0  0  0  0  0  0  0
  144.0030  134.1182  162.9483 O   0  0  0  0  0  0  0  0  0  0  0  0
  146.6729  132.9481  159.7146 H   0  0  0  0  0  0  0  0  0  0  0  0
  148.1525  132.4680  160.5613 H   0  0  0  0  0  0  0  0  0  0  0  0
  148.2206  132.9707  158.8717 H   0  0  0  0  0  0  0  0  0  0  0  0
  148.6400  138.4345  157.5334 H   0  0  0  0  0  0  0  0  0  0  0  0
  148.6018  139.2046  159.1042 H   0  0  0  0  0  0  0  0  0  0  0  0
  151.0899  140.1700  159.5206 H   0  0  0  0  0  0  0  0  0  0  0  0
  152.4301  141.5690  157.4636 H   0  0  0  0  0  0  0  0  0  0  0  0
  150.2288  142.6400  157.0313 H   0  0  0  0  0  0  0  0  0  0  0  0
  150.0779  143.0675  158.7175 H   0  0  0  0  0  0  0  0  0  0  0  0
  152.1954  144.1133  156.7841 H   0  0  0  0  0  0  0  0  0  0  0  0
  150.8456  145.0184  157.4291 H   0  0  0  0  0  0  0  0  0  0  0  0
  152.9613  145.5276  158.6635 H   0  0  0  0  0  0  0  0  0  0  0  0
  151.7519  144.8408  159.7220 H   0  0  0  0  0  0  0  0  0  0  0  0
  154.1021  143.3490  158.4602 H   0  0  0  0  0  0  0  0  0  0  0  0
  153.9399  143.7807  160.1444 H   0  0  0  0  0  0  0  0  0  0  0  0
  151.9729  142.3145  160.3781 H   0  0  0  0  0  0  0  0  0  0  0  0
  154.3101  140.8234  159.0904 H   0  0  0  0  0  0  0  0  0  0  0  0
  153.1250  140.1305  160.1948 H   0  0  0  0  0  0  0  0  0  0  0  0
  154.2415  141.3575  160.7668 H   0  0  0  0  0  0  0  0  0  0  0  0
  147.2920  138.0084  162.8839 H   0  0  0  0  0  0  0  0  0  0  0  0
  146.3059  133.2986  161.9340 H   0  0  0  0  0  0  0  0  0  0  0  0
  146.6352  134.3336  163.2849 H   0  0  0  0  0  0  0  0  0  0  0  0
  144.8438  135.9343  162.5280 H   0  0  0  0  0  0  0  0  0  0  0  0
  144.5172  134.9116  161.1357 H   0  0  0  0  0  0  0  0  0  0  0  0
  143.5540  133.5118  162.3793 H   0  0  0  0  0  0  0  0  0  0  0  0
  1  2  1  0  0  0  0
  1 24  1  0  0  0  0
  1 25  1  0  0  0  0
  1 26  1  0  0  0  0
  2 20  1  0  0  0  0
  2  3  2  0  0  0  0
  3  4  1  0  0  0  0
  4  5  1  0  0  0  0
  4 17  2  0  0  0  0
  5  6  1  0  0  0  0
  6  7  1  0  0  0  0
  6 27  1  0  0  0  0
  6 28  1  0  0  0  0
  7  8  2  0  0  0  0
  7  9  1  0  0  0  0
  9 10  1  0  0  0  0
  9 29  1  0  0  0  0
 10 15  1  0  0  0  0
 10 11  1  0  0  0  0
 10 30  1  0  0  0  0
 11 12  1  0  0  0  0
 11 31  1  0  0  0  0
 11 32  1  0  0  0  0
 12 13  1  0  0  0  0
 12 33  1  0  0  0  0
 12 34  1  0  0  0  0
 13 14  1  0  0  0  0
 13 35  1  0  0  0  0
 13 36  1  0  0  0  0
 14 15  1  0  0  0  0
 14 37  1  0  0  0  0
 14 38  1  0  0  0  0
 15 16  1  0  0  0  0
 15 39  1  0  0  0  0
 16 40  1  0  0  0  0
 16 41  1  0  0  0  0
 16 42  1  0  0  0  0
 17 18  1  0  0  0  0
 18 19  1  0  0  0  0
 18 20  2  0  0  0  0
 19 43  1  0  0  0  0
 20 21  1  0  0  0  0
 21 22  1  0  0  0  0
 21 44  1  0  0  0  0
 21 45  1  0  0  0  0
 22 23  1  0  0  0  0
 22 46  1  0  0  0  0
 22 47  1  0  0  0  0
 23 48  1  0  0  0  0
M  END
> <s_m_source_file>
AV-unprocessed.smi

> <i_m_source_file_index>
438

> <i_lp_mmshare_version>
43012

> <i_f3d_flags>
0

> <s_epik_input>
W09IXVtDSDJdW0NIMl1jMWMoW09IXSluYyhuYzFbQ0gzXSlTW0NIMl1DKD1PKVtOSF1bQ0BASF0yW0NIMl1bQ0gyXVtDSDJdW0NIMl1bQ0BIXTJbQ0gzXQ==

> <s_epik_cmdline>
J2VwaWtfcHl0aG9uJywgJy1waCcsICc3LjAnLCAnLXRuJywgJzgnLCAnLW1hJywgJzIwMCcsICctbWV0YWxfYmluZGluZycsICctaW1hZScsICc8aW5maWxlLm1hZT4nLCAnLW9tYWUnLCAnPG91dGZpbGUubWFlPic=

> <r_lp_tautomer_probability>
0.0660145

> <r_epik_Ionization_Penalty>
2.91405

> <r_epik_Ionization_Penalty_Charging>
0

> <r_epik_Ionization_Penalty_Neutral>
2.91405

> <r_epik_State_Penalty>
2.44767

> <r_epik_Charging_Adjusted_Penalty>
2.44767

> <i_epik_Tot_Q>
0

> <i_epik_Tot_abs_Q>
0

> <r_epik_Metal_State_Penalty>
3.04288

> <b_epik_Metal_Only>
0

> <s_lp_Force_Field>
OPLS_2005

> <r_lp_Energy>
-0.453605

> <b_lp_Chiralities_Consistent>
1

> <s_lp_Variant>
AV-unprocessed.smi:438-16

> <Gold.Version>
5.8.1

> <Gold.Id.Protein>
6NUR|6NUR_protein|mol2

> <Gold.PLP.Fitness>
51.8286

> <Gold.PLP.PLP>
-45.6442

> <Gold.PLP.part.hbond>
-2.9407

> <Gold.PLP.part.metal>
0.0000

> <Gold.PLP.part.buried>
-5.2740

> <Gold.PLP.part.nonpolar>
-38.2163

> <Gold.PLP.part.repulsive>
0.1813

> <Gold.PLP.ligand.clash>
0.0000

> <Gold.PLP.ligand.torsion>
0.1431

> <Gold.PLP.Chemscore.Hbond>
2.1482

> <Gold.PLP.Chemscore.CHOScore>
0.0000

> <Gold.PLP.Chemscore.Metal>
0.0000

> <Gold.Chemscore.Hbonds>
donor molecule, donor type, donor heavy atom, donor atom, acceptor molecule, acceptor atom, score
      P1  H  6896  6907       L1     3  1.00
      P1  H  6931  6943       L1    17  0.89
      P1  H  6934  6947       L1    17  0.21

> <Gold.PLP.Chemscore.Internal.Correction>
0.0260

> <Gold.Rescore>
     Score         DG    S(hbond)    S(metal)    S(lipo)     H(rot)  DE(clash)    DE(int)     intcor
     14.80     -15.00       1.54        0.00     112.55       3.44       0.08       0.12       ----

> <Gold.Chemscore.Fitness>
14.8009

> <Gold.Chemscore.DG>
-15.0002

> <Gold.Chemscore.ZeroCoef>
-5.4800

> <Gold.Chemscore.Hbond>
1.5412

> <Gold.Chemscore.Metal>
0.0000

> <Gold.Chemscore.Lipo>
112.5527

> <Gold.Chemscore.Internal_Hbond>
0.0000

> <Gold.Chemscore.DEClash>
0.0799

> <Gold.Chemscore.DEInternal>
0.1195

> <Gold.Chemscore.Rot>
3.4359

> <Gold.Chemscore.Internal.Correction>
   9.000000E+99

> <Gold.Chemscore.Hbonds>
donor molecule, donor type, donor heavy atom, donor atom, acceptor molecule, acceptor atom, score
      P1  H  6896  6907       L1     3  0.40
      P1  H  6931  6943       L1    17  0.49
      P1  H  6934  6947       L1    17  0.02

> <Gold.Chemscore.Hbond.Weighted>
-5.1476

> <Gold.Chemscore.Metal.Weighted>
-0.0000

> <Gold.Chemscore.Lipo.Weighted>
-13.1687

> <Gold.Chemscore.Internal_Hbond.Weighted>
0.0000

> <Gold.Chemscore.DEClash.Weighted>
0.0799

> <Gold.Chemscore.DEInternal.Weighted>
0.1195

> <Gold.Chemscore.Rot.Weighted>
8.7960

> <Gold.Chemscore.Internal.Correction.Weighted>
   9.000000E+99

> <Gold.Protein.RotatedTorsions>
[ 6907 6896 6895 6894 ] final  -78.85 input  -60.11 | X-H torsion
[ 7974 7965 7964 7962 ] final  -85.96 input  175.53 | X-H torsion
[ 8008 7997 7996 7995 ] final -126.84 input   59.86 | X-H torsion
[ 10167 10162 10161 10158 ] final   -2.10 input  -65.29 | X-H torsion
[ 10718 10713 10712 10709 ] final  -99.72 input   66.30 | X-H torsion
[ 10763 10752 10751 10750 ] final  -13.15 input  -60.55 | X-H torsion
[ 11005 11000 10999 10996 ] final   63.95 input  -57.11 | X-H torsion

> <Gold.Protein.ActiveResidues>
 VAL166  LYS551  ARG553  GLY616  TRP617  ASP618  TYR619  PRO620  LYS621  CYS622 
 ASP623  PHE694  ASN695  SER759  ASP760  ASP761  ALA762  ILE779  LEU786  VAL792 
 PHE793  MET794  SER795  GLU796  ALA797  LYS798  CYS799  TRP800  GLU811  SER814 

> <Gold.Protein.RotatedAtoms>
  150.6963  134.4209  159.5204 H   0  0  0  0  0  0  0  0  0  0  0  0  # atno 6907 bound_to 6896
  152.1952  134.8634  160.0522 H   0  0  0  0  0  0  0  0  0  0  0  0  # atno 6908 bound_to 6896
  151.9574  133.3650  159.4059 H   0  0  0  0  0  0  0  0  0  0  0  0  # atno 6909 bound_to 6896
  145.4862  140.9555  143.1837 H   0  0  0  0  0  0  0  0  0  0  0  0  # atno 7974 bound_to 7965
  155.2363  140.0427  157.2969 H   0  0  0  0  0  0  0  0  0  0  0  0  # atno 8008 bound_to 7997
  154.5856  140.2413  155.7962 H   0  0  0  0  0  0  0  0  0  0  0  0  # atno 8009 bound_to 7997
  156.2224  140.2965  155.9993 H   0  0  0  0  0  0  0  0  0  0  0  0  # atno 8010 bound_to 7997
  140.6837  143.6697  150.8195 H   0  0  0  0  0  0  0  0  0  0  0  0  # atno 10167 bound_to 10162
  156.0142  130.5295  150.6712 H   0  0  0  0  0  0  0  0  0  0  0  0  # atno 10718 bound_to 10713
  153.5090  135.7016  153.5791 H   0  0  0  0  0  0  0  0  0  0  0  0  # atno 10763 bound_to 10752
  153.3889  135.3901  155.1909 H   0  0  0  0  0  0  0  0  0  0  0  0  # atno 10764 bound_to 10752
  154.8705  135.3853  154.4568 H   0  0  0  0  0  0  0  0  0  0  0  0  # atno 10765 bound_to 10752
  139.9991  134.6471  155.9961 H   0  0  0  0  0  0  0  0  0  0  0  0  # atno 11005 bound_to 11000
  144.7860  139.6426  143.7134 LP  0  0  0  0  0  0  0  0  0  0  0  0  # atno 17320 bound_to 7965
  146.2311  139.5816  142.9554 LP  0  0  0  0  0  0  0  0  0  0  0  0  # atno 17321 bound_to 7965
  140.0401  143.5354  152.2721 LP  0  0  0  0  0  0  0  0  0  0  0  0  # atno 17342 bound_to 10162
  139.6179  144.7623  151.2806 LP  0  0  0  0  0  0  0  0  0  0  0  0  # atno 17343 bound_to 10162
  157.4434  131.0864  151.0920 LP  0  0  0  0  0  0  0  0  0  0  0  0  # atno 17370 bound_to 10713
  157.1457  130.6162  149.5568 LP  0  0  0  0  0  0  0  0  0  0  0  0  # atno 17371 bound_to 10713
  141.1628  133.6538  156.4375 LP  0  0  0  0  0  0  0  0  0  0  0  0  # atno 17394 bound_to 11000
  140.4762  134.6707  157.5151 LP  0  0  0  0  0  0  0  0  0  0  0  0  # atno 17395 bound_to 11000

$$$$
