#       Name:                AV-unprocessed.smi:823
#       Creating user name   scv26
#       Creation time:       Fri Mar 27 01:29:14 2020


#       File generated by GOLD software.
#

@<TRIPOS>MOLECULE
AV-unprocessed.smi:823
    54    55     1
SMALL
NO_CHARGES


@<TRIPOS>ATOM
      1 ****        -5.3542   4.2708  -1.0083 C.3            1 S1                 0.0000
      2 ****        -4.1001   4.0340  -0.1601 C.3            1 S1                 0.0000
      3 ****        -3.5189   2.6224  -0.3686 C.3            1 S1                 0.0000
      4 ****        -2.2643   2.4695   0.3662 N.3            1 S1                 0.0000
      5 ****        -1.7258   1.1704   0.4930 C.ar           1 S1                 0.0000
      6 ****        -0.6445   0.9307   1.3743 C.ar           1 S1                 0.0000
      7 ****        -0.1177  -0.3704   1.4782 C.ar           1 S1                 0.0000
      8 ****        -0.6819  -1.4020   0.6996 C.ar           1 S1                 0.0000
      9 ****        -0.1611  -2.8302   0.7634 C.3            1 S1                 0.0000
     10 ****         1.2875  -2.9217   0.9096 N.am           1 S1                 0.0000
     11 ****         2.1707  -2.7456  -0.0848 C.2            1 S1                 0.0000
     12 ****         1.8391  -2.4975  -1.2454 O.2            1 S1                 0.0000
     13 ****         3.6549  -2.8385   0.3025 C.3            1 S1                 0.0000
     14 ****         4.2104  -1.4074   0.3970 C.3            1 S1                 0.0000
     15 ****         4.4110  -3.5521  -0.7253 N.am           1 S1                 0.0000
     16 ****         4.4868  -4.8864  -0.8366 C.2            1 S1                 0.0000
     17 ****         5.2296  -5.2675  -1.8762 N.am           1 S1                 0.0000
     18 ****         3.9393  -5.6819  -0.0756 O.2            1 S1                 0.0000
     19 ****        -1.7653  -1.0742  -0.1396 C.ar           1 S1                 0.0000
     20 ****        -2.2747   0.1714  -0.2423 N.ar           1 S1                 0.0000
     21 ****        -1.2984   3.5285   0.0849 C.3            1 S1                 0.0000
     22 ****        -1.9480   4.9096   0.2726 C.3            1 S1                 0.0000
     23 ****        -3.1219   5.0027  -0.5275 O.3            1 S1                 0.0000
     24 ****        -6.1398   3.5589  -0.7539 H              1 S1                 0.0000
     25 ****        -5.1374   4.1643  -2.0717 H              1 S1                 0.0000
     26 ****        -5.7500   5.2738  -0.8473 H              1 S1                 0.0000
     27 ****        -4.3617   4.1714   0.8908 H              1 S1                 0.0000
     28 ****        -4.2438   1.8806  -0.0303 H              1 S1                 0.0000
     29 ****        -3.3378   2.4421  -1.4293 H              1 S1                 0.0000
     30 ****        -0.2241   1.7205   1.9786 H              1 S1                 0.0000
     31 ****         0.7052  -0.5671   2.1497 H              1 S1                 0.0000
     32 ****        -0.6216  -3.3243   1.6191 H              1 S1                 0.0000
     33 ****        -0.4791  -3.3848  -0.1213 H              1 S1                 0.0000
     34 ****         1.6438  -3.1232   1.8327 H              1 S1                 0.0000
     35 ****         3.7668  -3.3402   1.2659 H              1 S1                 0.0000
     36 ****         3.6801  -0.8252   1.1520 H              1 S1                 0.0000
     37 ****         4.1271  -0.8747  -0.5518 H              1 S1                 0.0000
     38 ****         5.2641  -1.4168   0.6775 H              1 S1                 0.0000
     39 ****         4.8929  -2.9870  -1.4087 H              1 S1                 0.0000
     40 ****         5.3690  -6.2481  -2.0704 H              1 S1                 0.0000
     41 ****         5.6542  -4.5671  -2.4667 H              1 S1                 0.0000
     42 ****        -2.2373  -1.8304  -0.7496 H              1 S1                 0.0000
     43 ****        -0.4222   3.4608   0.7279 H              1 S1                 0.0000
     44 ****        -0.9474   3.4190  -0.9420 H              1 S1                 0.0000
     45 ****        -2.1933   5.0848   1.3214 H              1 S1                 0.0000
     46 ****        -1.2525   5.6940  -0.0260 H              1 S1                 0.0000
     47 ****        -2.5529   2.6110   1.3132 LP             1 S1                 0.0000
     48 ****         0.8709  -2.4186  -1.4827 LP             1 S1                 0.0000
     49 ****         2.5382  -2.3751  -1.9498 LP             1 S1                 0.0000
     50 ****         3.3916  -5.3451   0.6903 LP             1 S1                 0.0000
     51 ****         4.0417  -6.6658  -0.2225 LP             1 S1                 0.0000
     52 ****        -3.0459   0.3552  -0.8518 LP             1 S1                 0.0000
     53 ****        -3.5152   5.9155  -0.4177 LP             1 S1                 0.0000
     54 ****        -2.8714   4.8606  -1.4851 LP             1 S1                 0.0000
@<TRIPOS>BOND
    1    1    2 1     
    2    1   24 1     
    3    1   25 1     
    4    1   26 1     
    5    2   23 1     
    6    2    3 1     
    7    2   27 1     
    8    3    4 1     
    9    3   28 1     
   10    3   29 1     
   11    4    5 1     
   12    4   21 1     
   13    5   20 ar    
   14    5    6 ar    
   15    6    7 ar    
   16    6   30 1     
   17    7    8 ar    
   18    7   31 1     
   19    8    9 1     
   20    8   19 ar    
   21    9   10 1     
   22    9   32 1     
   23    9   33 1     
   24   10   11 am    
   25   10   34 1     
   26   11   12 2     
   27   11   13 1     
   28   13   14 1     
   29   13   15 1     
   30   13   35 1     
   31   14   36 1     
   32   14   37 1     
   33   14   38 1     
   34   15   16 am    
   35   15   39 1     
   36   16   17 am    
   37   16   18 2     
   38   17   40 1     
   39   17   41 1     
   40   19   20 ar    
   41   19   42 1     
   42   21   22 1     
   43   21   43 1     
   44   21   44 1     
   45   22   23 1     
   46   22   45 1     
   47   22   46 1     
   48    4   47 1     
   49   12   48 1     
   50   12   49 1     
   51   18   50 1     
   52   18   51 1     
   53   20   52 1     
   54   23   53 1     
   55   23   54 1     
@<TRIPOS>SUBSTRUCTURE
      1 S1             1
@<TRIPOS>SET
LONE_PAIRS      STATIC     ATOMS    <user>   **** ""
8 47 48 49 50 51 52 53 54
DONOR_HYDROGENS      STATIC     ATOMS    <user>   **** ""
4 34 39 40 41
ATOM$BLUE        STATIC     ATOMS    COLORGROUP SYSTEM
8 47 48 49 50 51 52 53 54
ATOM$RED        STATIC     ATOMS    COLORGROUP SYSTEM
4 34 39 40 41
