AV-unprocessed.smi:1027|AV-procd|sdf|4471|dock8
  -GOLD-   22720 2443D 1   1.00000     0.00000
 Structure written by MMmdl.
 34 35  0  0  0  0  0  0  0  0  2 V2000
  151.4907  144.8046  160.4818 C   0  0  0  0  0  0  0  0  0  0  0  0
  152.1558  144.0597  159.3100 C   0  0  0  0  0  0  0  0  0  0  0  0
  151.3905  144.3674  158.0078 C   0  0  0  0  0  0  0  0  0  0  0  0
  152.2799  142.5349  159.5710 C   0  0  2  0  0  0  0  0  0  0  0  0
  153.4642  142.1670  160.4851 C   0  0  0  0  0  0  0  0  0  0  0  0
  152.4215  141.8176  158.3032 N   0  0  0  0  0  0  0  0  0  0  0  0
  152.3899  140.4878  158.1305 C   0  0  0  0  0  0  0  0  0  0  0  0
  152.2430  139.7422  159.1018 O   0  0  0  0  0  0  0  0  0  0  0  0
  152.5297  140.1045  156.8408 N   0  5  0  0  0  0  0  0  0  0  0  0
  151.4860  140.1874  155.9991 C   0  0  0  0  0  0  0  0  0  0  0  0
  151.4296  139.4934  154.8538 N   0  0  0  0  0  0  0  0  0  0  0  0
  150.2671  139.7255  154.1333 N   0  0  0  0  0  0  0  0  0  0  0  0
  149.4630  140.6001  154.7424 C   0  0  0  0  0  0  0  0  0  0  0  0
  148.1486  141.0116  154.1681 C   0  0  0  0  0  0  0  0  0  0  0  0
  146.8631  140.8745  154.9546 C   0  0  0  0  0  0  0  0  0  0  0  0
  147.1209  139.9765  153.7718 C   0  0  0  0  0  0  0  0  0  0  0  0
  150.0824  141.2214  156.2640 S   0  0  0  0  0  0  0  0  0  0  0  0
  150.5006  144.4015  160.6961 H   0  0  0  0  0  0  0  0  0  0  0  0
  151.3742  145.8651  160.2567 H   0  0  0  0  0  0  0  0  0  0  0  0
  152.0845  144.7410  161.3930 H   0  0  0  0  0  0  0  0  0  0  0  0
  153.1621  144.4656  159.1960 H   0  0  0  0  0  0  0  0  0  0  0  0
  150.3852  143.9458  158.0329 H   0  0  0  0  0  0  0  0  0  0  0  0
  151.8980  143.9646  157.1311 H   0  0  0  0  0  0  0  0  0  0  0  0
  151.2953  145.4423  157.8525 H   0  0  0  0  0  0  0  0  0  0  0  0
  151.3596  142.2072  160.0580 H   0  0  0  0  0  0  0  0  0  0  0  0
  153.3447  142.5763  161.4874 H   0  0  0  0  0  0  0  0  0  0  0  0
  154.4071  142.5359  160.0804 H   0  0  0  0  0  0  0  0  0  0  0  0
  153.5536  141.0858  160.5971 H   0  0  0  0  0  0  0  0  0  0  0  0
  152.5462  142.3834  157.4764 H   0  0  0  0  0  0  0  0  0  0  0  0
  148.2644  141.8862  153.5310 H   0  0  0  0  0  0  0  0  0  0  0  0
  146.9092  140.4201  155.9423 H   0  0  0  0  0  0  0  0  0  0  0  0
  146.1180  141.6584  154.8372 H   0  0  0  0  0  0  0  0  0  0  0  0
  146.5482  140.1601  152.8651 H   0  0  0  0  0  0  0  0  0  0  0  0
  147.3511  138.9325  153.9755 H   0  0  0  0  0  0  0  0  0  0  0  0
  1  2  1  0  0  0  0
  1 18  1  0  0  0  0
  1 19  1  0  0  0  0
  1 20  1  0  0  0  0
  2  3  1  0  0  0  0
  2  4  1  0  0  0  0
  2 21  1  0  0  0  0
  3 22  1  0  0  0  0
  3 23  1  0  0  0  0
  3 24  1  0  0  0  0
  4  5  1  0  0  0  0
  4  6  1  0  0  0  0
  4 25  1  0  0  0  0
  5 26  1  0  0  0  0
  5 27  1  0  0  0  0
  5 28  1  0  0  0  0
  6  7  1  0  0  0  0
  6 29  1  0  0  0  0
  7  8  2  0  0  0  0
  7  9  1  0  0  0  0
  9 10  1  0  0  0  0
 10 17  1  0  0  0  0
 10 11  2  0  0  0  0
 11 12  1  0  0  0  0
 12 13  2  0  0  0  0
 13 14  1  0  0  0  0
 13 17  1  0  0  0  0
 14 16  1  0  0  0  0
 14 15  1  0  0  0  0
 14 30  1  0  0  0  0
 15 16  1  0  0  0  0
 15 31  1  0  0  0  0
 15 32  1  0  0  0  0
 16 33  1  0  0  0  0
 16 34  1  0  0  0  0
M  CHG  1   9  -1
M  END
> <s_m_source_file>
AV-unprocessed.smi

> <i_m_source_file_index>
1027

> <i_lp_mmshare_version>
43012

> <i_f3d_flags>
0

> <s_epik_input>
W0NIM11bQ0hdKFtDSDNdKVtDQEhdKFtDSDNdKVtOSF1DKD1PKVtOSF1jMW5uYyhzMSlbQ0hdMltDSDJdW0NIMl0y

> <s_epik_cmdline>
J2VwaWtfcHl0aG9uJywgJy1waCcsICc3LjAnLCAnLXRuJywgJzgnLCAnLW1hJywgJzIwMCcsICctbWV0YWxfYmluZGluZycsICctaW1hZScsICc8aW5maWxlLm1hZT4nLCAnLW9tYWUnLCAnPG91dGZpbGUubWFlPic=

> <r_lp_tautomer_probability>
1

> <r_epik_Ionization_Penalty>
3.99975

> <r_epik_Ionization_Penalty_Charging>
3.83446

> <r_epik_Ionization_Penalty_Neutral>
0.165297

> <r_epik_State_Penalty>
3.83354

> <r_epik_Charging_Adjusted_Penalty>
7.668

> <i_epik_Tot_Q>
-1

> <i_epik_Tot_abs_Q>
1

> <r_epik_Metal_State_Penalty>
0.575872

> <b_epik_Metal_Only>
1

> <s_lp_Force_Field>
OPLS_2005

> <r_lp_Energy>
2.28672

> <b_lp_Chiralities_Consistent>
1

> <s_lp_Variant>
AV-unprocessed.smi:1027-3

> <Gold.Version>
5.8.1

> <Gold.Id.Protein>
6NUR|6NUR_protein|mol2

> <Gold.PLP.Fitness>
46.1528

> <Gold.PLP.PLP>
-42.7456

> <Gold.PLP.part.hbond>
-3.0000

> <Gold.PLP.part.metal>
0.0000

> <Gold.PLP.part.buried>
-1.8632

> <Gold.PLP.part.nonpolar>
-37.7597

> <Gold.PLP.part.repulsive>
1.0295

> <Gold.PLP.ligand.clash>
0.0000

> <Gold.PLP.ligand.torsion>
1.3758

> <Gold.PLP.Chemscore.Hbond>
2.0000

> <Gold.PLP.Chemscore.CHOScore>
0.0000

> <Gold.PLP.Chemscore.Metal>
0.0000

> <Gold.Chemscore.Hbonds>
donor molecule, donor type, donor heavy atom, donor atom, acceptor molecule, acceptor atom, score
      P1  H  7997  8009       L1     9  2.00

> <Gold.PLP.Chemscore.Internal.Correction>
0.1589

> <Gold.Rescore>
     Score         DG    S(hbond)    S(metal)    S(lipo)     H(rot)  DE(clash)    DE(int)     intcor
     14.42     -15.93       0.86        0.00      94.45       1.36       0.07       1.44       ----

> <Gold.Chemscore.Fitness>
14.4212

> <Gold.Chemscore.DG>
-15.9300

> <Gold.Chemscore.ZeroCoef>
-5.4800

> <Gold.Chemscore.Hbond>
0.8641

> <Gold.Chemscore.Metal>
0.0000

> <Gold.Chemscore.Lipo>
94.4468

> <Gold.Chemscore.Internal_Hbond>
0.0000

> <Gold.Chemscore.DEClash>
0.0686

> <Gold.Chemscore.DEInternal>
1.4401

> <Gold.Chemscore.Rot>
1.3618

> <Gold.Chemscore.Internal.Correction>
   9.000000E+99

> <Gold.Chemscore.Hbonds>
donor molecule, donor type, donor heavy atom, donor atom, acceptor molecule, acceptor atom, score
      P1  H  7997  8009       L1     9  0.59

> <Gold.Chemscore.Hbond.Weighted>
-2.8860

> <Gold.Chemscore.Metal.Weighted>
-0.0000

> <Gold.Chemscore.Lipo.Weighted>
-11.0503

> <Gold.Chemscore.Internal_Hbond.Weighted>
0.0000

> <Gold.Chemscore.DEClash.Weighted>
0.0686

> <Gold.Chemscore.DEInternal.Weighted>
1.4401

> <Gold.Chemscore.Rot.Weighted>
3.4863

> <Gold.Chemscore.Internal.Correction.Weighted>
   9.000000E+99

> <Gold.Protein.RotatedTorsions>
[ 6907 6896 6895 6894 ] final  106.97 input  -60.11 | X-H torsion
[ 7974 7965 7964 7962 ] final -161.63 input  175.53 | X-H torsion
[ 8008 7997 7996 7995 ] final -169.10 input   59.86 | X-H torsion
[ 10167 10162 10161 10158 ] final    1.83 input  -65.29 | X-H torsion
[ 10718 10713 10712 10709 ] final -110.67 input   66.30 | X-H torsion
[ 10763 10752 10751 10750 ] final   46.95 input  -60.55 | X-H torsion
[ 11005 11000 10999 10996 ] final -123.08 input  -57.11 | X-H torsion

> <Gold.Protein.ActiveResidues>
 VAL166  LYS551  ARG553  GLY616  TRP617  ASP618  TYR619  PRO620  LYS621  CYS622 
 ASP623  PHE694  ASN695  SER759  ASP760  ASP761  ALA762  ILE779  LEU786  VAL792 
 PHE793  MET794  SER795  GLU796  ALA797  LYS798  CYS799  TRP800  GLU811  SER814 

> <Gold.Protein.RotatedAtoms>
  152.5173  133.9303  159.7577 H   0  0  0  0  0  0  0  0  0  0  0  0  # atno 6907 bound_to 6896
  150.9655  133.6391  159.2754 H   0  0  0  0  0  0  0  0  0  0  0  0  # atno 6908 bound_to 6896
  151.3620  135.0911  159.9490 H   0  0  0  0  0  0  0  0  0  0  0  0  # atno 6909 bound_to 6896
  144.7384  140.3370  143.6142 H   0  0  0  0  0  0  0  0  0  0  0  0  # atno 7974 bound_to 7965
  155.9004  140.1040  157.1354 H   0  0  0  0  0  0  0  0  0  0  0  0  # atno 8008 bound_to 7997
  154.4025  140.1293  156.4493 H   0  0  0  0  0  0  0  0  0  0  0  0  # atno 8009 bound_to 7997
  155.7429  140.3466  155.5115 H   0  0  0  0  0  0  0  0  0  0  0  0  # atno 8010 bound_to 7997
  140.6664  143.7167  150.7836 H   0  0  0  0  0  0  0  0  0  0  0  0  # atno 10167 bound_to 10162
  156.0603  130.5827  150.8268 H   0  0  0  0  0  0  0  0  0  0  0  0  # atno 10718 bound_to 10713
  152.9805  135.5992  154.3683 H   0  0  0  0  0  0  0  0  0  0  0  0  # atno 10763 bound_to 10752
  154.3359  135.2768  155.2449 H   0  0  0  0  0  0  0  0  0  0  0  0  # atno 10764 bound_to 10752
  154.4553  135.5979  153.6274 H   0  0  0  0  0  0  0  0  0  0  0  0  # atno 10765 bound_to 10752
  140.9947  134.0489  157.3612 H   0  0  0  0  0  0  0  0  0  0  0  0  # atno 11005 bound_to 11000
  145.7414  139.1765  143.2374 LP  0  0  0  0  0  0  0  0  0  0  0  0  # atno 17320 bound_to 7965
  146.1131  140.7403  142.9493 LP  0  0  0  0  0  0  0  0  0  0  0  0  # atno 17321 bound_to 7965
  140.0845  143.4937  152.2512 LP  0  0  0  0  0  0  0  0  0  0  0  0  # atno 17342 bound_to 10162
  139.5915  144.7551  151.3390 LP  0  0  0  0  0  0  0  0  0  0  0  0  # atno 17343 bound_to 10162
  157.5607  131.0946  150.9563 LP  0  0  0  0  0  0  0  0  0  0  0  0  # atno 17370 bound_to 10713
  156.9801  130.5524  149.5296 LP  0  0  0  0  0  0  0  0  0  0  0  0  # atno 17371 bound_to 10713
  139.9009  135.0164  156.7262 LP  0  0  0  0  0  0  0  0  0  0  0  0  # atno 17394 bound_to 11000
  140.6985  133.9327  155.8010 LP  0  0  0  0  0  0  0  0  0  0  0  0  # atno 17395 bound_to 11000

$$$$
