AV-unprocessed.smi:2119|AV-procd|sdf|8632|dock3
  -GOLD-   2272011373D 1   1.00000     0.00000
 Structure written by MMmdl.
 47 49  0  0  0  0  0  0  0  0  1 V2000
  144.6876  135.9514  153.5811 O   0  0  0  0  0  0  0  0  0  0  0  0
  145.8456  135.9558  153.1642 C   0  0  0  0  0  0  0  0  0  0  0  0
  146.7801  136.8162  153.5917 N   0  0  0  0  0  0  0  0  0  0  0  0
  146.5561  137.8839  154.5631 C   0  0  0  0  0  0  0  0  0  0  0  0
  147.2212  139.2392  154.1638 C   0  0  2  0  0  0  0  0  0  0  0  0
  148.6757  139.2852  154.7467 C   0  0  1  0  0  0  0  0  0  0  0  0
  149.6662  138.1835  154.4105 C   0  0  0  0  0  0  0  0  0  0  0  0
  150.9700  138.7885  154.9160 C   0  0  0  0  0  0  0  0  0  0  0  0
  150.8643  140.1787  154.6282 O   0  0  0  0  0  0  0  0  0  0  0  0
  149.5039  140.5200  154.3703 C   0  0  0  0  0  0  0  0  0  0  0  0
  146.4167  140.4501  154.4689 N   0  0  0  0  0  0  0  0  0  0  0  0
  146.4690  140.7915  155.8966 C   0  0  0  0  0  0  0  0  0  0  0  0
  145.5587  141.9801  156.2457 C   0  0  0  0  0  0  0  0  0  0  0  0
  145.9521  143.1125  155.4801 O   0  0  0  0  0  0  0  0  0  0  0  0
  145.9088  142.8639  154.0804 C   0  0  0  0  0  0  0  0  0  0  0  0
  146.8027  141.6590  153.7332 C   0  0  0  0  0  0  0  0  0  0  0  0
  146.3476  135.1142  152.2447 N   0  0  0  0  0  0  0  0  0  0  0  0
  145.6810  134.0960  151.5103 C   0  0  0  0  0  0  0  0  0  0  0  0
  144.2743  133.9847  151.3884 C   0  0  0  0  0  0  0  0  0  0  0  0
  143.7401  132.9364  150.6145 C   0  0  0  0  0  0  0  0  0  0  0  0
  144.6289  132.0436  149.9848 C   0  0  0  0  0  0  0  0  0  0  0  0
  145.9712  132.1454  150.0816 N   0  0  0  0  0  0  0  0  0  0  0  0
  146.4761  133.1524  150.8256 C   0  0  0  0  0  0  0  0  0  0  0  0
  147.7089  136.7432  153.2028 H   0  0  0  0  0  0  0  0  0  0  0  0
  145.4764  137.9924  154.6741 H   0  0  0  0  0  0  0  0  0  0  0  0
  146.9304  137.5426  155.5285 H   0  0  0  0  0  0  0  0  0  0  0  0
  147.3263  139.1946  153.0787 H   0  0  0  0  0  0  0  0  0  0  0  0
  148.5916  139.2745  155.8346 H   0  0  0  0  0  0  0  0  0  0  0  0
  149.4308  137.2271  154.8782 H   0  0  0  0  0  0  0  0  0  0  0  0
  149.7584  138.0448  153.3334 H   0  0  0  0  0  0  0  0  0  0  0  0
  151.0596  138.6581  155.9952 H   0  0  0  0  0  0  0  0  0  0  0  0
  151.8491  138.3473  154.4458 H   0  0  0  0  0  0  0  0  0  0  0  0
  149.3993  140.7478  153.3087 H   0  0  0  0  0  0  0  0  0  0  0  0
  149.2161  141.4063  154.9361 H   0  0  0  0  0  0  0  0  0  0  0  0
  146.2044  139.9519  156.5305 H   0  0  0  0  0  0  0  0  0  0  0  0
  147.4943  141.0458  156.1707 H   0  0  0  0  0  0  0  0  0  0  0  0
  144.5128  141.7389  156.0503 H   0  0  0  0  0  0  0  0  0  0  0  0
  145.6409  142.2226  157.3053 H   0  0  0  0  0  0  0  0  0  0  0  0
  144.8789  142.6810  153.7702 H   0  0  0  0  0  0  0  0  0  0  0  0
  146.2491  143.7533  153.5505 H   0  0  0  0  0  0  0  0  0  0  0  0
  147.8447  141.9077  153.9416 H   0  0  0  0  0  0  0  0  0  0  0  0
  146.7203  141.4933  152.6594 H   0  0  0  0  0  0  0  0  0  0  0  0
  147.3387  135.1926  152.0682 H   0  0  0  0  0  0  0  0  0  0  0  0
  143.5970  134.6823  151.8555 H   0  0  0  0  0  0  0  0  0  0  0  0
  142.6722  132.8221  150.5022 H   0  0  0  0  0  0  0  0  0  0  0  0
  144.2516  131.2303  149.3830 H   0  0  0  0  0  0  0  0  0  0  0  0
  147.5538  133.2045  150.8778 H   0  0  0  0  0  0  0  0  0  0  0  0
  1  2  2  0  0  0  0
  2  3  1  0  0  0  0
  2 17  1  0  0  0  0
  3  4  1  0  0  0  0
  3 24  1  0  0  0  0
  4  5  1  0  0  0  0
  4 25  1  0  0  0  0
  4 26  1  0  0  0  0
  5  6  1  0  0  0  0
  5 11  1  0  0  0  0
  5 27  1  0  0  0  0
  6 10  1  0  0  0  0
  6  7  1  0  0  0  0
  6 28  1  0  0  0  0
  7  8  1  0  0  0  0
  7 29  1  0  0  0  0
  7 30  1  0  0  0  0
  8  9  1  0  0  0  0
  8 31  1  0  0  0  0
  8 32  1  0  0  0  0
  9 10  1  0  0  0  0
 10 33  1  0  0  0  0
 10 34  1  0  0  0  0
 11 16  1  0  0  0  0
 11 12  1  0  0  0  0
 12 13  1  0  0  0  0
 12 35  1  0  0  0  0
 12 36  1  0  0  0  0
 13 14  1  0  0  0  0
 13 37  1  0  0  0  0
 13 38  1  0  0  0  0
 14 15  1  0  0  0  0
 15 16  1  0  0  0  0
 15 39  1  0  0  0  0
 15 40  1  0  0  0  0
 16 41  1  0  0  0  0
 16 42  1  0  0  0  0
 17 18  1  0  0  0  0
 17 43  1  0  0  0  0
 18 23  1  0  0  0  0
 18 19  2  0  0  0  0
 19 20  1  0  0  0  0
 19 44  1  0  0  0  0
 20 21  2  0  0  0  0
 20 45  1  0  0  0  0
 21 22  1  0  0  0  0
 21 46  1  0  0  0  0
 22 23  2  0  0  0  0
 23 47  1  0  0  0  0
M  END
> <s_m_source_file>
AV-unprocessed.smi

> <i_m_source_file_index>
2119

> <i_lp_mmshare_version>
43012

> <i_f3d_flags>
0

> <s_epik_input>
W2NIXTFuW2NIXVtjSF1bY0hdYzFbTkhdQyg9TylbTkhdW0NIMl1bQ0BIXShbQ0BASF0yW0NIMl1bQ0gyXU9bQ0gyXTIpTjNbQ0gyXVtDSDJdT1tDSDJdW0NIMl0z

> <s_epik_cmdline>
J2VwaWtfcHl0aG9uJywgJy1waCcsICc3LjAnLCAnLXRuJywgJzgnLCAnLW1hJywgJzIwMCcsICctbWV0YWxfYmluZGluZycsICctaW1hZScsICc8aW5maWxlLm1hZT4nLCAnLW9tYWUnLCAnPG91dGZpbGUubWFlPic=

> <r_epik_Ionization_Penalty>
0.129787

> <r_epik_Ionization_Penalty_Charging>
0

> <r_epik_Ionization_Penalty_Neutral>
0.129787

> <r_epik_State_Penalty>
0.121311

> <r_epik_Charging_Adjusted_Penalty>
0.121311

> <i_epik_Tot_Q>
0

> <i_epik_Tot_abs_Q>
0

> <r_epik_Metal_State_Penalty>
0.117931

> <b_epik_Metal_Only>
0

> <s_lp_Force_Field>
OPLS_2005

> <r_lp_Energy>
58.2648

> <b_lp_Chiralities_Consistent>
1

> <s_lp_Variant>
AV-unprocessed.smi:2119-3

> <Gold.Version>
5.8.1

> <Gold.Id.Protein>
6NUR|6NUR_protein|mol2

> <Gold.PLP.Fitness>
44.5456

> <Gold.PLP.PLP>
-36.3102

> <Gold.PLP.part.hbond>
-3.0000

> <Gold.PLP.part.metal>
0.0000

> <Gold.PLP.part.buried>
-6.6181

> <Gold.PLP.part.nonpolar>
-28.0909

> <Gold.PLP.part.repulsive>
0.6431

> <Gold.PLP.ligand.clash>
0.0013

> <Gold.PLP.ligand.torsion>
0.8543

> <Gold.PLP.Chemscore.Hbond>
3.0000

> <Gold.PLP.Chemscore.CHOScore>
0.2626

> <Gold.PLP.Chemscore.Metal>
0.0000

> <Gold.Chemscore.Hbonds>
donor molecule, donor type, donor heavy atom, donor atom, acceptor molecule, acceptor atom, score
      L1  H     3    24       P1  7948  1.00
      L1  H    17    43       P1  7948  1.00
      P1  H  7989  7998       L1     9  1.00
      L1  C    23    47       P1 10747  0.25

> <Gold.PLP.Chemscore.Internal.Correction>
0.1576

> <Gold.Rescore>
     Score         DG    S(hbond)    S(metal)    S(lipo)     H(rot)  DE(clash)    DE(int)     intcor
     18.05     -20.35       2.73        0.00      85.40       1.65       0.13       2.17       ----

> <Gold.Chemscore.Fitness>
18.0508

> <Gold.Chemscore.DG>
-20.3490

> <Gold.Chemscore.ZeroCoef>
-5.4800

> <Gold.Chemscore.Hbond>
2.7255

> <Gold.Chemscore.Metal>
0.0000

> <Gold.Chemscore.Lipo>
85.4032

> <Gold.Chemscore.Internal_Hbond>
0.0000

> <Gold.Chemscore.DEClash>
0.1279

> <Gold.Chemscore.DEInternal>
2.1703

> <Gold.Chemscore.Rot>
1.6508

> <Gold.Chemscore.Internal.Correction>
   9.000000E+99

> <Gold.Chemscore.Hbonds>
donor molecule, donor type, donor heavy atom, donor atom, acceptor molecule, acceptor atom, score
      L1  H     3    24       P1  7948  0.97
      L1  H    17    43       P1  7948  0.96
      P1  H  7989  7998       L1     9  0.42

> <Gold.Chemscore.Hbond.Weighted>
-9.1030

> <Gold.Chemscore.Metal.Weighted>
-0.0000

> <Gold.Chemscore.Lipo.Weighted>
-9.9922

> <Gold.Chemscore.Internal_Hbond.Weighted>
0.0000

> <Gold.Chemscore.DEClash.Weighted>
0.1279

> <Gold.Chemscore.DEInternal.Weighted>
2.1703

> <Gold.Chemscore.Rot.Weighted>
4.2262

> <Gold.Chemscore.Internal.Correction.Weighted>
   9.000000E+99

> <Gold.Protein.RotatedTorsions>
[ 6907 6896 6895 6894 ] final  124.42 input  -60.11 | X-H torsion
[ 7974 7965 7964 7962 ] final   20.14 input  175.53 | X-H torsion
[ 8008 7997 7996 7995 ] final   -1.74 input   59.86 | X-H torsion
[ 10167 10162 10161 10158 ] final -125.21 input  -65.29 | X-H torsion
[ 10718 10713 10712 10709 ] final  -84.95 input   66.30 | X-H torsion
[ 10763 10752 10751 10750 ] final  -77.09 input  -60.55 | X-H torsion
[ 11005 11000 10999 10996 ] final -139.30 input  -57.11 | X-H torsion

> <Gold.Protein.ActiveResidues>
 VAL166  LYS551  ARG553  GLY616  TRP617  ASP618  TYR619  PRO620  LYS621  CYS622 
 ASP623  PHE694  ASN695  SER759  ASP760  ASP761  ALA762  ILE779  LEU786  VAL792 
 PHE793  MET794  SER795  GLU796  ALA797  LYS798  CYS799  TRP800  GLU811  SER814 

> <Gold.Protein.RotatedAtoms>
  152.4079  133.6918  159.6372 H   0  0  0  0  0  0  0  0  0  0  0  0  # atno 6907 bound_to 6896
  150.7962  133.8676  159.3258 H   0  0  0  0  0  0  0  0  0  0  0  0  # atno 6908 bound_to 6896
  151.6425  135.1013  160.0196 H   0  0  0  0  0  0  0  0  0  0  0  0  # atno 6909 bound_to 6896
  146.2122  139.8212  142.8679 H   0  0  0  0  0  0  0  0  0  0  0  0  # atno 7974 bound_to 7965
  154.6434  140.2552  155.7295 H   0  0  0  0  0  0  0  0  0  0  0  0  # atno 8008 bound_to 7997
  156.2540  140.2882  156.0758 H   0  0  0  0  0  0  0  0  0  0  0  0  # atno 8009 bound_to 7997
  155.1561  140.0383  157.2822 H   0  0  0  0  0  0  0  0  0  0  0  0  # atno 8010 bound_to 7997
  139.9845  143.5707  152.2366 H   0  0  0  0  0  0  0  0  0  0  0  0  # atno 10167 bound_to 10162
  156.0001  130.4714  150.4487 H   0  0  0  0  0  0  0  0  0  0  0  0  # atno 10718 bound_to 10713
  154.5084  135.5776  153.6585 H   0  0  0  0  0  0  0  0  0  0  0  0  # atno 10763 bound_to 10752
  152.9892  135.6152  154.2912 H   0  0  0  0  0  0  0  0  0  0  0  0  # atno 10764 bound_to 10752
  154.2824  135.2850  155.2670 H   0  0  0  0  0  0  0  0  0  0  0  0  # atno 10765 bound_to 10752
  140.8533  134.2259  157.4748 H   0  0  0  0  0  0  0  0  0  0  0  0  # atno 11005 bound_to 11000
  145.3095  141.0216  143.3563 LP  0  0  0  0  0  0  0  0  0  0  0  0  # atno 17320 bound_to 7965
  144.8946  139.4728  143.6661 LP  0  0  0  0  0  0  0  0  0  0  0  0  # atno 17321 bound_to 7965
  139.6385  144.7652  151.2388 LP  0  0  0  0  0  0  0  0  0  0  0  0  # atno 17342 bound_to 10162
  140.7477  143.6357  150.8381 LP  0  0  0  0  0  0  0  0  0  0  0  0  # atno 17343 bound_to 10162
  157.2522  131.0549  151.2372 LP  0  0  0  0  0  0  0  0  0  0  0  0  # atno 17370 bound_to 10713
  157.3517  130.7085  149.6445 LP  0  0  0  0  0  0  0  0  0  0  0  0  # atno 17371 bound_to 10713
  139.8704  134.9694  156.4664 LP  0  0  0  0  0  0  0  0  0  0  0  0  # atno 17394 bound_to 11000
  140.8766  133.7949  155.9421 LP  0  0  0  0  0  0  0  0  0  0  0  0  # atno 17395 bound_to 11000

$$$$
