AV-unprocessed.smi:2078|AV-procd|sdf|8469|dock2
  -GOLD-   2272011173D 1   1.00000     0.00000
 Structure written by MMmdl.
 41 42  0  0  0  0  0  0  0  0  3 V2000
  148.6712  139.1866  155.5244 C   0  0  0  0  0  0  0  0  0  0  0  0
  149.9462  138.8534  156.2202 C   0  0  0  0  0  0  0  0  0  0  0  0
  150.2217  138.2908  157.4342 C   0  0  0  0  0  0  0  0  0  0  0  0
  151.6427  138.2668  157.4658 C   0  0  0  0  0  0  0  0  0  0  0  0
  152.4035  137.7858  158.4611 N   0  5  0  0  0  0  0  0  0  0  0  0
  153.3543  138.5618  159.0283 C   0  0  0  0  0  0  0  0  0  0  0  0
  154.5444  138.6150  158.7086 O   0  0  0  0  0  0  0  0  0  0  0  0
  152.8989  139.3220  160.0345 N   0  0  0  0  0  0  0  0  0  0  0  0
  153.7000  140.2396  160.8351 C   0  0  0  0  0  0  0  0  0  0  0  0
  154.0938  141.4902  160.0266 C   0  0  0  0  0  0  0  0  0  0  0  0
  153.0089  142.5016  159.9889 N   0  3  1  0  0  0  0  0  0  0  0  0
  153.0200  143.3800  161.1868 C   0  0  0  0  0  0  0  0  0  0  0  0
  151.7987  144.3126  161.2015 C   0  0  0  0  0  0  0  0  0  0  0  0
  151.7230  145.1417  159.9116 C   0  0  0  0  0  0  0  0  0  0  0  0
  151.7743  144.2402  158.6643 C   0  0  2  0  0  0  0  0  0  0  0  0
  150.4592  143.4783  158.4238 C   0  0  0  0  0  0  0  0  0  0  0  0
  152.9919  143.2949  158.7293 C   0  0  0  0  0  0  0  0  0  0  0  0
  152.1816  138.7572  156.3623 N   0  0  0  0  0  0  0  0  0  0  0  0
  151.1001  139.1396  155.5597 O   0  0  0  0  0  0  0  0  0  0  0  0
  148.2491  138.3007  155.0496 H   0  0  0  0  0  0  0  0  0  0  0  0
  148.8307  139.9412  154.7538 H   0  0  0  0  0  0  0  0  0  0  0  0
  147.9367  139.5757  156.2296 H   0  0  0  0  0  0  0  0  0  0  0  0
  149.5201  137.9526  158.1817 H   0  0  0  0  0  0  0  0  0  0  0  0
  151.9178  139.2494  160.2621 H   0  0  0  0  0  0  0  0  0  0  0  0
  153.1481  140.4978  161.7390 H   0  0  0  0  0  0  0  0  0  0  0  0
  154.5961  139.7105  161.1597 H   0  0  0  0  0  0  0  0  0  0  0  0
  154.9783  141.9249  160.4950 H   0  0  0  0  0  0  0  0  0  0  0  0
  154.3844  141.2302  159.0076 H   0  0  0  0  0  0  0  0  0  0  0  0
  153.0128  142.7725  162.0925 H   0  0  0  0  0  0  0  0  0  0  0  0
  153.9422  143.9631  161.2028 H   0  0  0  0  0  0  0  0  0  0  0  0
  150.8882  143.7248  161.3221 H   0  0  0  0  0  0  0  0  0  0  0  0
  151.8494  144.9764  162.0651 H   0  0  0  0  0  0  0  0  0  0  0  0
  150.8210  145.7547  159.9062 H   0  0  0  0  0  0  0  0  0  0  0  0
  152.5635  145.8368  159.8865 H   0  0  0  0  0  0  0  0  0  0  0  0
  151.9130  144.8914  157.8003 H   0  0  0  0  0  0  0  0  0  0  0  0
  150.2444  142.7714  159.2250 H   0  0  0  0  0  0  0  0  0  0  0  0
  150.5004  142.9145  157.4913 H   0  0  0  0  0  0  0  0  0  0  0  0
  149.6154  144.1653  158.3521 H   0  0  0  0  0  0  0  0  0  0  0  0
  153.9131  143.8764  158.6647 H   0  0  0  0  0  0  0  0  0  0  0  0
  152.9827  142.6391  157.8596 H   0  0  0  0  0  0  0  0  0  0  0  0
  152.1407  141.9869  160.0253 H   0  0  0  0  0  0  0  0  0  0  0  0
  1  2  1  0  0  0  0
  1 20  1  0  0  0  0
  1 21  1  0  0  0  0
  1 22  1  0  0  0  0
  2 19  1  0  0  0  0
  2  3  2  0  0  0  0
  3  4  1  0  0  0  0
  3 23  1  0  0  0  0
  4  5  1  0  0  0  0
  4 18  2  0  0  0  0
  5  6  1  0  0  0  0
  6  7  2  0  0  0  0
  6  8  1  0  0  0  0
  8  9  1  0  0  0  0
  8 24  1  0  0  0  0
  9 10  1  0  0  0  0
  9 25  1  0  0  0  0
  9 26  1  0  0  0  0
 10 11  1  0  0  0  0
 10 27  1  0  0  0  0
 10 28  1  0  0  0  0
 11 17  1  0  0  0  0
 11 12  1  0  0  0  0
 11 41  1  0  0  0  0
 12 13  1  0  0  0  0
 12 29  1  0  0  0  0
 12 30  1  0  0  0  0
 13 14  1  0  0  0  0
 13 31  1  0  0  0  0
 13 32  1  0  0  0  0
 14 15  1  0  0  0  0
 14 33  1  0  0  0  0
 14 34  1  0  0  0  0
 15 16  1  0  0  0  0
 15 17  1  0  0  0  0
 15 35  1  0  0  0  0
 16 36  1  0  0  0  0
 16 37  1  0  0  0  0
 16 38  1  0  0  0  0
 17 39  1  0  0  0  0
 17 40  1  0  0  0  0
 18 19  1  0  0  0  0
M  CHG  1   5  -1
M  CHG  1  11   1
M  END
> <s_m_source_file>
AV-unprocessed.smi

> <i_m_source_file_index>
2078

> <i_lp_mmshare_version>
43012

> <i_f3d_flags>
0

> <s_epik_input>
W0NIM11jMVtjSF1jKG5vMSlbTkhdQyg9TylbTkhdW0NIMl1bQ0gyXU4yW0NIMl1bQ0gyXVtDSDJdW0NAQEhdKFtDSDNdKVtDSDJdMg==

> <s_epik_cmdline>
J2VwaWtfcHl0aG9uJywgJy1waCcsICc3LjAnLCAnLXRuJywgJzgnLCAnLW1hJywgJzIwMCcsICctbWV0YWxfYmluZGluZycsICctaW1hZScsICc8aW5maWxlLm1hZT4nLCAnLW9tYWUnLCAnPG91dGZpbGUubWFlPic=

> <r_epik_Ionization_Penalty>
6.22434

> <r_epik_Ionization_Penalty_Charging>
6.22425

> <r_epik_Ionization_Penalty_Neutral>
9.37855e-05

> <r_epik_State_Penalty>
6.22423

> <r_epik_Charging_Adjusted_Penalty>
12.4485

> <i_epik_Tot_Q>
0

> <i_epik_Tot_abs_Q>
2

> <r_epik_Metal_State_Penalty>
2.16764

> <b_epik_Metal_Only>
1

> <s_lp_Force_Field>
OPLS_2005

> <r_lp_Energy>
5.82233

> <b_lp_Chiralities_Consistent>
1

> <s_lp_Variant>
AV-unprocessed.smi:2078-7

> <Gold.Version>
5.8.1

> <Gold.Id.Protein>
6NUR|6NUR_protein|mol2

> <Gold.PLP.Fitness>
44.9697

> <Gold.PLP.PLP>
-39.5979

> <Gold.PLP.part.hbond>
-2.9481

> <Gold.PLP.part.metal>
0.0000

> <Gold.PLP.part.buried>
-4.9829

> <Gold.PLP.part.nonpolar>
-32.2870

> <Gold.PLP.part.repulsive>
0.1957

> <Gold.PLP.ligand.clash>
0.0000

> <Gold.PLP.ligand.torsion>
1.7633

> <Gold.PLP.Chemscore.Hbond>
2.9280

> <Gold.PLP.Chemscore.CHOScore>
0.0000

> <Gold.PLP.Chemscore.Metal>
0.0000

> <Gold.Chemscore.Hbonds>
donor molecule, donor type, donor heavy atom, donor atom, acceptor molecule, acceptor atom, score
      P1  H  7997  8010       L1     7  0.84

> <Gold.PLP.Chemscore.Internal.Correction>
0.1143

> <Gold.Rescore>
     Score         DG    S(hbond)    S(metal)    S(lipo)     H(rot)  DE(clash)    DE(int)     intcor
     21.64     -23.22       2.83        0.00     104.69       1.54       0.00       1.58       ----

> <Gold.Chemscore.Fitness>
21.6375

> <Gold.Chemscore.DG>
-23.2203

> <Gold.Chemscore.ZeroCoef>
-5.4800

> <Gold.Chemscore.Hbond>
2.8254

> <Gold.Chemscore.Metal>
0.0000

> <Gold.Chemscore.Lipo>
104.6856

> <Gold.Chemscore.Internal_Hbond>
0.0000

> <Gold.Chemscore.DEClash>
0.0029

> <Gold.Chemscore.DEInternal>
1.5799

> <Gold.Chemscore.Rot>
1.5409

> <Gold.Chemscore.Internal.Correction>
   9.000000E+99

> <Gold.Chemscore.Hbonds>
donor molecule, donor type, donor heavy atom, donor atom, acceptor molecule, acceptor atom, score
      P1  H  7997  8010       L1     7  0.78

> <Gold.Chemscore.Hbond.Weighted>
-9.4367

> <Gold.Chemscore.Metal.Weighted>
-0.0000

> <Gold.Chemscore.Lipo.Weighted>
-12.2482

> <Gold.Chemscore.Internal_Hbond.Weighted>
0.0000

> <Gold.Chemscore.DEClash.Weighted>
0.0029

> <Gold.Chemscore.DEInternal.Weighted>
1.5799

> <Gold.Chemscore.Rot.Weighted>
3.9446

> <Gold.Chemscore.Internal.Correction.Weighted>
   9.000000E+99

> <Gold.Protein.RotatedTorsions>
[ 6907 6896 6895 6894 ] final  118.92 input  -60.11 | X-H torsion
[ 7974 7965 7964 7962 ] final   62.70 input  175.53 | X-H torsion
[ 8008 7997 7996 7995 ] final  -14.14 input   59.86 | X-H torsion
[ 10167 10162 10161 10158 ] final  170.98 input  -65.29 | X-H torsion
[ 10718 10713 10712 10709 ] final   25.50 input   66.30 | X-H torsion
[ 10763 10752 10751 10750 ] final  -20.11 input  -60.55 | X-H torsion
[ 11005 11000 10999 10996 ] final  139.98 input  -57.11 | X-H torsion

> <Gold.Protein.ActiveResidues>
 VAL166  LYS551  ARG553  GLY616  TRP617  ASP618  TYR619  PRO620  LYS621  CYS622 
 ASP623  PHE694  ASN695  SER759  ASP760  ASP761  ALA762  ILE779  LEU786  VAL792 
 PHE793  MET794  SER795  GLU796  ALA797  LYS798  CYS799  TRP800  GLU811  SER814 

> <Gold.Protein.RotatedAtoms>
  152.4509  133.7628  159.6755 H   0  0  0  0  0  0  0  0  0  0  0  0  # atno 6907 bound_to 6896
  150.8421  133.7909  159.3063 H   0  0  0  0  0  0  0  0  0  0  0  0  # atno 6908 bound_to 6896
  151.5531  135.1070  160.0006 H   0  0  0  0  0  0  0  0  0  0  0  0  # atno 6909 bound_to 6896
  145.8704  139.3374  143.0766 H   0  0  0  0  0  0  0  0  0  0  0  0  # atno 7974 bound_to 7965
  154.5235  140.2231  155.8933 H   0  0  0  0  0  0  0  0  0  0  0  0  # atno 8008 bound_to 7997
  156.1687  140.3126  155.8900 H   0  0  0  0  0  0  0  0  0  0  0  0  # atno 8009 bound_to 7997
  155.3602  140.0460  157.3037 H   0  0  0  0  0  0  0  0  0  0  0  0  # atno 8010 bound_to 7997
  139.5033  144.3536  151.9897 H   0  0  0  0  0  0  0  0  0  0  0  0  # atno 10167 bound_to 10162
  157.1942  130.6860  149.6162 H   0  0  0  0  0  0  0  0  0  0  0  0  # atno 10718 bound_to 10713
  153.6152  135.6995  153.5331 H   0  0  0  0  0  0  0  0  0  0  0  0  # atno 10763 bound_to 10752
  153.2983  135.4136  155.1229 H   0  0  0  0  0  0  0  0  0  0  0  0  # atno 10764 bound_to 10752
  154.8555  135.3642  154.5692 H   0  0  0  0  0  0  0  0  0  0  0  0  # atno 10765 bound_to 10752
  140.0294  134.9359  157.0632 H   0  0  0  0  0  0  0  0  0  0  0  0  # atno 11005 bound_to 11000
  145.9144  140.9158  143.0437 LP  0  0  0  0  0  0  0  0  0  0  0  0  # atno 17320 bound_to 7965
  144.6726  140.1203  143.7450 LP  0  0  0  0  0  0  0  0  0  0  0  0  # atno 17321 bound_to 7965
  140.2973  144.3686  150.6070 LP  0  0  0  0  0  0  0  0  0  0  0  0  # atno 17342 bound_to 10162
  140.5900  143.2168  151.7270 LP  0  0  0  0  0  0  0  0  0  0  0  0  # atno 17343 bound_to 10162
  155.9708  130.4604  150.6072 LP  0  0  0  0  0  0  0  0  0  0  0  0  # atno 17370 bound_to 10713
  157.3830  131.0784  151.1460 LP  0  0  0  0  0  0  0  0  0  0  0  0  # atno 17371 bound_to 10713
  140.4252  134.1839  155.7166 LP  0  0  0  0  0  0  0  0  0  0  0  0  # atno 17394 bound_to 11000
  141.1822  133.8390  157.1218 LP  0  0  0  0  0  0  0  0  0  0  0  0  # atno 17395 bound_to 11000

$$$$
