AV-unprocessed.smi:382|AV-procd|sdf|2463|dock3
  -GOLD-   2262022403D 1   1.00000     0.00000
 Structure written by MMmdl.
 36 37  0  0  0  0  0  0  0  0  1 V2000
  149.3730  136.6623  158.5395 C   0  0  0  0  0  0  0  0  0  0  0  0
  149.8045  135.4937  157.6424 C   0  0  0  0  0  0  0  0  0  0  0  0
  149.9789  135.8799  156.1616 C   0  0  0  0  0  0  0  0  0  0  0  0
  150.8765  137.0162  155.9814 N   0  0  0  0  0  0  0  0  0  0  0  0
  152.1404  137.0815  156.4256 C   0  0  0  0  0  0  0  0  0  0  0  0
  152.6765  136.1780  157.0690 O   0  0  0  0  0  0  0  0  0  0  0  0
  152.9028  138.3732  156.0939 C   0  0  0  0  0  0  0  0  0  0  0  0
  152.1028  139.5967  156.3202 N   0  0  0  0  0  0  0  0  0  0  0  0
  151.1125  139.9541  155.3696 C   0  0  0  0  0  0  0  0  0  0  0  0
  150.9303  139.2771  154.3562 O   0  0  0  0  0  0  0  0  0  0  0  0
  150.3364  141.1500  155.6897 C   0  0  0  0  0  0  0  0  0  0  0  0
  149.3084  141.5237  154.7755 C   0  0  0  0  0  0  0  0  0  0  0  0
  148.4894  141.8210  154.0136 N   0  0  0  0  0  0  0  0  0  0  0  0
  150.5849  141.8611  156.8088 C   0  0  0  0  0  0  0  0  0  0  0  0
  151.5787  141.5186  157.6996 N   0  0  0  0  0  0  0  0  0  0  0  0
  151.7240  142.1979  158.9562 C   0  0  0  0  0  0  0  0  0  0  0  0
  152.0998  143.6637  158.9580 C   0  0  0  0  0  0  0  0  0  0  0  0
  153.0939  142.6345  159.4380 C   0  0  0  0  0  0  0  0  0  0  0  0
  152.3311  140.3399  157.5038 C   0  0  0  0  0  0  0  0  0  0  0  0
  153.1552  139.9618  158.3408 O   0  0  0  0  0  0  0  0  0  0  0  0
  149.3138  136.3474  159.5815 H   0  0  0  0  0  0  0  0  0  0  0  0
  148.3915  137.0433  158.2559 H   0  0  0  0  0  0  0  0  0  0  0  0
  150.0840  137.4868  158.4813 H   0  0  0  0  0  0  0  0  0  0  0  0
  150.7479  135.0927  158.0139 H   0  0  0  0  0  0  0  0  0  0  0  0
  149.0794  134.6839  157.7316 H   0  0  0  0  0  0  0  0  0  0  0  0
  150.3871  135.0349  155.6063 H   0  0  0  0  0  0  0  0  0  0  0  0
  149.0088  136.1009  155.7132 H   0  0  0  0  0  0  0  0  0  0  0  0
  150.5134  137.8059  155.4672 H   0  0  0  0  0  0  0  0  0  0  0  0
  153.8220  138.4074  156.6815 H   0  0  0  0  0  0  0  0  0  0  0  0
  153.2518  138.3070  155.0627 H   0  0  0  0  0  0  0  0  0  0  0  0
  149.9866  142.7369  157.0147 H   0  0  0  0  0  0  0  0  0  0  0  0
  151.0270  141.8883  159.7331 H   0  0  0  0  0  0  0  0  0  0  0  0
  152.3023  144.1426  158.0017 H   0  0  0  0  0  0  0  0  0  0  0  0
  151.6340  144.3000  159.7075 H   0  0  0  0  0  0  0  0  0  0  0  0
  153.2882  142.5815  160.5072 H   0  0  0  0  0  0  0  0  0  0  0  0
  153.9528  142.4387  158.7989 H   0  0  0  0  0  0  0  0  0  0  0  0
  1  2  1  0  0  0  0
  1 21  1  0  0  0  0
  1 22  1  0  0  0  0
  1 23  1  0  0  0  0
  2  3  1  0  0  0  0
  2 24  1  0  0  0  0
  2 25  1  0  0  0  0
  3  4  1  0  0  0  0
  3 26  1  0  0  0  0
  3 27  1  0  0  0  0
  4  5  1  0  0  0  0
  4 28  1  0  0  0  0
  5  6  2  0  0  0  0
  5  7  1  0  0  0  0
  7  8  1  0  0  0  0
  7 29  1  0  0  0  0
  7 30  1  0  0  0  0
  8 19  1  0  0  0  0
  8  9  1  0  0  0  0
  9 10  2  0  0  0  0
  9 11  1  0  0  0  0
 11 12  1  0  0  0  0
 11 14  2  0  0  0  0
 12 13  3  0  0  0  0
 14 15  1  0  0  0  0
 14 31  1  0  0  0  0
 15 16  1  0  0  0  0
 15 19  1  0  0  0  0
 16 18  1  0  0  0  0
 16 17  1  0  0  0  0
 16 32  1  0  0  0  0
 17 18  1  0  0  0  0
 17 33  1  0  0  0  0
 17 34  1  0  0  0  0
 18 35  1  0  0  0  0
 18 36  1  0  0  0  0
 19 20  2  0  0  0  0
M  END
> <s_m_source_file>
AV-unprocessed.smi

> <i_m_source_file_index>
382

> <i_lp_mmshare_version>
43012

> <i_f3d_flags>
0

> <s_epik_input>
W0NIM11bQ0gyXVtDSDJdW05IXUMoPU8pW0NIMl1uMWMoPU8pYyhDI04pW2NIXW4oYzE9TylbQ0hdMltDSDJdW0NIMl0y

> <s_epik_cmdline>
J2VwaWtfcHl0aG9uJywgJy1waCcsICc3LjAnLCAnLXRuJywgJzgnLCAnLW1hJywgJzIwMCcsICctbWV0YWxfYmluZGluZycsICctaW1hZScsICc8aW5maWxlLm1hZT4nLCAnLW9tYWUnLCAnPG91dGZpbGUubWFlPic=

> <r_lp_tautomer_probability>
1

> <r_epik_Ionization_Penalty>
1.82511e-08

> <r_epik_Ionization_Penalty_Charging>
8.22213e-11

> <r_epik_Ionization_Penalty_Neutral>
1.81689e-08

> <r_epik_State_Penalty>
-0

> <r_epik_Charging_Adjusted_Penalty>
8.22213e-11

> <i_epik_Tot_Q>
0

> <i_epik_Tot_abs_Q>
0

> <r_epik_Metal_State_Penalty>
-0

> <b_epik_Metal_Only>
0

> <s_lp_Force_Field>
OPLS_2005

> <r_lp_Energy>
29.1959

> <b_lp_Chiralities_Consistent>
1

> <s_lp_Variant>
AV-unprocessed.smi:382-1

> <Gold.Version>
5.8.1

> <Gold.Id.Protein>
6NUR|6NUR_protein|mol2

> <Gold.PLP.Fitness>
44.0463

> <Gold.PLP.PLP>
-35.1766

> <Gold.PLP.part.hbond>
-4.0000

> <Gold.PLP.part.metal>
0.0000

> <Gold.PLP.part.buried>
0.6131

> <Gold.PLP.part.nonpolar>
-30.0922

> <Gold.PLP.part.repulsive>
0.4054

> <Gold.PLP.ligand.clash>
0.0000

> <Gold.PLP.ligand.torsion>
0.5924

> <Gold.PLP.Chemscore.Hbond>
2.2804

> <Gold.PLP.Chemscore.CHOScore>
1.0000

> <Gold.PLP.Chemscore.Metal>
0.0000

> <Gold.Chemscore.Hbonds>
donor molecule, donor type, donor heavy atom, donor atom, acceptor molecule, acceptor atom, score
      P1  H  7989  7998       L1    10  0.15
      P1  H  7997  8008       L1    20  0.75
      P1  H  8011  8017       L1    13  0.27
      P1  H 10752 10763       L1     6  0.52
      L1  C    14    31       P1  8028  0.73

> <Gold.PLP.Chemscore.Internal.Correction>
0.2135

> <Gold.Rescore>
     Score         DG    S(hbond)    S(metal)    S(lipo)     H(rot)  DE(clash)    DE(int)     intcor
     10.57     -13.36       1.80        0.00      60.54       2.04       0.11       2.68       ----

> <Gold.Chemscore.Fitness>
10.5685

> <Gold.Chemscore.DG>
-13.3579

> <Gold.Chemscore.ZeroCoef>
-5.4800

> <Gold.Chemscore.Hbond>
1.8045

> <Gold.Chemscore.Metal>
0.0000

> <Gold.Chemscore.Lipo>
60.5399

> <Gold.Chemscore.Internal_Hbond>
0.0000

> <Gold.Chemscore.DEClash>
0.1133

> <Gold.Chemscore.DEInternal>
2.6761

> <Gold.Chemscore.Rot>
2.0438

> <Gold.Chemscore.Internal.Correction>
   9.000000E+99

> <Gold.Chemscore.Hbonds>
donor molecule, donor type, donor heavy atom, donor atom, acceptor molecule, acceptor atom, score
      P1  H  7997  8008       L1    20  0.09
      P1  H  8011  8017       L1    13  0.06
      P1  H 10752 10763       L1     6  0.04

> <Gold.Chemscore.Hbond.Weighted>
-6.0269

> <Gold.Chemscore.Metal.Weighted>
-0.0000

> <Gold.Chemscore.Lipo.Weighted>
-7.0832

> <Gold.Chemscore.Internal_Hbond.Weighted>
0.0000

> <Gold.Chemscore.DEClash.Weighted>
0.1133

> <Gold.Chemscore.DEInternal.Weighted>
2.6761

> <Gold.Chemscore.Rot.Weighted>
5.2322

> <Gold.Chemscore.Internal.Correction.Weighted>
   9.000000E+99

> <Gold.Protein.RotatedTorsions>
[ 6907 6896 6895 6894 ] final -127.76 input  -60.11 | X-H torsion
[ 7974 7965 7964 7962 ] final   68.94 input  175.53 | X-H torsion
[ 8008 7997 7996 7995 ] final  -93.51 input   59.86 | X-H torsion
[ 10167 10162 10161 10158 ] final  124.86 input  -65.29 | X-H torsion
[ 10718 10713 10712 10709 ] final   28.29 input   66.30 | X-H torsion
[ 10763 10752 10751 10750 ] final  124.29 input  -60.55 | X-H torsion
[ 11005 11000 10999 10996 ] final  118.66 input  -57.11 | X-H torsion

> <Gold.Protein.ActiveResidues>
 VAL166  LYS551  ARG553  GLY616  TRP617  ASP618  TYR619  PRO620  LYS621  CYS622 
 ASP623  PHE694  ASN695  SER759  ASP760  ASP761  ALA762  ILE779  LEU786  VAL792 
 PHE793  MET794  SER795  GLU796  ALA797  LYS798  CYS799  TRP800  GLU811  SER814 

> <Gold.Protein.RotatedAtoms>
  150.9107  133.7001  159.2855 H   0  0  0  0  0  0  0  0  0  0  0  0  # atno 6907 bound_to 6896
  151.4488  135.1026  159.9701 H   0  0  0  0  0  0  0  0  0  0  0  0  # atno 6908 bound_to 6896
  152.4928  133.8498  159.7251 H   0  0  0  0  0  0  0  0  0  0  0  0  # atno 6909 bound_to 6896
  145.7965  139.2960  143.1179 H   0  0  0  0  0  0  0  0  0  0  0  0  # atno 7974 bound_to 7965
  154.7366  140.0498  157.0774 H   0  0  0  0  0  0  0  0  0  0  0  0  # atno 8008 bound_to 7997
  155.0232  140.3149  155.4766 H   0  0  0  0  0  0  0  0  0  0  0  0  # atno 8009 bound_to 7997
  156.2854  140.2163  156.5351 H   0  0  0  0  0  0  0  0  0  0  0  0  # atno 8010 bound_to 7997
  139.5717  144.6942  151.3760 H   0  0  0  0  0  0  0  0  0  0  0  0  # atno 10167 bound_to 10162
  157.2314  130.7026  149.6315 H   0  0  0  0  0  0  0  0  0  0  0  0  # atno 10718 bound_to 10713
  153.6590  135.3349  155.3122 H   0  0  0  0  0  0  0  0  0  0  0  0  # atno 10763 bound_to 10752
  154.8519  135.4359  154.1824 H   0  0  0  0  0  0  0  0  0  0  0  0  # atno 10764 bound_to 10752
  153.2786  135.7007  153.7483 H   0  0  0  0  0  0  0  0  0  0  0  0  # atno 10765 bound_to 10752
  139.9118  134.9622  156.7538 H   0  0  0  0  0  0  0  0  0  0  0  0  # atno 11005 bound_to 11000
  145.9922  140.8593  143.0060 LP  0  0  0  0  0  0  0  0  0  0  0  0  # atno 17320 bound_to 7965
  144.6774  140.2232  143.7364 LP  0  0  0  0  0  0  0  0  0  0  0  0  # atno 17321 bound_to 7965
  140.7002  143.7651  150.7390 LP  0  0  0  0  0  0  0  0  0  0  0  0  # atno 17342 bound_to 10162
  140.1160  143.4656  152.2342 LP  0  0  0  0  0  0  0  0  0  0  0  0  # atno 17343 bound_to 10162
  155.9675  130.4487  150.5631 LP  0  0  0  0  0  0  0  0  0  0  0  0  # atno 17370 bound_to 10713
  157.3474  131.0727  151.1741 LP  0  0  0  0  0  0  0  0  0  0  0  0  # atno 17371 bound_to 10713
  140.6752  133.9523  155.7879 LP  0  0  0  0  0  0  0  0  0  0  0  0  # atno 17394 bound_to 11000
  141.0549  134.0431  157.3735 LP  0  0  0  0  0  0  0  0  0  0  0  0  # atno 17395 bound_to 11000

$$$$
