#       Name:                AV-unprocessed.smi:270
#       Creating user name   scv26
#       Creation time:       Thu Mar 26 21:27:12 2020


#       File generated by GOLD software.
#

@<TRIPOS>MOLECULE
AV-unprocessed.smi:270
    66    69     1
SMALL
NO_CHARGES


@<TRIPOS>ATOM
      1 ****        -3.1589  -1.8201   2.3791 C.3            1 S1                 0.0000
      2 ****        -4.1763  -2.2192   1.2960 C.3            1 S1                 0.0000
      3 ****        -5.2363  -2.9771   1.8770 O.3            1 S1                 0.0000
      4 ****        -6.4664  -2.2885   1.7157 C.3            1 S1                 0.0000
      5 ****        -6.2849  -1.5212   0.4136 C.3            1 S1                 0.0000
      6 ****        -4.8355  -1.0649   0.4965 C.3            1 S1                 0.0000
      7 ****        -4.7979   0.1484   1.2311 O.3            1 S1                 0.0000
      8 ****        -4.2174  -0.8149  -0.9003 C.3            1 S1                 0.0000
      9 ****        -2.8079  -0.4596  -0.8564 N.pl3          1 S1                 0.0000
     10 ****        -1.7378  -1.3215  -0.9350 C.2            1 S1                 0.0000
     11 ****        -0.5636  -0.7577  -0.8633 N.2            1 S1                 0.0000
     12 ****        -0.8413   0.5985  -0.7355 C.ar           1 S1                 0.0000
     13 ****        -0.0278   1.7624  -0.6110 C.ar           1 S1                 0.0000
     14 ****         1.3972   1.7390  -0.6001 N.3            1 S1                 0.0000
     15 ****         2.0074   0.7287   0.2521 C.3            1 S1                 0.0000
     16 ****         2.9854   1.8139   0.7125 C.3            1 S1                 0.0000
     17 ****         4.2637   1.7316   0.1012 O.3            1 S1                 0.0000
     18 ****         5.1068   0.7741   0.7226 C.3            1 S1                 0.0000
     19 ****         6.4348   0.7117  -0.0406 C.2            1 S1                 0.0000
     20 ****         7.4239   1.2416   0.4676 O.2            1 S1                 0.0000
     21 ****         6.4840   0.0726  -1.2330 N.am           1 S1                 0.0000
     22 ****         5.3085  -0.5242  -1.8735 C.3            1 S1                 0.0000
     23 ****         7.7450  -0.0393  -1.9706 C.3            1 S1                 0.0000
     24 ****         2.0880   2.8531   0.0393 C.3            1 S1                 0.0000
     25 ****        -0.6862   2.9510  -0.5463 N.ar           1 S1                 0.0000
     26 ****        -2.0211   3.0046  -0.5658 C.ar           1 S1                 0.0000
     27 ****        -2.8939   2.0009  -0.6557 N.ar           1 S1                 0.0000
     28 ****        -2.2512   0.8025  -0.7431 C.ar           1 S1                 0.0000
     29 ****        -2.3450  -1.2278   1.9611 H              1 S1                 0.0000
     30 ****        -2.7200  -2.7051   2.8398 H              1 S1                 0.0000
     31 ****        -3.6259  -1.2372   3.1733 H              1 S1                 0.0000
     32 ****        -3.6855  -2.9000   0.6001 H              1 S1                 0.0000
     33 ****        -7.3106  -2.9776   1.6868 H              1 S1                 0.0000
     34 ****        -6.6095  -1.6039   2.5530 H              1 S1                 0.0000
     35 ****        -6.4197  -2.2065  -0.4246 H              1 S1                 0.0000
     36 ****        -6.9978  -0.7044   0.2935 H              1 S1                 0.0000
     37 ****        -5.2367   0.8181   0.7292 H              1 S1                 0.0000
     38 ****        -4.3191  -1.7058  -1.5213 H              1 S1                 0.0000
     39 ****        -4.7581  -0.0213  -1.4178 H              1 S1                 0.0000
     40 ****        -1.8551  -2.3903  -1.0402 H              1 S1                 0.0000
     41 ****         1.3530   0.3799   1.0524 H              1 S1                 0.0000
     42 ****         2.4593  -0.0906  -0.3075 H              1 S1                 0.0000
     43 ****         3.0268   1.9394   1.7957 H              1 S1                 0.0000
     44 ****         5.2967   1.0688   1.7562 H              1 S1                 0.0000
     45 ****         4.6409  -0.2115   0.7541 H              1 S1                 0.0000
     46 ****         4.9512  -1.3799  -1.2997 H              1 S1                 0.0000
     47 ****         5.5197  -0.8753  -2.8838 H              1 S1                 0.0000
     48 ****         4.4957   0.1974  -1.9593 H              1 S1                 0.0000
     49 ****         7.9805   0.9069  -2.4585 H              1 S1                 0.0000
     50 ****         7.7100  -0.8124  -2.7385 H              1 S1                 0.0000
     51 ****         8.5734  -0.2951  -1.3079 H              1 S1                 0.0000
     52 ****         2.6036   3.5062  -0.6652 H              1 S1                 0.0000
     53 ****         1.4826   3.4072   0.7582 H              1 S1                 0.0000
     54 ****        -2.4500   3.9937  -0.5006 H              1 S1                 0.0000
     55 ****        -5.0549  -3.1081   2.8516 LP             1 S1                 0.0000
     56 ****        -5.2932  -3.8677   1.4258 LP             1 S1                 0.0000
     57 ****        -3.8478   0.4158   1.3916 LP             1 S1                 0.0000
     58 ****        -5.2624   0.0259   2.1081 LP             1 S1                 0.0000
     59 ****         0.3325  -1.2004  -0.8935 LP             1 S1                 0.0000
     60 ****         1.5016   1.6549  -1.5911 LP             1 S1                 0.0000
     61 ****         4.7030   2.6283   0.1560 LP             1 S1                 0.0000
     62 ****         4.1437   1.4774  -0.8585 LP             1 S1                 0.0000
     63 ****         7.3470   1.6965   1.3548 LP             1 S1                 0.0000
     64 ****         8.3037   1.2169  -0.0071 LP             1 S1                 0.0000
     65 ****        -0.1616   3.8000  -0.4830 LP             1 S1                 0.0000
     66 ****        -3.8877   2.1126  -0.6587 LP             1 S1                 0.0000
@<TRIPOS>BOND
    1    1    2 1     
    2    1   29 1     
    3    1   30 1     
    4    1   31 1     
    5    2    6 1     
    6    2    3 1     
    7    2   32 1     
    8    3    4 1     
    9    4    5 1     
   10    4   33 1     
   11    4   34 1     
   12    5    6 1     
   13    5   35 1     
   14    5   36 1     
   15    6    7 1     
   16    6    8 1     
   17    7   37 1     
   18    8    9 1     
   19    8   38 1     
   20    8   39 1     
   21    9   28 1     
   22    9   10 1     
   23   10   11 2     
   24   10   40 1     
   25   11   12 1     
   26   12   28 ar    
   27   12   13 ar    
   28   13   14 1     
   29   13   25 ar    
   30   14   24 1     
   31   14   15 1     
   32   15   16 1     
   33   15   41 1     
   34   15   42 1     
   35   16   17 1     
   36   16   24 1     
   37   16   43 1     
   38   17   18 1     
   39   18   19 1     
   40   18   44 1     
   41   18   45 1     
   42   19   20 2     
   43   19   21 am    
   44   21   22 1     
   45   21   23 1     
   46   22   46 1     
   47   22   47 1     
   48   22   48 1     
   49   23   49 1     
   50   23   50 1     
   51   23   51 1     
   52   24   52 1     
   53   24   53 1     
   54   25   26 ar    
   55   26   27 ar    
   56   26   54 1     
   57   27   28 ar    
   58    3   55 1     
   59    3   56 1     
   60    7   57 1     
   61    7   58 1     
   62   11   59 1     
   63   14   60 1     
   64   17   61 1     
   65   17   62 1     
   66   20   63 1     
   67   20   64 1     
   68   25   65 1     
   69   27   66 1     
@<TRIPOS>SUBSTRUCTURE
      1 S1             1
@<TRIPOS>SET
LONE_PAIRS      STATIC     ATOMS    <user>   **** ""
12 55 56 57 58 59 60 61 62 63 64 65 66
DONOR_HYDROGENS      STATIC     ATOMS    <user>   **** ""
1 37
ATOM$BLUE        STATIC     ATOMS    COLORGROUP SYSTEM
12 55 56 57 58 59 60 61 62 63 64 65 66
ATOM$RED        STATIC     ATOMS    COLORGROUP SYSTEM
1 37
