AV-unprocessed.smi:3255|AV-procd|sdf|12463|dock4
  -GOLD-   2272018363D 1   1.00000     0.00000
 Structure written by MMmdl.
 38 39  0  0  0  0  0  0  0  0  1 V2000
  151.4249  137.6829  155.2884 C   0  0  0  0  0  0  0  0  0  0  0  0
  149.9419  138.0348  155.1011 C   0  0  2  0  0  0  0  0  0  0  0  0
  149.2831  136.9412  154.3882 N   0  0  0  0  0  0  0  0  0  0  0  0
  148.6806  135.8883  154.9590 C   0  0  0  0  0  0  0  0  0  0  0  0
  148.6298  135.6945  156.1737 O   0  0  0  0  0  0  0  0  0  0  0  0
  148.1153  135.0846  154.0472 N   0  0  0  0  0  0  0  0  0  0  0  0
  147.3220  133.8972  154.3528 C   0  0  0  0  0  0  0  0  0  0  0  0
  146.9531  133.1068  153.0830 C   0  0  0  0  0  0  0  0  0  0  0  0
  145.8743  133.7218  152.3311 N   0  0  0  0  0  0  0  0  0  0  0  0
  144.6958  133.1185  151.9110 C   0  0  0  0  0  0  0  0  0  0  0  0
  143.9838  134.0789  151.2286 C   0  0  0  0  0  0  0  0  0  0  0  0
  144.6955  135.2760  151.2253 N   0  0  0  0  0  0  0  0  0  0  0  0
  145.8020  134.9884  151.8988 C   0  0  0  0  0  0  0  0  0  0  0  0
  149.7581  139.3655  154.3408 C   0  0  1  0  0  0  0  0  0  0  0  0
  148.3229  139.8992  154.3016 C   0  0  0  0  0  0  0  0  0  0  0  0
  148.5461  141.3830  154.1309 C   0  0  0  0  0  0  0  0  0  0  0  0
  149.7599  141.6084  155.0246 C   0  0  0  0  0  0  0  0  0  0  0  0
  150.5179  140.4035  154.9590 O   0  0  0  0  0  0  0  0  0  0  0  0
  151.9463  138.4589  155.8494 H   0  0  0  0  0  0  0  0  0  0  0  0
  151.9315  137.5692  154.3294 H   0  0  0  0  0  0  0  0  0  0  0  0
  151.5394  136.7489  155.8394 H   0  0  0  0  0  0  0  0  0  0  0  0
  149.5034  138.1449  156.0945 H   0  0  0  0  0  0  0  0  0  0  0  0
  149.2657  137.0066  153.3809 H   0  0  0  0  0  0  0  0  0  0  0  0
  148.2143  135.3276  153.0725 H   0  0  0  0  0  0  0  0  0  0  0  0
  147.9200  133.2638  155.0079 H   0  0  0  0  0  0  0  0  0  0  0  0
  146.4262  134.1560  154.9202 H   0  0  0  0  0  0  0  0  0  0  0  0
  147.8225  133.0024  152.4326 H   0  0  0  0  0  0  0  0  0  0  0  0
  146.6420  132.0971  153.3534 H   0  0  0  0  0  0  0  0  0  0  0  0
  144.4710  132.0826  152.1181 H   0  0  0  0  0  0  0  0  0  0  0  0
  143.0219  134.0003  150.7438 H   0  0  0  0  0  0  0  0  0  0  0  0
  146.5825  135.7139  152.0755 H   0  0  0  0  0  0  0  0  0  0  0  0
  150.1194  139.2628  153.3163 H   0  0  0  0  0  0  0  0  0  0  0  0
  147.7299  139.4624  153.4980 H   0  0  0  0  0  0  0  0  0  0  0  0
  147.8121  139.7092  155.2469 H   0  0  0  0  0  0  0  0  0  0  0  0
  148.7924  141.6093  153.0926 H   0  0  0  0  0  0  0  0  0  0  0  0
  147.6837  141.9843  154.4200 H   0  0  0  0  0  0  0  0  0  0  0  0
  150.3513  142.4710  154.7170 H   0  0  0  0  0  0  0  0  0  0  0  0
  149.4465  141.7629  156.0577 H   0  0  0  0  0  0  0  0  0  0  0  0
  1  2  1  0  0  0  0
  1 19  1  0  0  0  0
  1 20  1  0  0  0  0
  1 21  1  0  0  0  0
  2  3  1  0  0  0  0
  2 14  1  0  0  0  0
  2 22  1  0  0  0  0
  3  4  1  0  0  0  0
  3 23  1  0  0  0  0
  4  5  2  0  0  0  0
  4  6  1  0  0  0  0
  6  7  1  0  0  0  0
  6 24  1  0  0  0  0
  7  8  1  0  0  0  0
  7 25  1  0  0  0  0
  7 26  1  0  0  0  0
  8  9  1  0  0  0  0
  8 27  1  0  0  0  0
  8 28  1  0  0  0  0
  9 13  1  0  0  0  0
  9 10  1  0  0  0  0
 10 11  2  0  0  0  0
 10 29  1  0  0  0  0
 11 12  1  0  0  0  0
 11 30  1  0  0  0  0
 12 13  2  0  0  0  0
 13 31  1  0  0  0  0
 14 18  1  0  0  0  0
 14 15  1  0  0  0  0
 14 32  1  0  0  0  0
 15 16  1  0  0  0  0
 15 33  1  0  0  0  0
 15 34  1  0  0  0  0
 16 17  1  0  0  0  0
 16 35  1  0  0  0  0
 16 36  1  0  0  0  0
 17 18  1  0  0  0  0
 17 37  1  0  0  0  0
 17 38  1  0  0  0  0
M  END
> <s_m_source_file>
AV-unprocessed.smi

> <i_m_source_file_index>
3255

> <i_lp_mmshare_version>
43012

> <i_f3d_flags>
0

> <s_epik_input>
TzFbQ0gyXVtDSDJdW0NIMl1bQ0BIXTFbQ0BIXShbQ0gzXSlbTkhdQyg9TylbTkhdW0NIMl1bQ0gyXW4yW2NIXVtjSF1uW2NIXTI=

> <s_epik_cmdline>
J2VwaWtfcHl0aG9uJywgJy1waCcsICc3LjAnLCAnLXRuJywgJzgnLCAnLW1hJywgJzIwMCcsICctbWV0YWxfYmluZGluZycsICctaW1hZScsICc8aW5maWxlLm1hZT4nLCAnLW9tYWUnLCAnPG91dGZpbGUubWFlPic=

> <r_lp_tautomer_probability>
1

> <r_epik_Ionization_Penalty>
0.620274

> <r_epik_Ionization_Penalty_Charging>
0.620225

> <r_epik_Ionization_Penalty_Neutral>
4.91362e-05

> <r_epik_State_Penalty>
0.636186

> <r_epik_Charging_Adjusted_Penalty>
1.25641

> <i_epik_Tot_Q>
0

> <i_epik_Tot_abs_Q>
0

> <r_epik_Metal_State_Penalty>
0.306491

> <b_epik_Metal_Only>
0

> <s_lp_Force_Field>
OPLS_2005

> <r_lp_Energy>
16.3443

> <b_lp_Chiralities_Consistent>
1

> <s_lp_Variant>
AV-unprocessed.smi:3255-7

> <Gold.Version>
5.8.1

> <Gold.Id.Protein>
6NUR|6NUR_protein|mol2

> <Gold.PLP.Fitness>
40.6194

> <Gold.PLP.PLP>
-26.7007

> <Gold.PLP.part.hbond>
-3.0000

> <Gold.PLP.part.metal>
0.0000

> <Gold.PLP.part.buried>
-3.4056

> <Gold.PLP.part.nonpolar>
-21.5449

> <Gold.PLP.part.repulsive>
0.3149

> <Gold.PLP.ligand.clash>
0.0000

> <Gold.PLP.ligand.torsion>
0.5625

> <Gold.PLP.Chemscore.Hbond>
2.9920

> <Gold.PLP.Chemscore.CHOScore>
2.0000

> <Gold.PLP.Chemscore.Metal>
0.0000

> <Gold.Chemscore.Hbonds>
donor molecule, donor type, donor heavy atom, donor atom, acceptor molecule, acceptor atom, score
      L1  H     3    23       P1  7948  0.98
      L1  H     6    24       P1  7948  1.00
      P1  H  7989  7998       L1    18  0.81
      L1  C    11    30       P1 10186  1.00
      L1  C    13    31       P1  7948  1.00

> <Gold.PLP.Chemscore.Internal.Correction>
0.0676

> <Gold.Rescore>
     Score         DG    S(hbond)    S(metal)    S(lipo)     H(rot)  DE(clash)    DE(int)     intcor
     13.74     -14.75       2.37        0.00      59.49       2.18       0.44       0.57       ----

> <Gold.Chemscore.Fitness>
13.7418

> <Gold.Chemscore.DG>
-14.7544

> <Gold.Chemscore.ZeroCoef>
-5.4800

> <Gold.Chemscore.Hbond>
2.3661

> <Gold.Chemscore.Metal>
0.0000

> <Gold.Chemscore.Lipo>
59.4858

> <Gold.Chemscore.Internal_Hbond>
0.0000

> <Gold.Chemscore.DEClash>
0.4377

> <Gold.Chemscore.DEInternal>
0.5749

> <Gold.Chemscore.Rot>
2.1828

> <Gold.Chemscore.Internal.Correction>
   9.000000E+99

> <Gold.Chemscore.Hbonds>
donor molecule, donor type, donor heavy atom, donor atom, acceptor molecule, acceptor atom, score
      L1  H     3    23       P1  7948  0.91
      L1  H     6    24       P1  7948  0.95
      P1  H  7989  7998       L1    18  0.03

> <Gold.Chemscore.Hbond.Weighted>
-7.9027

> <Gold.Chemscore.Metal.Weighted>
-0.0000

> <Gold.Chemscore.Lipo.Weighted>
-6.9598

> <Gold.Chemscore.Internal_Hbond.Weighted>
0.0000

> <Gold.Chemscore.DEClash.Weighted>
0.4377

> <Gold.Chemscore.DEInternal.Weighted>
0.5749

> <Gold.Chemscore.Rot.Weighted>
5.5881

> <Gold.Chemscore.Internal.Correction.Weighted>
   9.000000E+99

> <Gold.Protein.RotatedTorsions>
[ 6907 6896 6895 6894 ] final  120.91 input  -60.11 | X-H torsion
[ 7974 7965 7964 7962 ] final  -29.46 input  175.53 | X-H torsion
[ 8008 7997 7996 7995 ] final   63.28 input   59.86 | X-H torsion
[ 10167 10162 10161 10158 ] final  115.31 input  -65.29 | X-H torsion
[ 10718 10713 10712 10709 ] final   44.32 input   66.30 | X-H torsion
[ 10763 10752 10751 10750 ] final  -51.65 input  -60.55 | X-H torsion
[ 11005 11000 10999 10996 ] final  160.86 input  -57.11 | X-H torsion

> <Gold.Protein.ActiveResidues>
 VAL166  LYS551  ARG553  GLY616  TRP617  ASP618  TYR619  PRO620  LYS621  CYS622 
 ASP623  PHE694  ASN695  SER759  ASP760  ASP761  ALA762  ILE779  LEU786  VAL792 
 PHE793  MET794  SER795  GLU796  ALA797  LYS798  CYS799  TRP800  GLU811  SER814 

> <Gold.Protein.RotatedAtoms>
  152.4362  133.7365  159.6616 H   0  0  0  0  0  0  0  0  0  0  0  0  # atno 6907 bound_to 6896
  150.8246  133.8183  159.3130 H   0  0  0  0  0  0  0  0  0  0  0  0  # atno 6908 bound_to 6896
  151.5855  135.1058  160.0078 H   0  0  0  0  0  0  0  0  0  0  0  0  # atno 6909 bound_to 6896
  146.1215  140.5414  142.8733 H   0  0  0  0  0  0  0  0  0  0  0  0  # atno 7974 bound_to 7965
  155.6277  140.3496  155.4672 H   0  0  0  0  0  0  0  0  0  0  0  0  # atno 8008 bound_to 7997
  156.0028  140.1217  157.0554 H   0  0  0  0  0  0  0  0  0  0  0  0  # atno 8009 bound_to 7997
  154.4254  140.1097  156.5707 H   0  0  0  0  0  0  0  0  0  0  0  0  # atno 8010 bound_to 7997
  139.6326  144.7116  151.2400 H   0  0  0  0  0  0  0  0  0  0  0  0  # atno 10167 bound_to 10162
  157.4255  130.7994  149.7555 H   0  0  0  0  0  0  0  0  0  0  0  0  # atno 10718 bound_to 10713
  154.1300  135.6521  153.4920 H   0  0  0  0  0  0  0  0  0  0  0  0  # atno 10763 bound_to 10752
  153.0198  135.5290  154.7011 H   0  0  0  0  0  0  0  0  0  0  0  0  # atno 10764 bound_to 10752
  154.6243  135.2968  155.0261 H   0  0  0  0  0  0  0  0  0  0  0  0  # atno 10765 bound_to 10752
  140.2101  134.8273  157.3112 H   0  0  0  0  0  0  0  0  0  0  0  0  # atno 11005 bound_to 11000
  144.7602  140.5403  143.6741 LP  0  0  0  0  0  0  0  0  0  0  0  0  # atno 17320 bound_to 7965
  145.5456  139.1476  143.3423 LP  0  0  0  0  0  0  0  0  0  0  0  0  # atno 17321 bound_to 7965
  140.7448  143.6453  150.8298 LP  0  0  0  0  0  0  0  0  0  0  0  0  # atno 17342 bound_to 10162
  140.0080  143.5673  152.2850 LP  0  0  0  0  0  0  0  0  0  0  0  0  # atno 17343 bound_to 10162
  155.9895  130.3951  150.3070 LP  0  0  0  0  0  0  0  0  0  0  0  0  # atno 17370 bound_to 10713
  157.1222  131.0250  151.3004 LP  0  0  0  0  0  0  0  0  0  0  0  0  # atno 17371 bound_to 10713
  140.1960  134.4313  155.7689 LP  0  0  0  0  0  0  0  0  0  0  0  0  # atno 17394 bound_to 11000
  141.2226  133.7049  156.8105 LP  0  0  0  0  0  0  0  0  0  0  0  0  # atno 17395 bound_to 11000

$$$$
