AV-unprocessed.smi:1011|AV-procd|sdf|4419|dock9
  -GOLD-   22720 2363D 1   1.00000     0.00000
 Structure written by MMmdl.
 44 46  0  0  0  0  0  0  0  0  2 V2000
  146.3654  133.7293  161.9045 C   0  0  0  0  0  0  0  0  0  0  0  0
  147.1200  134.9281  161.4061 C   0  0  0  0  0  0  0  0  0  0  0  0
  146.9638  136.2854  161.8065 C   0  0  0  0  0  0  0  0  0  0  0  0
  147.7893  137.1051  161.1764 N   0  0  0  0  0  0  0  0  0  0  0  0
  148.4972  136.3036  160.3518 N   0  0  0  0  0  0  0  0  0  0  0  0
  149.5299  136.8706  159.5017 C   0  0  0  0  0  0  0  0  0  0  0  0
  149.1675  136.7598  158.0124 C   0  0  0  0  0  0  0  0  0  0  0  0
  150.3285  136.3254  157.2124 N   0  3  0  0  0  0  0  0  0  0  0  0
  150.7492  137.2865  156.1771 C   0  0  0  0  0  0  0  0  0  0  0  0
  151.1608  138.4846  156.9764 C   0  0  0  0  0  0  0  0  0  0  0  0
  151.7921  138.3638  158.1444 N   0  0  0  0  0  0  0  0  0  0  0  0
  151.9779  139.6781  158.5276 C   0  0  0  0  0  0  0  0  0  0  0  0
  152.5874  140.2210  159.6810 C   0  0  0  0  0  0  0  0  0  0  0  0
  152.6627  141.6183  159.8585 C   0  0  0  0  0  0  0  0  0  0  0  0
  153.4092  142.2644  161.2732 Cl  0  0  0  0  0  0  0  0  0  0  0  0
  152.1308  142.4901  158.8858 C   0  0  0  0  0  0  0  0  0  0  0  0
  151.5202  141.9698  157.7284 C   0  0  0  0  0  0  0  0  0  0  0  0
  151.4475  140.5747  157.5571 C   0  0  0  0  0  0  0  0  0  0  0  0
  150.9261  139.7563  156.5599 N   0  0  0  0  0  0  0  0  0  0  0  0
  150.2736  140.2116  155.3376 C   0  0  0  0  0  0  0  0  0  0  0  0
  149.1984  141.2769  155.6064 C   0  0  0  0  0  0  0  0  0  0  0  0
  149.0027  142.0970  154.4735 O   0  0  0  0  0  0  0  0  0  0  0  0
  148.1139  134.9846  160.4705 C   0  0  0  0  0  0  0  0  0  0  0  0
  145.3129  133.9575  162.0740 H   0  0  0  0  0  0  0  0  0  0  0  0
  146.7714  133.3637  162.8478 H   0  0  0  0  0  0  0  0  0  0  0  0
  146.4032  132.9020  161.1956 H   0  0  0  0  0  0  0  0  0  0  0  0
  146.2798  136.6965  162.5344 H   0  0  0  0  0  0  0  0  0  0  0  0
  149.6572  137.9188  159.7748 H   0  0  0  0  0  0  0  0  0  0  0  0
  150.4793  136.3750  159.7105 H   0  0  0  0  0  0  0  0  0  0  0  0
  148.3474  136.0507  157.8906 H   0  0  0  0  0  0  0  0  0  0  0  0
  148.8180  137.7206  157.6337 H   0  0  0  0  0  0  0  0  0  0  0  0
  151.1081  136.1339  157.8255 H   0  0  0  0  0  0  0  0  0  0  0  0
  151.5829  136.9098  155.5845 H   0  0  0  0  0  0  0  0  0  0  0  0
  149.9227  137.5281  155.5076 H   0  0  0  0  0  0  0  0  0  0  0  0
  152.9973  139.5606  160.4310 H   0  0  0  0  0  0  0  0  0  0  0  0
  152.1913  143.5593  159.0281 H   0  0  0  0  0  0  0  0  0  0  0  0
  151.1116  142.6361  156.9832 H   0  0  0  0  0  0  0  0  0  0  0  0
  151.0388  140.6217  154.6776 H   0  0  0  0  0  0  0  0  0  0  0  0
  149.8431  139.3643  154.8047 H   0  0  0  0  0  0  0  0  0  0  0  0
  148.2509  140.8076  155.8729 H   0  0  0  0  0  0  0  0  0  0  0  0
  149.4936  141.9041  156.4479 H   0  0  0  0  0  0  0  0  0  0  0  0
  148.8615  142.9847  154.7666 H   0  0  0  0  0  0  0  0  0  0  0  0
  148.5775  134.2020  159.8878 H   0  0  0  0  0  0  0  0  0  0  0  0
  150.0731  135.4672  156.7441 H   0  0  0  0  0  0  0  0  0  0  0  0
  1  2  1  0  0  0  0
  1 24  1  0  0  0  0
  1 25  1  0  0  0  0
  1 26  1  0  0  0  0
  2 23  2  0  0  0  0
  2  3  1  0  0  0  0
  3  4  2  0  0  0  0
  3 27  1  0  0  0  0
  4  5  1  0  0  0  0
  5  6  1  0  0  0  0
  5 23  1  0  0  0  0
  6  7  1  0  0  0  0
  6 28  1  0  0  0  0
  6 29  1  0  0  0  0
  7  8  1  0  0  0  0
  7 30  1  0  0  0  0
  7 31  1  0  0  0  0
  8  9  1  0  0  0  0
  8 32  1  0  0  0  0
  8 44  1  0  0  0  0
  9 10  1  0  0  0  0
  9 33  1  0  0  0  0
  9 34  1  0  0  0  0
 10 19  1  0  0  0  0
 10 11  2  0  0  0  0
 11 12  1  0  0  0  0
 12 18  2  0  0  0  0
 12 13  1  0  0  0  0
 13 14  2  0  0  0  0
 13 35  1  0  0  0  0
 14 15  1  0  0  0  0
 14 16  1  0  0  0  0
 16 17  2  0  0  0  0
 16 36  1  0  0  0  0
 17 18  1  0  0  0  0
 17 37  1  0  0  0  0
 18 19  1  0  0  0  0
 19 20  1  0  0  0  0
 20 21  1  0  0  0  0
 20 38  1  0  0  0  0
 20 39  1  0  0  0  0
 21 22  1  0  0  0  0
 21 40  1  0  0  0  0
 21 41  1  0  0  0  0
 22 42  1  0  0  0  0
 23 43  1  0  0  0  0
M  CHG  1   8   1
M  END
> <s_m_source_file>
AV-unprocessed.smi

> <i_m_source_file_index>
1011

> <i_lp_mmshare_version>
43012

> <i_f3d_flags>
0

> <s_epik_input>
W0NIM11jMVtjSF1ubihbY0hdMSlbQ0gyXVtDSDJdW05IXVtDSDJdYyhuMiluKFtDSDJdW0NIMl1bT0hdKWMoYzIzKVtjSF1bY0hdYyhDbClbY0hdMw==

> <s_epik_cmdline>
J2VwaWtfcHl0aG9uJywgJy1waCcsICc3LjAnLCAnLXRuJywgJzgnLCAnLW1hJywgJzIwMCcsICctbWV0YWxfYmluZGluZycsICctaW1hZScsICc8aW5maWxlLm1hZT4nLCAnLW9tYWUnLCAnPG91dGZpbGUubWFlPic=

> <r_lp_tautomer_probability>
1

> <r_epik_Ionization_Penalty>
0.234823

> <r_epik_Ionization_Penalty_Charging>
0.2345

> <r_epik_Ionization_Penalty_Neutral>
0.00032281

> <r_epik_State_Penalty>
0.238632

> <r_epik_Charging_Adjusted_Penalty>
0.473132

> <i_epik_Tot_Q>
1

> <i_epik_Tot_abs_Q>
1

> <r_epik_Metal_State_Penalty>
0.25397

> <b_epik_Metal_Only>
0

> <s_lp_Force_Field>
OPLS_2005

> <r_lp_Energy>
6.60255

> <b_lp_Chiralities_Consistent>
1

> <s_lp_Variant>
AV-unprocessed.smi:1011-1

> <Gold.Version>
5.8.1

> <Gold.Id.Protein>
6NUR|6NUR_protein|mol2

> <Gold.PLP.Fitness>
48.3617

> <Gold.PLP.PLP>
-41.8836

> <Gold.PLP.part.hbond>
-4.1677

> <Gold.PLP.part.metal>
0.0000

> <Gold.PLP.part.buried>
-4.5402

> <Gold.PLP.part.nonpolar>
-32.9656

> <Gold.PLP.part.repulsive>
0.0906

> <Gold.PLP.ligand.clash>
0.0000

> <Gold.PLP.ligand.torsion>
1.3164

> <Gold.PLP.Chemscore.Hbond>
3.0047

> <Gold.PLP.Chemscore.CHOScore>
0.0000

> <Gold.PLP.Chemscore.Metal>
0.0000

> <Gold.Chemscore.Hbonds>
donor molecule, donor type, donor heavy atom, donor atom, acceptor molecule, acceptor atom, score
      L1  H    22    42       P1  8028  1.00
      P1  H  6931  6943       L1     4  1.00
      P1  H  6934  6947       L1     4  0.83
      P1  H  8011  8017       L1    22  0.11

> <Gold.PLP.Chemscore.Internal.Correction>
0.0970

> <Gold.Rescore>
     Score         DG    S(hbond)    S(metal)    S(lipo)     H(rot)  DE(clash)    DE(int)     intcor
     17.19     -18.44       2.40        0.00     106.49       2.94       0.06       1.19       ----

> <Gold.Chemscore.Fitness>
17.1921

> <Gold.Chemscore.DG>
-18.4396

> <Gold.Chemscore.ZeroCoef>
-5.4800

> <Gold.Chemscore.Hbond>
2.4014

> <Gold.Chemscore.Metal>
0.0000

> <Gold.Chemscore.Lipo>
106.4947

> <Gold.Chemscore.Internal_Hbond>
0.0000

> <Gold.Chemscore.DEClash>
0.0551

> <Gold.Chemscore.DEInternal>
1.1925

> <Gold.Chemscore.Rot>
2.9378

> <Gold.Chemscore.Internal.Correction>
   9.000000E+99

> <Gold.Chemscore.Hbonds>
donor molecule, donor type, donor heavy atom, donor atom, acceptor molecule, acceptor atom, score
      L1  H    22    42       P1  8028  0.99
      P1  H  6931  6943       L1     4  0.47
      P1  H  6934  6947       L1     4  0.74
      P1  H  8011  8017       L1    22  0.03

> <Gold.Chemscore.Hbond.Weighted>
-8.0206

> <Gold.Chemscore.Metal.Weighted>
-0.0000

> <Gold.Chemscore.Lipo.Weighted>
-12.4599

> <Gold.Chemscore.Internal_Hbond.Weighted>
0.0000

> <Gold.Chemscore.DEClash.Weighted>
0.0551

> <Gold.Chemscore.DEInternal.Weighted>
1.1925

> <Gold.Chemscore.Rot.Weighted>
7.5209

> <Gold.Chemscore.Internal.Correction.Weighted>
   9.000000E+99

> <Gold.Protein.RotatedTorsions>
[ 6907 6896 6895 6894 ] final  170.33 input  -60.11 | X-H torsion
[ 7974 7965 7964 7962 ] final -138.64 input  175.53 | X-H torsion
[ 8008 7997 7996 7995 ] final   19.54 input   59.86 | X-H torsion
[ 10167 10162 10161 10158 ] final  -82.42 input  -65.29 | X-H torsion
[ 10718 10713 10712 10709 ] final   44.40 input   66.30 | X-H torsion
[ 10763 10752 10751 10750 ] final  162.63 input  -60.55 | X-H torsion
[ 11005 11000 10999 10996 ] final -171.86 input  -57.11 | X-H torsion

> <Gold.Protein.ActiveResidues>
 VAL166  LYS551  ARG553  GLY616  TRP617  ASP618  TYR619  PRO620  LYS621  CYS622 
 ASP623  PHE694  ASN695  SER759  ASP760  ASP761  ALA762  ILE779  LEU786  VAL792 
 PHE793  MET794  SER795  GLU796  ALA797  LYS798  CYS799  TRP800  GLU811  SER814 

> <Gold.Protein.RotatedAtoms>
  151.8178  133.3390  159.3574 H   0  0  0  0  0  0  0  0  0  0  0  0  # atno 6907 bound_to 6896
  150.7305  134.5603  159.5848 H   0  0  0  0  0  0  0  0  0  0  0  0  # atno 6908 bound_to 6896
  152.3028  134.7591  160.0405 H   0  0  0  0  0  0  0  0  0  0  0  0  # atno 6909 bound_to 6896
  144.8742  140.6412  143.5247 H   0  0  0  0  0  0  0  0  0  0  0  0  # atno 7974 bound_to 7965
  154.9223  140.3029  155.5210 H   0  0  0  0  0  0  0  0  0  0  0  0  # atno 8008 bound_to 7997
  156.3009  140.2369  156.4211 H   0  0  0  0  0  0  0  0  0  0  0  0  # atno 8009 bound_to 7997
  154.8318  140.0418  157.1471 H   0  0  0  0  0  0  0  0  0  0  0  0  # atno 8010 bound_to 7997
  140.4321  143.2545  151.8745 H   0  0  0  0  0  0  0  0  0  0  0  0  # atno 10167 bound_to 10162
  157.4263  130.7999  149.7562 H   0  0  0  0  0  0  0  0  0  0  0  0  # atno 10718 bound_to 10713
  154.2814  135.2763  155.2695 H   0  0  0  0  0  0  0  0  0  0  0  0  # atno 10763 bound_to 10752
  154.5215  135.5755  153.6688 H   0  0  0  0  0  0  0  0  0  0  0  0  # atno 10764 bound_to 10752
  152.9928  135.6205  154.2973 H   0  0  0  0  0  0  0  0  0  0  0  0  # atno 10765 bound_to 10752
  140.5035  134.5871  157.4995 H   0  0  0  0  0  0  0  0  0  0  0  0  # atno 11005 bound_to 11000
  145.4074  139.1586  143.4144 LP  0  0  0  0  0  0  0  0  0  0  0  0  # atno 17320 bound_to 7965
  146.2951  140.4176  142.8725 LP  0  0  0  0  0  0  0  0  0  0  0  0  # atno 17321 bound_to 7965
  139.4785  144.5323  151.8648 LP  0  0  0  0  0  0  0  0  0  0  0  0  # atno 17342 bound_to 10162
  140.4415  144.1979  150.5891 LP  0  0  0  0  0  0  0  0  0  0  0  0  # atno 17343 bound_to 10162
  155.9898  130.3949  150.3058 LP  0  0  0  0  0  0  0  0  0  0  0  0  # atno 17370 bound_to 10713
  157.1211  131.0247  151.3009 LP  0  0  0  0  0  0  0  0  0  0  0  0  # atno 17371 bound_to 10713
  139.9700  134.7309  156.0061 LP  0  0  0  0  0  0  0  0  0  0  0  0  # atno 17394 bound_to 11000
  141.1423  133.6562  156.3766 LP  0  0  0  0  0  0  0  0  0  0  0  0  # atno 17395 bound_to 11000

$$$$
