#       Name:                AV-unprocessed.smi:2579
#       Creating user name   scv26
#       Creation time:       Fri Mar 27 14:14:20 2020


#       File generated by GOLD software.
#

@<TRIPOS>MOLECULE
AV-unprocessed.smi:2579
    43    45     1
SMALL
NO_CHARGES


@<TRIPOS>ATOM
      1 ****        -3.0238   1.1923  -2.0946 O.3            1 S1                 0.0000
      2 ****        -3.2733   0.6358  -0.8220 C.3            1 S1                 0.0000
      3 ****        -3.1438  -0.8955  -0.8831 C.3            1 S1                 0.0000
      4 ****        -1.7557  -1.3347  -0.8622 N.pl3          1 S1                 0.0000
      5 ****        -1.0385  -1.2304   0.3354 C.cat          1 S1                 0.0000
      6 ****        -1.5649  -1.2324   1.5894 N.pl3          1 S1                 1.0000
      7 ****        -0.5191  -1.0827   2.5047 C.ar           1 S1                 0.0000
      8 ****        -0.5317  -1.0176   3.8946 C.ar           1 S1                 0.0000
      9 ****         0.7151  -0.8496   4.5322 C.ar           1 S1                 0.0000
     10 ****         1.9122  -0.7524   3.7934 C.ar           1 S1                 0.0000
     11 ****         1.9165  -0.8209   2.3846 C.ar           1 S1                 0.0000
     12 ****         0.6816  -0.9898   1.7599 C.ar           1 S1                 0.0000
     13 ****         0.3100  -1.0946   0.4143 N.pl3          1 S1                 0.0000
     14 ****         1.3300  -1.0096  -0.6384 C.3            1 S1                 0.0000
     15 ****         1.5949   0.4464  -1.0517 C.3            1 S1                 0.0000
     16 ****         2.5042   0.5990  -2.2697 C.3            1 S1                 0.0000
     17 ****         2.0678   1.9222  -2.8833 C.3            1 S1                 0.0000
     18 ****         0.7734   2.2753  -2.1450 C.3            1 S1                 0.0000
     19 ****         0.3989   1.0830  -1.4725 O.3            1 S1                 0.0000
     20 ****        -3.1259   2.1303  -2.0386 H              1 S1                 0.0000
     21 ****        -2.6072   1.0766  -0.0796 H              1 S1                 0.0000
     22 ****        -4.2906   0.9062  -0.5385 H              1 S1                 0.0000
     23 ****        -3.6678  -1.3439  -0.0385 H              1 S1                 0.0000
     24 ****        -3.6293  -1.2829  -1.7795 H              1 S1                 0.0000
     25 ****        -1.2355  -1.2454  -1.7237 H              1 S1                 0.0000
     26 ****        -1.4469  -1.0879   4.4639 H              1 S1                 0.0000
     27 ****         0.7539  -0.7915   5.6104 H              1 S1                 0.0000
     28 ****         2.8474  -0.6212   4.3182 H              1 S1                 0.0000
     29 ****         2.8391  -0.7425   1.8289 H              1 S1                 0.0000
     30 ****         2.2424  -1.4984  -0.2961 H              1 S1                 0.0000
     31 ****         0.9697  -1.5874  -1.4902 H              1 S1                 0.0000
     32 ****         2.0069   1.0073  -0.2104 H              1 S1                 0.0000
     33 ****         3.5618   0.5818  -2.0046 H              1 S1                 0.0000
     34 ****         2.3245  -0.2072  -2.9823 H              1 S1                 0.0000
     35 ****         2.8182   2.7012  -2.7449 H              1 S1                 0.0000
     36 ****         1.8960   1.8089  -3.9543 H              1 S1                 0.0000
     37 ****         0.9540   3.0594  -1.4082 H              1 S1                 0.0000
     38 ****        -0.0156   2.6147  -2.8163 H              1 S1                 0.0000
     39 ****        -2.5506  -1.3235   1.7982 H              1 S1                 0.0000
     40 ****        -3.6739   0.8216  -2.7578 LP             1 S1                 0.0000
     41 ****        -2.0918   0.9714  -2.3821 LP             1 S1                 0.0000
     42 ****        -0.1705   1.3010  -0.6799 LP             1 S1                 0.0000
     43 ****        -0.1080   0.4845  -2.0927 LP             1 S1                 0.0000
@<TRIPOS>BOND
    1    1    2 1     
    2    1   20 1     
    3    2    3 1     
    4    2   21 1     
    5    2   22 1     
    6    3    4 1     
    7    3   23 1     
    8    3   24 1     
    9    4    5 ar    
   10    4   25 1     
   11    5   13 ar    
   12    5    6 ar    
   13    6    7 1     
   14    6   39 1     
   15    7   12 ar    
   16    7    8 ar    
   17    8    9 ar    
   18    8   26 1     
   19    9   10 ar    
   20    9   27 1     
   21   10   11 ar    
   22   10   28 1     
   23   11   12 ar    
   24   11   29 1     
   25   12   13 1     
   26   13   14 1     
   27   14   15 1     
   28   14   30 1     
   29   14   31 1     
   30   15   19 1     
   31   15   16 1     
   32   15   32 1     
   33   16   17 1     
   34   16   33 1     
   35   16   34 1     
   36   17   18 1     
   37   17   35 1     
   38   17   36 1     
   39   18   19 1     
   40   18   37 1     
   41   18   38 1     
   42    1   40 1     
   43    1   41 1     
   44   19   42 1     
   45   19   43 1     
@<TRIPOS>SUBSTRUCTURE
      1 S1             1
@<TRIPOS>SET
LONE_PAIRS      STATIC     ATOMS    <user>   **** ""
4 40 41 42 43
DONOR_HYDROGENS      STATIC     ATOMS    <user>   **** ""
3 20 25 39
ATOM$BLUE        STATIC     ATOMS    COLORGROUP SYSTEM
4 40 41 42 43
ATOM$RED        STATIC     ATOMS    COLORGROUP SYSTEM
3 20 25 39
