AV-unprocessed.smi:2998|AV-procd|sdf|11416|dock2
  -GOLD-   2272016343D 1   1.00000     0.00000
 Structure written by MMmdl.
 41 43  0  0  0  0  0  0  0  0  1 V2000
  153.6790  140.5671  159.7945 O   0  0  0  0  0  0  0  0  0  0  0  0
  152.5652  140.8314  159.3397 C   0  0  0  0  0  0  0  0  0  0  0  0
  151.5919  139.7127  158.9391 C   0  0  0  0  0  0  0  0  0  0  0  0
  150.9717  139.9207  157.6174 N   0  0  0  0  0  0  0  0  0  0  0  0
  149.9098  140.8444  157.5554 C   0  0  0  0  0  0  0  0  0  0  0  0
  149.3002  141.1091  156.4441 N   0  0  0  0  0  0  0  0  0  0  0  0
  149.6910  140.4642  155.2649 C   0  0  0  0  0  0  0  0  0  0  0  0
  148.9260  140.7941  153.9904 C   0  0  0  0  0  0  0  0  0  0  0  0
  147.9605  141.9895  154.0622 C   0  0  0  0  0  0  0  0  0  0  0  0
  146.9959  141.1793  153.1888 C   0  0  0  0  0  0  0  0  0  0  0  0
  147.6970  139.9166  153.7020 C   0  0  0  0  0  0  0  0  0  0  0  0
  150.6974  139.5582  155.2764 C   0  0  0  0  0  0  0  0  0  0  0  0
  151.4093  139.2437  156.5149 C   0  0  0  0  0  0  0  0  0  0  0  0
  152.3337  138.4317  156.5610 O   0  0  0  0  0  0  0  0  0  0  0  0
  152.1172  142.0850  159.1761 N   0  0  0  0  0  0  0  0  0  0  0  0
  152.8749  143.2948  159.4838 C   0  0  0  0  0  0  0  0  0  0  0  0
  152.1364  144.1377  160.5389 C   0  0  0  0  0  0  0  0  0  0  0  0
  151.5560  145.3340  159.7850 C   0  0  0  0  0  0  0  0  0  0  0  0
  152.5659  145.5954  158.6723 C   0  0  0  0  0  0  0  0  0  0  0  0
  153.0300  144.2014  158.2439 C   0  0  0  0  0  0  0  0  0  0  0  0
  152.1301  138.7642  158.9857 H   0  0  0  0  0  0  0  0  0  0  0  0
  150.8110  139.6297  159.6976 H   0  0  0  0  0  0  0  0  0  0  0  0
  149.6385  141.3135  158.5027 H   0  0  0  0  0  0  0  0  0  0  0  0
  149.5899  140.8595  153.1265 H   0  0  0  0  0  0  0  0  0  0  0  0
  147.5594  142.1713  155.0612 H   0  0  0  0  0  0  0  0  0  0  0  0
  148.3329  142.9059  153.6033 H   0  0  0  0  0  0  0  0  0  0  0  0
  145.9452  141.2646  153.4670 H   0  0  0  0  0  0  0  0  0  0  0  0
  147.1488  141.3450  152.1211 H   0  0  0  0  0  0  0  0  0  0  0  0
  147.8541  139.1425  152.9503 H   0  0  0  0  0  0  0  0  0  0  0  0
  147.2272  139.5163  154.6023 H   0  0  0  0  0  0  0  0  0  0  0  0
  150.9867  139.0587  154.3632 H   0  0  0  0  0  0  0  0  0  0  0  0
  151.1884  142.2123  158.8007 H   0  0  0  0  0  0  0  0  0  0  0  0
  153.8550  143.0171  159.8761 H   0  0  0  0  0  0  0  0  0  0  0  0
  151.3710  143.5818  161.0824 H   0  0  0  0  0  0  0  0  0  0  0  0
  152.8545  144.4966  161.2772 H   0  0  0  0  0  0  0  0  0  0  0  0
  150.5924  145.0643  159.3509 H   0  0  0  0  0  0  0  0  0  0  0  0
  151.4026  146.2019  160.4272 H   0  0  0  0  0  0  0  0  0  0  0  0
  152.1432  146.1696  157.8472 H   0  0  0  0  0  0  0  0  0  0  0  0
  153.4111  146.1581  159.0707 H   0  0  0  0  0  0  0  0  0  0  0  0
  154.0547  144.2130  157.8713 H   0  0  0  0  0  0  0  0  0  0  0  0
  152.3970  143.8512  157.4267 H   0  0  0  0  0  0  0  0  0  0  0  0
  1  2  2  0  0  0  0
  2  3  1  0  0  0  0
  2 15  1  0  0  0  0
  3  4  1  0  0  0  0
  3 21  1  0  0  0  0
  3 22  1  0  0  0  0
  4 13  1  0  0  0  0
  4  5  1  0  0  0  0
  5  6  2  0  0  0  0
  5 23  1  0  0  0  0
  6  7  1  0  0  0  0
  7  8  1  0  0  0  0
  7 12  2  0  0  0  0
  8 11  1  0  0  0  0
  8  9  1  0  0  0  0
  8 24  1  0  0  0  0
  9 10  1  0  0  0  0
  9 25  1  0  0  0  0
  9 26  1  0  0  0  0
 10 11  1  0  0  0  0
 10 27  1  0  0  0  0
 10 28  1  0  0  0  0
 11 29  1  0  0  0  0
 11 30  1  0  0  0  0
 12 13  1  0  0  0  0
 12 31  1  0  0  0  0
 13 14  2  0  0  0  0
 15 16  1  0  0  0  0
 15 32  1  0  0  0  0
 16 20  1  0  0  0  0
 16 17  1  0  0  0  0
 16 33  1  0  0  0  0
 17 18  1  0  0  0  0
 17 34  1  0  0  0  0
 17 35  1  0  0  0  0
 18 19  1  0  0  0  0
 18 36  1  0  0  0  0
 18 37  1  0  0  0  0
 19 20  1  0  0  0  0
 19 38  1  0  0  0  0
 19 39  1  0  0  0  0
 20 40  1  0  0  0  0
 20 41  1  0  0  0  0
M  END
> <s_m_source_file>
AV-unprocessed.smi

> <i_m_source_file_index>
2998

> <i_lp_mmshare_version>
43012

> <i_f3d_flags>
0

> <s_epik_input>
W0NIMl0xW0NIMl1bQ0gyXVtDSDJdW0NIXTFbTkhdQyg9TylbQ0gyXW4yW2NIXW5jKFtjSF1jMj1PKVtDSF0zW0NIMl1bQ0gyXVtDSDJdMw==

> <s_epik_cmdline>
J2VwaWtfcHl0aG9uJywgJy1waCcsICc3LjAnLCAnLXRuJywgJzgnLCAnLW1hJywgJzIwMCcsICctbWV0YWxfYmluZGluZycsICctaW1hZScsICc8aW5maWxlLm1hZT4nLCAnLW9tYWUnLCAnPG91dGZpbGUubWFlPic=

> <r_lp_tautomer_probability>
1

> <r_epik_Ionization_Penalty>
7.51496e-06

> <r_epik_Ionization_Penalty_Charging>
8.69507e-09

> <r_epik_Ionization_Penalty_Neutral>
7.50627e-06

> <r_epik_State_Penalty>
-0

> <r_epik_Charging_Adjusted_Penalty>
8.69507e-09

> <i_epik_Tot_Q>
0

> <i_epik_Tot_abs_Q>
0

> <r_epik_Metal_State_Penalty>
-0

> <b_epik_Metal_Only>
0

> <s_lp_Force_Field>
OPLS_2005

> <r_lp_Energy>
32.6408

> <b_lp_Chiralities_Consistent>
1

> <s_lp_Variant>
AV-unprocessed.smi:2998-1

> <Gold.Version>
5.8.1

> <Gold.Id.Protein>
6NUR|6NUR_protein|mol2

> <Gold.PLP.Fitness>
46.6504

> <Gold.PLP.PLP>
-44.9872

> <Gold.PLP.part.hbond>
-1.4317

> <Gold.PLP.part.metal>
0.0000

> <Gold.PLP.part.buried>
-0.5560

> <Gold.PLP.part.nonpolar>
-41.7262

> <Gold.PLP.part.repulsive>
0.1480

> <Gold.PLP.ligand.clash>
0.0000

> <Gold.PLP.ligand.torsion>
0.8571

> <Gold.PLP.Chemscore.Hbond>
1.0000

> <Gold.PLP.Chemscore.CHOScore>
0.0000

> <Gold.PLP.Chemscore.Metal>
0.0000

> <Gold.PLP.Chemscore.Internal.Correction>
0.3775

> <Gold.Rescore>
     Score         DG    S(hbond)    S(metal)    S(lipo)     H(rot)  DE(clash)    DE(int)     intcor
     14.71     -17.03       0.96        0.00     107.07       1.63       0.18       2.14       ----

> <Gold.Chemscore.Fitness>
14.7128

> <Gold.Chemscore.DG>
-17.0288

> <Gold.Chemscore.ZeroCoef>
-5.4800

> <Gold.Chemscore.Hbond>
0.9556

> <Gold.Chemscore.Metal>
0.0000

> <Gold.Chemscore.Lipo>
107.0722

> <Gold.Chemscore.Internal_Hbond>
0.0000

> <Gold.Chemscore.DEClash>
0.1787

> <Gold.Chemscore.DEInternal>
2.1374

> <Gold.Chemscore.Rot>
1.6290

> <Gold.Chemscore.Internal.Correction>
   9.000000E+99

> <Gold.Chemscore.Hbond.Weighted>
-3.1916

> <Gold.Chemscore.Metal.Weighted>
-0.0000

> <Gold.Chemscore.Lipo.Weighted>
-12.5275

> <Gold.Chemscore.Internal_Hbond.Weighted>
0.0000

> <Gold.Chemscore.DEClash.Weighted>
0.1787

> <Gold.Chemscore.DEInternal.Weighted>
2.1374

> <Gold.Chemscore.Rot.Weighted>
4.1702

> <Gold.Chemscore.Internal.Correction.Weighted>
   9.000000E+99

> <Gold.Protein.RotatedTorsions>
[ 6907 6896 6895 6894 ] final -126.66 input  -60.11 | X-H torsion
[ 7974 7965 7964 7962 ] final   82.08 input  175.53 | X-H torsion
[ 8008 7997 7996 7995 ] final   84.80 input   59.86 | X-H torsion
[ 10167 10162 10161 10158 ] final   -5.98 input  -65.29 | X-H torsion
[ 10718 10713 10712 10709 ] final -128.56 input   66.30 | X-H torsion
[ 10763 10752 10751 10750 ] final  -96.90 input  -60.55 | X-H torsion
[ 11005 11000 10999 10996 ] final -124.86 input  -57.11 | X-H torsion

> <Gold.Protein.ActiveResidues>
 VAL166  LYS551  ARG553  GLY616  TRP617  ASP618  TYR619  PRO620  LYS621  CYS622 
 ASP623  PHE694  ASN695  SER759  ASP760  ASP761  ALA762  ILE779  LEU786  VAL792 
 PHE793  MET794  SER795  GLU796  ALA797  LYS798  CYS799  TRP800  GLU811  SER814 

> <Gold.Protein.RotatedAtoms>
  150.8992  133.7141  159.2883 H   0  0  0  0  0  0  0  0  0  0  0  0  # atno 6907 bound_to 6896
  151.4665  135.1041  159.9749 H   0  0  0  0  0  0  0  0  0  0  0  0  # atno 6908 bound_to 6896
  152.4866  133.8342  159.7174 H   0  0  0  0  0  0  0  0  0  0  0  0  # atno 6909 bound_to 6896
  145.6298  139.2402  143.2091 H   0  0  0  0  0  0  0  0  0  0  0  0  # atno 7974 bound_to 7965
  155.9417  140.3407  155.6333 H   0  0  0  0  0  0  0  0  0  0  0  0  # atno 8008 bound_to 7997
  155.7031  140.0762  157.2420 H   0  0  0  0  0  0  0  0  0  0  0  0  # atno 8009 bound_to 7997
  154.4104  140.1636  156.2200 H   0  0  0  0  0  0  0  0  0  0  0  0  # atno 8010 bound_to 7997
  140.6981  143.6246  150.8580 H   0  0  0  0  0  0  0  0  0  0  0  0  # atno 10167 bound_to 10162
  156.1962  130.6827  151.0484 H   0  0  0  0  0  0  0  0  0  0  0  0  # atno 10718 bound_to 10713
  154.7281  135.5066  153.8919 H   0  0  0  0  0  0  0  0  0  0  0  0  # atno 10763 bound_to 10752
  153.0923  135.6663  153.9838 H   0  0  0  0  0  0  0  0  0  0  0  0  # atno 10764 bound_to 10752
  153.9645  135.3044  155.3411 H   0  0  0  0  0  0  0  0  0  0  0  0  # atno 10765 bound_to 10752
  140.9808  134.0676  157.3767 H   0  0  0  0  0  0  0  0  0  0  0  0  # atno 11005 bound_to 11000
  146.1366  140.7114  142.9387 LP  0  0  0  0  0  0  0  0  0  0  0  0  # atno 17320 bound_to 7965
  144.7198  140.4335  143.7016 LP  0  0  0  0  0  0  0  0  0  0  0  0  # atno 17321 bound_to 7965
  139.9966  143.5789  152.2891 LP  0  0  0  0  0  0  0  0  0  0  0  0  # atno 17342 bound_to 10162
  139.6463  144.7658  151.2236 LP  0  0  0  0  0  0  0  0  0  0  0  0  # atno 17343 bound_to 10162
  157.6959  131.0794  150.6970 LP  0  0  0  0  0  0  0  0  0  0  0  0  # atno 17370 bound_to 10713
  156.7027  130.4628  149.5568 LP  0  0  0  0  0  0  0  0  0  0  0  0  # atno 17371 bound_to 10713
  139.8949  135.0138  156.6975 LP  0  0  0  0  0  0  0  0  0  0  0  0  # atno 17394 bound_to 11000
  140.7190  133.9157  155.8134 LP  0  0  0  0  0  0  0  0  0  0  0  0  # atno 17395 bound_to 11000

$$$$
