AV-unprocessed.smi:2484|AV-procd|sdf|9787|dock8
  -GOLD-   2272013423D 1   1.00000     0.00000
 Structure written by MMmdl.
 45 46  0  0  0  0  0  0  0  0  1 V2000
  140.2933  139.4684  155.7024 C   0  0  0  0  0  0  0  0  0  0  0  0
  140.3377  139.9113  154.2212 C   0  0  0  0  0  0  0  0  0  0  0  0
  141.4869  139.2861  153.5520 N   0  0  0  0  0  0  0  0  0  0  0  0
  141.6858  137.9848  153.2795 C   0  0  0  0  0  0  0  0  0  0  0  0
  140.8837  137.0933  153.5568 O   0  0  0  0  0  0  0  0  0  0  0  0
  142.8666  137.7967  152.6649 N   0  0  0  0  0  0  0  0  0  0  0  0
  143.4716  136.5673  152.2923 C   0  0  0  0  0  0  0  0  0  0  0  0
  144.7244  136.6772  151.6560 C   0  0  0  0  0  0  0  0  0  0  0  0
  145.3879  135.4990  151.2740 C   0  0  0  0  0  0  0  0  0  0  0  0
  144.7551  134.2669  151.5548 C   0  0  0  0  0  0  0  0  0  0  0  0
  145.3753  132.9018  151.2066 C   0  0  0  0  0  0  0  0  0  0  0  0
  146.7473  133.0374  150.5082 C   0  0  0  0  0  0  0  0  0  0  0  0
  144.4421  132.1326  150.2483 C   0  0  0  0  0  0  0  0  0  0  0  0
  145.5901  132.0852  152.4979 C   0  0  0  0  0  0  0  0  0  0  0  0
  143.5469  134.2258  152.1678 N   0  0  0  0  0  0  0  0  0  0  0  0
  142.9204  135.3500  152.5265 N   0  0  0  0  0  0  0  0  0  0  0  0
  139.0779  139.4209  153.4703 C   0  0  0  0  0  0  0  0  0  0  0  0
  137.8153  140.2275  153.8219 C   0  0  0  0  0  0  0  0  0  0  0  0
  138.0386  141.6097  153.5805 O   0  0  0  0  0  0  0  0  0  0  0  0
  139.0705  142.1439  154.3983 C   0  0  0  0  0  0  0  0  0  0  0  0
  140.4090  141.4541  154.0821 C   0  0  0  0  0  0  0  0  0  0  0  0
  139.4063  139.8405  156.2139 H   0  0  0  0  0  0  0  0  0  0  0  0
  141.1548  139.8332  156.2617 H   0  0  0  0  0  0  0  0  0  0  0  0
  140.2836  138.3812  155.7883 H   0  0  0  0  0  0  0  0  0  0  0  0
  142.2195  139.9218  153.2725 H   0  0  0  0  0  0  0  0  0  0  0  0
  143.4083  138.6249  152.4669 H   0  0  0  0  0  0  0  0  0  0  0  0
  145.1724  137.6416  151.4661 H   0  0  0  0  0  0  0  0  0  0  0  0
  146.3487  135.5661  150.7881 H   0  0  0  0  0  0  0  0  0  0  0  0
  147.1672  132.0594  150.2699 H   0  0  0  0  0  0  0  0  0  0  0  0
  147.4737  133.5492  151.1405 H   0  0  0  0  0  0  0  0  0  0  0  0
  146.6692  133.5876  149.5697 H   0  0  0  0  0  0  0  0  0  0  0  0
  144.2689  132.6940  149.3296 H   0  0  0  0  0  0  0  0  0  0  0  0
  143.4699  131.9350  150.7006 H   0  0  0  0  0  0  0  0  0  0  0  0
  144.8667  131.1677  149.9687 H   0  0  0  0  0  0  0  0  0  0  0  0
  146.0441  131.1167  152.2854 H   0  0  0  0  0  0  0  0  0  0  0  0
  144.6504  131.8918  153.0165 H   0  0  0  0  0  0  0  0  0  0  0  0
  146.2460  132.6105  153.1932 H   0  0  0  0  0  0  0  0  0  0  0  0
  139.2391  139.5104  152.3945 H   0  0  0  0  0  0  0  0  0  0  0  0
  138.9068  138.3606  153.6614 H   0  0  0  0  0  0  0  0  0  0  0  0
  136.9816  139.8975  153.2018 H   0  0  0  0  0  0  0  0  0  0  0  0
  137.5152  140.0683  154.8582 H   0  0  0  0  0  0  0  0  0  0  0  0
  139.1506  143.2135  154.2033 H   0  0  0  0  0  0  0  0  0  0  0  0
  138.8098  142.0374  155.4522 H   0  0  0  0  0  0  0  0  0  0  0  0
  141.1863  141.8683  154.7244 H   0  0  0  0  0  0  0  0  0  0  0  0
  140.6893  141.7133  153.0600 H   0  0  0  0  0  0  0  0  0  0  0  0
  1  2  1  0  0  0  0
  1 22  1  0  0  0  0
  1 23  1  0  0  0  0
  1 24  1  0  0  0  0
  2 21  1  0  0  0  0
  2  3  1  0  0  0  0
  2 17  1  0  0  0  0
  3  4  1  0  0  0  0
  3 25  1  0  0  0  0
  4  5  2  0  0  0  0
  4  6  1  0  0  0  0
  6  7  1  0  0  0  0
  6 26  1  0  0  0  0
  7 16  1  0  0  0  0
  7  8  2  0  0  0  0
  8  9  1  0  0  0  0
  8 27  1  0  0  0  0
  9 10  2  0  0  0  0
  9 28  1  0  0  0  0
 10 11  1  0  0  0  0
 10 15  1  0  0  0  0
 11 12  1  0  0  0  0
 11 13  1  0  0  0  0
 11 14  1  0  0  0  0
 12 29  1  0  0  0  0
 12 30  1  0  0  0  0
 12 31  1  0  0  0  0
 13 32  1  0  0  0  0
 13 33  1  0  0  0  0
 13 34  1  0  0  0  0
 14 35  1  0  0  0  0
 14 36  1  0  0  0  0
 14 37  1  0  0  0  0
 15 16  2  0  0  0  0
 17 18  1  0  0  0  0
 17 38  1  0  0  0  0
 17 39  1  0  0  0  0
 18 19  1  0  0  0  0
 18 40  1  0  0  0  0
 18 41  1  0  0  0  0
 19 20  1  0  0  0  0
 20 21  1  0  0  0  0
 20 42  1  0  0  0  0
 20 43  1  0  0  0  0
 21 44  1  0  0  0  0
 21 45  1  0  0  0  0
M  END
> <s_m_source_file>
AV-unprocessed.smi

> <i_m_source_file_index>
2484

> <i_lp_mmshare_version>
43012

> <i_f3d_flags>
0

> <s_epik_input>
W0NIMl0xW0NIMl1PW0NIMl1bQ0gyXUMxKFtDSDNdKVtOSF1DKD1PKVtOSF1jMltjSF1bY0hdYyhubjIpQyhbQ0gzXSkoW0NIM10pW0NIM10=

> <s_epik_cmdline>
J2VwaWtfcHl0aG9uJywgJy1waCcsICc3LjAnLCAnLXRuJywgJzgnLCAnLW1hJywgJzIwMCcsICctbWV0YWxfYmluZGluZycsICctaW1hZScsICc8aW5maWxlLm1hZT4nLCAnLW9tYWUnLCAnPG91dGZpbGUubWFlPic=

> <r_lp_tautomer_probability>
1

> <r_epik_Ionization_Penalty>
0.0115026

> <r_epik_Ionization_Penalty_Charging>
0

> <r_epik_Ionization_Penalty_Neutral>
0.0115026

> <r_epik_State_Penalty>
0.00473796

> <r_epik_Charging_Adjusted_Penalty>
0.00473796

> <i_epik_Tot_Q>
0

> <i_epik_Tot_abs_Q>
0

> <r_epik_Metal_State_Penalty>
-0

> <b_epik_Metal_Only>
0

> <s_lp_Force_Field>
OPLS_2005

> <r_lp_Energy>
18.8992

> <b_lp_Chiralities_Consistent>
1

> <s_lp_Variant>
AV-unprocessed.smi:2484-1

> <Gold.Version>
5.8.1

> <Gold.Id.Protein>
6NUR|6NUR_protein|mol2

> <Gold.PLP.Fitness>
37.6176

> <Gold.PLP.PLP>
-31.8222

> <Gold.PLP.part.hbond>
-3.3508

> <Gold.PLP.part.metal>
0.0000

> <Gold.PLP.part.buried>
-0.1639

> <Gold.PLP.part.nonpolar>
-27.1659

> <Gold.PLP.part.repulsive>
0.5993

> <Gold.PLP.ligand.clash>
0.0000

> <Gold.PLP.ligand.torsion>
0.1072

> <Gold.PLP.Chemscore.Hbond>
2.0000

> <Gold.PLP.Chemscore.CHOScore>
0.0000

> <Gold.PLP.Chemscore.Metal>
0.0000

> <Gold.Chemscore.Hbonds>
donor molecule, donor type, donor heavy atom, donor atom, acceptor molecule, acceptor atom, score
      L1  H     3    25       P1 10175  1.00
      L1  H     6    26       P1 10175  1.00

> <Gold.PLP.Chemscore.Internal.Correction>
0.0097

> <Gold.Rescore>
     Score         DG    S(hbond)    S(metal)    S(lipo)     H(rot)  DE(clash)    DE(int)     intcor
     14.67     -17.29       1.88        0.00      73.09       1.18       1.31       1.30       ----

> <Gold.Chemscore.Fitness>
14.6744

> <Gold.Chemscore.DG>
-17.2867

> <Gold.Chemscore.ZeroCoef>
-5.4800

> <Gold.Chemscore.Hbond>
1.8755

> <Gold.Chemscore.Metal>
0.0000

> <Gold.Chemscore.Lipo>
73.0898

> <Gold.Chemscore.Internal_Hbond>
0.0000

> <Gold.Chemscore.DEClash>
1.3096

> <Gold.Chemscore.DEInternal>
1.3027

> <Gold.Chemscore.Rot>
1.1753

> <Gold.Chemscore.Internal.Correction>
   9.000000E+99

> <Gold.Chemscore.Hbonds>
donor molecule, donor type, donor heavy atom, donor atom, acceptor molecule, acceptor atom, score
      L1  H     3    25       P1 10175  0.74
      L1  H     6    26       P1 10175  0.96

> <Gold.Chemscore.Hbond.Weighted>
-6.2640

> <Gold.Chemscore.Metal.Weighted>
-0.0000

> <Gold.Chemscore.Lipo.Weighted>
-8.5515

> <Gold.Chemscore.Internal_Hbond.Weighted>
0.0000

> <Gold.Chemscore.DEClash.Weighted>
1.3096

> <Gold.Chemscore.DEInternal.Weighted>
1.3027

> <Gold.Chemscore.Rot.Weighted>
3.0089

> <Gold.Chemscore.Internal.Correction.Weighted>
   9.000000E+99

> <Gold.Protein.RotatedTorsions>
[ 6907 6896 6895 6894 ] final   84.85 input  -60.11 | X-H torsion
[ 7974 7965 7964 7962 ] final -172.31 input  175.53 | X-H torsion
[ 8008 7997 7996 7995 ] final  -20.56 input   59.86 | X-H torsion
[ 10167 10162 10161 10158 ] final   15.67 input  -65.29 | X-H torsion
[ 10718 10713 10712 10709 ] final   -0.57 input   66.30 | X-H torsion
[ 10763 10752 10751 10750 ] final  -87.83 input  -60.55 | X-H torsion
[ 11005 11000 10999 10996 ] final   -3.14 input  -57.11 | X-H torsion

> <Gold.Protein.ActiveResidues>
 VAL166  LYS551  ARG553  GLY616  TRP617  ASP618  TYR619  PRO620  LYS621  CYS622 
 ASP623  PHE694  ASN695  SER759  ASP760  ASP761  ALA762  ILE779  LEU786  VAL792 
 PHE793  MET794  SER795  GLU796  ALA797  LYS798  CYS799  TRP800  GLU811  SER814 

> <Gold.Protein.RotatedAtoms>
  152.5362  134.2676  159.8959 H   0  0  0  0  0  0  0  0  0  0  0  0  # atno 6907 bound_to 6896
  151.2634  133.4284  159.2625 H   0  0  0  0  0  0  0  0  0  0  0  0  # atno 6908 bound_to 6896
  151.0432  134.9636  159.8229 H   0  0  0  0  0  0  0  0  0  0  0  0  # atno 6909 bound_to 6896
  144.7147  140.1791  143.6360 H   0  0  0  0  0  0  0  0  0  0  0  0  # atno 7974 bound_to 7965
  154.4762  140.2058  155.9873 H   0  0  0  0  0  0  0  0  0  0  0  0  # atno 8008 bound_to 7997
  156.1092  140.3231  155.8019 H   0  0  0  0  0  0  0  0  0  0  0  0  # atno 8009 bound_to 7997
  155.4664  140.0528  157.2975 H   0  0  0  0  0  0  0  0  0  0  0  0  # atno 8010 bound_to 7997
  140.5851  143.8905  150.6823 H   0  0  0  0  0  0  0  0  0  0  0  0  # atno 10167 bound_to 10162
  156.8185  130.5448  149.5700 H   0  0  0  0  0  0  0  0  0  0  0  0  # atno 10718 bound_to 10713
  154.6379  135.5399  153.7755 H   0  0  0  0  0  0  0  0  0  0  0  0  # atno 10763 bound_to 10752
  153.0318  135.6452  154.1204 H   0  0  0  0  0  0  0  0  0  0  0  0  # atno 10764 bound_to 10752
  154.1130  135.2925  155.3206 H   0  0  0  0  0  0  0  0  0  0  0  0  # atno 10765 bound_to 10752
  140.6660  133.9278  155.8465 H   0  0  0  0  0  0  0  0  0  0  0  0  # atno 11005 bound_to 11000
  145.8873  139.2356  143.1570 LP  0  0  0  0  0  0  0  0  0  0  0  0  # atno 17320 bound_to 7965
  145.9938  140.8580  143.0053 LP  0  0  0  0  0  0  0  0  0  0  0  0  # atno 17321 bound_to 7965
  140.2414  143.3661  152.1483 LP  0  0  0  0  0  0  0  0  0  0  0  0  # atno 17342 bound_to 10162
  139.5193  144.7017  151.5473 LP  0  0  0  0  0  0  0  0  0  0  0  0  # atno 17343 bound_to 10162
  156.1003  130.5963  150.9882 LP  0  0  0  0  0  0  0  0  0  0  0  0  # atno 17370 bound_to 10713
  157.6469  131.0902  150.8134 LP  0  0  0  0  0  0  0  0  0  0  0  0  # atno 17371 bound_to 10713
  141.0429  134.0596  157.3880 LP  0  0  0  0  0  0  0  0  0  0  0  0  # atno 17394 bound_to 11000
  139.8997  135.0159  156.7208 LP  0  0  0  0  0  0  0  0  0  0  0  0  # atno 17395 bound_to 11000

$$$$
