AV-unprocessed.smi:1684|AV-procd|sdf|6753|dock9
  -GOLD-   22720 7513D 1   1.00000     0.00000
 Structure written by MMmdl.
 42 43  0  0  0  0  0  0  0  0  1 V2000
  152.2674  141.2558  158.2373 C   0  0  0  0  0  0  0  0  0  0  0  0
  151.8804  142.3967  159.1642 C   0  0  0  0  0  0  0  0  0  0  0  0
  152.5662  142.5560  160.3871 C   0  0  0  0  0  0  0  0  0  0  0  0
  152.2080  143.6123  161.2420 C   0  0  0  0  0  0  0  0  0  0  0  0
  151.1714  144.4697  160.8355 C   0  0  0  0  0  0  0  0  0  0  0  0
  150.5096  144.3238  159.6697 N   0  0  0  0  0  0  0  0  0  0  0  0
  150.8433  143.3094  158.8325 C   0  0  0  0  0  0  0  0  0  0  0  0
  150.1911  143.0961  157.5852 N   0  0  0  0  0  0  0  0  0  0  0  0
  149.5716  141.9877  157.1429 C   0  0  0  0  0  0  0  0  0  0  0  0
  149.4828  140.9269  157.7618 O   0  0  0  0  0  0  0  0  0  0  0  0
  149.0537  142.1812  155.9205 N   0  0  0  0  0  0  0  0  0  0  0  0
  148.3060  141.1953  155.1419 C   0  0  2  0  0  0  0  0  0  0  0  0
  149.2988  140.2366  154.4708 C   0  0  0  0  0  0  0  0  0  0  0  0
  147.4192  141.8984  154.0908 C   0  0  0  0  0  0  0  0  0  0  0  0
  146.4150  142.8225  154.6195 N   0  0  0  0  0  0  0  0  0  0  0  0
  145.6754  143.4679  153.5408 C   0  0  0  0  0  0  0  0  0  0  0  0
  144.6181  144.4498  154.0752 C   0  0  0  0  0  0  0  0  0  0  0  0
  143.7337  143.7662  154.9570 O   0  0  0  0  0  0  0  0  0  0  0  0
  144.4125  143.1574  156.0506 C   0  0  0  0  0  0  0  0  0  0  0  0
  145.4652  142.1700  155.5188 C   0  0  0  0  0  0  0  0  0  0  0  0
  153.0858  140.6667  158.6524 H   0  0  0  0  0  0  0  0  0  0  0  0
  152.5903  141.6423  157.2701 H   0  0  0  0  0  0  0  0  0  0  0  0
  151.4197  140.5883  158.0793 H   0  0  0  0  0  0  0  0  0  0  0  0
  153.3586  141.8784  160.6693 H   0  0  0  0  0  0  0  0  0  0  0  0
  152.7142  143.7614  162.1842 H   0  0  0  0  0  0  0  0  0  0  0  0
  150.8651  145.2942  161.4620 H   0  0  0  0  0  0  0  0  0  0  0  0
  150.1931  143.8862  156.9577 H   0  0  0  0  0  0  0  0  0  0  0  0
  149.1774  143.0881  155.4952 H   0  0  0  0  0  0  0  0  0  0  0  0
  147.6864  140.5877  155.8019 H   0  0  0  0  0  0  0  0  0  0  0  0
  148.7756  139.4666  153.9032 H   0  0  0  0  0  0  0  0  0  0  0  0
  149.9206  139.7326  155.2114 H   0  0  0  0  0  0  0  0  0  0  0  0
  149.9609  140.7643  153.7832 H   0  0  0  0  0  0  0  0  0  0  0  0
  148.0783  142.4440  153.4141 H   0  0  0  0  0  0  0  0  0  0  0  0
  146.9244  141.1457  153.4754 H   0  0  0  0  0  0  0  0  0  0  0  0
  146.3652  144.0048  152.8886 H   0  0  0  0  0  0  0  0  0  0  0  0
  145.1865  142.7123  152.9239 H   0  0  0  0  0  0  0  0  0  0  0  0
  145.0925  145.2818  154.5979 H   0  0  0  0  0  0  0  0  0  0  0  0
  144.0438  144.8738  153.2516 H   0  0  0  0  0  0  0  0  0  0  0  0
  144.8810  143.9232  156.6708 H   0  0  0  0  0  0  0  0  0  0  0  0
  143.6867  142.6378  156.6760 H   0  0  0  0  0  0  0  0  0  0  0  0
  144.9635  141.3527  154.9988 H   0  0  0  0  0  0  0  0  0  0  0  0
  145.9838  141.7271  156.3675 H   0  0  0  0  0  0  0  0  0  0  0  0
  1  2  1  0  0  0  0
  1 21  1  0  0  0  0
  1 22  1  0  0  0  0
  1 23  1  0  0  0  0
  2  7  1  0  0  0  0
  2  3  2  0  0  0  0
  3  4  1  0  0  0  0
  3 24  1  0  0  0  0
  4  5  2  0  0  0  0
  4 25  1  0  0  0  0
  5  6  1  0  0  0  0
  5 26  1  0  0  0  0
  6  7  2  0  0  0  0
  7  8  1  0  0  0  0
  8  9  1  0  0  0  0
  8 27  1  0  0  0  0
  9 10  2  0  0  0  0
  9 11  1  0  0  0  0
 11 12  1  0  0  0  0
 11 28  1  0  0  0  0
 12 13  1  0  0  0  0
 12 14  1  0  0  0  0
 12 29  1  0  0  0  0
 13 30  1  0  0  0  0
 13 31  1  0  0  0  0
 13 32  1  0  0  0  0
 14 15  1  0  0  0  0
 14 33  1  0  0  0  0
 14 34  1  0  0  0  0
 15 20  1  0  0  0  0
 15 16  1  0  0  0  0
 16 17  1  0  0  0  0
 16 35  1  0  0  0  0
 16 36  1  0  0  0  0
 17 18  1  0  0  0  0
 17 37  1  0  0  0  0
 17 38  1  0  0  0  0
 18 19  1  0  0  0  0
 19 20  1  0  0  0  0
 19 39  1  0  0  0  0
 19 40  1  0  0  0  0
 20 41  1  0  0  0  0
 20 42  1  0  0  0  0
M  END
> <s_m_source_file>
AV-unprocessed.smi

> <i_m_source_file_index>
1684

> <i_lp_mmshare_version>
43012

> <i_f3d_flags>
0

> <s_epik_input>
W0NIM11jMVtjSF1bY0hdW2NIXW5jMVtOSF1DKD1PKVtOSF1bQ0BIXShbQ0gzXSlbQ0gyXU4yW0NIMl1bQ0gyXU9bQ0gyXVtDSDJdMg==

> <s_epik_cmdline>
J2VwaWtfcHl0aG9uJywgJy1waCcsICc3LjAnLCAnLXRuJywgJzgnLCAnLW1hJywgJzIwMCcsICctbWV0YWxfYmluZGluZycsICctaW1hZScsICc8aW5maWxlLm1hZT4nLCAnLW9tYWUnLCAnPG91dGZpbGUubWFlPic=

> <r_epik_Ionization_Penalty>
0.26605

> <r_epik_Ionization_Penalty_Charging>
0

> <r_epik_Ionization_Penalty_Neutral>
0.26605

> <r_epik_State_Penalty>
0.257924

> <r_epik_Charging_Adjusted_Penalty>
0.257924

> <i_epik_Tot_Q>
0

> <i_epik_Tot_abs_Q>
0

> <r_epik_Metal_State_Penalty>
0.257922

> <b_epik_Metal_Only>
0

> <s_lp_Force_Field>
OPLS_2005

> <r_lp_Energy>
27.9157

> <b_lp_Chiralities_Consistent>
1

> <s_lp_Variant>
AV-unprocessed.smi:1684-1

> <Gold.Version>
5.8.1

> <Gold.Id.Protein>
6NUR|6NUR_protein|mol2

> <Gold.PLP.Fitness>
41.5749

> <Gold.PLP.PLP>
-38.3878

> <Gold.PLP.part.hbond>
-2.0000

> <Gold.PLP.part.metal>
0.0000

> <Gold.PLP.part.buried>
-7.2450

> <Gold.PLP.part.nonpolar>
-29.9829

> <Gold.PLP.part.repulsive>
0.6198

> <Gold.PLP.ligand.clash>
0.0000

> <Gold.PLP.ligand.torsion>
0.8174

> <Gold.PLP.Chemscore.Hbond>
1.6000

> <Gold.PLP.Chemscore.CHOScore>
0.0000

> <Gold.PLP.Chemscore.Metal>
0.0000

> <Gold.Chemscore.Hbonds>
donor molecule, donor type, donor heavy atom, donor atom, acceptor molecule, acceptor atom, score
      L1  H     8    27       P1  8028  0.74
      L1  H    11    28       P1  8028  0.91

> <Gold.PLP.Chemscore.Internal.Correction>
0.0218

> <Gold.Rescore>
     Score         DG    S(hbond)    S(metal)    S(lipo)     H(rot)  DE(clash)    DE(int)     intcor
     14.59     -17.74       1.74        0.00      87.05       1.46       0.06       3.09       ----

> <Gold.Chemscore.Fitness>
14.5854

> <Gold.Chemscore.DG>
-17.7367

> <Gold.Chemscore.ZeroCoef>
-5.4800

> <Gold.Chemscore.Hbond>
1.7378

> <Gold.Chemscore.Metal>
0.0000

> <Gold.Chemscore.Lipo>
87.0518

> <Gold.Chemscore.Internal_Hbond>
0.0000

> <Gold.Chemscore.DEClash>
0.0577

> <Gold.Chemscore.DEInternal>
3.0936

> <Gold.Chemscore.Rot>
1.4581

> <Gold.Chemscore.Internal.Correction>
   9.000000E+99

> <Gold.Chemscore.Hbonds>
donor molecule, donor type, donor heavy atom, donor atom, acceptor molecule, acceptor atom, score
      L1  H     8    27       P1  8028  0.70
      L1  H    11    28       P1  8028  0.88

> <Gold.Chemscore.Hbond.Weighted>
-5.8043

> <Gold.Chemscore.Metal.Weighted>
-0.0000

> <Gold.Chemscore.Lipo.Weighted>
-10.1851

> <Gold.Chemscore.Internal_Hbond.Weighted>
0.0000

> <Gold.Chemscore.DEClash.Weighted>
0.0577

> <Gold.Chemscore.DEInternal.Weighted>
3.0936

> <Gold.Chemscore.Rot.Weighted>
3.7327

> <Gold.Chemscore.Internal.Correction.Weighted>
   9.000000E+99

> <Gold.Protein.RotatedTorsions>
[ 6907 6896 6895 6894 ] final  -18.39 input  -60.11 | X-H torsion
[ 7974 7965 7964 7962 ] final -131.90 input  175.53 | X-H torsion
[ 8008 7997 7996 7995 ] final  -43.71 input   59.86 | X-H torsion
[ 10167 10162 10161 10158 ] final -153.61 input  -65.29 | X-H torsion
[ 10718 10713 10712 10709 ] final  166.88 input   66.30 | X-H torsion
[ 10763 10752 10751 10750 ] final -175.81 input  -60.55 | X-H torsion
[ 11005 11000 10999 10996 ] final  -64.04 input  -57.11 | X-H torsion

> <Gold.Protein.ActiveResidues>
 VAL166  LYS551  ARG553  GLY616  TRP617  ASP618  TYR619  PRO620  LYS621  CYS622 
 ASP623  PHE694  ASN695  SER759  ASP760  ASP761  ALA762  ILE779  LEU786  VAL792 
 PHE793  MET794  SER795  GLU796  ALA797  LYS798  CYS799  TRP800  GLU811  SER814 

> <Gold.Protein.RotatedAtoms>
  151.2789  135.0707  159.9161 H   0  0  0  0  0  0  0  0  0  0  0  0  # atno 6907 bound_to 6896
  152.5337  134.0052  159.7923 H   0  0  0  0  0  0  0  0  0  0  0  0  # atno 6908 bound_to 6896
  151.0302  133.5746  159.2692 H   0  0  0  0  0  0  0  0  0  0  0  0  # atno 6909 bound_to 6896
  144.9336  140.7157  143.4890 H   0  0  0  0  0  0  0  0  0  0  0  0  # atno 7974 bound_to 7965
  154.3997  140.1441  156.3563 H   0  0  0  0  0  0  0  0  0  0  0  0  # atno 8008 bound_to 7997
  155.8222  140.3469  155.5500 H   0  0  0  0  0  0  0  0  0  0  0  0  # atno 8009 bound_to 7997
  155.8275  140.0907  157.1802 H   0  0  0  0  0  0  0  0  0  0  0  0  # atno 8010 bound_to 7997
  139.7082  143.9151  152.2457 H   0  0  0  0  0  0  0  0  0  0  0  0  # atno 10167 bound_to 10162
  157.0595  131.0336  151.2652 H   0  0  0  0  0  0  0  0  0  0  0  0  # atno 10718 bound_to 10713
  154.5799  135.2835  155.0743 H   0  0  0  0  0  0  0  0  0  0  0  0  # atno 10763 bound_to 10752
  154.2083  135.6412  153.5111 H   0  0  0  0  0  0  0  0  0  0  0  0  # atno 10764 bound_to 10752
  153.0085  135.5485  154.6450 H   0  0  0  0  0  0  0  0  0  0  0  0  # atno 10765 bound_to 10752
  141.1412  133.6660  156.5773 H   0  0  0  0  0  0  0  0  0  0  0  0  # atno 11005 bound_to 11000
  145.3103  139.1821  143.4642 LP  0  0  0  0  0  0  0  0  0  0  0  0  # atno 17320 bound_to 7965
  146.3257  140.3106  142.8626 LP  0  0  0  0  0  0  0  0  0  0  0  0  # atno 17321 bound_to 7965
  139.9013  144.6910  150.8662 LP  0  0  0  0  0  0  0  0  0  0  0  0  # atno 17342 bound_to 10162
  140.7727  143.3512  151.2011 LP  0  0  0  0  0  0  0  0  0  0  0  0  # atno 17343 bound_to 10162
  157.4966  130.7854  149.7561 LP  0  0  0  0  0  0  0  0  0  0  0  0  # atno 17370 bound_to 10713
  155.9983  130.3895  150.2708 LP  0  0  0  0  0  0  0  0  0  0  0  0  # atno 17371 bound_to 10713
  140.3866  134.7477  157.4695 LP  0  0  0  0  0  0  0  0  0  0  0  0  # atno 17394 bound_to 11000
  140.0598  134.6012  155.8762 LP  0  0  0  0  0  0  0  0  0  0  0  0  # atno 17395 bound_to 11000

$$$$
