#       Name:                AV-unprocessed.smi:1033
#       Creating user name   scv26
#       Creation time:       Fri Mar 27 02:49:35 2020


#       File generated by GOLD software.
#

@<TRIPOS>MOLECULE
AV-unprocessed.smi:1033
    62    64     1
SMALL
NO_CHARGES


@<TRIPOS>ATOM
      1 ****        -6.3224   2.4833   3.8254 C.3            1 S1                 0.0000
      2 ****        -5.2353   2.3475   2.7728 C.ar           1 S1                 0.0000
      3 ****        -5.6188   2.1080   1.4340 C.ar           1 S1                 0.0000
      4 ****        -4.6016   1.9867   0.4948 C.ar           1 S1                 0.0000
      5 ****        -4.6515   1.7517  -0.8807 N.pl3          1 S1                 1.0000
      6 ****        -3.3861   1.7143  -1.3819 C.2            1 S1                 0.0000
      7 ****        -2.5271   1.9196  -0.3462 N.pl3          1 S1                 0.0000
      8 ****        -1.0581   1.9838  -0.3462 C.3            1 S1                 0.0000
      9 ****        -0.3950   0.5967  -0.2339 C.3            1 S1                 0.0000
     10 ****        -0.7725  -0.0113   0.9860 O.3            1 S1                 0.0000
     11 ****         1.1430   0.6990  -0.2791 C.3            1 S1                 0.0000
     12 ****         1.8123  -0.6269  -0.2717 N.4            1 S1                 1.0000
     13 ****         3.2171  -0.5472   0.2064 C.3            1 S1                 0.0000
     14 ****         3.8510  -1.9527   0.2608 C.3            1 S1                 0.0000
     15 ****         3.8080  -2.6560  -1.0209 N.3            1 S1                 0.0000
     16 ****         4.7422  -2.0950  -2.0080 C.3            1 S1                 0.0000
     17 ****         4.9741  -2.9207  -3.2938 C.3            1 S1                 0.0000
     18 ****         5.1035  -4.4353  -3.0688 C.3            1 S1                 0.0000
     19 ****         3.9734  -2.6459  -4.2528 O.3            1 S1                 0.0000
     20 ****         2.4127  -2.7240  -1.4618 C.3            1 S1                 0.0000
     21 ****         1.7407  -1.3414  -1.5745 C.3            1 S1                 0.0000
     22 ****        -3.2416   2.0968   0.8455 C.ar           1 S1                 0.0000
     23 ****        -2.8471   2.3328   2.1607 C.ar           1 S1                 0.0000
     24 ****        -3.8668   2.4585   3.1313 C.ar           1 S1                 0.0000
     25 ****        -3.4660   2.7144   4.5743 C.3            1 S1                 0.0000
     26 ****        -7.3148   2.3496   3.3937 H              1 S1                 0.0000
     27 ****        -6.2893   3.4715   4.2847 H              1 S1                 0.0000
     28 ****        -6.1962   1.7335   4.6066 H              1 S1                 0.0000
     29 ****        -6.6586   2.0228   1.1536 H              1 S1                 0.0000
     30 ****        -3.1144   1.5536  -2.4156 H              1 S1                 0.0000
     31 ****        -0.7623   2.4591  -1.2825 H              1 S1                 0.0000
     32 ****        -0.7255   2.6510   0.4496 H              1 S1                 0.0000
     33 ****        -0.7603  -0.0248  -1.0507 H              1 S1                 0.0000
     34 ****        -1.7149  -0.0844   1.0067 H              1 S1                 0.0000
     35 ****         1.4641   1.2562  -1.1604 H              1 S1                 0.0000
     36 ****         1.4749   1.2791   0.5838 H              1 S1                 0.0000
     37 ****         3.7933   0.1162  -0.4398 H              1 S1                 0.0000
     38 ****         3.2376  -0.1078   1.2043 H              1 S1                 0.0000
     39 ****         4.8814  -1.8813   0.6107 H              1 S1                 0.0000
     40 ****         3.3255  -2.5473   1.0094 H              1 S1                 0.0000
     41 ****         4.4655  -1.0748  -2.2734 H              1 S1                 0.0000
     42 ****         5.7155  -2.0071  -1.5233 H              1 S1                 0.0000
     43 ****         5.9064  -2.5726  -3.7396 H              1 S1                 0.0000
     44 ****         5.8874  -4.6557  -2.3438 H              1 S1                 0.0000
     45 ****         5.3602  -4.9467  -3.9971 H              1 S1                 0.0000
     46 ****         4.1752  -4.8722  -2.6999 H              1 S1                 0.0000
     47 ****         4.0313  -1.7345  -4.4958 H              1 S1                 0.0000
     48 ****         2.3352  -3.2564  -2.4083 H              1 S1                 0.0000
     49 ****         1.8487  -3.3274  -0.7490 H              1 S1                 0.0000
     50 ****         0.7022  -1.4822  -1.8710 H              1 S1                 0.0000
     51 ****         2.2103  -0.7446  -2.3573 H              1 S1                 0.0000
     52 ****        -1.8065   2.4141   2.4376 H              1 S1                 0.0000
     53 ****        -2.3838   2.7968   4.6798 H              1 S1                 0.0000
     54 ****        -3.8020   1.8987   5.2148 H              1 S1                 0.0000
     55 ****        -3.9064   3.6438   4.9359 H              1 S1                 0.0000
     56 ****         1.3182  -1.1935   0.4034 H              1 S1                 0.0000
     57 ****        -5.4867   1.6294  -1.4393 H              1 S1                 0.0000
     58 ****        -0.4610   0.5498   1.7529 LP             1 S1                 0.0000
     59 ****        -0.3623  -0.9210   1.0504 LP             1 S1                 0.0000
     60 ****         4.1385  -3.5933  -0.9106 LP             1 S1                 0.0000
     61 ****         3.0721  -2.8340  -3.8627 LP             1 S1                 0.0000
     62 ****         4.1136  -3.2194  -5.0599 LP             1 S1                 0.0000
@<TRIPOS>BOND
    1    1    2 1     
    2    1   26 1     
    3    1   27 1     
    4    1   28 1     
    5    2   24 ar    
    6    2    3 ar    
    7    3    4 ar    
    8    3   29 1     
    9    4   22 ar    
   10    4    5 1     
   11    5    6 2     
   12    5   57 1     
   13    6    7 1     
   14    6   30 1     
   15    7    8 1     
   16    7   22 1     
   17    8    9 1     
   18    8   31 1     
   19    8   32 1     
   20    9   10 1     
   21    9   11 1     
   22    9   33 1     
   23   10   34 1     
   24   11   12 1     
   25   11   35 1     
   26   11   36 1     
   27   12   21 1     
   28   12   13 1     
   29   12   56 1     
   30   13   14 1     
   31   13   37 1     
   32   13   38 1     
   33   14   15 1     
   34   14   39 1     
   35   14   40 1     
   36   15   16 1     
   37   15   20 1     
   38   16   17 1     
   39   16   41 1     
   40   16   42 1     
   41   17   18 1     
   42   17   19 1     
   43   17   43 1     
   44   18   44 1     
   45   18   45 1     
   46   18   46 1     
   47   19   47 1     
   48   20   21 1     
   49   20   48 1     
   50   20   49 1     
   51   21   50 1     
   52   21   51 1     
   53   22   23 ar    
   54   23   24 ar    
   55   23   52 1     
   56   24   25 1     
   57   25   53 1     
   58   25   54 1     
   59   25   55 1     
   60   10   58 1     
   61   10   59 1     
   62   15   60 1     
   63   19   61 1     
   64   19   62 1     
@<TRIPOS>SUBSTRUCTURE
      1 S1             1
@<TRIPOS>SET
LONE_PAIRS      STATIC     ATOMS    <user>   **** ""
5 58 59 60 61 62
DONOR_HYDROGENS      STATIC     ATOMS    <user>   **** ""
4 57 34 56 47
ATOM$BLUE        STATIC     ATOMS    COLORGROUP SYSTEM
5 58 59 60 61 62
ATOM$RED        STATIC     ATOMS    COLORGROUP SYSTEM
4 57 34 56 47
