AV-unprocessed.smi:1648|AV-procd|sdf|6631|dock10
  -GOLD-   22720 7333D 1   1.00000     0.00000
 Structure written by MMmdl.
 41 41  0  0  0  0  0  0  0  0  1 V2000
  151.0591  137.7364  154.5631 C   0  0  0  0  0  0  0  0  0  0  0  0
  150.9849  139.2559  154.7263 C   0  0  0  0  0  0  0  0  0  0  0  0
  152.0210  139.9162  154.7057 O   0  0  0  0  0  0  0  0  0  0  0  0
  149.7871  139.8430  154.8939 N   0  0  0  0  0  0  0  0  0  0  0  0
  149.5088  141.2719  155.0661 C   0  0  2  0  0  0  0  0  0  0  0  0
  149.9585  141.6984  156.4767 C   0  0  0  0  0  0  0  0  0  0  0  0
  149.4974  141.1452  157.4763 O   0  0  0  0  0  0  0  0  0  0  0  0
  150.8494  142.7006  156.5347 N   0  0  0  0  0  0  0  0  0  0  0  0
  151.4048  143.2732  157.7570 C   0  0  2  0  0  0  0  0  0  0  0  0
  152.1681  144.5708  157.4320 C   0  0  0  0  0  0  0  0  0  0  0  0
  152.2782  142.2118  158.4548 C   0  0  0  0  0  0  0  0  0  0  0  0
  152.5619  142.5381  159.8399 N   0  0  0  0  0  0  0  0  0  0  0  0
  153.2794  141.7727  160.7495 C   0  0  0  0  0  0  0  0  0  0  0  0
  153.2936  142.4776  161.9318 C   0  0  0  0  0  0  0  0  0  0  0  0
  152.5992  143.6744  161.7724 N   0  0  0  0  0  0  0  0  0  0  0  0
  152.1979  143.6414  160.5082 C   0  0  0  0  0  0  0  0  0  0  0  0
  147.9773  141.5061  154.9059 C   0  0  0  0  0  0  0  0  0  0  0  0
  147.1667  140.7525  155.9793 C   0  0  0  0  0  0  0  0  0  0  0  0
  147.4469  141.1165  153.5100 C   0  0  0  0  0  0  0  0  0  0  0  0
  150.4793  137.4083  153.7005 H   0  0  0  0  0  0  0  0  0  0  0  0
  150.6819  137.2329  155.4531 H   0  0  0  0  0  0  0  0  0  0  0  0
  152.0909  137.4178  154.4112 H   0  0  0  0  0  0  0  0  0  0  0  0
  148.9826  139.2333  154.9212 H   0  0  0  0  0  0  0  0  0  0  0  0
  150.0389  141.8541  154.3104 H   0  0  0  0  0  0  0  0  0  0  0  0
  151.1662  143.0992  155.6628 H   0  0  0  0  0  0  0  0  0  0  0  0
  150.5827  143.5213  158.4313 H   0  0  0  0  0  0  0  0  0  0  0  0
  152.5386  145.0547  158.3359 H   0  0  0  0  0  0  0  0  0  0  0  0
  151.5253  145.2906  156.9246 H   0  0  0  0  0  0  0  0  0  0  0  0
  153.0232  144.3747  156.7840 H   0  0  0  0  0  0  0  0  0  0  0  0
  151.7822  141.2403  158.4317 H   0  0  0  0  0  0  0  0  0  0  0  0
  153.2253  142.0918  157.9260 H   0  0  0  0  0  0  0  0  0  0  0  0
  153.7062  140.8156  160.4878 H   0  0  0  0  0  0  0  0  0  0  0  0
  153.7476  142.2183  162.8767 H   0  0  0  0  0  0  0  0  0  0  0  0
  151.6218  144.4372  160.0592 H   0  0  0  0  0  0  0  0  0  0  0  0
  147.7731  142.5698  155.0426 H   0  0  0  0  0  0  0  0  0  0  0  0
  147.3487  139.6785  155.9295 H   0  0  0  0  0  0  0  0  0  0  0  0
  146.0962  140.9128  155.8478 H   0  0  0  0  0  0  0  0  0  0  0  0
  147.4136  141.0855  156.9874 H   0  0  0  0  0  0  0  0  0  0  0  0
  147.6718  140.0748  153.2790 H   0  0  0  0  0  0  0  0  0  0  0  0
  147.8737  141.7339  152.7193 H   0  0  0  0  0  0  0  0  0  0  0  0
  146.3651  141.2408  153.4528 H   0  0  0  0  0  0  0  0  0  0  0  0
  1  2  1  0  0  0  0
  1 20  1  0  0  0  0
  1 21  1  0  0  0  0
  1 22  1  0  0  0  0
  2  3  2  0  0  0  0
  2  4  1  0  0  0  0
  4  5  1  0  0  0  0
  4 23  1  0  0  0  0
  5  6  1  0  0  0  0
  5 17  1  0  0  0  0
  5 24  1  0  0  0  0
  6  7  2  0  0  0  0
  6  8  1  0  0  0  0
  8  9  1  0  0  0  0
  8 25  1  0  0  0  0
  9 10  1  0  0  0  0
  9 11  1  0  0  0  0
  9 26  1  0  0  0  0
 10 27  1  0  0  0  0
 10 28  1  0  0  0  0
 10 29  1  0  0  0  0
 11 12  1  0  0  0  0
 11 30  1  0  0  0  0
 11 31  1  0  0  0  0
 12 16  1  0  0  0  0
 12 13  1  0  0  0  0
 13 14  2  0  0  0  0
 13 32  1  0  0  0  0
 14 15  1  0  0  0  0
 14 33  1  0  0  0  0
 15 16  2  0  0  0  0
 16 34  1  0  0  0  0
 17 18  1  0  0  0  0
 17 19  1  0  0  0  0
 17 35  1  0  0  0  0
 18 36  1  0  0  0  0
 18 37  1  0  0  0  0
 18 38  1  0  0  0  0
 19 39  1  0  0  0  0
 19 40  1  0  0  0  0
 19 41  1  0  0  0  0
M  END
> <s_m_source_file>
AV-unprocessed.smi

> <i_m_source_file_index>
1648

> <i_lp_mmshare_version>
43012

> <i_f3d_flags>
0

> <s_epik_input>
W0NIM11DKD1PKVtOSF1bQ0BASF0oW0NIXShbQ0gzXSlbQ0gzXSlDKD1PKVtOSF1bQ0BIXShbQ0gzXSlbQ0gyXW4xW2NIXVtjSF1uW2NIXTE=

> <s_epik_cmdline>
J2VwaWtfcHl0aG9uJywgJy1waCcsICc3LjAnLCAnLXRuJywgJzgnLCAnLW1hJywgJzIwMCcsICctbWV0YWxfYmluZGluZycsICctaW1hZScsICc8aW5maWxlLm1hZT4nLCAnLW9tYWUnLCAnPG91dGZpbGUubWFlPic=

> <r_lp_tautomer_probability>
1

> <r_epik_Ionization_Penalty>
0.628885

> <r_epik_Ionization_Penalty_Charging>
0.628884

> <r_epik_Ionization_Penalty_Neutral>
4.35155e-07

> <r_epik_State_Penalty>
0.64556

> <r_epik_Charging_Adjusted_Penalty>
1.27444

> <i_epik_Tot_Q>
0

> <i_epik_Tot_abs_Q>
0

> <r_epik_Metal_State_Penalty>
0.30874

> <b_epik_Metal_Only>
0

> <s_lp_Force_Field>
OPLS_2005

> <r_lp_Energy>
10.0668

> <b_lp_Chiralities_Consistent>
1

> <s_lp_Variant>
AV-unprocessed.smi:1648-5

> <Gold.Version>
5.8.1

> <Gold.Id.Protein>
6NUR|6NUR_protein|mol2

> <Gold.PLP.Fitness>
46.7226

> <Gold.PLP.PLP>
-44.6535

> <Gold.PLP.part.hbond>
-1.9079

> <Gold.PLP.part.metal>
0.0000

> <Gold.PLP.part.buried>
-6.7071

> <Gold.PLP.part.nonpolar>
-36.0852

> <Gold.PLP.part.repulsive>
0.4259

> <Gold.PLP.ligand.clash>
0.0000

> <Gold.PLP.ligand.torsion>
0.3490

> <Gold.PLP.Chemscore.Hbond>
0.8960

> <Gold.PLP.Chemscore.CHOScore>
0.0000

> <Gold.PLP.Chemscore.Metal>
0.0000

> <Gold.Chemscore.Hbonds>
donor molecule, donor type, donor heavy atom, donor atom, acceptor molecule, acceptor atom, score
      P1  H  7989  7998       L1     3  0.81

> <Gold.PLP.Chemscore.Internal.Correction>
0.0791

> <Gold.Rescore>
     Score         DG    S(hbond)    S(metal)    S(lipo)     H(rot)  DE(clash)    DE(int)     intcor
     10.16     -12.06       0.95        0.00      84.34       2.52       0.12       1.78       ----

> <Gold.Chemscore.Fitness>
10.1617

> <Gold.Chemscore.DG>
-12.0606

> <Gold.Chemscore.ZeroCoef>
-5.4800

> <Gold.Chemscore.Hbond>
0.9484

> <Gold.Chemscore.Metal>
0.0000

> <Gold.Chemscore.Lipo>
84.3444

> <Gold.Chemscore.Internal_Hbond>
0.0000

> <Gold.Chemscore.DEClash>
0.1223

> <Gold.Chemscore.DEInternal>
1.7766

> <Gold.Chemscore.Rot>
2.5216

> <Gold.Chemscore.Internal.Correction>
   9.000000E+99

> <Gold.Chemscore.Hbonds>
donor molecule, donor type, donor heavy atom, donor atom, acceptor molecule, acceptor atom, score
      P1  H  7989  7998       L1     3  0.18

> <Gold.Chemscore.Hbond.Weighted>
-3.1676

> <Gold.Chemscore.Metal.Weighted>
-0.0000

> <Gold.Chemscore.Lipo.Weighted>
-9.8683

> <Gold.Chemscore.Internal_Hbond.Weighted>
0.0000

> <Gold.Chemscore.DEClash.Weighted>
0.1223

> <Gold.Chemscore.DEInternal.Weighted>
1.7766

> <Gold.Chemscore.Rot.Weighted>
6.4553

> <Gold.Chemscore.Internal.Correction.Weighted>
   9.000000E+99

> <Gold.Protein.RotatedTorsions>
[ 6907 6896 6895 6894 ] final   66.17 input  -60.11 | X-H torsion
[ 7974 7965 7964 7962 ] final  118.07 input  175.53 | X-H torsion
[ 8008 7997 7996 7995 ] final   28.81 input   59.86 | X-H torsion
[ 10167 10162 10161 10158 ] final  115.13 input  -65.29 | X-H torsion
[ 10718 10713 10712 10709 ] final   35.16 input   66.30 | X-H torsion
[ 10763 10752 10751 10750 ] final  -70.82 input  -60.55 | X-H torsion
[ 11005 11000 10999 10996 ] final   62.57 input  -57.11 | X-H torsion

> <Gold.Protein.ActiveResidues>
 VAL166  LYS551  ARG553  GLY616  TRP617  ASP618  TYR619  PRO620  LYS621  CYS622 
 ASP623  PHE694  ASN695  SER759  ASP760  ASP761  ALA762  ILE779  LEU786  VAL792 
 PHE793  MET794  SER795  GLU796  ALA797  LYS798  CYS799  TRP800  GLU811  SER814 

> <Gold.Protein.RotatedAtoms>
  152.4461  134.5491  159.9861 H   0  0  0  0  0  0  0  0  0  0  0  0  # atno 6907 bound_to 6896
  151.5575  133.3402  159.2973 H   0  0  0  0  0  0  0  0  0  0  0  0  # atno 6908 bound_to 6896
  150.8378  134.7691  159.6971 H   0  0  0  0  0  0  0  0  0  0  0  0  # atno 6909 bound_to 6896
  145.1597  139.3162  143.4524 H   0  0  0  0  0  0  0  0  0  0  0  0  # atno 7974 bound_to 7965
  155.0645  140.3193  155.4650 H   0  0  0  0  0  0  0  0  0  0  0  0  # atno 8008 bound_to 7997
  156.2805  140.2123  156.5717 H   0  0  0  0  0  0  0  0  0  0  0  0  # atno 8009 bound_to 7997
  154.7105  140.0498  157.0532 H   0  0  0  0  0  0  0  0  0  0  0  0  # atno 8010 bound_to 7997
  139.6339  144.7118  151.2375 H   0  0  0  0  0  0  0  0  0  0  0  0  # atno 10167 bound_to 10162
  157.3193  130.7440  149.6774 H   0  0  0  0  0  0  0  0  0  0  0  0  # atno 10718 bound_to 10713
  154.4231  135.5982  153.6022 H   0  0  0  0  0  0  0  0  0  0  0  0  # atno 10763 bound_to 10752
  152.9795  135.5957  154.3931 H   0  0  0  0  0  0  0  0  0  0  0  0  # atno 10764 bound_to 10752
  154.3759  135.2841  155.2218 H   0  0  0  0  0  0  0  0  0  0  0  0  # atno 10765 bound_to 10752
  140.0083  134.6335  155.9820 H   0  0  0  0  0  0  0  0  0  0  0  0  # atno 11005 bound_to 11000
  146.3484  140.1702  142.8589 LP  0  0  0  0  0  0  0  0  0  0  0  0  # atno 17320 bound_to 7965
  145.0344  140.8896  143.5090 LP  0  0  0  0  0  0  0  0  0  0  0  0  # atno 17321 bound_to 7965
  140.7454  143.6431  150.8317 LP  0  0  0  0  0  0  0  0  0  0  0  0  # atno 17342 bound_to 10162
  140.0059  143.5694  152.2857 LP  0  0  0  0  0  0  0  0  0  0  0  0  # atno 17343 bound_to 10162
  155.9684  130.4228  150.4533 LP  0  0  0  0  0  0  0  0  0  0  0  0  # atno 17370 bound_to 10713
  157.2545  131.0553  151.2359 LP  0  0  0  0  0  0  0  0  0  0  0  0  # atno 17371 bound_to 10713
  141.1693  133.6537  156.4593 LP  0  0  0  0  0  0  0  0  0  0  0  0  # atno 17394 bound_to 11000
  140.4600  134.6850  157.5081 LP  0  0  0  0  0  0  0  0  0  0  0  0  # atno 17395 bound_to 11000

$$$$
