AV-unprocessed.smi:2344|AV-procd|sdf|9357|dock3
  -GOLD-   2272012583D 1   1.00000     0.00000
 Structure written by MMmdl.
 35 36  0  0  0  0  0  0  0  0  1 V2000
  146.4319  138.3375  152.2117 C   0  0  0  0  0  0  0  0  0  0  0  0
  147.2185  139.3278  153.0445 C   0  0  0  0  0  0  0  0  0  0  0  0
  146.8028  140.6679  153.1544 C   0  0  0  0  0  0  0  0  0  0  0  0
  147.5639  141.5524  153.9424 C   0  0  0  0  0  0  0  0  0  0  0  0
  148.7205  141.0777  154.6013 C   0  0  0  0  0  0  0  0  0  0  0  0
  149.4166  142.0492  155.3686 N   0  0  0  0  0  0  0  0  0  0  0  0
  150.5368  141.8881  156.0948 C   0  0  0  0  0  0  0  0  0  0  0  0
  151.1564  140.8322  156.2266 O   0  0  0  0  0  0  0  0  0  0  0  0
  150.9119  143.0396  156.6700 N   0  0  0  0  0  0  0  0  0  0  0  0
  152.0916  143.2041  157.5117 C   0  0  2  0  0  0  0  0  0  0  0  0
  151.9821  142.3488  158.7441 C   0  0  0  0  0  0  0  0  0  0  0  0
  152.0987  143.0506  159.8689 C   0  0  0  0  0  0  0  0  0  0  0  0
  152.3025  144.5237  159.6217 C   0  0  2  0  0  0  0  0  0  0  0  0
  151.2648  145.4003  160.3439 C   0  0  0  0  0  0  0  0  0  0  0  0
  151.7907  146.6861  160.5981 O   0  0  0  0  0  0  0  0  0  0  0  0
  152.2303  144.6422  158.0780 C   0  0  0  0  0  0  0  0  0  0  0  0
  149.1124  139.7839  154.4901 N   0  0  0  0  0  0  0  0  0  0  0  0
  148.3822  138.9366  153.7352 C   0  0  0  0  0  0  0  0  0  0  0  0
  152.9902  142.9101  156.9667 H   0  0  0  0  0  0  0  0  0  0  0  0
  153.3059  144.7859  159.9603 H   0  0  0  0  0  0  0  0  0  0  0  0
  146.1358  138.7855  151.2628 H   0  0  0  0  0  0  0  0  0  0  0  0
  145.5315  138.0303  152.7437 H   0  0  0  0  0  0  0  0  0  0  0  0
  147.0241  137.4475  151.9962 H   0  0  0  0  0  0  0  0  0  0  0  0
  145.9161  141.0149  152.6445 H   0  0  0  0  0  0  0  0  0  0  0  0
  147.2590  142.5846  154.0371 H   0  0  0  0  0  0  0  0  0  0  0  0
  149.0196  142.9769  155.3564 H   0  0  0  0  0  0  0  0  0  0  0  0
  150.3475  143.8612  156.5109 H   0  0  0  0  0  0  0  0  0  0  0  0
  151.8400  141.2793  158.6920 H   0  0  0  0  0  0  0  0  0  0  0  0
  152.0644  142.6346  160.8650 H   0  0  0  0  0  0  0  0  0  0  0  0
  150.3697  145.5090  159.7309 H   0  0  0  0  0  0  0  0  0  0  0  0
  150.9583  144.9450  161.2864 H   0  0  0  0  0  0  0  0  0  0  0  0
  152.5779  146.7961  160.0867 H   0  0  0  0  0  0  0  0  0  0  0  0
  153.1247  145.1266  157.6842 H   0  0  0  0  0  0  0  0  0  0  0  0
  151.3848  145.2646  157.7800 H   0  0  0  0  0  0  0  0  0  0  0  0
  148.7393  137.9186  153.6832 H   0  0  0  0  0  0  0  0  0  0  0  0
  1  2  1  0  0  0  0
  1 21  1  0  0  0  0
  1 22  1  0  0  0  0
  1 23  1  0  0  0  0
  2 18  1  0  0  0  0
  2  3  2  0  0  0  0
  3  4  1  0  0  0  0
  3 24  1  0  0  0  0
  4  5  2  0  0  0  0
  4 25  1  0  0  0  0
  5  6  1  0  0  0  0
  5 17  1  0  0  0  0
  6  7  1  0  0  0  0
  6 26  1  0  0  0  0
  7  8  2  0  0  0  0
  7  9  1  0  0  0  0
  9 10  1  0  0  0  0
  9 27  1  0  0  0  0
 10 19  1  0  0  0  0
 10 16  1  0  0  0  0
 10 11  1  0  0  0  0
 11 12  2  0  0  0  0
 11 28  1  0  0  0  0
 12 13  1  0  0  0  0
 12 29  1  0  0  0  0
 13 20  1  0  0  0  0
 13 14  1  0  0  0  0
 13 16  1  0  0  0  0
 14 15  1  0  0  0  0
 14 30  1  0  0  0  0
 14 31  1  0  0  0  0
 15 32  1  0  0  0  0
 16 33  1  0  0  0  0
 16 34  1  0  0  0  0
 17 18  2  0  0  0  0
 18 35  1  0  0  0  0
M  END
> <s_m_source_file>
AV-unprocessed.smi

> <i_m_source_file_index>
2344

> <i_lp_mmshare_version>
43012

> <i_f3d_flags>
0

> <s_epik_input>
W0NIM11jMVtjSF1bY0hdYyhuW2NIXTEpW05IXUMoPU8pW05IXVtDQEBIXTJbQ0hdPVtDSF1bQ0BASF0oW0NIMl0yKVtDSDJdW09IXQ==

> <s_epik_cmdline>
J2VwaWtfcHl0aG9uJywgJy1waCcsICc3LjAnLCAnLXRuJywgJzgnLCAnLW1hJywgJzIwMCcsICctbWV0YWxfYmluZGluZycsICctaW1hZScsICc8aW5maWxlLm1hZT4nLCAnLW9tYWUnLCAnPG91dGZpbGUubWFlPic=

> <r_lp_tautomer_probability>
1

> <r_epik_Ionization_Penalty>
5.7643e-05

> <r_epik_Ionization_Penalty_Charging>
0

> <r_epik_Ionization_Penalty_Neutral>
5.7643e-05

> <r_epik_State_Penalty>
-0

> <r_epik_Charging_Adjusted_Penalty>
0

> <i_epik_Tot_Q>
0

> <i_epik_Tot_abs_Q>
0

> <r_epik_Metal_State_Penalty>
-0

> <b_epik_Metal_Only>
0

> <s_lp_Force_Field>
OPLS_2005

> <r_lp_Energy>
16.9507

> <b_lp_Chiralities_Consistent>
1

> <s_lp_Variant>
AV-unprocessed.smi:2344-1

> <Gold.Version>
5.8.1

> <Gold.Id.Protein>
6NUR|6NUR_protein|mol2

> <Gold.PLP.Fitness>
51.0324

> <Gold.PLP.PLP>
-42.6887

> <Gold.PLP.part.hbond>
-5.5593

> <Gold.PLP.part.metal>
0.0000

> <Gold.PLP.part.buried>
-1.6992

> <Gold.PLP.part.nonpolar>
-34.9826

> <Gold.PLP.part.repulsive>
0.3932

> <Gold.PLP.ligand.clash>
0.0000

> <Gold.PLP.ligand.torsion>
0.3372

> <Gold.PLP.Chemscore.Hbond>
2.0000

> <Gold.PLP.Chemscore.CHOScore>
1.0000

> <Gold.PLP.Chemscore.Metal>
0.0000

> <Gold.Chemscore.Hbonds>
donor molecule, donor type, donor heavy atom, donor atom, acceptor molecule, acceptor atom, score
      L1  H     6    26       P1  8028  1.00
      L1  H     9    27       P1  8028  1.00
      L1  C    18    35       P1  7948  1.00

> <Gold.PLP.Chemscore.Internal.Correction>
0.0182

> <Gold.Rescore>
     Score         DG    S(hbond)    S(metal)    S(lipo)     H(rot)  DE(clash)    DE(int)     intcor
     12.02     -20.17       1.88        0.00     111.55       1.82       5.33       2.82       ----

> <Gold.Chemscore.Fitness>
12.0156

> <Gold.Chemscore.DG>
-20.1658

> <Gold.Chemscore.ZeroCoef>
-5.4800

> <Gold.Chemscore.Hbond>
1.8831

> <Gold.Chemscore.Metal>
0.0000

> <Gold.Chemscore.Lipo>
111.5481

> <Gold.Chemscore.Internal_Hbond>
0.0000

> <Gold.Chemscore.DEClash>
5.3308

> <Gold.Chemscore.DEInternal>
2.8193

> <Gold.Chemscore.Rot>
1.8184

> <Gold.Chemscore.Internal.Correction>
   9.000000E+99

> <Gold.Chemscore.Hbonds>
donor molecule, donor type, donor heavy atom, donor atom, acceptor molecule, acceptor atom, score
      L1  H     6    26       P1  8028  0.99
      L1  H     9    27       P1  8028  0.96

> <Gold.Chemscore.Hbond.Weighted>
-6.2897

> <Gold.Chemscore.Metal.Weighted>
-0.0000

> <Gold.Chemscore.Lipo.Weighted>
-13.0511

> <Gold.Chemscore.Internal_Hbond.Weighted>
0.0000

> <Gold.Chemscore.DEClash.Weighted>
5.3308

> <Gold.Chemscore.DEInternal.Weighted>
2.8193

> <Gold.Chemscore.Rot.Weighted>
4.6551

> <Gold.Chemscore.Internal.Correction.Weighted>
   9.000000E+99

> <Gold.Protein.RotatedTorsions>
[ 6907 6896 6895 6894 ] final  -92.11 input  -60.11 | X-H torsion
[ 7974 7965 7964 7962 ] final   12.92 input  175.53 | X-H torsion
[ 8008 7997 7996 7995 ] final    6.72 input   59.86 | X-H torsion
[ 10167 10162 10161 10158 ] final   59.60 input  -65.29 | X-H torsion
[ 10718 10713 10712 10709 ] final  -56.05 input   66.30 | X-H torsion
[ 10763 10752 10751 10750 ] final  -48.86 input  -60.55 | X-H torsion
[ 11005 11000 10999 10996 ] final   60.17 input  -57.11 | X-H torsion

> <Gold.Protein.ActiveResidues>
 VAL166  LYS551  ARG553  GLY616  TRP617  ASP618  TYR619  PRO620  LYS621  CYS622 
 ASP623  PHE694  ASN695  SER759  ASP760  ASP761  ALA762  ILE779  LEU786  VAL792 
 PHE793  MET794  SER795  GLU796  ALA797  LYS798  CYS799  TRP800  GLU811  SER814 

> <Gold.Protein.RotatedAtoms>
  150.6901  134.2174  159.4382 H   0  0  0  0  0  0  0  0  0  0  0  0  # atno 6907 bound_to 6896
  152.0132  134.9862  160.0578 H   0  0  0  0  0  0  0  0  0  0  0  0  # atno 6908 bound_to 6896
  152.1469  133.4463  159.4831 H   0  0  0  0  0  0  0  0  0  0  0  0  # atno 6909 bound_to 6896
  146.2341  139.9265  142.8502 H   0  0  0  0  0  0  0  0  0  0  0  0  # atno 7974 bound_to 7965
  154.7446  140.2755  155.6344 H   0  0  0  0  0  0  0  0  0  0  0  0  # atno 8008 bound_to 7997
  156.2881  140.2690  156.2109 H   0  0  0  0  0  0  0  0  0  0  0  0  # atno 8009 bound_to 7997
  155.0215  140.0371  157.2429 H   0  0  0  0  0  0  0  0  0  0  0  0  # atno 8010 bound_to 7997
  140.1747  144.4242  150.6644 H   0  0  0  0  0  0  0  0  0  0  0  0  # atno 10167 bound_to 10162
  156.1319  130.4159  150.0253 H   0  0  0  0  0  0  0  0  0  0  0  0  # atno 10718 bound_to 10713
  154.0847  135.6586  153.4843 H   0  0  0  0  0  0  0  0  0  0  0  0  # atno 10763 bound_to 10752
  153.0343  135.5188  154.7439 H   0  0  0  0  0  0  0  0  0  0  0  0  # atno 10764 bound_to 10752
  154.6545  135.3006  154.9914 H   0  0  0  0  0  0  0  0  0  0  0  0  # atno 10765 bound_to 10752
  140.0251  134.6095  155.9585 H   0  0  0  0  0  0  0  0  0  0  0  0  # atno 11005 bound_to 11000
  145.2086  140.9885  143.4114 LP  0  0  0  0  0  0  0  0  0  0  0  0  # atno 17320 bound_to 7965
  144.9711  139.3879  143.6308 LP  0  0  0  0  0  0  0  0  0  0  0  0  # atno 17321 bound_to 7965
  140.6559  143.2237  151.5969 LP  0  0  0  0  0  0  0  0  0  0  0  0  # atno 17342 bound_to 10162
  139.5322  144.2882  152.1174 LP  0  0  0  0  0  0  0  0  0  0  0  0  # atno 17343 bound_to 10162
  156.8163  130.9343  151.3642 LP  0  0  0  0  0  0  0  0  0  0  0  0  # atno 17370 bound_to 10713
  157.6496  130.8873  149.9607 LP  0  0  0  0  0  0  0  0  0  0  0  0  # atno 17371 bound_to 10713
  141.1797  133.6545  156.4972 LP  0  0  0  0  0  0  0  0  0  0  0  0  # atno 17394 bound_to 11000
  140.4321  134.7092  157.4947 LP  0  0  0  0  0  0  0  0  0  0  0  0  # atno 17395 bound_to 11000

$$$$
