AV-unprocessed.smi:550|AV-procd|sdf|2894|dock1
  -GOLD-   2262023393D 1   1.00000     0.00000
 Structure written by MMmdl.
 45 47  0  0  0  0  0  0  0  0  1 V2000
  155.5421  144.4034  165.7703 O   0  0  0  0  0  0  0  0  0  0  0  0
  155.4786  143.1818  165.9050 C   0  0  0  0  0  0  0  0  0  0  0  0
  156.0538  142.5177  166.9177 N   0  0  0  0  0  0  0  0  0  0  0  0
  156.8399  143.1212  167.9899 C   0  0  0  0  0  0  0  0  0  0  0  0
  156.2363  142.8355  169.3787 C   0  0  2  0  0  0  0  0  0  0  0  0
  157.3171  142.7160  170.4710 C   0  0  0  0  0  0  0  0  0  0  0  0
  156.6643  142.1834  171.7503 C   0  0  0  0  0  0  0  0  0  0  0  0
  155.3546  141.0325  171.1915 S   0  0  0  0  0  0  0  0  0  0  0  0
  155.8468  139.6494  171.2799 O   0  0  0  0  0  0  0  0  0  0  0  0
  154.0787  141.4234  171.8099 O   0  0  0  0  0  0  0  0  0  0  0  0
  155.3749  141.5611  169.4363 C   0  0  0  0  0  0  0  0  0  0  0  0
  154.8226  142.3428  165.0853 N   0  0  0  0  0  0  0  0  0  0  0  0
  154.1254  142.6461  163.8848 C   0  0  0  0  0  0  0  0  0  0  0  0
  154.0144  141.6366  162.9093 C   0  0  0  0  0  0  0  0  0  0  0  0
  153.3468  141.9155  161.7019 C   0  0  0  0  0  0  0  0  0  0  0  0
  152.8088  143.2079  161.4969 C   0  0  0  0  0  0  0  0  0  0  0  0
  152.1371  143.5318  160.3015 N   0  0  0  0  0  0  0  0  0  0  0  0
  152.2726  142.7194  159.1023 C   0  0  0  0  0  0  0  0  0  0  0  0
  151.5147  143.4929  158.0246 C   0  0  0  0  0  0  0  0  0  0  0  0
  151.7267  144.9509  158.4320 C   0  0  0  0  0  0  0  0  0  0  0  0
  151.7944  144.9062  159.9631 C   0  0  0  0  0  0  0  0  0  0  0  0
  152.9331  144.1852  162.4259 N   0  0  0  0  0  0  0  0  0  0  0  0
  153.5723  143.9131  163.5831 C   0  0  0  0  0  0  0  0  0  0  0  0
  155.9423  141.5148  166.9488 H   0  0  0  0  0  0  0  0  0  0  0  0
  157.8789  142.7899  167.9476 H   0  0  0  0  0  0  0  0  0  0  0  0
  156.8595  144.1974  167.8162 H   0  0  0  0  0  0  0  0  0  0  0  0
  155.5963  143.6753  169.6540 H   0  0  0  0  0  0  0  0  0  0  0  0
  158.0805  142.0085  170.1444 H   0  0  0  0  0  0  0  0  0  0  0  0
  157.8198  143.6673  170.6486 H   0  0  0  0  0  0  0  0  0  0  0  0
  157.3652  141.6695  172.4082 H   0  0  0  0  0  0  0  0  0  0  0  0
  156.1886  142.9908  172.3072 H   0  0  0  0  0  0  0  0  0  0  0  0
  154.3566  141.7169  169.0794 H   0  0  0  0  0  0  0  0  0  0  0  0
  155.8254  140.7565  168.8544 H   0  0  0  0  0  0  0  0  0  0  0  0
  154.7832  141.3770  165.3761 H   0  0  0  0  0  0  0  0  0  0  0  0
  154.4339  140.6561  163.0810 H   0  0  0  0  0  0  0  0  0  0  0  0
  153.2646  141.1430  160.9522 H   0  0  0  0  0  0  0  0  0  0  0  0
  153.3278  142.6290  158.8407 H   0  0  0  0  0  0  0  0  0  0  0  0
  151.8633  141.7186  159.2440 H   0  0  0  0  0  0  0  0  0  0  0  0
  151.8688  143.2737  157.0172 H   0  0  0  0  0  0  0  0  0  0  0  0
  150.4526  143.2482  158.0714 H   0  0  0  0  0  0  0  0  0  0  0  0
  152.6798  145.3030  158.0351 H   0  0  0  0  0  0  0  0  0  0  0  0
  150.9445  145.6143  158.0623 H   0  0  0  0  0  0  0  0  0  0  0  0
  150.8244  145.1449  160.3999 H   0  0  0  0  0  0  0  0  0  0  0  0
  152.5273  145.6200  160.3413 H   0  0  0  0  0  0  0  0  0  0  0  0
  153.6509  144.7490  164.2603 H   0  0  0  0  0  0  0  0  0  0  0  0
  1  2  2  0  0  0  0
  2  3  1  0  0  0  0
  2 12  1  0  0  0  0
  3  4  1  0  0  0  0
  3 24  1  0  0  0  0
  4  5  1  0  0  0  0
  4 25  1  0  0  0  0
  4 26  1  0  0  0  0
  5 11  1  0  0  0  0
  5  6  1  0  0  0  0
  5 27  1  0  0  0  0
  6  7  1  0  0  0  0
  6 28  1  0  0  0  0
  6 29  1  0  0  0  0
  7  8  1  0  0  0  0
  7 30  1  0  0  0  0
  7 31  1  0  0  0  0
  8  9  2  0  0  0  0
  8 10  2  0  0  0  0
  8 11  1  0  0  0  0
 11 32  1  0  0  0  0
 11 33  1  0  0  0  0
 12 13  1  0  0  0  0
 12 34  1  0  0  0  0
 13 23  1  0  0  0  0
 13 14  2  0  0  0  0
 14 15  1  0  0  0  0
 14 35  1  0  0  0  0
 15 16  2  0  0  0  0
 15 36  1  0  0  0  0
 16 17  1  0  0  0  0
 16 22  1  0  0  0  0
 17 21  1  0  0  0  0
 17 18  1  0  0  0  0
 18 19  1  0  0  0  0
 18 37  1  0  0  0  0
 18 38  1  0  0  0  0
 19 20  1  0  0  0  0
 19 39  1  0  0  0  0
 19 40  1  0  0  0  0
 20 21  1  0  0  0  0
 20 41  1  0  0  0  0
 20 42  1  0  0  0  0
 21 43  1  0  0  0  0
 21 44  1  0  0  0  0
 22 23  2  0  0  0  0
 23 45  1  0  0  0  0
M  END
> <s_m_source_file>
AV-unprocessed.smi

> <i_m_source_file_index>
550

> <i_lp_mmshare_version>
43012

> <i_f3d_flags>
0

> <s_epik_input>
Tz1TMSg9TylbQ0gyXVtDSDJdW0NASF0oW0NIMl0xKVtDSDJdW05IXUMoPU8pW05IXWMyW2NIXVtjSF1jKG5bY0hdMilOM1tDSDJdW0NIMl1bQ0gyXVtDSDJdMw==

> <s_epik_cmdline>
J2VwaWtfcHl0aG9uJywgJy1waCcsICc3LjAnLCAnLXRuJywgJzgnLCAnLW1hJywgJzIwMCcsICctbWV0YWxfYmluZGluZycsICctaW1hZScsICc8aW5maWxlLm1hZT4nLCAnLW9tYWUnLCAnPG91dGZpbGUubWFlPic=

> <r_lp_tautomer_probability>
1

> <r_epik_Ionization_Penalty>
0.0965651

> <r_epik_Ionization_Penalty_Charging>
0

> <r_epik_Ionization_Penalty_Neutral>
0.0965651

> <r_epik_State_Penalty>
0.0861592

> <r_epik_Charging_Adjusted_Penalty>
0.0861592

> <i_epik_Tot_Q>
0

> <i_epik_Tot_abs_Q>
0

> <r_epik_Metal_State_Penalty>
0.0740405

> <b_epik_Metal_Only>
0

> <s_lp_Force_Field>
OPLS_2005

> <r_lp_Energy>
29.4066

> <b_lp_Chiralities_Consistent>
1

> <s_lp_Variant>
AV-unprocessed.smi:550-1

> <Gold.Version>
5.8.1

> <Gold.Id.Protein>
6NUR|6NUR_protein|mol2

> <Gold.PLP.Fitness>
48.1592

> <Gold.PLP.PLP>
-49.3428

> <Gold.PLP.part.hbond>
-2.6806

> <Gold.PLP.part.metal>
0.0000

> <Gold.PLP.part.buried>
-5.5180

> <Gold.PLP.part.nonpolar>
-41.0152

> <Gold.PLP.part.repulsive>
0.7302

> <Gold.PLP.ligand.clash>
0.0000

> <Gold.PLP.ligand.torsion>
0.6889

> <Gold.PLP.Chemscore.Hbond>
0.0000

> <Gold.PLP.Chemscore.CHOScore>
0.0000

> <Gold.PLP.Chemscore.Metal>
0.0000

> <Gold.PLP.Chemscore.Internal.Correction>
0.1942

> <Gold.Rescore>
     Score         DG    S(hbond)    S(metal)    S(lipo)     H(rot)  DE(clash)    DE(int)     intcor
     12.56     -15.04       0.00        0.00     109.08       1.25       0.61       1.88       ----

> <Gold.Chemscore.Fitness>
12.5556

> <Gold.Chemscore.DG>
-15.0409

> <Gold.Chemscore.ZeroCoef>
-5.4800

> <Gold.Chemscore.Hbond>
0.0000

> <Gold.Chemscore.Metal>
0.0000

> <Gold.Chemscore.Lipo>
109.0811

> <Gold.Chemscore.Internal_Hbond>
0.0000

> <Gold.Chemscore.DEClash>
0.6073

> <Gold.Chemscore.DEInternal>
1.8780

> <Gold.Chemscore.Rot>
1.2506

> <Gold.Chemscore.Internal.Correction>
   9.000000E+99

> <Gold.Chemscore.Hbond.Weighted>
-0.0000

> <Gold.Chemscore.Metal.Weighted>
-0.0000

> <Gold.Chemscore.Lipo.Weighted>
-12.7625

> <Gold.Chemscore.Internal_Hbond.Weighted>
0.0000

> <Gold.Chemscore.DEClash.Weighted>
0.6073

> <Gold.Chemscore.DEInternal.Weighted>
1.8780

> <Gold.Chemscore.Rot.Weighted>
3.2016

> <Gold.Chemscore.Internal.Correction.Weighted>
   9.000000E+99

> <Gold.Protein.RotatedTorsions>
[ 6907 6896 6895 6894 ] final   22.71 input  -60.11 | X-H torsion
[ 7974 7965 7964 7962 ] final  142.32 input  175.53 | X-H torsion
[ 8008 7997 7996 7995 ] final   61.48 input   59.86 | X-H torsion
[ 10167 10162 10161 10158 ] final  -55.82 input  -65.29 | X-H torsion
[ 10718 10713 10712 10709 ] final  -16.88 input   66.30 | X-H torsion
[ 10763 10752 10751 10750 ] final -113.83 input  -60.55 | X-H torsion
[ 11005 11000 10999 10996 ] final  144.30 input  -57.11 | X-H torsion

> <Gold.Protein.ActiveResidues>
 VAL166  LYS551  ARG553  GLY616  TRP617  ASP618  TYR619  PRO620  LYS621  CYS622 
 ASP623  PHE694  ASN695  SER759  ASP760  ASP761  ALA762  ILE779  LEU786  VAL792 
 PHE793  MET794  SER795  GLU796  ALA797  LYS798  CYS799  TRP800  GLU811  SER814 

> <Gold.Protein.RotatedAtoms>
  151.9313  135.0255  160.0529 H   0  0  0  0  0  0  0  0  0  0  0  0  # atno 6907 bound_to 6896
  152.2116  133.4911  159.5121 H   0  0  0  0  0  0  0  0  0  0  0  0  # atno 6908 bound_to 6896
  150.6977  134.1377  159.4136 H   0  0  0  0  0  0  0  0  0  0  0  0  # atno 6909 bound_to 6896
  144.9018  139.5413  143.5750 H   0  0  0  0  0  0  0  0  0  0  0  0  # atno 7974 bound_to 7965
  155.5991  140.3494  155.4588 H   0  0  0  0  0  0  0  0  0  0  0  0  # atno 8008 bound_to 7997
  156.0242  140.1260  157.0350 H   0  0  0  0  0  0  0  0  0  0  0  0  # atno 8009 bound_to 7997
  154.4327  140.1056  156.5993 H   0  0  0  0  0  0  0  0  0  0  0  0  # atno 8010 bound_to 7997
  140.6353  143.2479  151.5135 H   0  0  0  0  0  0  0  0  0  0  0  0  # atno 10167 bound_to 10162
  156.5814  130.4775  149.6319 H   0  0  0  0  0  0  0  0  0  0  0  0  # atno 10718 bound_to 10713
  154.8414  135.4440  154.1411 H   0  0  0  0  0  0  0  0  0  0  0  0  # atno 10763 bound_to 10752
  153.2596  135.6935  153.7599 H   0  0  0  0  0  0  0  0  0  0  0  0  # atno 10764 bound_to 10752
  153.6880  135.3392  155.3170 H   0  0  0  0  0  0  0  0  0  0  0  0  # atno 10765 bound_to 10752
  140.0621  134.9199  157.1202 H   0  0  0  0  0  0  0  0  0  0  0  0  # atno 11005 bound_to 11000
  146.3112  139.7754  142.9018 LP  0  0  0  0  0  0  0  0  0  0  0  0  # atno 17320 bound_to 7965
  145.3604  141.0324  143.3288 LP  0  0  0  0  0  0  0  0  0  0  0  0  # atno 17321 bound_to 7965
  139.5564  144.2266  152.1619 LP  0  0  0  0  0  0  0  0  0  0  0  0  # atno 17342 bound_to 10162
  140.1520  144.5105  150.6681 LP  0  0  0  0  0  0  0  0  0  0  0  0  # atno 17343 bound_to 10162
  156.2628  130.6972  151.1746 LP  0  0  0  0  0  0  0  0  0  0  0  0  # atno 17370 bound_to 10713
  157.7325  131.0599  150.5622 LP  0  0  0  0  0  0  0  0  0  0  0  0  # atno 17371 bound_to 10713
  140.3754  134.2345  155.7174 LP  0  0  0  0  0  0  0  0  0  0  0  0  # atno 17394 bound_to 11000
  141.1977  133.8052  157.0614 LP  0  0  0  0  0  0  0  0  0  0  0  0  # atno 17395 bound_to 11000

$$$$
