#       Name:                AV-unprocessed.smi:1677
#       Creating user name   scv26
#       Creation time:       Fri Mar 27 07:46:38 2020


#       File generated by GOLD software.
#

@<TRIPOS>MOLECULE
AV-unprocessed.smi:1677
    39    40     1
SMALL
NO_CHARGES


@<TRIPOS>ATOM
      1 ****         0.9768  -2.8058   2.3715 C.3            1 S1                 0.0000
      2 ****         0.8413  -2.1555   0.9882 C.3            1 S1                 0.0000
      3 ****         2.2179  -1.9986   0.3066 C.3            1 S1                 0.0000
      4 ****         2.1182  -1.5528  -1.0876 N.pl3          1 S1                 0.0000
      5 ****         1.7221  -2.2956  -2.1701 C.2            1 S1                 0.0000
      6 ****         1.7697  -1.4599  -3.2560 C.2            1 S1                 0.0000
      7 ****         2.1978  -0.2450  -2.7921 N.pl3          1 S1                 1.0000
      8 ****         2.4146  -0.3048  -1.4744 C.2            1 S1                 0.0000
      9 ****         0.1779  -0.8607   1.1372 N.am           1 S1                 0.0000
     10 ****        -0.7089  -0.3302   0.2794 C.2            1 S1                 0.0000
     11 ****        -1.0704  -0.8946  -0.7536 O.2            1 S1                 0.0000
     12 ****        -1.2501   1.0617   0.6278 C.3            1 S1                 0.0000
     13 ****        -2.7834   1.0360   0.8240 C.3            1 S1                 0.0000
     14 ****        -3.3727   2.4329   0.9090 C.2            1 S1                 0.0000
     15 ****        -2.7140   3.5382   0.5203 C.2            1 S1                 0.0000
     16 ****        -1.3076   3.5158  -0.0518 C.3            1 S1                 0.0000
     17 ****        -0.8611   2.0957  -0.4480 C.3            1 S1                 0.0000
     18 ****         1.4374  -3.7913   2.2981 H              1 S1                 0.0000
     19 ****         0.0020  -2.9346   2.8432 H              1 S1                 0.0000
     20 ****         1.5923  -2.2003   3.0378 H              1 S1                 0.0000
     21 ****         0.2211  -2.8185   0.3819 H              1 S1                 0.0000
     22 ****         2.8478  -1.2965   0.8552 H              1 S1                 0.0000
     23 ****         2.7448  -2.9536   0.2976 H              1 S1                 0.0000
     24 ****         1.4351  -3.3340  -2.0876 H              1 S1                 0.0000
     25 ****         1.5355  -1.6337  -4.2961 H              1 S1                 0.0000
     26 ****         2.7504   0.5004  -0.8456 H              1 S1                 0.0000
     27 ****         0.4125  -0.3239   1.9601 H              1 S1                 0.0000
     28 ****        -0.7955   1.3787   1.5686 H              1 S1                 0.0000
     29 ****        -3.2812   0.5118   0.0070 H              1 S1                 0.0000
     30 ****        -3.0288   0.4994   1.7411 H              1 S1                 0.0000
     31 ****        -4.3789   2.5148   1.2931 H              1 S1                 0.0000
     32 ****        -3.1845   4.5056   0.6187 H              1 S1                 0.0000
     33 ****        -1.2608   4.1756  -0.9184 H              1 S1                 0.0000
     34 ****        -0.6321   3.9280   0.6982 H              1 S1                 0.0000
     35 ****         0.2156   2.0860  -0.6238 H              1 S1                 0.0000
     36 ****        -1.3292   1.8278  -1.3968 H              1 S1                 0.0000
     37 ****         2.3302   0.5812  -3.3620 H              1 S1                 0.0000
     38 ****        -0.7001  -1.7934  -0.9882 LP             1 S1                 0.0000
     39 ****        -1.7344  -0.4541  -1.3579 LP             1 S1                 0.0000
@<TRIPOS>BOND
    1    1    2 1     
    2    1   18 1     
    3    1   19 1     
    4    1   20 1     
    5    2    3 1     
    6    2    9 1     
    7    2   21 1     
    8    3    4 1     
    9    3   22 1     
   10    3   23 1     
   11    4    8 1     
   12    4    5 1     
   13    5    6 2     
   14    5   24 1     
   15    6    7 1     
   16    6   25 1     
   17    7    8 2     
   18    7   37 1     
   19    8   26 1     
   20    9   10 am    
   21    9   27 1     
   22   10   11 2     
   23   10   12 1     
   24   12   17 1     
   25   12   13 1     
   26   12   28 1     
   27   13   14 1     
   28   13   29 1     
   29   13   30 1     
   30   14   15 2     
   31   14   31 1     
   32   15   16 1     
   33   15   32 1     
   34   16   17 1     
   35   16   33 1     
   36   16   34 1     
   37   17   35 1     
   38   17   36 1     
   39   11   38 1     
   40   11   39 1     
@<TRIPOS>SUBSTRUCTURE
      1 S1             1
@<TRIPOS>SET
LONE_PAIRS      STATIC     ATOMS    <user>   **** ""
2 38 39
DONOR_HYDROGENS      STATIC     ATOMS    <user>   **** ""
2 37 27
ATOM$BLUE        STATIC     ATOMS    COLORGROUP SYSTEM
2 38 39
ATOM$RED        STATIC     ATOMS    COLORGROUP SYSTEM
2 37 27
