#       Name:                AV-unprocessed.smi:2990
#       Creating user name   scv26
#       Creation time:       Fri Mar 27 16:32:09 2020


#       File generated by GOLD software.
#

@<TRIPOS>MOLECULE
AV-unprocessed.smi:2990
    44    46     1
SMALL
NO_CHARGES


@<TRIPOS>ATOM
      1 ****        -1.4307   2.0774   3.3157 C.3            1 S1                 0.0000
      2 ****        -1.4852   2.4434   1.8703 C.2            1 S1                 0.0000
      3 ****        -1.9398   3.6223   1.3587 N.pl3          1 S1                 1.0000
      4 ****        -1.8431   3.6018  -0.0337 C.ar           1 S1                 0.0000
      5 ****        -2.1793   4.5592  -0.9857 C.ar           1 S1                 0.0000
      6 ****        -1.9525   4.2166  -2.3351 C.ar           1 S1                 0.0000
      7 ****        -1.4132   2.9641  -2.6944 C.ar           1 S1                 0.0000
      8 ****        -1.0779   2.0004  -1.7202 C.ar           1 S1                 0.0000
      9 ****        -1.3033   2.3487  -0.3888 C.ar           1 S1                 0.0000
     10 ****        -1.0949   1.6703   0.8167 N.pl3          1 S1                 0.0000
     11 ****        -0.5338   0.3113   0.7869 C.3            1 S1                 0.0000
     12 ****         0.9927   0.2928   0.5680 C.3            1 S1                 0.0000
     13 ****         1.6301   1.0462   1.5801 O.3            1 S1                 0.0000
     14 ****         1.5665  -1.1309   0.5816 C.3            1 S1                 0.0000
     15 ****         1.0552  -1.8421  -0.5381 O.3            1 S1                 0.0000
     16 ****         1.4127  -3.1646  -0.6896 C.ar           1 S1                 0.0000
     17 ****         0.8439  -3.8607  -1.7764 C.ar           1 S1                 0.0000
     18 ****         1.1526  -5.2153  -2.0064 C.ar           1 S1                 0.0000
     19 ****         2.0394  -5.8902  -1.1474 C.ar           1 S1                 0.0000
     20 ****         2.6158  -5.2078  -0.0601 C.ar           1 S1                 0.0000
     21 ****         2.3064  -3.8528   0.1701 C.ar           1 S1                 0.0000
     22 ****        -1.6881   2.9346   3.9383 H              1 S1                 0.0000
     23 ****        -0.4283   1.7433   3.5842 H              1 S1                 0.0000
     24 ****        -2.1347   1.2719   3.5252 H              1 S1                 0.0000
     25 ****        -2.5935   5.5188  -0.7130 H              1 S1                 0.0000
     26 ****        -2.1972   4.9287  -3.1100 H              1 S1                 0.0000
     27 ****        -1.2537   2.7374  -3.7386 H              1 S1                 0.0000
     28 ****        -0.6659   1.0434  -2.0045 H              1 S1                 0.0000
     29 ****        -0.7869  -0.1734   1.7306 H              1 S1                 0.0000
     30 ****        -1.0475  -0.2528   0.0075 H              1 S1                 0.0000
     31 ****         1.2358   0.7603  -0.3864 H              1 S1                 0.0000
     32 ****         1.3191   1.9369   1.5303 H              1 S1                 0.0000
     33 ****         2.6554  -1.0885   0.5186 H              1 S1                 0.0000
     34 ****         1.2995  -1.6325   1.5134 H              1 S1                 0.0000
     35 ****         0.1615  -3.3506  -2.4405 H              1 S1                 0.0000
     36 ****         0.7087  -5.7359  -2.8421 H              1 S1                 0.0000
     37 ****         2.2774  -6.9291  -1.3223 H              1 S1                 0.0000
     38 ****         3.2976  -5.7240   0.5997 H              1 S1                 0.0000
     39 ****         2.7697  -3.3638   1.0132 H              1 S1                 0.0000
     40 ****        -2.2923   4.3841   1.9238 H              1 S1                 0.0000
     41 ****         2.6205   1.0263   1.4428 LP             1 S1                 0.0000
     42 ****         1.4102   0.6615   2.4765 LP             1 S1                 0.0000
     43 ****         1.3565  -1.3578  -1.3595 LP             1 S1                 0.0000
     44 ****         0.0575  -1.8098  -0.4792 LP             1 S1                 0.0000
@<TRIPOS>BOND
    1    1    2 1     
    2    1   22 1     
    3    1   23 1     
    4    1   24 1     
    5    2   10 1     
    6    2    3 2     
    7    3    4 1     
    8    3   40 1     
    9    4    9 ar    
   10    4    5 ar    
   11    5    6 ar    
   12    5   25 1     
   13    6    7 ar    
   14    6   26 1     
   15    7    8 ar    
   16    7   27 1     
   17    8    9 ar    
   18    8   28 1     
   19    9   10 1     
   20   10   11 1     
   21   11   12 1     
   22   11   29 1     
   23   11   30 1     
   24   12   13 1     
   25   12   14 1     
   26   12   31 1     
   27   13   32 1     
   28   14   15 1     
   29   14   33 1     
   30   14   34 1     
   31   15   16 1     
   32   16   21 ar    
   33   16   17 ar    
   34   17   18 ar    
   35   17   35 1     
   36   18   19 ar    
   37   18   36 1     
   38   19   20 ar    
   39   19   37 1     
   40   20   21 ar    
   41   20   38 1     
   42   21   39 1     
   43   13   41 1     
   44   13   42 1     
   45   15   43 1     
   46   15   44 1     
@<TRIPOS>SUBSTRUCTURE
      1 S1             1
@<TRIPOS>SET
LONE_PAIRS      STATIC     ATOMS    <user>   **** ""
4 41 42 43 44
DONOR_HYDROGENS      STATIC     ATOMS    <user>   **** ""
2 40 32
ATOM$BLUE        STATIC     ATOMS    COLORGROUP SYSTEM
4 41 42 43 44
ATOM$RED        STATIC     ATOMS    COLORGROUP SYSTEM
2 40 32
