AV-unprocessed.smi:3259|AV-procd|sdf|12472|dock3
  -GOLD-   2272018373D 1   1.00000     0.00000
 Structure written by MMmdl.
 39 40  0  0  0  0  0  0  0  0  1 V2000
  146.9218  138.9892  152.8953 C   0  0  0  0  0  0  0  0  0  0  0  0
  148.1976  139.3062  153.4366 O   0  0  0  0  0  0  0  0  0  0  0  0
  148.2612  139.4723  154.8542 C   0  0  1  0  0  0  0  0  0  0  0  0
  147.5853  138.2825  155.5536 C   0  0  0  0  0  0  0  0  0  0  0  0
  149.6662  139.8838  155.3303 C   0  0  0  0  0  0  0  0  0  0  0  0
  148.9675  140.8951  156.2366 C   0  0  1  0  0  0  0  0  0  0  0  0
  149.7061  142.1464  156.3499 N   0  0  0  0  0  0  0  0  0  0  0  0
  150.8287  142.3060  157.0666 C   0  0  0  0  0  0  0  0  0  0  0  0
  151.3971  141.3836  157.6503 O   0  0  0  0  0  0  0  0  0  0  0  0
  151.3888  143.7271  157.1470 C   0  0  0  0  0  0  0  0  0  0  0  0
  151.5751  144.1415  158.5273 N   0  0  0  0  0  0  0  0  0  0  0  0
  151.1867  145.3213  159.1282 C   0  0  0  0  0  0  0  0  0  0  0  0
  151.5607  145.2527  160.4394 C   0  0  0  0  0  0  0  0  0  0  0  0
  152.1804  143.9765  160.5476 C   0  0  0  0  0  0  0  0  0  0  0  0
  152.1874  143.3137  159.4024 N   0  0  0  0  0  0  0  0  0  0  0  0
  147.8018  140.9228  155.2142 C   0  0  0  0  0  0  0  0  0  0  0  0
  147.8955  141.9671  154.0818 C   0  0  0  0  0  0  0  0  0  0  0  0
  146.3978  141.0746  155.8077 C   0  0  0  0  0  0  0  0  0  0  0  0
  147.0277  138.7913  151.8288 H   0  0  0  0  0  0  0  0  0  0  0  0
  146.2181  139.8141  153.0024 H   0  0  0  0  0  0  0  0  0  0  0  0
  146.4924  138.0987  153.3545 H   0  0  0  0  0  0  0  0  0  0  0  0
  147.4978  138.4394  156.6285 H   0  0  0  0  0  0  0  0  0  0  0  0
  148.1507  137.3602  155.4250 H   0  0  0  0  0  0  0  0  0  0  0  0
  146.5807  138.1130  155.1658 H   0  0  0  0  0  0  0  0  0  0  0  0
  150.2158  139.1057  155.8608 H   0  0  0  0  0  0  0  0  0  0  0  0
  150.2771  140.3427  154.5506 H   0  0  0  0  0  0  0  0  0  0  0  0
  148.6872  140.4565  157.1970 H   0  0  0  0  0  0  0  0  0  0  0  0
  149.3084  142.9565  155.8972 H   0  0  0  0  0  0  0  0  0  0  0  0
  152.3425  143.7890  156.6205 H   0  0  0  0  0  0  0  0  0  0  0  0
  150.7047  144.4210  156.6570 H   0  0  0  0  0  0  0  0  0  0  0  0
  150.6787  146.1005  158.5792 H   0  0  0  0  0  0  0  0  0  0  0  0
  151.4131  146.0002  161.2046 H   0  0  0  0  0  0  0  0  0  0  0  0
  152.6217  143.5148  161.4186 H   0  0  0  0  0  0  0  0  0  0  0  0
  147.7455  142.9813  154.4539 H   0  0  0  0  0  0  0  0  0  0  0  0
  147.1404  141.7922  153.3147 H   0  0  0  0  0  0  0  0  0  0  0  0
  148.8649  141.9528  153.5833 H   0  0  0  0  0  0  0  0  0  0  0  0
  146.1931  142.1065  156.0943 H   0  0  0  0  0  0  0  0  0  0  0  0
  146.2659  140.4707  156.7052 H   0  0  0  0  0  0  0  0  0  0  0  0
  145.6292  140.7723  155.0958 H   0  0  0  0  0  0  0  0  0  0  0  0
  1  2  1  0  0  0  0
  1 19  1  0  0  0  0
  1 20  1  0  0  0  0
  1 21  1  0  0  0  0
  2  3  1  0  0  0  0
  3 16  1  0  0  0  0
  3  4  1  0  0  0  0
  3  5  1  0  0  0  0
  4 22  1  0  0  0  0
  4 23  1  0  0  0  0
  4 24  1  0  0  0  0
  5  6  1  0  0  0  0
  5 25  1  0  0  0  0
  5 26  1  0  0  0  0
  6  7  1  0  0  0  0
  6 16  1  0  0  0  0
  6 27  1  0  0  0  0
  7  8  1  0  0  0  0
  7 28  1  0  0  0  0
  8  9  2  0  0  0  0
  8 10  1  0  0  0  0
 10 11  1  0  0  0  0
 10 29  1  0  0  0  0
 10 30  1  0  0  0  0
 11 15  1  0  0  0  0
 11 12  1  0  0  0  0
 12 13  2  0  0  0  0
 12 31  1  0  0  0  0
 13 14  1  0  0  0  0
 13 32  1  0  0  0  0
 14 15  2  0  0  0  0
 14 33  1  0  0  0  0
 16 17  1  0  0  0  0
 16 18  1  0  0  0  0
 17 34  1  0  0  0  0
 17 35  1  0  0  0  0
 17 36  1  0  0  0  0
 18 37  1  0  0  0  0
 18 38  1  0  0  0  0
 18 39  1  0  0  0  0
M  END
> <s_m_source_file>
AV-unprocessed.smi

> <i_m_source_file_index>
3259

> <i_lp_mmshare_version>
43012

> <i_f3d_flags>
0

> <s_epik_input>
W0NIM11PW0NAQF0xKFtDSDNdKVtDSDJdW0NASF0oQzEoW0NIM10pW0NIM10pW05IXUMoPU8pW0NIMl1uMltjSF1bY0hdW2NIXW4y

> <s_epik_cmdline>
J2VwaWtfcHl0aG9uJywgJy1waCcsICc3LjAnLCAnLXRuJywgJzgnLCAnLW1hJywgJzIwMCcsICctbWV0YWxfYmluZGluZycsICctaW1hZScsICc8aW5maWxlLm1hZT4nLCAnLW9tYWUnLCAnPG91dGZpbGUubWFlPic=

> <r_lp_tautomer_probability>
1

> <r_epik_Ionization_Penalty>
1.78399e-05

> <r_epik_Ionization_Penalty_Charging>
0

> <r_epik_Ionization_Penalty_Neutral>
1.78399e-05

> <r_epik_State_Penalty>
-0

> <r_epik_Charging_Adjusted_Penalty>
0

> <i_epik_Tot_Q>
0

> <i_epik_Tot_abs_Q>
0

> <r_epik_Metal_State_Penalty>
-0

> <b_epik_Metal_Only>
0

> <s_lp_Force_Field>
OPLS_2005

> <r_lp_Energy>
22.2184

> <b_lp_Chiralities_Consistent>
1

> <s_lp_Variant>
AV-unprocessed.smi:3259-1

> <Gold.Version>
5.8.1

> <Gold.Id.Protein>
6NUR|6NUR_protein|mol2

> <Gold.PLP.Fitness>
35.4678

> <Gold.PLP.PLP>
-32.9534

> <Gold.PLP.part.hbond>
-1.0000

> <Gold.PLP.part.metal>
0.0000

> <Gold.PLP.part.buried>
-5.6398

> <Gold.PLP.part.nonpolar>
-27.8305

> <Gold.PLP.part.repulsive>
2.4940

> <Gold.PLP.ligand.clash>
0.0000

> <Gold.PLP.ligand.torsion>
0.4316

> <Gold.PLP.Chemscore.Hbond>
1.0000

> <Gold.PLP.Chemscore.CHOScore>
0.0000

> <Gold.PLP.Chemscore.Metal>
0.0000

> <Gold.Chemscore.Hbonds>
donor molecule, donor type, donor heavy atom, donor atom, acceptor molecule, acceptor atom, score
      L1  H     7    28       P1  8028  1.00

> <Gold.PLP.Chemscore.Internal.Correction>
0.3776

> <Gold.Rescore>
     Score         DG    S(hbond)    S(metal)    S(lipo)     H(rot)  DE(clash)    DE(int)     intcor
     11.86     -14.19       1.00        0.00      80.93       1.60       0.64       1.69       ----

> <Gold.Chemscore.Fitness>
11.8624

> <Gold.Chemscore.DG>
-14.1949

> <Gold.Chemscore.ZeroCoef>
-5.4800

> <Gold.Chemscore.Hbond>
0.9978

> <Gold.Chemscore.Metal>
0.0000

> <Gold.Chemscore.Lipo>
80.9266

> <Gold.Chemscore.Internal_Hbond>
0.0000

> <Gold.Chemscore.DEClash>
0.6388

> <Gold.Chemscore.DEInternal>
1.6938

> <Gold.Chemscore.Rot>
1.5962

> <Gold.Chemscore.Internal.Correction>
   9.000000E+99

> <Gold.Chemscore.Hbonds>
donor molecule, donor type, donor heavy atom, donor atom, acceptor molecule, acceptor atom, score
      L1  H     7    28       P1  8028  0.99

> <Gold.Chemscore.Hbond.Weighted>
-3.3327

> <Gold.Chemscore.Metal.Weighted>
-0.0000

> <Gold.Chemscore.Lipo.Weighted>
-9.4684

> <Gold.Chemscore.Internal_Hbond.Weighted>
0.0000

> <Gold.Chemscore.DEClash.Weighted>
0.6388

> <Gold.Chemscore.DEInternal.Weighted>
1.6938

> <Gold.Chemscore.Rot.Weighted>
4.0862

> <Gold.Chemscore.Internal.Correction.Weighted>
   9.000000E+99

> <Gold.Protein.RotatedTorsions>
[ 6907 6896 6895 6894 ] final  151.53 input  -60.11 | X-H torsion
[ 7974 7965 7964 7962 ] final   44.05 input  175.53 | X-H torsion
[ 8008 7997 7996 7995 ] final  -85.20 input   59.86 | X-H torsion
[ 10167 10162 10161 10158 ] final   50.50 input  -65.29 | X-H torsion
[ 10718 10713 10712 10709 ] final  -55.45 input   66.30 | X-H torsion
[ 10763 10752 10751 10750 ] final -177.47 input  -60.55 | X-H torsion
[ 11005 11000 10999 10996 ] final   17.85 input  -57.11 | X-H torsion

> <Gold.Protein.ActiveResidues>
 VAL166  LYS551  ARG553  GLY616  TRP617  ASP618  TYR619  PRO620  LYS621  CYS622 
 ASP623  PHE694  ASN695  SER759  ASP760  ASP761  ALA762  ILE779  LEU786  VAL792 
 PHE793  MET794  SER795  GLU796  ALA797  LYS798  CYS799  TRP800  GLU811  SER814 

> <Gold.Protein.RotatedAtoms>
  152.0993  133.4241  159.4579 H   0  0  0  0  0  0  0  0  0  0  0  0  # atno 6907 bound_to 6896
  150.6864  134.2779  159.4624 H   0  0  0  0  0  0  0  0  0  0  0  0  # atno 6908 bound_to 6896
  152.0638  134.9577  160.0625 H   0  0  0  0  0  0  0  0  0  0  0  0  # atno 6909 bound_to 6896
  146.0602  139.5117  142.9663 H   0  0  0  0  0  0  0  0  0  0  0  0  # atno 7974 bound_to 7965
  154.6382  140.0594  156.9814 H   0  0  0  0  0  0  0  0  0  0  0  0  # atno 8008 bound_to 7997
  155.1559  140.3278  155.4403 H   0  0  0  0  0  0  0  0  0  0  0  0  # atno 8009 bound_to 7997
  156.2517  140.1939  156.6668 H   0  0  0  0  0  0  0  0  0  0  0  0  # atno 8010 bound_to 7997
  140.2718  144.3257  150.6288 H   0  0  0  0  0  0  0  0  0  0  0  0  # atno 10167 bound_to 10162
  156.1368  130.4156  150.0172 H   0  0  0  0  0  0  0  0  0  0  0  0  # atno 10718 bound_to 10713
  154.5596  135.2819  155.0931 H   0  0  0  0  0  0  0  0  0  0  0  0  # atno 10763 bound_to 10752
  154.2345  135.6368  153.5190 H   0  0  0  0  0  0  0  0  0  0  0  0  # atno 10764 bound_to 10752
  153.0025  135.5545  154.6187 H   0  0  0  0  0  0  0  0  0  0  0  0  # atno 10765 bound_to 10752
  140.4314  134.1416  155.7681 H   0  0  0  0  0  0  0  0  0  0  0  0  # atno 11005 bound_to 11000
  145.6573  141.0249  143.1728 LP  0  0  0  0  0  0  0  0  0  0  0  0  # atno 17320 bound_to 7965
  144.7170  139.8160  143.7395 LP  0  0  0  0  0  0  0  0  0  0  0  0  # atno 17321 bound_to 7965
  140.5883  143.2169  151.7300 LP  0  0  0  0  0  0  0  0  0  0  0  0  # atno 17342 bound_to 10162
  139.4987  144.3977  152.0214 LP  0  0  0  0  0  0  0  0  0  0  0  0  # atno 17343 bound_to 10162
  156.8069  130.9310  151.3645 LP  0  0  0  0  0  0  0  0  0  0  0  0  # atno 17370 bound_to 10713
  157.6539  130.8908  149.9689 LP  0  0  0  0  0  0  0  0  0  0  0  0  # atno 17371 bound_to 10713
  141.1744  133.8544  157.1469 LP  0  0  0  0  0  0  0  0  0  0  0  0  # atno 17394 bound_to 11000
  140.0132  134.9979  157.0438 LP  0  0  0  0  0  0  0  0  0  0  0  0  # atno 17395 bound_to 11000

$$$$
