AV-unprocessed.smi:2166|AV-procd|sdf|8815|dock2
  -GOLD-   2272012 03D 1   1.00000     0.00000
 Structure written by MMmdl.
 38 39  0  0  0  0  0  0  0  0  1 V2000
  155.3576  144.6874  167.9826 C   0  0  0  0  0  0  0  0  0  0  0  0
  156.9306  143.8543  167.6336 S   0  0  0  0  0  0  0  0  0  0  0  0
  156.3640  142.4351  166.6483 C   0  0  1  0  0  0  0  0  0  0  0  0
  155.5399  141.4765  167.5229 C   0  0  0  0  0  0  0  0  0  0  0  0
  155.5766  142.8786  165.4080 C   0  0  0  0  0  0  0  0  0  0  0  0
  155.2630  144.0618  165.2721 O   0  0  0  0  0  0  0  0  0  0  0  0
  155.2833  141.9054  164.5246 N   0  0  0  0  0  0  0  0  0  0  0  0
  154.6043  142.0173  163.2829 C   0  0  0  0  0  0  0  0  0  0  0  0
  153.7520  143.1355  163.1664 C   0  0  0  0  0  0  0  0  0  0  0  0
  153.0240  143.3306  161.9776 C   0  0  0  0  0  0  0  0  0  0  0  0
  153.1539  142.4052  160.9181 C   0  0  0  0  0  0  0  0  0  0  0  0
  152.4275  142.5800  159.7202 N   0  0  0  0  0  0  0  0  0  0  0  0
  151.5167  141.5168  159.3050 C   0  0  0  0  0  0  0  0  0  0  0  0
  151.0518  141.7449  157.8564 C   0  0  0  0  0  0  0  0  0  0  0  0
  150.4743  143.0405  157.7367 O   0  0  0  0  0  0  0  0  0  0  0  0
  151.4132  144.0676  158.0382 C   0  0  0  0  0  0  0  0  0  0  0  0
  151.8976  143.9221  159.4916 C   0  0  0  0  0  0  0  0  0  0  0  0
  154.0414  141.3216  161.1275 C   0  0  0  0  0  0  0  0  0  0  0  0
  154.7390  141.1320  162.2671 N   0  0  0  0  0  0  0  0  0  0  0  0
  155.5380  145.6064  168.5401 H   0  0  0  0  0  0  0  0  0  0  0  0
  154.7051  144.0502  168.5792 H   0  0  0  0  0  0  0  0  0  0  0  0
  154.8456  144.9415  167.0546 H   0  0  0  0  0  0  0  0  0  0  0  0
  157.2533  141.8934  166.3220 H   0  0  0  0  0  0  0  0  0  0  0  0
  155.1770  140.6244  166.9467 H   0  0  0  0  0  0  0  0  0  0  0  0
  154.6756  141.9755  167.9632 H   0  0  0  0  0  0  0  0  0  0  0  0
  156.1437  141.0832  168.3414 H   0  0  0  0  0  0  0  0  0  0  0  0
  155.6010  140.9776  164.7634 H   0  0  0  0  0  0  0  0  0  0  0  0
  153.6526  143.8412  163.9783 H   0  0  0  0  0  0  0  0  0  0  0  0
  152.3827  144.1948  161.8887 H   0  0  0  0  0  0  0  0  0  0  0  0
  152.0109  140.5472  159.3762 H   0  0  0  0  0  0  0  0  0  0  0  0
  150.6536  141.4976  159.9721 H   0  0  0  0  0  0  0  0  0  0  0  0
  151.8845  141.6396  157.1589 H   0  0  0  0  0  0  0  0  0  0  0  0
  150.3081  140.9976  157.5792 H   0  0  0  0  0  0  0  0  0  0  0  0
  152.2529  144.0232  157.3426 H   0  0  0  0  0  0  0  0  0  0  0  0
  150.9354  145.0372  157.8976 H   0  0  0  0  0  0  0  0  0  0  0  0
  151.0679  144.0938  160.1787 H   0  0  0  0  0  0  0  0  0  0  0  0
  152.6416  144.6909  159.6956 H   0  0  0  0  0  0  0  0  0  0  0  0
  154.1999  140.5633  160.3755 H   0  0  0  0  0  0  0  0  0  0  0  0
  1  2  1  0  0  0  0
  1 20  1  0  0  0  0
  1 21  1  0  0  0  0
  1 22  1  0  0  0  0
  2  3  1  0  0  0  0
  3  4  1  0  0  0  0
  3  5  1  0  0  0  0
  3 23  1  0  0  0  0
  4 24  1  0  0  0  0
  4 25  1  0  0  0  0
  4 26  1  0  0  0  0
  5  6  2  0  0  0  0
  5  7  1  0  0  0  0
  7  8  1  0  0  0  0
  7 27  1  0  0  0  0
  8 19  1  0  0  0  0
  8  9  2  0  0  0  0
  9 10  1  0  0  0  0
  9 28  1  0  0  0  0
 10 11  2  0  0  0  0
 10 29  1  0  0  0  0
 11 12  1  0  0  0  0
 11 18  1  0  0  0  0
 12 17  1  0  0  0  0
 12 13  1  0  0  0  0
 13 14  1  0  0  0  0
 13 30  1  0  0  0  0
 13 31  1  0  0  0  0
 14 15  1  0  0  0  0
 14 32  1  0  0  0  0
 14 33  1  0  0  0  0
 15 16  1  0  0  0  0
 16 17  1  0  0  0  0
 16 34  1  0  0  0  0
 16 35  1  0  0  0  0
 17 36  1  0  0  0  0
 17 37  1  0  0  0  0
 18 19  2  0  0  0  0
 18 38  1  0  0  0  0
M  END
> <s_m_source_file>
AV-unprocessed.smi

> <i_m_source_file_index>
2166

> <i_lp_mmshare_version>
43012

> <i_f3d_flags>
0

> <s_epik_input>
W0NIM11TW0NASF0oW0NIM10pQyg9TylbTkhdYzFbY0hdW2NIXWMoW2NIXW4xKU4yW0NIMl1bQ0gyXU9bQ0gyXVtDSDJdMg==

> <s_epik_cmdline>
J2VwaWtfcHl0aG9uJywgJy1waCcsICc3LjAnLCAnLXRuJywgJzgnLCAnLW1hJywgJzIwMCcsICctbWV0YWxfYmluZGluZycsICctaW1hZScsICc8aW5maWxlLm1hZT4nLCAnLW9tYWUnLCAnPG91dGZpbGUubWFlPic=

> <r_lp_tautomer_probability>
1

> <r_epik_Ionization_Penalty>
0.0038652

> <r_epik_Ionization_Penalty_Charging>
0

> <r_epik_Ionization_Penalty_Neutral>
0.0038652

> <r_epik_State_Penalty>
0.00681294

> <r_epik_Charging_Adjusted_Penalty>
0.00681294

> <i_epik_Tot_Q>
0

> <i_epik_Tot_abs_Q>
0

> <r_epik_Metal_State_Penalty>
-0

> <b_epik_Metal_Only>
0

> <s_lp_Force_Field>
OPLS_2005

> <r_lp_Energy>
24.7489

> <b_lp_Chiralities_Consistent>
1

> <s_lp_Variant>
AV-unprocessed.smi:2166-2

> <Gold.Version>
5.8.1

> <Gold.Id.Protein>
6NUR|6NUR_protein|mol2

> <Gold.PLP.Fitness>
42.0374

> <Gold.PLP.PLP>
-42.6197

> <Gold.PLP.part.hbond>
-1.5050

> <Gold.PLP.part.metal>
0.0000

> <Gold.PLP.part.buried>
-5.5686

> <Gold.PLP.part.nonpolar>
-35.3587

> <Gold.PLP.part.repulsive>
0.2806

> <Gold.PLP.ligand.clash>
0.0000

> <Gold.PLP.ligand.torsion>
0.4855

> <Gold.PLP.Chemscore.Hbond>
0.0000

> <Gold.PLP.Chemscore.CHOScore>
0.0000

> <Gold.PLP.Chemscore.Metal>
0.0000

> <Gold.PLP.Chemscore.Internal.Correction>
0.3887

> <Gold.Rescore>
     Score         DG    S(hbond)    S(metal)    S(lipo)     H(rot)  DE(clash)    DE(int)     intcor
     10.69     -14.46       0.00        0.00     105.46       1.31       0.47       3.30       ----

> <Gold.Chemscore.Fitness>
10.6869

> <Gold.Chemscore.DG>
-14.4638

> <Gold.Chemscore.ZeroCoef>
-5.4800

> <Gold.Chemscore.Hbond>
0.0000

> <Gold.Chemscore.Metal>
0.0000

> <Gold.Chemscore.Lipo>
105.4598

> <Gold.Chemscore.Internal_Hbond>
0.0000

> <Gold.Chemscore.DEClash>
0.4726

> <Gold.Chemscore.DEInternal>
3.3044

> <Gold.Chemscore.Rot>
1.3105

> <Gold.Chemscore.Internal.Correction>
   9.000000E+99

> <Gold.Chemscore.Hbond.Weighted>
-0.0000

> <Gold.Chemscore.Metal.Weighted>
-0.0000

> <Gold.Chemscore.Lipo.Weighted>
-12.3388

> <Gold.Chemscore.Internal_Hbond.Weighted>
0.0000

> <Gold.Chemscore.DEClash.Weighted>
0.4726

> <Gold.Chemscore.DEInternal.Weighted>
3.3044

> <Gold.Chemscore.Rot.Weighted>
3.3549

> <Gold.Chemscore.Internal.Correction.Weighted>
   9.000000E+99

> <Gold.Protein.RotatedTorsions>
[ 6907 6896 6895 6894 ] final  -43.05 input  -60.11 | X-H torsion
[ 7974 7965 7964 7962 ] final   51.46 input  175.53 | X-H torsion
[ 8008 7997 7996 7995 ] final  151.03 input   59.86 | X-H torsion
[ 10167 10162 10161 10158 ] final  -14.24 input  -65.29 | X-H torsion
[ 10718 10713 10712 10709 ] final   -6.51 input   66.30 | X-H torsion
[ 10763 10752 10751 10750 ] final  -28.85 input  -60.55 | X-H torsion
[ 11005 11000 10999 10996 ] final  -66.92 input  -57.11 | X-H torsion

> <Gold.Protein.ActiveResidues>
 VAL166  LYS551  ARG553  GLY616  TRP617  ASP618  TYR619  PRO620  LYS621  CYS622 
 ASP623  PHE694  ASN695  SER759  ASP760  ASP761  ALA762  ILE779  LEU786  VAL792 
 PHE793  MET794  SER795  GLU796  ALA797  LYS798  CYS799  TRP800  GLU811  SER814 

> <Gold.Protein.RotatedAtoms>
  150.9482  134.8885  159.7655 H   0  0  0  0  0  0  0  0  0  0  0  0  # atno 6907 bound_to 6896
  152.5109  134.3844  159.9372 H   0  0  0  0  0  0  0  0  0  0  0  0  # atno 6908 bound_to 6896
  151.3861  133.3764  159.2750 H   0  0  0  0  0  0  0  0  0  0  0  0  # atno 6909 bound_to 6896
  145.9911  139.4340  143.0073 H   0  0  0  0  0  0  0  0  0  0  0  0  # atno 7974 bound_to 7965
  156.2691  140.2059  156.6111 H   0  0  0  0  0  0  0  0  0  0  0  0  # atno 8008 bound_to 7997
  154.6831  140.0538  157.0310 H   0  0  0  0  0  0  0  0  0  0  0  0  # atno 8009 bound_to 7997
  155.0972  140.3202  155.4560 H   0  0  0  0  0  0  0  0  0  0  0  0  # atno 8010 bound_to 7997
  140.7197  143.5342  150.9484 H   0  0  0  0  0  0  0  0  0  0  0  0  # atno 10167 bound_to 10162
  156.7308  130.5179  149.5846 H   0  0  0  0  0  0  0  0  0  0  0  0  # atno 10718 bound_to 10713
  153.7551  135.6923  153.4937 H   0  0  0  0  0  0  0  0  0  0  0  0  # atno 10763 bound_to 10752
  153.1977  135.4448  155.0227 H   0  0  0  0  0  0  0  0  0  0  0  0  # atno 10764 bound_to 10752
  154.8173  135.3405  154.7069 H   0  0  0  0  0  0  0  0  0  0  0  0  # atno 10765 bound_to 10752
  141.1495  133.6709  156.6214 H   0  0  0  0  0  0  0  0  0  0  0  0  # atno 11005 bound_to 11000
  145.7628  140.9928  143.1191 LP  0  0  0  0  0  0  0  0  0  0  0  0  # atno 17320 bound_to 7965
  144.6889  139.9351  143.7473 LP  0  0  0  0  0  0  0  0  0  0  0  0  # atno 17321 bound_to 7965
  139.9063  143.6774  152.3123 LP  0  0  0  0  0  0  0  0  0  0  0  0  # atno 17342 bound_to 10162
  139.7141  144.7615  151.1063 LP  0  0  0  0  0  0  0  0  0  0  0  0  # atno 17343 bound_to 10162
  156.1530  130.6323  151.0620 LP  0  0  0  0  0  0  0  0  0  0  0  0  # atno 17370 bound_to 10713
  157.6859  131.0825  150.7243 LP  0  0  0  0  0  0  0  0  0  0  0  0  # atno 17371 bound_to 10713
  140.3537  134.7746  157.4485 LP  0  0  0  0  0  0  0  0  0  0  0  0  # atno 17394 bound_to 11000
  140.0840  134.5692  155.8511 LP  0  0  0  0  0  0  0  0  0  0  0  0  # atno 17395 bound_to 11000

$$$$
