AV-unprocessed.smi:1959|AV-procd|sdf|7914|dock4
  -GOLD-   2272010 83D 1   1.00000     0.00000
 Structure written by MMmdl.
 45 46  0  0  0  0  0  0  0  0  2 V2000
  147.1172  137.0416  163.2035 C   0  0  0  0  0  0  0  0  0  0  0  0
  147.5093  136.3864  161.9122 C   0  0  0  0  0  0  0  0  0  0  0  0
  147.4136  135.0118  161.5569 C   0  0  0  0  0  0  0  0  0  0  0  0
  147.8968  134.9589  160.2800 C   0  0  0  0  0  0  0  0  0  0  0  0
  148.0525  133.7965  159.3557 C   0  0  0  0  0  0  0  0  0  0  0  0
  148.2525  136.2497  159.9320 N   0  0  0  0  0  0  0  0  0  0  0  0
  148.8133  136.7409  158.6818 C   0  0  0  0  0  0  0  0  0  0  0  0
  147.8593  136.5590  157.4955 C   0  0  0  0  0  0  0  0  0  0  0  0
  146.7273  136.1003  157.6550 O   0  0  0  0  0  0  0  0  0  0  0  0
  148.3304  136.9491  156.3005 N   0  0  0  0  0  0  0  0  0  0  0  0
  147.6097  136.8846  155.0284 C   0  0  2  0  0  0  0  0  0  0  0  0
  146.4295  137.8643  155.0706 C   0  0  0  0  0  0  0  0  0  0  0  0
  147.1342  135.4443  154.7289 C   0  0  0  0  0  0  0  0  0  0  0  0
  146.8505  135.2138  153.2896 N   0  3  0  0  0  0  0  0  0  0  0  0
  146.6463  133.7844  152.9582 C   0  0  0  0  0  0  0  0  0  0  0  0
  146.4352  133.6141  151.4440 C   0  0  0  0  0  0  0  0  0  0  0  0
  145.3330  134.4081  151.0221 O   0  0  0  0  0  0  0  0  0  0  0  0
  145.5510  135.7935  151.2615 C   0  0  0  0  0  0  0  0  0  0  0  0
  145.7283  136.0326  152.7701 C   0  0  0  0  0  0  0  0  0  0  0  0
  148.0144  137.1224  160.9355 N   0  0  0  0  0  0  0  0  0  0  0  0
  146.7678  136.3062  163.9284 H   0  0  0  0  0  0  0  0  0  0  0  0
  146.3140  137.7623  163.0490 H   0  0  0  0  0  0  0  0  0  0  0  0
  147.9604  137.5705  163.6483 H   0  0  0  0  0  0  0  0  0  0  0  0
  147.0439  134.1883  162.1499 H   0  0  0  0  0  0  0  0  0  0  0  0
  147.6530  132.8865  159.8033 H   0  0  0  0  0  0  0  0  0  0  0  0
  149.1035  133.6227  159.1242 H   0  0  0  0  0  0  0  0  0  0  0  0
  147.5213  133.9698  158.4197 H   0  0  0  0  0  0  0  0  0  0  0  0
  149.0553  137.7996  158.7880 H   0  0  0  0  0  0  0  0  0  0  0  0
  149.7519  136.2195  158.4903 H   0  0  0  0  0  0  0  0  0  0  0  0
  149.2722  137.3127  156.2665 H   0  0  0  0  0  0  0  0  0  0  0  0
  148.2669  137.2200  154.2247 H   0  0  0  0  0  0  0  0  0  0  0  0
  145.8908  137.8696  154.1226 H   0  0  0  0  0  0  0  0  0  0  0  0
  146.7711  138.8829  155.2588 H   0  0  0  0  0  0  0  0  0  0  0  0
  145.7192  137.6006  155.8550 H   0  0  0  0  0  0  0  0  0  0  0  0
  147.9180  134.7570  155.0515 H   0  0  0  0  0  0  0  0  0  0  0  0
  146.2520  135.1956  155.3211 H   0  0  0  0  0  0  0  0  0  0  0  0
  147.5134  133.2025  153.2730 H   0  0  0  0  0  0  0  0  0  0  0  0
  145.7836  133.3997  153.5046 H   0  0  0  0  0  0  0  0  0  0  0  0
  147.3336  133.8947  150.8914 H   0  0  0  0  0  0  0  0  0  0  0  0
  146.2296  132.5700  151.2083 H   0  0  0  0  0  0  0  0  0  0  0  0
  146.4250  136.1392  150.7066 H   0  0  0  0  0  0  0  0  0  0  0  0
  144.6944  136.3560  150.8900 H   0  0  0  0  0  0  0  0  0  0  0  0
  144.8090  135.7756  153.2986 H   0  0  0  0  0  0  0  0  0  0  0  0
  145.9149  137.0909  152.9505 H   0  0  0  0  0  0  0  0  0  0  0  0
  147.6792  135.5024  152.7884 H   0  0  0  0  0  0  0  0  0  0  0  0
  1  2  1  0  0  0  0
  1 21  1  0  0  0  0
  1 22  1  0  0  0  0
  1 23  1  0  0  0  0
  2 20  2  0  0  0  0
  2  3  1  0  0  0  0
  3  4  2  0  0  0  0
  3 24  1  0  0  0  0
  4  5  1  0  0  0  0
  4  6  1  0  0  0  0
  5 25  1  0  0  0  0
  5 26  1  0  0  0  0
  5 27  1  0  0  0  0
  6  7  1  0  0  0  0
  6 20  1  0  0  0  0
  7  8  1  0  0  0  0
  7 28  1  0  0  0  0
  7 29  1  0  0  0  0
  8  9  2  0  0  0  0
  8 10  1  0  0  0  0
 10 11  1  0  0  0  0
 10 30  1  0  0  0  0
 11 12  1  0  0  0  0
 11 13  1  0  0  0  0
 11 31  1  0  0  0  0
 12 32  1  0  0  0  0
 12 33  1  0  0  0  0
 12 34  1  0  0  0  0
 13 14  1  0  0  0  0
 13 35  1  0  0  0  0
 13 36  1  0  0  0  0
 14 19  1  0  0  0  0
 14 15  1  0  0  0  0
 14 45  1  0  0  0  0
 15 16  1  0  0  0  0
 15 37  1  0  0  0  0
 15 38  1  0  0  0  0
 16 17  1  0  0  0  0
 16 39  1  0  0  0  0
 16 40  1  0  0  0  0
 17 18  1  0  0  0  0
 18 19  1  0  0  0  0
 18 41  1  0  0  0  0
 18 42  1  0  0  0  0
 19 43  1  0  0  0  0
 19 44  1  0  0  0  0
M  CHG  1  14   1
M  END
> <s_m_source_file>
AV-unprocessed.smi

> <i_m_source_file_index>
1959

> <i_lp_mmshare_version>
43012

> <i_f3d_flags>
0

> <s_epik_input>
W0NIM11jMVtjSF1jKFtDSDNdKW4objEpW0NIMl1DKD1PKVtOSF1bQ0BIXShbQ0gzXSlbQ0gyXU4yW0NIMl1bQ0gyXU9bQ0gyXVtDSDJdMg==

> <s_epik_cmdline>
J2VwaWtfcHl0aG9uJywgJy1waCcsICc3LjAnLCAnLXRuJywgJzgnLCAnLW1hJywgJzIwMCcsICctbWV0YWxfYmluZGluZycsICctaW1hZScsICc8aW5maWxlLm1hZT4nLCAnLW9tYWUnLCAnPG91dGZpbGUubWFlPic=

> <r_lp_tautomer_probability>
1

> <r_epik_Ionization_Penalty>
0.748605

> <r_epik_Ionization_Penalty_Charging>
0.748396

> <r_epik_Ionization_Penalty_Neutral>
0.000208859

> <r_epik_State_Penalty>
0.775162

> <r_epik_Charging_Adjusted_Penalty>
1.52356

> <i_epik_Tot_Q>
1

> <i_epik_Tot_abs_Q>
1

> <r_epik_Metal_State_Penalty>
0.775281

> <b_epik_Metal_Only>
0

> <s_lp_Force_Field>
OPLS_2005

> <r_lp_Energy>
20.8934

> <b_lp_Chiralities_Consistent>
1

> <s_lp_Variant>
AV-unprocessed.smi:1959-3

> <Gold.Version>
5.8.1

> <Gold.Id.Protein>
6NUR|6NUR_protein|mol2

> <Gold.PLP.Fitness>
37.4118

> <Gold.PLP.PLP>
-26.8034

> <Gold.PLP.part.hbond>
-3.0000

> <Gold.PLP.part.metal>
0.0000

> <Gold.PLP.part.buried>
-4.2816

> <Gold.PLP.part.nonpolar>
-20.3947

> <Gold.PLP.part.repulsive>
0.1650

> <Gold.PLP.ligand.clash>
0.0000

> <Gold.PLP.ligand.torsion>
0.2729

> <Gold.PLP.Chemscore.Hbond>
3.6894

> <Gold.PLP.Chemscore.CHOScore>
0.0000

> <Gold.PLP.Chemscore.Metal>
0.0000

> <Gold.Chemscore.Hbonds>
donor molecule, donor type, donor heavy atom, donor atom, acceptor molecule, acceptor atom, score
      L1  H    14    45       P1  7948  2.00
      P1  H  6931  6943       L1    20  0.94
      P1  H  6934  6947       L1    20  0.68

> <Gold.PLP.Chemscore.Internal.Correction>
0.0859

> <Gold.Rescore>
     Score         DG    S(hbond)    S(metal)    S(lipo)     H(rot)  DE(clash)    DE(int)     intcor
     13.38     -15.64       2.24        0.00      61.82       1.77       0.42       1.84       ----

> <Gold.Chemscore.Fitness>
13.3807

> <Gold.Chemscore.DG>
-15.6413

> <Gold.Chemscore.ZeroCoef>
-5.4800

> <Gold.Chemscore.Hbond>
2.2366

> <Gold.Chemscore.Metal>
0.0000

> <Gold.Chemscore.Lipo>
61.8229

> <Gold.Chemscore.Internal_Hbond>
0.0000

> <Gold.Chemscore.DEClash>
0.4241

> <Gold.Chemscore.DEInternal>
1.8365

> <Gold.Chemscore.Rot>
1.7744

> <Gold.Chemscore.Internal.Correction>
   9.000000E+99

> <Gold.Chemscore.Hbonds>
donor molecule, donor type, donor heavy atom, donor atom, acceptor molecule, acceptor atom, score
      L1  H    14    45       P1  7948  1.00
      P1  H  6931  6943       L1    20  0.24
      P1  H  6934  6947       L1    20  0.50

> <Gold.Chemscore.Hbond.Weighted>
-7.4704

> <Gold.Chemscore.Metal.Weighted>
-0.0000

> <Gold.Chemscore.Lipo.Weighted>
-7.2333

> <Gold.Chemscore.Internal_Hbond.Weighted>
0.0000

> <Gold.Chemscore.DEClash.Weighted>
0.4241

> <Gold.Chemscore.DEInternal.Weighted>
1.8365

> <Gold.Chemscore.Rot.Weighted>
4.5424

> <Gold.Chemscore.Internal.Correction.Weighted>
   9.000000E+99

> <Gold.Protein.RotatedTorsions>
[ 6907 6896 6895 6894 ] final   79.34 input  -60.11 | X-H torsion
[ 7974 7965 7964 7962 ] final   37.21 input  175.53 | X-H torsion
[ 8008 7997 7996 7995 ] final  -46.49 input   59.86 | X-H torsion
[ 10167 10162 10161 10158 ] final   64.65 input  -65.29 | X-H torsion
[ 10718 10713 10712 10709 ] final    1.58 input   66.30 | X-H torsion
[ 10763 10752 10751 10750 ] final -114.08 input  -60.55 | X-H torsion
[ 11005 11000 10999 10996 ] final  133.50 input  -57.11 | X-H torsion

> <Gold.Protein.ActiveResidues>
 VAL166  LYS551  ARG553  GLY616  TRP617  ASP618  TYR619  PRO620  LYS621  CYS622 
 ASP623  PHE694  ASN695  SER759  ASP760  ASP761  ALA762  ILE779  LEU786  VAL792 
 PHE793  MET794  SER795  GLU796  ALA797  LYS798  CYS799  TRP800  GLU811  SER814 

> <Gold.Protein.RotatedAtoms>
  152.5195  134.3526  159.9256 H   0  0  0  0  0  0  0  0  0  0  0  0  # atno 6907 bound_to 6896
  151.3477  133.3931  159.2685 H   0  0  0  0  0  0  0  0  0  0  0  0  # atno 6908 bound_to 6896
  150.9752  134.9136  159.7869 H   0  0  0  0  0  0  0  0  0  0  0  0  # atno 6909 bound_to 6896
  146.1154  139.5922  142.9325 H   0  0  0  0  0  0  0  0  0  0  0  0  # atno 7974 bound_to 7965
  154.4008  140.1370  156.4020 H   0  0  0  0  0  0  0  0  0  0  0  0  # atno 8008 bound_to 7997
  155.7815  140.3481  155.5280 H   0  0  0  0  0  0  0  0  0  0  0  0  # atno 8009 bound_to 7997
  155.8669  140.0965  157.1567 H   0  0  0  0  0  0  0  0  0  0  0  0  # atno 8010 bound_to 7997
  140.1198  144.4741  150.6927 H   0  0  0  0  0  0  0  0  0  0  0  0  # atno 10167 bound_to 10162
  156.8502  130.5551  149.5670 H   0  0  0  0  0  0  0  0  0  0  0  0  # atno 10718 bound_to 10713
  154.8424  135.4431  154.1449 H   0  0  0  0  0  0  0  0  0  0  0  0  # atno 10763 bound_to 10752
  153.2625  135.6937  153.7570 H   0  0  0  0  0  0  0  0  0  0  0  0  # atno 10764 bound_to 10752
  153.6841  135.3398  155.3161 H   0  0  0  0  0  0  0  0  0  0  0  0  # atno 10765 bound_to 10752
  139.9856  134.9533  156.9734 H   0  0  0  0  0  0  0  0  0  0  0  0  # atno 11005 bound_to 11000
  145.5577  141.0407  143.2243 LP  0  0  0  0  0  0  0  0  0  0  0  0  # atno 17320 bound_to 7965
  144.7548  139.7101  143.7258 LP  0  0  0  0  0  0  0  0  0  0  0  0  # atno 17321 bound_to 7965
  140.6878  143.2359  151.5213 LP  0  0  0  0  0  0  0  0  0  0  0  0  # atno 17342 bound_to 10162
  139.5574  144.2240  152.1636 LP  0  0  0  0  0  0  0  0  0  0  0  0  # atno 17343 bound_to 10162
  156.0832  130.5837  150.9601 LP  0  0  0  0  0  0  0  0  0  0  0  0  # atno 17370 bound_to 10713
  157.6307  131.0921  150.8446 LP  0  0  0  0  0  0  0  0  0  0  0  0  # atno 17371 bound_to 10713
  140.5009  134.1098  155.7250 LP  0  0  0  0  0  0  0  0  0  0  0  0  # atno 17394 bound_to 11000
  141.1521  133.8949  157.2071 LP  0  0  0  0  0  0  0  0  0  0  0  0  # atno 17395 bound_to 11000

$$$$
