AV-unprocessed.smi:1|AV-procd|sdf|1|dock4
  -GOLD-   2262015 83D 1   1.00000     0.00000
 Structure written by MMmdl.
 57 62  0  0  0  0  0  0  0  0  1 V2000
  150.7274  141.9971  156.8262 O   0  0  0  0  0  0  0  0  0  0  0  0
  151.5449  141.5815  157.6477 C   0  0  0  0  0  0  0  0  0  0  0  0
  152.1758  140.2794  157.5192 N   0  0  0  0  0  0  0  0  0  0  0  0
  152.0617  139.3911  156.5040 C   0  0  0  0  0  0  0  0  0  0  0  0
  152.9552  139.3333  155.4816 N   0  0  0  0  0  0  0  0  0  0  0  0
  152.8011  138.4360  154.5041 C   0  0  0  0  0  0  0  0  0  0  0  0
  151.8438  137.5182  154.3592 N   0  0  0  0  0  0  0  0  0  0  0  0
  150.9419  137.5672  155.3816 C   0  0  0  0  0  0  0  0  0  0  0  0
  150.9832  138.4685  156.4821 C   0  0  0  0  0  0  0  0  0  0  0  0
  149.9063  138.2307  157.3255 N   0  0  0  0  0  0  0  0  0  0  0  0
  149.2645  137.2503  156.7494 C   0  0  0  0  0  0  0  0  0  0  0  0
  149.8146  136.7918  155.5729 N   0  0  0  0  0  0  0  0  0  0  0  0
  149.2949  135.6928  154.6983 C   0  0  2  0  0  0  0  0  0  0  0  0
  147.9635  135.4335  155.0294 O   0  0  0  0  0  0  0  0  0  0  0  0
  147.7988  134.0736  155.4197 C   0  0  1  0  0  0  0  0  0  0  0  0
  146.4270  133.5424  154.9843 C   0  0  0  0  0  0  0  0  0  0  0  0
  146.3094  133.5958  153.5708 O   0  0  0  0  0  0  0  0  0  0  0  0
  145.1271  133.8931  152.9989 C   0  0  0  0  0  0  0  0  0  0  0  0
  144.2525  134.5652  153.5491 O   0  0  0  0  0  0  0  0  0  0  0  0
  144.9852  133.3178  151.6302 C   0  0  0  0  0  0  0  0  0  0  0  0
  146.1396  132.8835  150.9378 C   0  0  0  0  0  0  0  0  0  0  0  0
  146.0367  132.3362  149.6441 C   0  0  0  0  0  0  0  0  0  0  0  0
  144.7778  132.2145  149.0277 C   0  0  0  0  0  0  0  0  0  0  0  0
  143.6218  132.6424  149.7062 C   0  0  0  0  0  0  0  0  0  0  0  0
  143.7227  133.1916  150.9994 C   0  0  0  0  0  0  0  0  0  0  0  0
  149.0029  133.3167  154.8496 C   0  0  2  0  0  0  0  0  0  0  0  0
  149.4107  132.2549  155.6961 O   0  0  0  0  0  0  0  0  0  0  0  0
  150.5756  132.8230  156.7526 S   0  0  0  0  0  0  0  0  0  0  0  0
  149.9576  132.9948  158.0762 O   0  0  0  0  0  0  0  0  0  0  0  0
  151.8026  132.0386  156.5471 O   0  0  0  0  0  0  0  0  0  0  0  0
  150.8017  134.3342  156.0813 O   0  0  0  0  0  0  0  0  0  0  0  0
  150.0957  134.3891  154.8524 C   0  0  2  0  0  0  0  0  0  0  0  0
  151.8789  142.3557  158.8895 C   0  0  0  0  0  0  0  0  0  0  0  0
  152.4285  141.6923  160.0099 C   0  0  0  0  0  0  0  0  0  0  0  0
  152.7292  142.4075  161.1853 C   0  0  0  0  0  0  0  0  0  0  0  0
  152.4764  143.7905  161.2536 C   0  0  0  0  0  0  0  0  0  0  0  0
  151.9183  144.4572  160.1467 C   0  0  0  0  0  0  0  0  0  0  0  0
  151.6171  143.7433  158.9703 C   0  0  0  0  0  0  0  0  0  0  0  0
  152.7874  140.0091  158.2755 H   0  0  0  0  0  0  0  0  0  0  0  0
  153.5516  138.4560  153.7278 H   0  0  0  0  0  0  0  0  0  0  0  0
  148.3601  136.8341  157.1689 H   0  0  0  0  0  0  0  0  0  0  0  0
  149.3360  136.0967  153.6861 H   0  0  0  0  0  0  0  0  0  0  0  0
  147.8471  134.0497  156.5082 H   0  0  0  0  0  0  0  0  0  0  0  0
  146.3107  132.5134  155.3277 H   0  0  0  0  0  0  0  0  0  0  0  0
  145.6310  134.1318  155.4413 H   0  0  0  0  0  0  0  0  0  0  0  0
  147.1172  132.9668  151.3906 H   0  0  0  0  0  0  0  0  0  0  0  0
  146.9254  132.0097  149.1243 H   0  0  0  0  0  0  0  0  0  0  0  0
  144.6992  131.7938  148.0360 H   0  0  0  0  0  0  0  0  0  0  0  0
  142.6550  132.5486  149.2336 H   0  0  0  0  0  0  0  0  0  0  0  0
  142.8153  133.5090  151.4921 H   0  0  0  0  0  0  0  0  0  0  0  0
  148.8223  132.9655  153.8332 H   0  0  0  0  0  0  0  0  0  0  0  0
  150.7987  134.2742  154.0270 H   0  0  0  0  0  0  0  0  0  0  0  0
  152.6273  140.6308  159.9741 H   0  0  0  0  0  0  0  0  0  0  0  0
  153.1532  141.8938  162.0354 H   0  0  0  0  0  0  0  0  0  0  0  0
  152.7060  144.3385  162.1555 H   0  0  0  0  0  0  0  0  0  0  0  0
  151.7174  145.5169  160.2006 H   0  0  0  0  0  0  0  0  0  0  0  0
  151.1802  144.2732  158.1362 H   0  0  0  0  0  0  0  0  0  0  0  0
  1  2  2  0  0  0  0
  2  3  1  0  0  0  0
  2 33  1  0  0  0  0
  3  4  1  0  0  0  0
  3 39  1  0  0  0  0
  4  9  1  0  0  0  0
  4  5  2  0  0  0  0
  5  6  1  0  0  0  0
  6  7  2  0  0  0  0
  6 40  1  0  0  0  0
  7  8  1  0  0  0  0
  8 12  1  0  0  0  0
  8  9  2  0  0  0  0
  9 10  1  0  0  0  0
 10 11  2  0  0  0  0
 11 12  1  0  0  0  0
 11 41  1  0  0  0  0
 12 13  1  0  0  0  0
 13 32  1  0  0  0  0
 13 14  1  0  0  0  0
 13 42  1  0  0  0  0
 14 15  1  0  0  0  0
 15 16  1  0  0  0  0
 15 26  1  0  0  0  0
 15 43  1  0  0  0  0
 16 17  1  0  0  0  0
 16 44  1  0  0  0  0
 16 45  1  0  0  0  0
 17 18  1  0  0  0  0
 18 19  2  0  0  0  0
 18 20  1  0  0  0  0
 20 25  1  0  0  0  0
 20 21  2  0  0  0  0
 21 22  1  0  0  0  0
 21 46  1  0  0  0  0
 22 23  2  0  0  0  0
 22 47  1  0  0  0  0
 23 24  1  0  0  0  0
 23 48  1  0  0  0  0
 24 25  2  0  0  0  0
 24 49  1  0  0  0  0
 25 50  1  0  0  0  0
 26 32  1  0  0  0  0
 26 27  1  0  0  0  0
 26 51  1  0  0  0  0
 27 28  1  0  0  0  0
 28 29  2  0  0  0  0
 28 30  2  0  0  0  0
 28 31  1  0  0  0  0
 31 32  1  0  0  0  0
 32 52  1  0  0  0  0
 33 38  1  0  0  0  0
 33 34  2  0  0  0  0
 34 35  1  0  0  0  0
 34 53  1  0  0  0  0
 35 36  2  0  0  0  0
 35 54  1  0  0  0  0
 36 37  1  0  0  0  0
 36 55  1  0  0  0  0
 37 38  2  0  0  0  0
 37 56  1  0  0  0  0
 38 57  1  0  0  0  0
M  END
> <s_m_source_file>
AV-unprocessed.smi

> <i_m_source_file_index>
1

> <i_lp_mmshare_version>
43012

> <i_f3d_flags>
0

> <s_epik_input>
W2NIXTFbY0hdW2NIXVtjSF1bY0hdYzFDKD1PKVtOSF1jKG5bY0hdbjIpYyhjMjMpbltjSF1uM1tDQEBIXShbQ0BIXShbQ0BIXTQ1KU9TKE81KSg9Tyk9TylPW0NASF00W0NIMl1PQyg9TyljNltjSF1bY0hdW2NIXVtjSF1bY0hdNg==

> <s_epik_cmdline>
J2VwaWtfcHl0aG9uJywgJy1waCcsICc3LjAnLCAnLXRuJywgJzgnLCAnLW1hJywgJzIwMCcsICctbWV0YWxfYmluZGluZycsICctaW1hZScsICc8aW5maWxlLm1hZT4nLCAnLW9tYWUnLCAnPG91dGZpbGUubWFlPic=

> <r_lp_tautomer_probability>
1

> <r_epik_Ionization_Penalty>
0.00195722

> <r_epik_Ionization_Penalty_Charging>
0

> <r_epik_Ionization_Penalty_Neutral>
0.00195722

> <r_epik_State_Penalty>
0.00633741

> <r_epik_Charging_Adjusted_Penalty>
0.00633741

> <i_epik_Tot_Q>
0

> <i_epik_Tot_abs_Q>
0

> <r_epik_Metal_State_Penalty>
0.341185

> <b_epik_Metal_Only>
0

> <s_epik_Chemistry_Notes>
This compound has an ester and may undergo hydrolysis at high or low pH. This compound contains an acetal/aminal-like group ( X-CH(R)-Y where X, Y are N, S, or O) that may be acid/base labile, releasing an aldehyde.

> <s_lp_Force_Field>
OPLS_2005

> <r_lp_Energy>
46.2159

> <b_lp_Chiralities_Consistent>
1

> <s_lp_Variant>
AV-unprocessed.smi:1-1

> <Gold.Version>
5.8.1

> <Gold.Id.Protein>
6NUR|6NUR_protein|mol2

> <Gold.PLP.Fitness>
62.3925

> <Gold.PLP.PLP>
-57.7330

> <Gold.PLP.part.hbond>
-3.0000

> <Gold.PLP.part.metal>
0.0000

> <Gold.PLP.part.buried>
-7.1772

> <Gold.PLP.part.nonpolar>
-48.3910

> <Gold.PLP.part.repulsive>
0.6161

> <Gold.PLP.ligand.clash>
0.0000

> <Gold.PLP.ligand.torsion>
2.0892

> <Gold.PLP.Chemscore.Hbond>
2.8219

> <Gold.PLP.Chemscore.CHOScore>
0.0000

> <Gold.PLP.Chemscore.Metal>
0.0000

> <Gold.Chemscore.Hbonds>
donor molecule, donor type, donor heavy atom, donor atom, acceptor molecule, acceptor atom, score
      P1  H  6896  6909       L1    29  1.00
      P1  H  7997  8009       L1     5  1.00
      P1  H 10752 10765       L1     7  0.63

> <Gold.PLP.Chemscore.Internal.Correction>
0.3721

> <Gold.Rescore>
     Score         DG    S(hbond)    S(metal)    S(lipo)     H(rot)  DE(clash)    DE(int)     intcor
     21.32     -23.75       2.28        0.00     137.81       2.13       0.77       1.66       ----

> <Gold.Chemscore.Fitness>
21.3205

> <Gold.Chemscore.DG>
-23.7498

> <Gold.Chemscore.ZeroCoef>
-5.4800

> <Gold.Chemscore.Hbond>
2.2776

> <Gold.Chemscore.Metal>
0.0000

> <Gold.Chemscore.Lipo>
137.8121

> <Gold.Chemscore.Internal_Hbond>
0.0000

> <Gold.Chemscore.DEClash>
0.7658

> <Gold.Chemscore.DEInternal>
1.6635

> <Gold.Chemscore.Rot>
2.1333

> <Gold.Chemscore.Internal.Correction>
   9.000000E+99

> <Gold.Chemscore.Hbonds>
donor molecule, donor type, donor heavy atom, donor atom, acceptor molecule, acceptor atom, score
      P1  H  6896  6909       L1    29  0.95
      P1  H  7997  8009       L1     5  0.81
      P1  H 10752 10765       L1     7  0.20

> <Gold.Chemscore.Hbond.Weighted>
-7.6071

> <Gold.Chemscore.Metal.Weighted>
-0.0000

> <Gold.Chemscore.Lipo.Weighted>
-16.1240

> <Gold.Chemscore.Internal_Hbond.Weighted>
0.0000

> <Gold.Chemscore.DEClash.Weighted>
0.7658

> <Gold.Chemscore.DEInternal.Weighted>
1.6635

> <Gold.Chemscore.Rot.Weighted>
5.4614

> <Gold.Chemscore.Internal.Correction.Weighted>
   9.000000E+99

> <Gold.Protein.RotatedTorsions>
[ 6907 6896 6895 6894 ] final    7.98 input  -60.11 | X-H torsion
[ 7974 7965 7964 7962 ] final    9.74 input  175.53 | X-H torsion
[ 8008 7997 7996 7995 ] final -133.16 input   59.86 | X-H torsion
[ 10167 10162 10161 10158 ] final  -47.48 input  -65.29 | X-H torsion
[ 10718 10713 10712 10709 ] final   93.70 input   66.30 | X-H torsion
[ 10763 10752 10751 10750 ] final  150.88 input  -60.55 | X-H torsion
[ 11005 11000 10999 10996 ] final    1.95 input  -57.11 | X-H torsion

> <Gold.Protein.ActiveResidues>
 VAL166  LYS551  ARG553  GLY616  TRP617  ASP618  TYR619  PRO620  LYS621  CYS622 
 ASP623  PHE694  ASN695  SER759  ASP760  ASP761  ALA762  ILE779  LEU786  VAL792 
 PHE793  MET794  SER795  GLU796  ALA797  LYS798  CYS799  TRP800  GLU811  SER814 

> <Gold.Protein.RotatedAtoms>
  151.6987  135.0934  160.0246 H   0  0  0  0  0  0  0  0  0  0  0  0  # atno 6907 bound_to 6896
  152.3734  133.6444  159.6113 H   0  0  0  0  0  0  0  0  0  0  0  0  # atno 6908 bound_to 6896
  150.7690  133.9150  159.3422 H   0  0  0  0  0  0  0  0  0  0  0  0  # atno 6909 bound_to 6896
  146.2399  139.9738  142.8444 H   0  0  0  0  0  0  0  0  0  0  0  0  # atno 7974 bound_to 7965
  155.3409  140.0472  157.3045 H   0  0  0  0  0  0  0  0  0  0  0  0  # atno 8008 bound_to 7997
  154.5278  140.2247  155.8824 H   0  0  0  0  0  0  0  0  0  0  0  0  # atno 8009 bound_to 7997
  156.1757  140.3085  155.9061 H   0  0  0  0  0  0  0  0  0  0  0  0  # atno 8010 bound_to 7997
  140.6773  143.2782  151.3933 H   0  0  0  0  0  0  0  0  0  0  0  0  # atno 10167 bound_to 10162
  157.6953  131.0487  150.4074 H   0  0  0  0  0  0  0  0  0  0  0  0  # atno 10718 bound_to 10713
  154.0947  135.2850  155.3264 H   0  0  0  0  0  0  0  0  0  0  0  0  # atno 10763 bound_to 10752
  154.6596  135.5339  153.8005 H   0  0  0  0  0  0  0  0  0  0  0  0  # atno 10764 bound_to 10752
  153.0401  135.6530  154.1114 H   0  0  0  0  0  0  0  0  0  0  0  0  # atno 10765 bound_to 10752
  140.6097  133.9760  155.8171 H   0  0  0  0  0  0  0  0  0  0  0  0  # atno 11005 bound_to 11000
  145.1656  140.9695  143.4352 LP  0  0  0  0  0  0  0  0  0  0  0  0  # atno 17320 bound_to 7965
  145.0076  139.3540  143.6136 LP  0  0  0  0  0  0  0  0  0  0  0  0  # atno 17321 bound_to 7965
  139.6073  144.1171  152.2262 LP  0  0  0  0  0  0  0  0  0  0  0  0  # atno 17342 bound_to 10162
  140.0574  144.5884  150.7289 LP  0  0  0  0  0  0  0  0  0  0  0  0  # atno 17343 bound_to 10162
  156.4461  130.4002  149.6666 LP  0  0  0  0  0  0  0  0  0  0  0  0  # atno 17370 bound_to 10713
  156.3832  130.7589  151.2584 LP  0  0  0  0  0  0  0  0  0  0  0  0  # atno 17371 bound_to 10713
  141.0816  134.0053  157.3376 LP  0  0  0  0  0  0  0  0  0  0  0  0  # atno 17394 bound_to 11000
  139.9197  135.0199  156.8019 LP  0  0  0  0  0  0  0  0  0  0  0  0  # atno 17395 bound_to 11000

$$$$
