AV-unprocessed.smi:2525|AV-procd|sdf|9929|dock3
  -GOLD-   2272013573D 1   1.00000     0.00000
 Structure written by MMmdl.
 44 45  0  0  0  0  0  0  0  0  1 V2000
  153.1351  144.7834  157.8743 C   0  0  0  0  0  0  0  0  0  0  0  0
  151.8152  144.0507  157.5801 C   0  0  0  0  0  0  0  0  0  0  0  0
  151.4392  142.9439  158.5967 C   0  0  0  0  0  0  0  0  0  0  0  0
  149.9841  142.4857  158.3335 C   0  0  0  0  0  0  0  0  0  0  0  0
  149.7398  141.8583  156.9520 C   0  0  0  0  0  0  0  0  0  0  0  0
  152.5350  141.8453  158.7386 C   0  0  2  0  0  0  0  0  0  0  0  0
  152.0220  140.5313  159.1254 N   0  0  0  0  0  0  0  0  0  0  0  0
  152.5210  139.3577  158.7095 C   0  0  0  0  0  0  0  0  0  0  0  0
  153.4507  139.2626  157.9090 O   0  0  0  0  0  0  0  0  0  0  0  0
  151.8627  138.0963  159.2740 C   0  0  0  0  0  0  0  0  0  0  0  0
  152.8091  137.2887  160.0250 N   0  0  0  0  0  0  0  0  0  0  0  0
  153.4671  137.6016  161.1974 C   0  0  0  0  0  0  0  0  0  0  0  0
  154.2348  136.4977  161.4349 C   0  0  0  0  0  0  0  0  0  0  0  0
  154.0148  135.5728  160.4159 N   0  0  0  0  0  0  0  0  0  0  0  0
  153.1564  136.0587  159.5752 N   0  0  0  0  0  0  0  0  0  0  0  0
  153.1226  142.6008  159.9445 C   0  0  2  0  0  0  0  0  0  0  0  0
  153.7185  141.8346  161.1240 C   0  0  0  0  0  0  0  0  0  0  0  0
  151.7489  143.2739  160.0789 C   0  0  1  0  0  0  0  0  0  0  0  0
  151.7846  144.6700  160.3376 O   0  0  0  0  0  0  0  0  0  0  0  0
  150.5688  145.3263  160.0247 C   0  0  0  0  0  0  0  0  0  0  0  0
  153.2694  145.6179  157.1862 H   0  0  0  0  0  0  0  0  0  0  0  0
  153.9979  144.1289  157.7553 H   0  0  0  0  0  0  0  0  0  0  0  0
  153.1552  145.1866  158.8867 H   0  0  0  0  0  0  0  0  0  0  0  0
  151.0289  144.8052  157.5507 H   0  0  0  0  0  0  0  0  0  0  0  0
  151.8448  143.6546  156.5654 H   0  0  0  0  0  0  0  0  0  0  0  0
  149.6448  141.8015  159.1110 H   0  0  0  0  0  0  0  0  0  0  0  0
  149.3099  143.3393  158.4031 H   0  0  0  0  0  0  0  0  0  0  0  0
  148.6748  141.6876  156.7935 H   0  0  0  0  0  0  0  0  0  0  0  0
  150.2358  140.8937  156.8489 H   0  0  0  0  0  0  0  0  0  0  0  0
  150.0924  142.5092  156.1518 H   0  0  0  0  0  0  0  0  0  0  0  0
  153.2388  141.8074  157.9057 H   0  0  0  0  0  0  0  0  0  0  0  0
  151.2541  140.5153  159.7807 H   0  0  0  0  0  0  0  0  0  0  0  0
  151.0384  138.3786  159.9299 H   0  0  0  0  0  0  0  0  0  0  0  0
  151.4412  137.4956  158.4662 H   0  0  0  0  0  0  0  0  0  0  0  0
  153.3407  138.5336  161.7281 H   0  0  0  0  0  0  0  0  0  0  0  0
  154.9205  136.2939  162.2442 H   0  0  0  0  0  0  0  0  0  0  0  0
  153.8445  143.3294  159.5720 H   0  0  0  0  0  0  0  0  0  0  0  0
  152.9688  141.2289  161.6338 H   0  0  0  0  0  0  0  0  0  0  0  0
  154.1457  142.5128  161.8619 H   0  0  0  0  0  0  0  0  0  0  0  0
  154.5152  141.1667  160.7958 H   0  0  0  0  0  0  0  0  0  0  0  0
  151.0867  142.7358  160.7610 H   0  0  0  0  0  0  0  0  0  0  0  0
  150.6740  146.3953  160.2099 H   0  0  0  0  0  0  0  0  0  0  0  0
  149.7486  144.9611  160.6423 H   0  0  0  0  0  0  0  0  0  0  0  0
  150.3058  145.1916  158.9748 H   0  0  0  0  0  0  0  0  0  0  0  0
  1  2  1  0  0  0  0
  1 21  1  0  0  0  0
  1 22  1  0  0  0  0
  1 23  1  0  0  0  0
  2  3  1  0  0  0  0
  2 24  1  0  0  0  0
  2 25  1  0  0  0  0
  3 18  1  0  0  0  0
  3  4  1  0  0  0  0
  3  6  1  0  0  0  0
  4  5  1  0  0  0  0
  4 26  1  0  0  0  0
  4 27  1  0  0  0  0
  5 28  1  0  0  0  0
  5 29  1  0  0  0  0
  5 30  1  0  0  0  0
  6  7  1  0  0  0  0
  6 16  1  0  0  0  0
  6 31  1  0  0  0  0
  7  8  1  0  0  0  0
  7 32  1  0  0  0  0
  8  9  2  0  0  0  0
  8 10  1  0  0  0  0
 10 11  1  0  0  0  0
 10 33  1  0  0  0  0
 10 34  1  0  0  0  0
 11 15  1  0  0  0  0
 11 12  1  0  0  0  0
 12 13  2  0  0  0  0
 12 35  1  0  0  0  0
 13 14  1  0  0  0  0
 13 36  1  0  0  0  0
 14 15  2  0  0  0  0
 16 17  1  0  0  0  0
 16 18  1  0  0  0  0
 16 37  1  0  0  0  0
 17 38  1  0  0  0  0
 17 39  1  0  0  0  0
 17 40  1  0  0  0  0
 18 19  1  0  0  0  0
 18 41  1  0  0  0  0
 19 20  1  0  0  0  0
 20 42  1  0  0  0  0
 20 43  1  0  0  0  0
 20 44  1  0  0  0  0
M  END
> <s_m_source_file>
AV-unprocessed.smi

> <i_m_source_file_index>
2525

> <i_lp_mmshare_version>
43012

> <i_f3d_flags>
0

> <s_epik_input>
W0NIM11PW0NAQEhdMVtDQEhdKFtDSDNdKVtDQEBIXShDMShbQ0gyXVtDSDNdKVtDSDJdW0NIM10pW05IXUMoPU8pW0NIMl1uMltjSF1bY0hdbm4y

> <s_epik_cmdline>
J2VwaWtfcHl0aG9uJywgJy1waCcsICc3LjAnLCAnLXRuJywgJzgnLCAnLW1hJywgJzIwMCcsICctbWV0YWxfYmluZGluZycsICctaW1hZScsICc8aW5maWxlLm1hZT4nLCAnLW9tYWUnLCAnPG91dGZpbGUubWFlPic=

> <r_lp_tautomer_probability>
1

> <r_epik_Ionization_Penalty>
1.18045e-06

> <r_epik_Ionization_Penalty_Charging>
0

> <r_epik_Ionization_Penalty_Neutral>
1.18045e-06

> <r_epik_State_Penalty>
-0

> <r_epik_Charging_Adjusted_Penalty>
0

> <i_epik_Tot_Q>
0

> <i_epik_Tot_abs_Q>
0

> <r_epik_Metal_State_Penalty>
-0

> <b_epik_Metal_Only>
0

> <s_lp_Force_Field>
OPLS_2005

> <r_lp_Energy>
27.9477

> <b_lp_Chiralities_Consistent>
1

> <s_lp_Variant>
AV-unprocessed.smi:2525-4

> <Gold.Version>
5.8.1

> <Gold.Id.Protein>
6NUR|6NUR_protein|mol2

> <Gold.PLP.Fitness>
45.8931

> <Gold.PLP.PLP>
-40.2853

> <Gold.PLP.part.hbond>
-2.4265

> <Gold.PLP.part.metal>
0.0000

> <Gold.PLP.part.buried>
-6.3168

> <Gold.PLP.part.nonpolar>
-31.4944

> <Gold.PLP.part.repulsive>
0.2472

> <Gold.PLP.ligand.clash>
0.0000

> <Gold.PLP.ligand.torsion>
0.5026

> <Gold.PLP.Chemscore.Hbond>
2.0000

> <Gold.PLP.Chemscore.CHOScore>
0.0000

> <Gold.PLP.Chemscore.Metal>
0.0000

> <Gold.Chemscore.Hbonds>
donor molecule, donor type, donor heavy atom, donor atom, acceptor molecule, acceptor atom, score
      P1  H  6896  6908       L1    15  0.50
      P1  H  7997  8009       L1     9  1.00

> <Gold.PLP.Chemscore.Internal.Correction>
0.6130

> <Gold.Rescore>
     Score         DG    S(hbond)    S(metal)    S(lipo)     H(rot)  DE(clash)    DE(int)     intcor
     17.82     -20.82       1.89        0.00     120.45       1.98       0.13       2.87       ----

> <Gold.Chemscore.Fitness>
17.8225

> <Gold.Chemscore.DG>
-20.8229

> <Gold.Chemscore.ZeroCoef>
-5.4800

> <Gold.Chemscore.Hbond>
1.8931

> <Gold.Chemscore.Metal>
0.0000

> <Gold.Chemscore.Lipo>
120.4523

> <Gold.Chemscore.Internal_Hbond>
0.0000

> <Gold.Chemscore.DEClash>
0.1296

> <Gold.Chemscore.DEInternal>
2.8708

> <Gold.Chemscore.Rot>
1.9817

> <Gold.Chemscore.Internal.Correction>
   9.000000E+99

> <Gold.Chemscore.Hbonds>
donor molecule, donor type, donor heavy atom, donor atom, acceptor molecule, acceptor atom, score
      P1  H  6896  6908       L1    15  0.02
      P1  H  7997  8009       L1     9  1.00

> <Gold.Chemscore.Hbond.Weighted>
-6.3230

> <Gold.Chemscore.Metal.Weighted>
-0.0000

> <Gold.Chemscore.Lipo.Weighted>
-14.0929

> <Gold.Chemscore.Internal_Hbond.Weighted>
0.0000

> <Gold.Chemscore.DEClash.Weighted>
0.1296

> <Gold.Chemscore.DEInternal.Weighted>
2.8708

> <Gold.Chemscore.Rot.Weighted>
5.0731

> <Gold.Chemscore.Internal.Correction.Weighted>
   9.000000E+99

> <Gold.Protein.RotatedTorsions>
[ 6907 6896 6895 6894 ] final  -88.93 input  -60.11 | X-H torsion
[ 7974 7965 7964 7962 ] final -100.42 input  175.53 | X-H torsion
[ 8008 7997 7996 7995 ] final  145.10 input   59.86 | X-H torsion
[ 10167 10162 10161 10158 ] final   14.17 input  -65.29 | X-H torsion
[ 10718 10713 10712 10709 ] final -123.11 input   66.30 | X-H torsion
[ 10763 10752 10751 10750 ] final  -86.89 input  -60.55 | X-H torsion
[ 11005 11000 10999 10996 ] final   32.03 input  -57.11 | X-H torsion

> <Gold.Protein.ActiveResidues>
 VAL166  LYS551  ARG553  GLY616  TRP617  ASP618  TYR619  PRO620  LYS621  CYS622 
 ASP623  PHE694  ASN695  SER759  ASP760  ASP761  ALA762  ILE779  LEU786  VAL792 
 PHE793  MET794  SER795  GLU796  ALA797  LYS798  CYS799  TRP800  GLU811  SER814 

> <Gold.Protein.RotatedAtoms>
  150.6871  134.2665  159.4570 H   0  0  0  0  0  0  0  0  0  0  0  0  # atno 6907 bound_to 6896
  152.0591  134.9603  160.0584 H   0  0  0  0  0  0  0  0  0  0  0  0  # atno 6908 bound_to 6896
  152.1037  133.4229  159.4636 H   0  0  0  0  0  0  0  0  0  0  0  0  # atno 6909 bound_to 6896
  145.2948  140.9362  143.2857 H   0  0  0  0  0  0  0  0  0  0  0  0  # atno 7974 bound_to 7965
  156.2892  140.2218  156.5161 H   0  0  0  0  0  0  0  0  0  0  0  0  # atno 8008 bound_to 7997
  154.7568  140.0476  157.0961 H   0  0  0  0  0  0  0  0  0  0  0  0  # atno 8009 bound_to 7997
  155.0041  140.3105  155.4859 H   0  0  0  0  0  0  0  0  0  0  0  0  # atno 8010 bound_to 7997
  140.5953  143.8713  150.6912 H   0  0  0  0  0  0  0  0  0  0  0  0  # atno 10167 bound_to 10162
  156.1475  130.6510  150.9864 H   0  0  0  0  0  0  0  0  0  0  0  0  # atno 10718 bound_to 10713
  154.6275  135.5433  153.7643 H   0  0  0  0  0  0  0  0  0  0  0  0  # atno 10763 bound_to 10752
  153.0268  135.6428  154.1350 H   0  0  0  0  0  0  0  0  0  0  0  0  # atno 10764 bound_to 10752
  154.1282  135.2916  155.3172 H   0  0  0  0  0  0  0  0  0  0  0  0  # atno 10765 bound_to 10752
  140.2777  134.3009  155.7809 H   0  0  0  0  0  0  0  0  0  0  0  0  # atno 11005 bound_to 11000
  144.9143  139.4490  143.6572 LP  0  0  0  0  0  0  0  0  0  0  0  0  # atno 17320 bound_to 7965
  146.3172  139.7968  142.8974 LP  0  0  0  0  0  0  0  0  0  0  0  0  # atno 17321 bound_to 7965
  140.2246  143.3782  152.1615 LP  0  0  0  0  0  0  0  0  0  0  0  0  # atno 17342 bound_to 10162
  139.5254  144.7096  151.5248 LP  0  0  0  0  0  0  0  0  0  0  0  0  # atno 17343 bound_to 10162
  157.6629  131.0877  150.7797 LP  0  0  0  0  0  0  0  0  0  0  0  0  # atno 17370 bound_to 10713
  156.7867  130.4877  149.5391 LP  0  0  0  0  0  0  0  0  0  0  0  0  # atno 17371 bound_to 10713
  141.2168  133.7506  156.9432 LP  0  0  0  0  0  0  0  0  0  0  0  0  # atno 17394 bound_to 11000
  140.1313  134.9354  157.2341 LP  0  0  0  0  0  0  0  0  0  0  0  0  # atno 17395 bound_to 11000

$$$$
