#       Name:                AV-unprocessed.smi:288
#       Creating user name   scv26
#       Creation time:       Thu Mar 26 22:04:42 2020


#       File generated by GOLD software.
#

@<TRIPOS>MOLECULE
AV-unprocessed.smi:288
    41    42     1
SMALL
NO_CHARGES


@<TRIPOS>ATOM
      1 ****         0.1242  -0.4831   3.5117 O.2            1 S1                 0.0000
      2 ****        -0.0345  -0.0446   2.3712 C.2            1 S1                 0.0000
      3 ****        -0.5341   1.2973   2.0906 C.2            1 S1                 0.0000
      4 ****        -0.8672   2.1080   3.1093 F              1 S1                 0.0000
      5 ****        -0.6669   1.7423   0.8222 C.2            1 S1                 0.0000
      6 ****        -0.3440   0.9748  -0.2854 N.am           1 S1                 0.0000
      7 ****        -0.4915   1.4992  -1.6979 C.3            1 S1                 0.0000
      8 ****        -1.7272   0.8810  -2.3775 C.3            1 S1                 0.0000
      9 ****        -2.4470   2.0958  -2.9272 C.3            1 S1                 0.0000
     10 ****        -2.0545   3.1721  -1.9264 C.3            1 S1                 0.0000
     11 ****        -0.6852   2.8851  -1.6735 O.3            1 S1                 0.0000
     12 ****         0.1478  -0.3364  -0.1076 C.2            1 S1                 0.0000
     13 ****         0.4614  -1.0298  -1.0783 O.2            1 S1                 0.0000
     14 ****         0.2709  -0.8105   1.2199 N.am           1 S1                 0.0000
     15 ****         0.7795  -2.1587   1.4125 C.3            1 S1                 0.0000
     16 ****         2.3230  -2.2375   1.4026 C.3            1 S1                 0.0000
     17 ****         2.7943  -2.0296   2.7203 O.3            1 S1                 0.0000
     18 ****         2.8382  -3.6098   0.9262 C.3            1 S1                 0.0000
     19 ****         4.1708  -3.6394   0.9614 F              1 S1                 0.0000
     20 ****         2.3486  -4.5937   1.6820 F              1 S1                 0.0000
     21 ****         2.4582  -3.8129  -0.3355 F              1 S1                 0.0000
     22 ****        -1.0396   2.7460   0.6886 H              1 S1                 0.0000
     23 ****         0.4525   1.2781  -2.1991 H              1 S1                 0.0000
     24 ****        -1.4350   0.1659  -3.1470 H              1 S1                 0.0000
     25 ****        -2.3499   0.3739  -1.6385 H              1 S1                 0.0000
     26 ****        -2.0611   2.3459  -3.9163 H              1 S1                 0.0000
     27 ****        -3.5256   1.9562  -3.0038 H              1 S1                 0.0000
     28 ****        -2.1878   4.1812  -2.3163 H              1 S1                 0.0000
     29 ****        -2.6354   3.0772  -1.0079 H              1 S1                 0.0000
     30 ****         0.3454  -2.5746   2.3234 H              1 S1                 0.0000
     31 ****         0.3466  -2.7655   0.6157 H              1 S1                 0.0000
     32 ****         2.7424  -1.4642   0.7575 H              1 S1                 0.0000
     33 ****         2.4838  -1.1895   3.0220 H              1 S1                 0.0000
     34 ****         0.4793  -1.4081   3.6469 LP             1 S1                 0.0000
     35 ****        -0.1022   0.0860   4.3022 LP             1 S1                 0.0000
     36 ****        -0.1185   3.3141  -2.3768 LP             1 S1                 0.0000
     37 ****        -0.4293   3.2425  -0.7753 LP             1 S1                 0.0000
     38 ****         0.3684  -0.6646  -2.0045 LP             1 S1                 0.0000
     39 ****         0.8085  -1.9572  -0.9390 LP             1 S1                 0.0000
     40 ****         3.7942  -2.0414   2.7264 LP             1 S1                 0.0000
     41 ****         2.4488  -2.7517   3.3197 LP             1 S1                 0.0000
@<TRIPOS>BOND
    1    1    2 2     
    2    2   14 am    
    3    2    3 1     
    4    3    4 1     
    5    3    5 2     
    6    5    6 1     
    7    5   22 1     
    8    6    7 1     
    9    6   12 am    
   10    7   11 1     
   11    7    8 1     
   12    7   23 1     
   13    8    9 1     
   14    8   24 1     
   15    8   25 1     
   16    9   10 1     
   17    9   26 1     
   18    9   27 1     
   19   10   11 1     
   20   10   28 1     
   21   10   29 1     
   22   12   13 2     
   23   12   14 am    
   24   14   15 1     
   25   15   16 1     
   26   15   30 1     
   27   15   31 1     
   28   16   17 1     
   29   16   18 1     
   30   16   32 1     
   31   17   33 1     
   32   18   19 1     
   33   18   20 1     
   34   18   21 1     
   35    1   34 1     
   36    1   35 1     
   37   11   36 1     
   38   11   37 1     
   39   13   38 1     
   40   13   39 1     
   41   17   40 1     
   42   17   41 1     
@<TRIPOS>SUBSTRUCTURE
      1 S1             1
@<TRIPOS>SET
LONE_PAIRS      STATIC     ATOMS    <user>   **** ""
8 34 35 36 37 38 39 40 41
DONOR_HYDROGENS      STATIC     ATOMS    <user>   **** ""
1 33
ATOM$BLUE        STATIC     ATOMS    COLORGROUP SYSTEM
8 34 35 36 37 38 39 40 41
ATOM$RED        STATIC     ATOMS    COLORGROUP SYSTEM
1 33
