AV-unprocessed.smi:1662|AV-procd|sdf|6662|dock7
  -GOLD-   22720 7373D 1   1.00000     0.00000
 Structure written by MMmdl.
 47 48  0  0  0  0  0  0  0  0  1 V2000
  146.9157  139.3594  154.4504 C   0  0  0  0  0  0  0  0  0  0  0  0
  148.2115  138.6444  154.7236 C   0  0  0  0  0  0  0  0  0  0  0  0
  148.1494  137.3598  154.8526 N   0  0  0  0  0  0  0  0  0  0  0  0
  149.2791  136.6076  155.1100 N   0  0  0  0  0  0  0  0  0  0  0  0
  149.0226  135.1671  155.2530 C   0  0  0  0  0  0  0  0  0  0  0  0
  147.6126  134.7642  154.7991 C   0  0  0  0  0  0  0  0  0  0  0  0
  146.7844  134.3573  155.6151 O   0  0  0  0  0  0  0  0  0  0  0  0
  147.3534  134.9009  153.4900 N   0  0  0  0  0  0  0  0  0  0  0  0
  146.0960  134.5505  152.8323 C   0  0  1  0  0  0  0  0  0  0  0  0
  145.5138  135.8047  152.1536 C   0  0  0  0  0  0  0  0  0  0  0  0
  144.2139  135.4822  151.4112 C   0  0  0  0  0  0  0  0  0  0  0  0
  144.4414  134.3680  150.3838 C   0  0  0  0  0  0  0  0  0  0  0  0
  145.0040  133.0896  151.0371 C   0  0  1  0  0  0  0  0  0  0  0  0
  145.1787  131.9982  149.9650 C   0  0  0  0  0  0  0  0  0  0  0  0
  146.3125  133.3909  151.8224 C   0  0  2  0  0  0  0  0  0  0  0  0
  146.8629  132.1335  152.5316 C   0  0  0  0  0  0  0  0  0  0  0  0
  150.5391  137.1160  155.2353 C   0  0  0  0  0  0  0  0  0  0  0  0
  151.5219  136.4049  155.4525 O   0  0  0  0  0  0  0  0  0  0  0  0
  150.6015  138.5719  155.0895 C   0  0  0  0  0  0  0  0  0  0  0  0
  151.9013  139.1464  155.2233 C   0  0  0  0  0  0  0  0  0  0  0  0
  152.9534  139.6119  155.3517 N   0  0  0  0  0  0  0  0  0  0  0  0
  149.4980  139.3225  154.8463 C   0  0  0  0  0  0  0  0  0  0  0  0
  149.5094  140.8366  154.6870 C   0  0  0  0  0  0  0  0  0  0  0  0
  146.9850  139.9555  153.5402 H   0  0  0  0  0  0  0  0  0  0  0  0
  146.6632  140.0272  155.2741 H   0  0  0  0  0  0  0  0  0  0  0  0
  146.0852  138.6630  154.3240 H   0  0  0  0  0  0  0  0  0  0  0  0
  149.7417  134.5919  154.6670 H   0  0  0  0  0  0  0  0  0  0  0  0
  149.1813  134.8644  156.2901 H   0  0  0  0  0  0  0  0  0  0  0  0
  148.0916  135.2516  152.8968 H   0  0  0  0  0  0  0  0  0  0  0  0
  145.3825  134.2053  153.5834 H   0  0  0  0  0  0  0  0  0  0  0  0
  145.3244  136.5809  152.8962 H   0  0  0  0  0  0  0  0  0  0  0  0
  146.2396  136.2188  151.4520 H   0  0  0  0  0  0  0  0  0  0  0  0
  143.4470  135.1772  152.1242 H   0  0  0  0  0  0  0  0  0  0  0  0
  143.8381  136.3766  150.9135 H   0  0  0  0  0  0  0  0  0  0  0  0
  143.4992  134.1468  149.8808 H   0  0  0  0  0  0  0  0  0  0  0  0
  145.1268  134.7206  149.6118 H   0  0  0  0  0  0  0  0  0  0  0  0
  144.2593  132.7307  151.7493 H   0  0  0  0  0  0  0  0  0  0  0  0
  145.9771  132.2513  149.2670 H   0  0  0  0  0  0  0  0  0  0  0  0
  144.2632  131.8684  149.3871 H   0  0  0  0  0  0  0  0  0  0  0  0
  145.4098  131.0285  150.4046 H   0  0  0  0  0  0  0  0  0  0  0  0
  147.0647  133.7152  151.1012 H   0  0  0  0  0  0  0  0  0  0  0  0
  146.1310  131.7207  153.2263 H   0  0  0  0  0  0  0  0  0  0  0  0
  147.7693  132.3470  153.0980 H   0  0  0  0  0  0  0  0  0  0  0  0
  147.1279  131.3514  151.8214 H   0  0  0  0  0  0  0  0  0  0  0  0
  150.4964  141.2630  154.8641 H   0  0  0  0  0  0  0  0  0  0  0  0
  148.8224  141.3032  155.3936 H   0  0  0  0  0  0  0  0  0  0  0  0
  149.2064  141.1152  153.6771 H   0  0  0  0  0  0  0  0  0  0  0  0
  1  2  1  0  0  0  0
  1 24  1  0  0  0  0
  1 25  1  0  0  0  0
  1 26  1  0  0  0  0
  2 22  1  0  0  0  0
  2  3  2  0  0  0  0
  3  4  1  0  0  0  0
  4  5  1  0  0  0  0
  4 17  1  0  0  0  0
  5  6  1  0  0  0  0
  5 27  1  0  0  0  0
  5 28  1  0  0  0  0
  6  7  2  0  0  0  0
  6  8  1  0  0  0  0
  8  9  1  0  0  0  0
  8 29  1  0  0  0  0
  9 15  1  0  0  0  0
  9 10  1  0  0  0  0
  9 30  1  0  0  0  0
 10 11  1  0  0  0  0
 10 31  1  0  0  0  0
 10 32  1  0  0  0  0
 11 12  1  0  0  0  0
 11 33  1  0  0  0  0
 11 34  1  0  0  0  0
 12 13  1  0  0  0  0
 12 35  1  0  0  0  0
 12 36  1  0  0  0  0
 13 14  1  0  0  0  0
 13 15  1  0  0  0  0
 13 37  1  0  0  0  0
 14 38  1  0  0  0  0
 14 39  1  0  0  0  0
 14 40  1  0  0  0  0
 15 16  1  0  0  0  0
 15 41  1  0  0  0  0
 16 42  1  0  0  0  0
 16 43  1  0  0  0  0
 16 44  1  0  0  0  0
 17 18  2  0  0  0  0
 17 19  1  0  0  0  0
 19 20  1  0  0  0  0
 19 22  2  0  0  0  0
 20 21  3  0  0  0  0
 22 23  1  0  0  0  0
 23 45  1  0  0  0  0
 23 46  1  0  0  0  0
 23 47  1  0  0  0  0
M  END
> <s_m_source_file>
AV-unprocessed.smi

> <i_m_source_file_index>
1662

> <i_lp_mmshare_version>
43012

> <i_f3d_flags>
0

> <s_epik_input>
TiNDYyhjMVtDSDNdKWMoPU8pbihuYzFbQ0gzXSlbQ0gyXUMoPU8pW05IXVtDQEBIXTJbQ0gyXVtDSDJdW0NIMl1bQ0BASF0oW0NIM10pW0NASF0yW0NIM10=

> <s_epik_cmdline>
J2VwaWtfcHl0aG9uJywgJy1waCcsICc3LjAnLCAnLXRuJywgJzgnLCAnLW1hJywgJzIwMCcsICctbWV0YWxfYmluZGluZycsICctaW1hZScsICc8aW5maWxlLm1hZT4nLCAnLW9tYWUnLCAnPG91dGZpbGUubWFlPic=

> <r_lp_tautomer_probability>
1

> <r_epik_Ionization_Penalty>
1.90709e-08

> <r_epik_Ionization_Penalty_Charging>
2.37982e-11

> <r_epik_Ionization_Penalty_Neutral>
1.90471e-08

> <r_epik_State_Penalty>
-0

> <r_epik_Charging_Adjusted_Penalty>
2.37982e-11

> <i_epik_Tot_Q>
0

> <i_epik_Tot_abs_Q>
0

> <r_epik_Metal_State_Penalty>
-0

> <b_epik_Metal_Only>
0

> <s_lp_Force_Field>
OPLS_2005

> <r_lp_Energy>
26.9998

> <b_lp_Chiralities_Consistent>
1

> <s_lp_Variant>
AV-unprocessed.smi:1662-6

> <Gold.Version>
5.8.1

> <Gold.Id.Protein>
6NUR|6NUR_protein|mol2

> <Gold.PLP.Fitness>
45.2710

> <Gold.PLP.PLP>
-36.6288

> <Gold.PLP.part.hbond>
-3.6768

> <Gold.PLP.part.metal>
0.0000

> <Gold.PLP.part.buried>
-2.5294

> <Gold.PLP.part.nonpolar>
-31.0917

> <Gold.PLP.part.repulsive>
0.2667

> <Gold.PLP.ligand.clash>
0.0000

> <Gold.PLP.ligand.torsion>
0.1836

> <Gold.PLP.Chemscore.Hbond>
3.0000

> <Gold.PLP.Chemscore.CHOScore>
0.0000

> <Gold.PLP.Chemscore.Metal>
0.0000

> <Gold.Chemscore.Hbonds>
donor molecule, donor type, donor heavy atom, donor atom, acceptor molecule, acceptor atom, score
      L1  H     8    29       P1  7948  1.00
      P1  H  7997  8008       L1    21  1.00
      P1  H 10752 10763       L1    18  1.00

> <Gold.PLP.Chemscore.Internal.Correction>
0.0094

> <Gold.Rescore>
     Score         DG    S(hbond)    S(metal)    S(lipo)     H(rot)  DE(clash)    DE(int)     intcor
     20.55     -20.76       2.96        0.00      77.95       1.45       0.03       0.18       ----

> <Gold.Chemscore.Fitness>
20.5501

> <Gold.Chemscore.DG>
-20.7615

> <Gold.Chemscore.ZeroCoef>
-5.4800

> <Gold.Chemscore.Hbond>
2.9565

> <Gold.Chemscore.Metal>
0.0000

> <Gold.Chemscore.Lipo>
77.9477

> <Gold.Chemscore.Internal_Hbond>
0.0000

> <Gold.Chemscore.DEClash>
0.0277

> <Gold.Chemscore.DEInternal>
0.1837

> <Gold.Chemscore.Rot>
1.4504

> <Gold.Chemscore.Internal.Correction>
   9.000000E+99

> <Gold.Chemscore.Hbonds>
donor molecule, donor type, donor heavy atom, donor atom, acceptor molecule, acceptor atom, score
      L1  H     8    29       P1  7948  0.98
      P1  H  7997  8008       L1    21  1.00
      P1  H 10752 10763       L1    18  1.00

> <Gold.Chemscore.Hbond.Weighted>
-9.8746

> <Gold.Chemscore.Metal.Weighted>
-0.0000

> <Gold.Chemscore.Lipo.Weighted>
-9.1199

> <Gold.Chemscore.Internal_Hbond.Weighted>
0.0000

> <Gold.Chemscore.DEClash.Weighted>
0.0277

> <Gold.Chemscore.DEInternal.Weighted>
0.1837

> <Gold.Chemscore.Rot.Weighted>
3.7129

> <Gold.Chemscore.Internal.Correction.Weighted>
   9.000000E+99

> <Gold.Protein.RotatedTorsions>
[ 6907 6896 6895 6894 ] final  -47.61 input  -60.11 | X-H torsion
[ 7974 7965 7964 7962 ] final  161.03 input  175.53 | X-H torsion
[ 8008 7997 7996 7995 ] final  -19.11 input   59.86 | X-H torsion
[ 10167 10162 10161 10158 ] final   79.73 input  -65.29 | X-H torsion
[ 10718 10713 10712 10709 ] final  -75.34 input   66.30 | X-H torsion
[ 10763 10752 10751 10750 ] final   56.84 input  -60.55 | X-H torsion
[ 11005 11000 10999 10996 ] final  104.89 input  -57.11 | X-H torsion

> <Gold.Protein.ActiveResidues>
 VAL166  LYS551  ARG553  GLY616  TRP617  ASP618  TYR619  PRO620  LYS621  CYS622 
 ASP623  PHE694  ASN695  SER759  ASP760  ASP761  ALA762  ILE779  LEU786  VAL792 
 PHE793  MET794  SER795  GLU796  ALA797  LYS798  CYS799  TRP800  GLU811  SER814 

> <Gold.Protein.RotatedAtoms>
  150.8990  134.8401  159.7346 H   0  0  0  0  0  0  0  0  0  0  0  0  # atno 6907 bound_to 6896
  152.4882  134.4531  159.9591 H   0  0  0  0  0  0  0  0  0  0  0  0  # atno 6908 bound_to 6896
  151.4585  133.3560  159.2841 H   0  0  0  0  0  0  0  0  0  0  0  0  # atno 6909 bound_to 6896
  144.7706  139.7840  143.6298 H   0  0  0  0  0  0  0  0  0  0  0  0  # atno 7974 bound_to 7965
  154.4859  140.2097  155.9657 H   0  0  0  0  0  0  0  0  0  0  0  0  # atno 8008 bound_to 7997
  156.1235  140.3209  155.8212 H   0  0  0  0  0  0  0  0  0  0  0  0  # atno 8009 bound_to 7997
  155.4426  140.0511  157.2999 H   0  0  0  0  0  0  0  0  0  0  0  0  # atno 8010 bound_to 7997
  139.9572  144.5986  150.8105 H   0  0  0  0  0  0  0  0  0  0  0  0  # atno 10167 bound_to 10162
  156.0211  130.4438  150.3028 H   0  0  0  0  0  0  0  0  0  0  0  0  # atno 10718 bound_to 10713
  152.9839  135.5662  154.5294 H   0  0  0  0  0  0  0  0  0  0  0  0  # atno 10763 bound_to 10752
  154.4768  135.2787  155.1603 H   0  0  0  0  0  0  0  0  0  0  0  0  # atno 10764 bound_to 10752
  154.3128  135.6285  153.5526 H   0  0  0  0  0  0  0  0  0  0  0  0  # atno 10765 bound_to 10752
  139.8796  134.9316  156.5430 H   0  0  0  0  0  0  0  0  0  0  0  0  # atno 11005 bound_to 11000
  146.1850  139.5061  142.9842 LP  0  0  0  0  0  0  0  0  0  0  0  0  # atno 17320 bound_to 7965
  145.6334  141.0299  143.1850 LP  0  0  0  0  0  0  0  0  0  0  0  0  # atno 17321 bound_to 7965
  140.7564  143.3066  151.2947 LP  0  0  0  0  0  0  0  0  0  0  0  0  # atno 17342 bound_to 10162
  139.6582  144.0238  152.2674 LP  0  0  0  0  0  0  0  0  0  0  0  0  # atno 17343 bound_to 10162
  157.1130  131.0226  151.3040 LP  0  0  0  0  0  0  0  0  0  0  0  0  # atno 17370 bound_to 10713
  157.4689  130.7697  149.7305 LP  0  0  0  0  0  0  0  0  0  0  0  0  # atno 17371 bound_to 10713
  140.8296  133.8289  155.8972 LP  0  0  0  0  0  0  0  0  0  0  0  0  # atno 17394 bound_to 11000
  140.9341  134.1984  157.4844 LP  0  0  0  0  0  0  0  0  0  0  0  0  # atno 17395 bound_to 11000

$$$$
