#       Name:                AV-unprocessed.smi:2226
#       Creating user name   scv26
#       Creation time:       Fri Mar 27 12:22:17 2020


#       File generated by GOLD software.
#

@<TRIPOS>MOLECULE
AV-unprocessed.smi:2226
    45    47     1
SMALL
NO_CHARGES


@<TRIPOS>ATOM
      1 ****        -1.4617  -3.1816   0.4227 C.3            1 S1                 0.0000
      2 ****        -2.1727  -1.8812   0.4478 N.4            1 S1                 1.0000
      3 ****        -2.0177  -1.0634  -0.7796 C.3            1 S1                 0.0000
      4 ****        -3.1231   0.0182  -0.8035 C.3            1 S1                 0.0000
      5 ****        -3.1801   0.8769   0.4762 C.3            1 S1                 0.0000
      6 ****        -3.0104   0.0340   1.7567 C.3            1 S1                 0.0000
      7 ****        -1.9136  -1.0515   1.6498 C.3            1 S1                 0.0000
      8 ****        -0.4628  -0.5101   1.6567 C.3            1 S1                 0.0000
      9 ****        -0.0306   0.1938   0.3500 C.3            1 S1                 0.0000
     10 ****         1.4288   0.2525   0.3054 N.am           1 S1                 0.0000
     11 ****         2.1664   1.0961  -0.4321 C.2            1 S1                 0.0000
     12 ****         1.6044   1.9151  -1.1619 O.2            1 S1                 0.0000
     13 ****         3.5003   0.9205  -0.2653 N.pl3          1 S1                -1.0000
     14 ****         4.4504   1.6496  -0.8891 C.2            1 S1                 0.0000
     15 ****         4.3136   2.6507  -1.7679 N.2            1 S1                 0.0000
     16 ****         5.5948   3.0578  -2.1029 C.2            1 S1                 0.0000
     17 ****         6.4738   2.2775  -1.4057 C.2            1 S1                 0.0000
     18 ****         5.7665   1.3913  -0.6418 O.3            1 S1                 0.0000
     19 ****        -0.5747  -0.5183  -0.9138 C.3            1 S1                 0.0000
     20 ****        -0.3798  -3.0620   0.3703 H              1 S1                 0.0000
     21 ****        -1.7780  -3.7695  -0.4395 H              1 S1                 0.0000
     22 ****        -1.6945  -3.7587   1.3180 H              1 S1                 0.0000
     23 ****        -2.2012  -1.7111  -1.6381 H              1 S1                 0.0000
     24 ****        -3.0117   0.6583  -1.6793 H              1 S1                 0.0000
     25 ****        -4.0860  -0.4811  -0.9208 H              1 S1                 0.0000
     26 ****        -2.4316   1.6636   0.4376 H              1 S1                 0.0000
     27 ****        -4.1315   1.4083   0.5147 H              1 S1                 0.0000
     28 ****        -2.8215   0.6846   2.6111 H              1 S1                 0.0000
     29 ****        -3.9597  -0.4611   1.9650 H              1 S1                 0.0000
     30 ****        -2.0254  -1.6910   2.5265 H              1 S1                 0.0000
     31 ****        -0.3200   0.1633   2.5027 H              1 S1                 0.0000
     32 ****         0.2086  -1.3492   1.8443 H              1 S1                 0.0000
     33 ****        -0.3926   1.2189   0.3744 H              1 S1                 0.0000
     34 ****         1.9294  -0.3989   0.8922 H              1 S1                 0.0000
     35 ****         5.7762   3.8607  -2.8018 H              1 S1                 0.0000
     36 ****         7.5504   2.2266  -1.3430 H              1 S1                 0.0000
     37 ****         0.0818  -1.3554  -1.1547 H              1 S1                 0.0000
     38 ****        -0.5108   0.1499  -1.7732 H              1 S1                 0.0000
     39 ****        -3.1518  -2.1253   0.4909 H              1 S1                 0.0000
     40 ****         0.6056   1.9473  -1.2011 LP             1 S1                 0.0000
     41 ****         2.1471   2.5474  -1.7147 LP             1 S1                 0.0000
     42 ****         3.8010   0.2024   0.3623 LP             1 S1                 0.0000
     43 ****         3.4555   3.0299  -2.1142 LP             1 S1                 0.0000
     44 ****         5.9911   0.4521  -0.9013 LP             1 S1                 0.0000
     45 ****         5.9712   1.5273   0.3276 LP             1 S1                 0.0000
@<TRIPOS>BOND
    1    1    2 1     
    2    1   20 1     
    3    1   21 1     
    4    1   22 1     
    5    2    7 1     
    6    2    3 1     
    7    2   39 1     
    8    3   19 1     
    9    3    4 1     
   10    3   23 1     
   11    4    5 1     
   12    4   24 1     
   13    4   25 1     
   14    5    6 1     
   15    5   26 1     
   16    5   27 1     
   17    6    7 1     
   18    6   28 1     
   19    6   29 1     
   20    7    8 1     
   21    7   30 1     
   22    8    9 1     
   23    8   31 1     
   24    8   32 1     
   25    9   10 1     
   26    9   19 1     
   27    9   33 1     
   28   10   34 1     
   29   10   11 am    
   30   11   13 1     
   31   11   12 2     
   32   13   14 1     
   33   14   18 1     
   34   14   15 2     
   35   15   16 1     
   36   16   35 1     
   37   16   17 2     
   38   17   36 1     
   39   17   18 1     
   40   19   37 1     
   41   19   38 1     
   42   12   40 1     
   43   12   41 1     
   44   13   42 1     
   45   15   43 1     
   46   18   44 1     
   47   18   45 1     
@<TRIPOS>SUBSTRUCTURE
      1 S1             1
@<TRIPOS>SET
LONE_PAIRS      STATIC     ATOMS    <user>   **** ""
6 40 41 42 43 44 45
DONOR_HYDROGENS      STATIC     ATOMS    <user>   **** ""
2 39 34
ATOM$BLUE        STATIC     ATOMS    COLORGROUP SYSTEM
6 40 41 42 43 44 45
ATOM$RED        STATIC     ATOMS    COLORGROUP SYSTEM
2 39 34
