AV-unprocessed.smi:34|AV-procd|sdf|223|dock5
  -GOLD-   2262015543D 1   1.00000     0.00000
 Structure written by MMmdl.
 55 59  0  0  0  0  0  0  0  0  1 V2000
  152.7702  139.5606  159.1882 O   0  0  0  0  0  0  0  0  0  0  0  0
  152.4062  140.5863  158.6126 C   0  0  0  0  0  0  0  0  0  0  0  0
  152.1132  140.6124  157.1901 N   0  0  0  0  0  0  0  0  0  0  0  0
  152.1201  139.5798  156.3146 C   0  0  0  0  0  0  0  0  0  0  0  0
  153.0223  139.4870  155.3028 N   0  0  0  0  0  0  0  0  0  0  0  0
  152.9844  138.4500  154.4617 C   0  0  0  0  0  0  0  0  0  0  0  0
  152.1425  137.4150  154.4531 N   0  0  0  0  0  0  0  0  0  0  0  0
  151.2326  137.4967  155.4662 C   0  0  0  0  0  0  0  0  0  0  0  0
  151.1589  138.5416  156.4302 C   0  0  0  0  0  0  0  0  0  0  0  0
  150.1114  138.2996  157.3084 N   0  0  0  0  0  0  0  0  0  0  0  0
  149.5975  137.1771  156.8842 C   0  0  0  0  0  0  0  0  0  0  0  0
  150.2053  136.6254  155.7779 N   0  0  0  0  0  0  0  0  0  0  0  0
  149.8150  135.3560  155.0790 C   0  0  2  0  0  0  0  0  0  0  0  0
  148.4266  135.1955  155.1219 O   0  0  0  0  0  0  0  0  0  0  0  0
  148.0962  134.0144  155.8476 C   0  0  1  0  0  0  0  0  0  0  0  0
  146.7648  133.4266  155.3642 C   0  0  0  0  0  0  0  0  0  0  0  0
  146.7912  133.3018  153.9512 O   0  0  0  0  0  0  0  0  0  0  0  0
  146.0994  134.1668  153.1842 C   0  0  0  0  0  0  0  0  0  0  0  0
  145.8747  135.3353  153.5064 O   0  0  0  0  0  0  0  0  0  0  0  0
  145.6358  133.5639  151.9011 C   0  0  0  0  0  0  0  0  0  0  0  0
  146.0796  132.2691  151.5443 C   0  0  0  0  0  0  0  0  0  0  0  0
  145.6601  131.6737  150.3388 C   0  0  0  0  0  0  0  0  0  0  0  0
  144.7928  132.3663  149.4743 C   0  0  0  0  0  0  0  0  0  0  0  0
  144.3445  133.6552  149.8174 C   0  0  0  0  0  0  0  0  0  0  0  0
  144.7616  134.2517  151.0234 C   0  0  0  0  0  0  0  0  0  0  0  0
  149.3136  133.1074  155.6641 C   0  0  1  0  0  0  0  0  0  0  0  0
  149.2846  132.5110  154.4702 F   0  0  0  0  0  0  0  0  0  0  0  0
  150.4605  134.1000  155.7014 C   0  0  2  0  0  0  0  0  0  0  0  0
  150.9349  134.2759  157.0251 O   0  0  0  0  0  0  0  0  0  0  0  0
  152.3192  141.9032  159.3280 C   0  0  0  0  0  0  0  0  0  0  0  0
  152.5877  141.9733  160.7136 C   0  0  0  0  0  0  0  0  0  0  0  0
  152.4940  143.2011  161.3972 C   0  0  0  0  0  0  0  0  0  0  0  0
  152.1231  144.3679  160.7033 C   0  0  0  0  0  0  0  0  0  0  0  0
  151.8423  144.3056  159.3254 C   0  0  0  0  0  0  0  0  0  0  0  0
  151.9361  143.0783  158.6402 C   0  0  0  0  0  0  0  0  0  0  0  0
  151.8600  141.5123  156.8091 H   0  0  0  0  0  0  0  0  0  0  0  0
  153.7344  138.4504  153.6845 H   0  0  0  0  0  0  0  0  0  0  0  0
  148.7475  136.7187  157.3685 H   0  0  0  0  0  0  0  0  0  0  0  0
  150.1151  135.5129  154.0420 H   0  0  0  0  0  0  0  0  0  0  0  0
  148.0092  134.2784  156.9019 H   0  0  0  0  0  0  0  0  0  0  0  0
  146.6137  132.4395  155.8027 H   0  0  0  0  0  0  0  0  0  0  0  0
  145.9316  134.0548  155.6826 H   0  0  0  0  0  0  0  0  0  0  0  0
  146.7453  131.7177  152.1926 H   0  0  0  0  0  0  0  0  0  0  0  0
  146.0048  130.6841  150.0778 H   0  0  0  0  0  0  0  0  0  0  0  0
  144.4718  131.9095  148.5498 H   0  0  0  0  0  0  0  0  0  0  0  0
  143.6789  134.1885  149.1547 H   0  0  0  0  0  0  0  0  0  0  0  0
  144.3997  135.2425  151.2557 H   0  0  0  0  0  0  0  0  0  0  0  0
  149.3851  132.3210  156.4167 H   0  0  0  0  0  0  0  0  0  0  0  0
  151.2987  133.7773  155.0829 H   0  0  0  0  0  0  0  0  0  0  0  0
  151.5179  135.0198  157.0378 H   0  0  0  0  0  0  0  0  0  0  0  0
  152.8722  141.0865  161.2614 H   0  0  0  0  0  0  0  0  0  0  0  0
  152.7059  143.2466  162.4553 H   0  0  0  0  0  0  0  0  0  0  0  0
  152.0505  145.3089  161.2283 H   0  0  0  0  0  0  0  0  0  0  0  0
  151.5515  145.1994  158.7933 H   0  0  0  0  0  0  0  0  0  0  0  0
  151.7068  143.0520  157.5848 H   0  0  0  0  0  0  0  0  0  0  0  0
  1  2  2  0  0  0  0
  2  3  1  0  0  0  0
  2 30  1  0  0  0  0
  3  4  1  0  0  0  0
  3 36  1  0  0  0  0
  4  9  1  0  0  0  0
  4  5  2  0  0  0  0
  5  6  1  0  0  0  0
  6  7  2  0  0  0  0
  6 37  1  0  0  0  0
  7  8  1  0  0  0  0
  8 12  1  0  0  0  0
  8  9  2  0  0  0  0
  9 10  1  0  0  0  0
 10 11  2  0  0  0  0
 11 12  1  0  0  0  0
 11 38  1  0  0  0  0
 12 13  1  0  0  0  0
 13 28  1  0  0  0  0
 13 14  1  0  0  0  0
 13 39  1  0  0  0  0
 14 15  1  0  0  0  0
 15 16  1  0  0  0  0
 15 26  1  0  0  0  0
 15 40  1  0  0  0  0
 16 17  1  0  0  0  0
 16 41  1  0  0  0  0
 16 42  1  0  0  0  0
 17 18  1  0  0  0  0
 18 19  2  0  0  0  0
 18 20  1  0  0  0  0
 20 25  1  0  0  0  0
 20 21  2  0  0  0  0
 21 22  1  0  0  0  0
 21 43  1  0  0  0  0
 22 23  2  0  0  0  0
 22 44  1  0  0  0  0
 23 24  1  0  0  0  0
 23 45  1  0  0  0  0
 24 25  2  0  0  0  0
 24 46  1  0  0  0  0
 25 47  1  0  0  0  0
 26 27  1  0  0  0  0
 26 28  1  0  0  0  0
 26 48  1  0  0  0  0
 28 29  1  0  0  0  0
 28 49  1  0  0  0  0
 29 50  1  0  0  0  0
 30 35  1  0  0  0  0
 30 31  2  0  0  0  0
 31 32  1  0  0  0  0
 31 51  1  0  0  0  0
 32 33  2  0  0  0  0
 32 52  1  0  0  0  0
 33 34  1  0  0  0  0
 33 53  1  0  0  0  0
 34 35  2  0  0  0  0
 34 54  1  0  0  0  0
 35 55  1  0  0  0  0
M  END
> <s_m_source_file>
AV-unprocessed.smi

> <i_m_source_file_index>
34

> <i_lp_mmshare_version>
43012

> <i_f3d_flags>
0

> <s_epik_input>
W2NIXTFbY0hdW2NIXVtjSF1bY0hdYzFDKD1PKVtOSF1jKG5bY0hdbjIpYyhjMjMpbltjSF1uM1tDQEBIXTRPW0NASF0oW0NAQEhdKEYpW0NASF00W09IXSlbQ0gyXU9DKD1PKWM1W2NIXVtjSF1bY0hdW2NIXVtjSF01

> <s_epik_cmdline>
J2VwaWtfcHl0aG9uJywgJy1waCcsICc3LjAnLCAnLXRuJywgJzgnLCAnLW1hJywgJzIwMCcsICctbWV0YWxfYmluZGluZycsICctaW1hZScsICc8aW5maWxlLm1hZT4nLCAnLW9tYWUnLCAnPG91dGZpbGUubWFlPic=

> <r_lp_tautomer_probability>
1

> <r_epik_Ionization_Penalty>
0.00257489

> <r_epik_Ionization_Penalty_Charging>
0

> <r_epik_Ionization_Penalty_Neutral>
0.00257489

> <r_epik_State_Penalty>
0.00519398

> <r_epik_Charging_Adjusted_Penalty>
0.00519398

> <i_epik_Tot_Q>
0

> <i_epik_Tot_abs_Q>
0

> <r_epik_Metal_State_Penalty>
0.335891

> <b_epik_Metal_Only>
0

> <s_epik_Chemistry_Notes>
This compound has an ester and may undergo hydrolysis at high or low pH. This compound contains an acetal/aminal-like group ( X-CH(R)-Y where X, Y are N, S, or O) that may be acid/base labile, releasing an aldehyde.

> <s_lp_Force_Field>
OPLS_2005

> <r_lp_Energy>
53.1328

> <b_lp_Chiralities_Consistent>
1

> <s_lp_Variant>
AV-unprocessed.smi:34-9

> <Gold.Version>
5.8.1

> <Gold.Id.Protein>
6NUR|6NUR_protein|mol2

> <Gold.PLP.Fitness>
61.1685

> <Gold.PLP.PLP>
-59.4979

> <Gold.PLP.part.hbond>
-3.2678

> <Gold.PLP.part.metal>
0.0000

> <Gold.PLP.part.buried>
-7.9564

> <Gold.PLP.part.nonpolar>
-49.7129

> <Gold.PLP.part.repulsive>
0.5183

> <Gold.PLP.ligand.clash>
0.0000

> <Gold.PLP.ligand.torsion>
2.1081

> <Gold.PLP.Chemscore.Hbond>
1.8780

> <Gold.PLP.Chemscore.CHOScore>
0.0000

> <Gold.PLP.Chemscore.Metal>
0.0000

> <Gold.Chemscore.Hbonds>
donor molecule, donor type, donor heavy atom, donor atom, acceptor molecule, acceptor atom, score
      P1  H  6896  6907       L1    29  0.12
      P1  H  7997  8010       L1     5  1.00
      P1  H 10752 10764       L1     7  0.82

> <Gold.PLP.Chemscore.Internal.Correction>
0.2530

> <Gold.Rescore>
     Score         DG    S(hbond)    S(metal)    S(lipo)     H(rot)  DE(clash)    DE(int)     intcor
     13.57     -18.29       1.35        0.00     130.54       2.72       0.00       4.71       ----

> <Gold.Chemscore.Fitness>
13.5741

> <Gold.Chemscore.DG>
-18.2854

> <Gold.Chemscore.ZeroCoef>
-5.4800

> <Gold.Chemscore.Hbond>
1.3472

> <Gold.Chemscore.Metal>
0.0000

> <Gold.Chemscore.Lipo>
130.5353

> <Gold.Chemscore.Internal_Hbond>
0.0000

> <Gold.Chemscore.DEClash>
0.0048

> <Gold.Chemscore.DEInternal>
4.7064

> <Gold.Chemscore.Rot>
2.7215

> <Gold.Chemscore.Internal.Correction>
   9.000000E+99

> <Gold.Chemscore.Hbonds>
donor molecule, donor type, donor heavy atom, donor atom, acceptor molecule, acceptor atom, score
      P1  H  6896  6907       L1    29  0.02
      P1  H  7997  8010       L1     5  0.35
      P1  H 10752 10764       L1     7  0.67

> <Gold.Chemscore.Hbond.Weighted>
-4.4998

> <Gold.Chemscore.Metal.Weighted>
-0.0000

> <Gold.Chemscore.Lipo.Weighted>
-15.2726

> <Gold.Chemscore.Internal_Hbond.Weighted>
0.0000

> <Gold.Chemscore.DEClash.Weighted>
0.0048

> <Gold.Chemscore.DEInternal.Weighted>
4.7064

> <Gold.Chemscore.Rot.Weighted>
6.9670

> <Gold.Chemscore.Internal.Correction.Weighted>
   9.000000E+99

> <Gold.Protein.RotatedTorsions>
[ 6907 6896 6895 6894 ] final -105.65 input  -60.11 | X-H torsion
[ 7974 7965 7964 7962 ] final   78.66 input  175.53 | X-H torsion
[ 8008 7997 7996 7995 ] final   96.44 input   59.86 | X-H torsion
[ 10167 10162 10161 10158 ] final   53.77 input  -65.29 | X-H torsion
[ 10718 10713 10712 10709 ] final  127.26 input   66.30 | X-H torsion
[ 10763 10752 10751 10750 ] final  -80.81 input  -60.55 | X-H torsion
[ 11005 11000 10999 10996 ] final  143.64 input  -57.11 | X-H torsion

> <Gold.Protein.ActiveResidues>
 VAL166  LYS551  ARG553  GLY616  TRP617  ASP618  TYR619  PRO620  LYS621  CYS622 
 ASP623  PHE694  ASN695  SER759  ASP760  ASP761  ALA762  ILE779  LEU786  VAL792 
 PHE793  MET794  SER795  GLU796  ALA797  LYS798  CYS799  TRP800  GLU811  SER814 

> <Gold.Protein.RotatedAtoms>
  150.7348  134.0095  159.3664 H   0  0  0  0  0  0  0  0  0  0  0  0  # atno 6907 bound_to 6896
  151.8053  135.0694  160.0415 H   0  0  0  0  0  0  0  0  0  0  0  0  # atno 6908 bound_to 6896
  152.3111  133.5718  159.5718 H   0  0  0  0  0  0  0  0  0  0  0  0  # atno 6909 bound_to 6896
  145.6743  139.2505  143.1850 H   0  0  0  0  0  0  0  0  0  0  0  0  # atno 7974 bound_to 7965
  156.0796  140.3272  155.7677 H   0  0  0  0  0  0  0  0  0  0  0  0  # atno 8008 bound_to 7997
  155.5174  140.0582  157.2930 H   0  0  0  0  0  0  0  0  0  0  0  0  # atno 8009 bound_to 7997
  154.4575  140.1950  156.0355 H   0  0  0  0  0  0  0  0  0  0  0  0  # atno 8010 bound_to 7997
  140.2372  144.3622  150.6393 H   0  0  0  0  0  0  0  0  0  0  0  0  # atno 10167 bound_to 10162
  157.5348  131.1098  150.8953 H   0  0  0  0  0  0  0  0  0  0  0  0  # atno 10718 bound_to 10713
  154.5558  135.5648  153.6963 H   0  0  0  0  0  0  0  0  0  0  0  0  # atno 10763 bound_to 10752
  153.0003  135.6262  154.2312 H   0  0  0  0  0  0  0  0  0  0  0  0  # atno 10764 bound_to 10752
  154.2248  135.2868  155.2891 H   0  0  0  0  0  0  0  0  0  0  0  0  # atno 10765 bound_to 10752
  140.0570  134.9225  157.1117 H   0  0  0  0  0  0  0  0  0  0  0  0  # atno 11005 bound_to 11000
  146.1019  140.7534  142.9545 LP  0  0  0  0  0  0  0  0  0  0  0  0  # atno 17320 bound_to 7965
  144.7046  140.3800  143.7128 LP  0  0  0  0  0  0  0  0  0  0  0  0  # atno 17321 bound_to 7965
  140.6140  143.2171  151.6828 LP  0  0  0  0  0  0  0  0  0  0  0  0  # atno 17342 bound_to 10162
  139.5089  144.3594  152.0577 LP  0  0  0  0  0  0  0  0  0  0  0  0  # atno 17343 bound_to 10162
  156.9523  130.5424  149.5283 LP  0  0  0  0  0  0  0  0  0  0  0  0  # atno 17370 bound_to 10713
  156.0450  130.5527  150.8859 LP  0  0  0  0  0  0  0  0  0  0  0  0  # atno 17371 bound_to 10713
  140.3829  134.2267  155.7170 LP  0  0  0  0  0  0  0  0  0  0  0  0  # atno 17394 bound_to 11000
  141.1956  133.8101  157.0707 LP  0  0  0  0  0  0  0  0  0  0  0  0  # atno 17395 bound_to 11000

$$$$
