AV-unprocessed.smi:2173|AV-procd|sdf|8841|dock7
  -GOLD-   2272012 33D 1   1.00000     0.00000
 Structure written by MMmdl.
 36 37  0  0  0  0  0  0  0  0  2 V2000
  153.0592  139.7372  157.6990 O   0  0  0  0  0  0  0  0  0  0  0  0
  151.9778  140.3198  157.6175 C   0  0  0  0  0  0  0  0  0  0  0  0
  150.9508  139.8620  156.8853 N   0  0  0  0  0  0  0  0  0  0  0  0
  150.9508  138.6224  156.1137 C   0  0  0  0  0  0  0  0  0  0  0  0
  150.7718  138.8383  154.5953 C   0  0  0  0  0  0  0  0  0  0  0  0
  149.4321  139.4438  154.2103 C   0  0  0  0  0  0  0  0  0  0  0  0
  149.0822  140.7684  154.5503 C   0  0  0  0  0  0  0  0  0  0  0  0
  147.8140  141.2625  154.1794 C   0  0  0  0  0  0  0  0  0  0  0  0
  146.9228  140.4229  153.4793 C   0  0  0  0  0  0  0  0  0  0  0  0
  147.3239  139.1087  153.1646 C   0  0  0  0  0  0  0  0  0  0  0  0
  148.5473  138.6731  153.5361 N   0  3  0  0  0  0  0  0  0  0  0  0
  151.7366  141.6200  158.3946 C   0  0  1  0  0  0  0  0  0  0  0  0
  153.0001  142.0335  159.1840 C   0  0  0  0  0  0  0  0  0  0  0  0
  152.8830  143.4338  159.7592 C   0  0  0  0  0  0  0  0  0  0  0  0
  151.9635  144.3252  159.3517 C   0  0  0  0  0  0  0  0  0  0  0  0
  150.9410  144.0353  158.2670 C   0  0  0  0  0  0  0  0  0  0  0  0
  151.2819  142.7639  157.4662 C   0  0  0  0  0  0  0  0  0  0  0  0
  150.1016  140.4085  156.8690 H   0  0  0  0  0  0  0  0  0  0  0  0
  151.9091  138.1347  156.2941 H   0  0  0  0  0  0  0  0  0  0  0  0
  150.1853  137.9443  156.4936 H   0  0  0  0  0  0  0  0  0  0  0  0
  151.5715  139.4788  154.2217 H   0  0  0  0  0  0  0  0  0  0  0  0
  150.8860  137.8872  154.0733 H   0  0  0  0  0  0  0  0  0  0  0  0
  149.7738  141.3976  155.0918 H   0  0  0  0  0  0  0  0  0  0  0  0
  147.5273  142.2730  154.4316 H   0  0  0  0  0  0  0  0  0  0  0  0
  145.9460  140.7814  153.1887 H   0  0  0  0  0  0  0  0  0  0  0  0
  146.7081  138.3974  152.6340 H   0  0  0  0  0  0  0  0  0  0  0  0
  150.9332  141.4424  159.1124 H   0  0  0  0  0  0  0  0  0  0  0  0
  153.1671  141.3353  160.0049 H   0  0  0  0  0  0  0  0  0  0  0  0
  153.8903  142.0024  158.5540 H   0  0  0  0  0  0  0  0  0  0  0  0
  153.5940  143.7075  160.5251 H   0  0  0  0  0  0  0  0  0  0  0  0
  151.9227  145.3022  159.8107 H   0  0  0  0  0  0  0  0  0  0  0  0
  149.9656  143.9307  158.7427 H   0  0  0  0  0  0  0  0  0  0  0  0
  150.8768  144.8913  157.5949 H   0  0  0  0  0  0  0  0  0  0  0  0
  152.0768  142.9945  156.7550 H   0  0  0  0  0  0  0  0  0  0  0  0
  150.4173  142.4621  156.8733 H   0  0  0  0  0  0  0  0  0  0  0  0
  148.8162  137.7169  153.3020 H   0  0  0  0  0  0  0  0  0  0  0  0
  1  2  2  0  0  0  0
  2  3  1  0  0  0  0
  2 12  1  0  0  0  0
  3  4  1  0  0  0  0
  3 18  1  0  0  0  0
  4  5  1  0  0  0  0
  4 19  1  0  0  0  0
  4 20  1  0  0  0  0
  5  6  1  0  0  0  0
  5 21  1  0  0  0  0
  5 22  1  0  0  0  0
  6 11  1  0  0  0  0
  6  7  2  0  0  0  0
  7  8  1  0  0  0  0
  7 23  1  0  0  0  0
  8  9  2  0  0  0  0
  8 24  1  0  0  0  0
  9 10  1  0  0  0  0
  9 25  1  0  0  0  0
 10 11  2  0  0  0  0
 10 26  1  0  0  0  0
 11 36  1  0  0  0  0
 12 17  1  0  0  0  0
 12 13  1  0  0  0  0
 12 27  1  0  0  0  0
 13 14  1  0  0  0  0
 13 28  1  0  0  0  0
 13 29  1  0  0  0  0
 14 15  2  0  0  0  0
 14 30  1  0  0  0  0
 15 16  1  0  0  0  0
 15 31  1  0  0  0  0
 16 17  1  0  0  0  0
 16 32  1  0  0  0  0
 16 33  1  0  0  0  0
 17 34  1  0  0  0  0
 17 35  1  0  0  0  0
M  CHG  1  11   1
M  END
> <s_m_source_file>
AV-unprocessed.smi

> <i_m_source_file_index>
2173

> <i_lp_mmshare_version>
43012

> <i_f3d_flags>
0

> <s_epik_input>
W0NIMl0xW0NIMl1bQ0hdPVtDSF1bQ0gyXVtDQEhdMUMoPU8pW05IXVtDSDJdW0NIMl1jMltjSF1bY0hdW2NIXVtjSF1uMg==

> <s_epik_cmdline>
J2VwaWtfcHl0aG9uJywgJy1waCcsICc3LjAnLCAnLXRuJywgJzgnLCAnLW1hJywgJzIwMCcsICctbWV0YWxfYmluZGluZycsICctaW1hZScsICc8aW5maWxlLm1hZT4nLCAnLW9tYWUnLCAnPG91dGZpbGUubWFlPic=

> <r_epik_Ionization_Penalty>
1.84586

> <r_epik_Ionization_Penalty_Charging>
1.84586

> <r_epik_Ionization_Penalty_Neutral>
1.53635e-08

> <r_epik_State_Penalty>
1.96297

> <r_epik_Charging_Adjusted_Penalty>
3.80883

> <i_epik_Tot_Q>
1

> <i_epik_Tot_abs_Q>
1

> <r_epik_Metal_State_Penalty>
1.98887

> <b_epik_Metal_Only>
0

> <s_lp_Force_Field>
OPLS_2005

> <r_lp_Energy>
13.9489

> <b_lp_Chiralities_Consistent>
1

> <s_lp_Variant>
AV-unprocessed.smi:2173-4

> <Gold.Version>
5.8.1

> <Gold.Id.Protein>
6NUR|6NUR_protein|mol2

> <Gold.PLP.Fitness>
48.4831

> <Gold.PLP.PLP>
-39.6488

> <Gold.PLP.part.hbond>
-3.0000

> <Gold.PLP.part.metal>
0.0000

> <Gold.PLP.part.buried>
-1.0530

> <Gold.PLP.part.nonpolar>
-36.0755

> <Gold.PLP.part.repulsive>
0.1212

> <Gold.PLP.ligand.clash>
0.0000

> <Gold.PLP.ligand.torsion>
0.0943

> <Gold.PLP.Chemscore.Hbond>
3.0000

> <Gold.PLP.Chemscore.CHOScore>
0.0000

> <Gold.PLP.Chemscore.Metal>
0.0000

> <Gold.Chemscore.Hbonds>
donor molecule, donor type, donor heavy atom, donor atom, acceptor molecule, acceptor atom, score
      L1  H    11    36       P1  7948  1.81
      P1  H  7997  8009       L1     1  1.00

> <Gold.PLP.Chemscore.Internal.Correction>
0.0229

> <Gold.Rescore>
     Score         DG    S(hbond)    S(metal)    S(lipo)     H(rot)  DE(clash)    DE(int)     intcor
     21.26     -21.47       1.96        0.00     113.18       1.48       0.15       0.06       ----

> <Gold.Chemscore.Fitness>
21.2608

> <Gold.Chemscore.DG>
-21.4697

> <Gold.Chemscore.ZeroCoef>
-5.4800

> <Gold.Chemscore.Hbond>
1.9572

> <Gold.Chemscore.Metal>
0.0000

> <Gold.Chemscore.Lipo>
113.1772

> <Gold.Chemscore.Internal_Hbond>
0.0000

> <Gold.Chemscore.DEClash>
0.1507

> <Gold.Chemscore.DEInternal>
0.0582

> <Gold.Chemscore.Rot>
1.4801

> <Gold.Chemscore.Internal.Correction>
   9.000000E+99

> <Gold.Chemscore.Hbonds>
donor molecule, donor type, donor heavy atom, donor atom, acceptor molecule, acceptor atom, score
      L1  H    11    36       P1  7948  0.83
      P1  H  7997  8009       L1     1  0.97

> <Gold.Chemscore.Hbond.Weighted>
-6.5371

> <Gold.Chemscore.Metal.Weighted>
-0.0000

> <Gold.Chemscore.Lipo.Weighted>
-13.2417

> <Gold.Chemscore.Internal_Hbond.Weighted>
0.0000

> <Gold.Chemscore.DEClash.Weighted>
0.1507

> <Gold.Chemscore.DEInternal.Weighted>
0.0582

> <Gold.Chemscore.Rot.Weighted>
3.7892

> <Gold.Chemscore.Internal.Correction.Weighted>
   9.000000E+99

> <Gold.Protein.RotatedTorsions>
[ 6907 6896 6895 6894 ] final   76.12 input  -60.11 | X-H torsion
[ 7974 7965 7964 7962 ] final  -28.50 input  175.53 | X-H torsion
[ 8008 7997 7996 7995 ] final  179.23 input   59.86 | X-H torsion
[ 10167 10162 10161 10158 ] final  -46.08 input  -65.29 | X-H torsion
[ 10718 10713 10712 10709 ] final  -49.43 input   66.30 | X-H torsion
[ 10763 10752 10751 10750 ] final  -94.23 input  -60.55 | X-H torsion
[ 11005 11000 10999 10996 ] final -130.11 input  -57.11 | X-H torsion

> <Gold.Protein.ActiveResidues>
 VAL166  LYS551  ARG553  GLY616  TRP617  ASP618  TYR619  PRO620  LYS621  CYS622 
 ASP623  PHE694  ASN695  SER759  ASP760  ASP761  ALA762  ILE779  LEU786  VAL792 
 PHE793  MET794  SER795  GLU796  ALA797  LYS798  CYS799  TRP800  GLU811  SER814 

> <Gold.Protein.RotatedAtoms>
  152.5058  134.4017  159.9418 H   0  0  0  0  0  0  0  0  0  0  0  0  # atno 6907 bound_to 6896
  151.3981  133.3760  159.2736 H   0  0  0  0  0  0  0  0  0  0  0  0  # atno 6908 bound_to 6896
  150.9382  134.8814  159.7654 H   0  0  0  0  0  0  0  0  0  0  0  0  # atno 6909 bound_to 6896
  146.1283  140.5291  142.8704 H   0  0  0  0  0  0  0  0  0  0  0  0  # atno 7974 bound_to 7965
  156.0457  140.1314  157.0106 H   0  0  0  0  0  0  0  0  0  0  0  0  # atno 8008 bound_to 7997
  154.4411  140.1021  156.6373 H   0  0  0  0  0  0  0  0  0  0  0  0  # atno 8009 bound_to 7997
  155.5599  140.3464  155.4491 H   0  0  0  0  0  0  0  0  0  0  0  0  # atno 8010 bound_to 7997
  140.6832  143.2848  151.3731 H   0  0  0  0  0  0  0  0  0  0  0  0  # atno 10167 bound_to 10162
  156.1894  130.4152  149.9393 H   0  0  0  0  0  0  0  0  0  0  0  0  # atno 10718 bound_to 10713
  154.7035  135.5165  153.8561 H   0  0  0  0  0  0  0  0  0  0  0  0  # atno 10763 bound_to 10752
  153.0722  135.6605  154.0231 H   0  0  0  0  0  0  0  0  0  0  0  0  # atno 10764 bound_to 10752
  154.0086  135.3004  155.3374 H   0  0  0  0  0  0  0  0  0  0  0  0  # atno 10765 bound_to 10752
  140.9374  134.1239  157.4181 H   0  0  0  0  0  0  0  0  0  0  0  0  # atno 11005 bound_to 11000
  144.7665  140.5541  143.6700 LP  0  0  0  0  0  0  0  0  0  0  0  0  # atno 17320 bound_to 7965
  145.5316  139.1475  143.3496 LP  0  0  0  0  0  0  0  0  0  0  0  0  # atno 17321 bound_to 7965
  139.6170  144.0983  152.2355 LP  0  0  0  0  0  0  0  0  0  0  0  0  # atno 17342 bound_to 10162
  140.0415  144.6003  150.7407 LP  0  0  0  0  0  0  0  0  0  0  0  0  # atno 17343 bound_to 10162
  156.7138  130.8980  151.3612 LP  0  0  0  0  0  0  0  0  0  0  0  0  # atno 17370 bound_to 10713
  157.6919  130.9242  150.0538 LP  0  0  0  0  0  0  0  0  0  0  0  0  # atno 17371 bound_to 10713
  139.8811  135.0025  156.6132 LP  0  0  0  0  0  0  0  0  0  0  0  0  # atno 17394 bound_to 11000
  140.7781  133.8683  155.8545 LP  0  0  0  0  0  0  0  0  0  0  0  0  # atno 17395 bound_to 11000

$$$$
