#       Name:                AV-unprocessed.smi:1286
#       Creating user name   scv26
#       Creation time:       Fri Mar 27 04:52:24 2020


#       File generated by GOLD software.
#

@<TRIPOS>MOLECULE
AV-unprocessed.smi:1286
    39    40     1
SMALL
NO_CHARGES


@<TRIPOS>ATOM
      1 ****        -2.8387  -0.6797   1.2123 C.3            1 S1                 0.0000
      2 ****        -2.2850   0.2248   0.1004 C.3            1 S1                 0.0000
      3 ****        -2.9891  -0.0396  -1.2447 C.3            1 S1                 0.0000
      4 ****        -2.5882   0.9024  -2.2747 N.pl3          1 S1                 0.0000
      5 ****        -1.6972   0.7129  -3.3103 C.2            1 S1                 0.0000
      6 ****        -1.6385   1.8814  -4.0142 C.2            1 S1                 0.0000
      7 ****        -2.5422   2.7372  -3.3244 C.2            1 S1                 0.0000
      8 ****        -3.1099   2.1481  -2.2844 N.2            1 S1                 0.0000
      9 ****        -0.8453   0.0159  -0.0396 N.am           1 S1                 0.0000
     10 ****         0.1063   0.6435   0.6683 C.2            1 S1                 0.0000
     11 ****        -0.1369   1.4775   1.5404 O.2            1 S1                 0.0000
     12 ****         1.5560   0.2718   0.3375 C.3            1 S1                 0.0000
     13 ****         2.4228  -0.0183   1.5825 C.3            1 S1                 0.0000
     14 ****         1.9230  -1.1778   2.4108 C.2            1 S1                 0.0000
     15 ****         2.8537  -2.1083   2.6091 C.2            1 S1                 0.0000
     16 ****         4.1619  -1.7633   1.9537 C.3            1 S1                 0.0000
     17 ****         3.8756  -0.4287   1.2290 C.3            1 S1                 0.0000
     18 ****        -3.9102  -0.5271   1.3433 H              1 S1                 0.0000
     19 ****        -2.3595  -0.4688   2.1689 H              1 S1                 0.0000
     20 ****        -2.6779  -1.7339   0.9841 H              1 S1                 0.0000
     21 ****        -2.4738   1.2622   0.3836 H              1 S1                 0.0000
     22 ****        -2.7814  -1.0516  -1.5956 H              1 S1                 0.0000
     23 ****        -4.0712   0.0306  -1.1238 H              1 S1                 0.0000
     24 ****        -1.1828  -0.2255  -3.4559 H              1 S1                 0.0000
     25 ****        -1.0409   2.0929  -4.8884 H              1 S1                 0.0000
     26 ****        -2.8010   3.7620  -3.5471 H              1 S1                 0.0000
     27 ****        -0.5497  -0.6545  -0.7342 H              1 S1                 0.0000
     28 ****         1.5674  -0.5943  -0.3269 H              1 S1                 0.0000
     29 ****         1.9922   1.0967  -0.2270 H              1 S1                 0.0000
     30 ****         2.4456   0.8610   2.2284 H              1 S1                 0.0000
     31 ****         0.9170  -1.2168   2.8028 H              1 S1                 0.0000
     32 ****         2.7166  -3.0146   3.1805 H              1 S1                 0.0000
     33 ****         4.9408  -1.6542   2.7089 H              1 S1                 0.0000
     34 ****         4.4582  -2.5477   1.2567 H              1 S1                 0.0000
     35 ****         3.9971  -0.5589   0.1528 H              1 S1                 0.0000
     36 ****         4.5836   0.3422   1.5361 H              1 S1                 0.0000
     37 ****        -3.7758   2.5379  -1.6483 LP             1 S1                 0.0000
     38 ****        -1.0842   1.7180   1.7520 LP             1 S1                 0.0000
     39 ****         0.6129   1.9145   2.0373 LP             1 S1                 0.0000
@<TRIPOS>BOND
    1    1    2 1     
    2    1   18 1     
    3    1   19 1     
    4    1   20 1     
    5    2    3 1     
    6    2    9 1     
    7    2   21 1     
    8    3    4 1     
    9    3   22 1     
   10    3   23 1     
   11    4    8 1     
   12    4    5 1     
   13    5    6 2     
   14    5   24 1     
   15    6    7 1     
   16    6   25 1     
   17    7    8 2     
   18    7   26 1     
   19    9   10 am    
   20    9   27 1     
   21   10   11 2     
   22   10   12 1     
   23   12   13 1     
   24   12   28 1     
   25   12   29 1     
   26   13   17 1     
   27   13   14 1     
   28   13   30 1     
   29   14   15 2     
   30   14   31 1     
   31   15   16 1     
   32   15   32 1     
   33   16   17 1     
   34   16   33 1     
   35   16   34 1     
   36   17   35 1     
   37   17   36 1     
   38    8   37 1     
   39   11   38 1     
   40   11   39 1     
@<TRIPOS>SUBSTRUCTURE
      1 S1             1
@<TRIPOS>SET
LONE_PAIRS      STATIC     ATOMS    <user>   **** ""
3 37 38 39
DONOR_HYDROGENS      STATIC     ATOMS    <user>   **** ""
1 27
ATOM$BLUE        STATIC     ATOMS    COLORGROUP SYSTEM
3 37 38 39
ATOM$RED        STATIC     ATOMS    COLORGROUP SYSTEM
1 27
