#       Name:                AV-unprocessed.smi:2407
#       Creating user name   scv26
#       Creation time:       Fri Mar 27 13:15:06 2020


#       File generated by GOLD software.
#

@<TRIPOS>MOLECULE
AV-unprocessed.smi:2407
    45    46     1
SMALL
NO_CHARGES


@<TRIPOS>ATOM
      1 ****        -5.3108   1.9566   2.1527 C.3            1 S1                 0.0000
      2 ****        -4.5292   1.7201   0.8946 C.2            1 S1                 0.0000
      3 ****        -5.1568   1.4231  -0.3789 C.2            1 S1                 0.0000
      4 ****        -4.3824   1.2175  -1.4659 C.2            1 S1                 0.0000
      5 ****        -2.9243   1.2858  -1.3945 C.2            1 S1                 0.0000
      6 ****        -2.1911   1.0954  -2.3645 O.2            1 S1                 0.0000
      7 ****        -2.4487   1.5773  -0.1479 N.am           1 S1                 0.0000
      8 ****        -1.0082   1.6879   0.1122 C.3            1 S1                 0.0000
      9 ****        -0.3443   0.3060   0.3020 C.3            1 S1                 0.0000
     10 ****        -0.6047  -0.1183   1.6258 O.3            1 S1                 0.0000
     11 ****         1.1835   0.3769   0.1400 C.3            1 S1                 0.0000
     12 ****         1.6791  -0.9357  -0.0890 O.3            1 S1                 0.0000
     13 ****         3.0372  -1.1130  -0.2564 C.ar           1 S1                 0.0000
     14 ****         3.9761  -0.0504  -0.2125 C.ar           1 S1                 0.0000
     15 ****         5.3493  -0.2993  -0.3922 C.ar           1 S1                 0.0000
     16 ****         5.8031  -1.6097  -0.6182 C.ar           1 S1                 0.0000
     17 ****         4.8823  -2.6717  -0.6637 C.ar           1 S1                 0.0000
     18 ****         3.5006  -2.4329  -0.4842 C.ar           1 S1                 0.0000
     19 ****         2.5080  -3.5903  -0.5351 C.3            1 S1                 0.0000
     20 ****         3.1134  -4.7567  -0.7632 F              1 S1                 0.0000
     21 ****         1.8583  -3.6800   0.6257 F              1 S1                 0.0000
     22 ****         1.6230  -3.3847  -1.5109 F              1 S1                 0.0000
     23 ****        -3.2403   1.7866   0.9687 N.2            1 S1                 0.0000
     24 ****        -6.3836   1.9482   1.9584 H              1 S1                 0.0000
     25 ****        -5.0594   2.9227   2.5917 H              1 S1                 0.0000
     26 ****        -5.0992   1.1833   2.8917 H              1 S1                 0.0000
     27 ****        -6.2333   1.3691  -0.4483 H              1 S1                 0.0000
     28 ****        -4.8508   0.9965  -2.4137 H              1 S1                 0.0000
     29 ****        -0.5455   2.2104  -0.7270 H              1 S1                 0.0000
     30 ****        -0.8160   2.3268   0.9767 H              1 S1                 0.0000
     31 ****        -0.7514  -0.4150  -0.4082 H              1 S1                 0.0000
     32 ****        -1.5409  -0.1737   1.7430 H              1 S1                 0.0000
     33 ****         1.4291   0.9873  -0.7304 H              1 S1                 0.0000
     34 ****         1.6455   0.8388   1.0145 H              1 S1                 0.0000
     35 ****         3.6688   0.9699  -0.0418 H              1 S1                 0.0000
     36 ****         6.0550   0.5176  -0.3568 H              1 S1                 0.0000
     37 ****         6.8571  -1.8010  -0.7569 H              1 S1                 0.0000
     38 ****         5.2506  -3.6715  -0.8386 H              1 S1                 0.0000
     39 ****        -2.5881   0.8817  -3.2570 LP             1 S1                 0.0000
     40 ****        -1.1983   1.1544  -2.2600 LP             1 S1                 0.0000
     41 ****        -0.2218   0.5408   2.2731 LP             1 S1                 0.0000
     42 ****        -0.1914  -1.0157   1.7802 LP             1 S1                 0.0000
     43 ****         1.2337  -1.2780  -0.9163 LP             1 S1                 0.0000
     44 ****         1.4039  -1.4945   0.6933 LP             1 S1                 0.0000
     45 ****        -2.8080   1.9925   1.8466 LP             1 S1                 0.0000
@<TRIPOS>BOND
    1    1    2 1     
    2    1   24 1     
    3    1   25 1     
    4    1   26 1     
    5    2   23 2     
    6    2    3 1     
    7    3    4 2     
    8    3   27 1     
    9    4    5 1     
   10    4   28 1     
   11    5    6 2     
   12    5    7 am    
   13    7    8 1     
   14    7   23 1     
   15    8    9 1     
   16    8   29 1     
   17    8   30 1     
   18    9   10 1     
   19    9   11 1     
   20    9   31 1     
   21   10   32 1     
   22   11   12 1     
   23   11   33 1     
   24   11   34 1     
   25   12   13 1     
   26   13   18 ar    
   27   13   14 ar    
   28   14   15 ar    
   29   14   35 1     
   30   15   16 ar    
   31   15   36 1     
   32   16   17 ar    
   33   16   37 1     
   34   17   18 ar    
   35   17   38 1     
   36   18   19 1     
   37   19   20 1     
   38   19   21 1     
   39   19   22 1     
   40    6   39 1     
   41    6   40 1     
   42   10   41 1     
   43   10   42 1     
   44   12   43 1     
   45   12   44 1     
   46   23   45 1     
@<TRIPOS>SUBSTRUCTURE
      1 S1             1
@<TRIPOS>SET
LONE_PAIRS      STATIC     ATOMS    <user>   **** ""
7 39 40 41 42 43 44 45
DONOR_HYDROGENS      STATIC     ATOMS    <user>   **** ""
1 32
ATOM$BLUE        STATIC     ATOMS    COLORGROUP SYSTEM
7 39 40 41 42 43 44 45
ATOM$RED        STATIC     ATOMS    COLORGROUP SYSTEM
1 32
