AV-unprocessed.smi:379|AV-procd|sdf|2458|dock3
  -GOLD-   2262022403D 1   1.00000     0.00000
 Structure written by MMmdl.
 39 40  0  0  0  0  0  0  0  0  1 V2000
  151.3829  145.0095  159.9271 C   0  0  0  0  0  0  0  0  0  0  0  0
  152.5235  144.0210  160.2120 C   0  0  0  0  0  0  0  0  0  0  0  0
  152.2139  142.5700  159.7931 C   0  0  2  0  0  0  0  0  0  0  0  0
  153.3145  141.6024  160.2488 C   0  0  0  0  0  0  0  0  0  0  0  0
  152.0640  142.4745  158.3419 N   0  0  0  0  0  0  0  0  0  0  0  0
  150.9098  142.3225  157.6742 C   0  0  0  0  0  0  0  0  0  0  0  0
  149.8134  142.2224  158.2269 O   0  0  0  0  0  0  0  0  0  0  0  0
  151.0292  142.2799  156.1435 C   0  0  0  0  0  0  0  0  0  0  0  0
  150.5450  141.0133  155.5518 N   0  0  0  0  0  0  0  0  0  0  0  0
  151.2935  139.8314  155.7860 C   0  0  0  0  0  0  0  0  0  0  0  0
  152.3247  139.8567  156.4607 O   0  0  0  0  0  0  0  0  0  0  0  0
  150.7555  138.6156  155.1804 C   0  0  0  0  0  0  0  0  0  0  0  0
  151.4580  137.3999  155.4260 C   0  0  0  0  0  0  0  0  0  0  0  0
  152.0089  136.3999  155.6165 N   0  0  0  0  0  0  0  0  0  0  0  0
  149.6370  138.6507  154.4275 C   0  0  0  0  0  0  0  0  0  0  0  0
  148.9533  139.8188  154.1695 N   0  0  0  0  0  0  0  0  0  0  0  0
  147.6822  139.8106  153.5016 C   0  0  0  0  0  0  0  0  0  0  0  0
  146.4805  140.4089  154.1998 C   0  0  0  0  0  0  0  0  0  0  0  0
  146.5633  138.9157  153.9977 C   0  0  0  0  0  0  0  0  0  0  0  0
  149.3696  141.0312  154.7618 C   0  0  0  0  0  0  0  0  0  0  0  0
  148.7275  142.0720  154.6014 O   0  0  0  0  0  0  0  0  0  0  0  0
  151.6348  146.0059  160.2907 H   0  0  0  0  0  0  0  0  0  0  0  0
  150.4619  144.6990  160.4209 H   0  0  0  0  0  0  0  0  0  0  0  0
  151.1790  145.0927  158.8594 H   0  0  0  0  0  0  0  0  0  0  0  0
  153.4301  144.3646  159.7124 H   0  0  0  0  0  0  0  0  0  0  0  0
  152.7407  144.0444  161.2802 H   0  0  0  0  0  0  0  0  0  0  0  0
  151.2905  142.2644  160.2880 H   0  0  0  0  0  0  0  0  0  0  0  0
  153.4380  141.6307  161.3318 H   0  0  0  0  0  0  0  0  0  0  0  0
  154.2759  141.8506  159.7976 H   0  0  0  0  0  0  0  0  0  0  0  0
  153.0722  140.5754  159.9736 H   0  0  0  0  0  0  0  0  0  0  0  0
  152.9116  142.5439  157.7978 H   0  0  0  0  0  0  0  0  0  0  0  0
  150.4834  143.1262  155.7225 H   0  0  0  0  0  0  0  0  0  0  0  0
  152.0683  142.4793  155.8785 H   0  0  0  0  0  0  0  0  0  0  0  0
  149.2646  137.7295  154.0028 H   0  0  0  0  0  0  0  0  0  0  0  0
  147.7248  139.9605  152.4242 H   0  0  0  0  0  0  0  0  0  0  0  0
  146.6079  140.7808  155.2147 H   0  0  0  0  0  0  0  0  0  0  0  0
  145.7705  140.9611  153.5876 H   0  0  0  0  0  0  0  0  0  0  0  0
  145.9093  138.4712  153.2502 H   0  0  0  0  0  0  0  0  0  0  0  0
  146.7446  138.3046  154.8799 H   0  0  0  0  0  0  0  0  0  0  0  0
  1  2  1  0  0  0  0
  1 22  1  0  0  0  0
  1 23  1  0  0  0  0
  1 24  1  0  0  0  0
  2  3  1  0  0  0  0
  2 25  1  0  0  0  0
  2 26  1  0  0  0  0
  3  4  1  0  0  0  0
  3  5  1  0  0  0  0
  3 27  1  0  0  0  0
  4 28  1  0  0  0  0
  4 29  1  0  0  0  0
  4 30  1  0  0  0  0
  5  6  1  0  0  0  0
  5 31  1  0  0  0  0
  6  7  2  0  0  0  0
  6  8  1  0  0  0  0
  8  9  1  0  0  0  0
  8 32  1  0  0  0  0
  8 33  1  0  0  0  0
  9 20  1  0  0  0  0
  9 10  1  0  0  0  0
 10 11  2  0  0  0  0
 10 12  1  0  0  0  0
 12 13  1  0  0  0  0
 12 15  2  0  0  0  0
 13 14  3  0  0  0  0
 15 16  1  0  0  0  0
 15 34  1  0  0  0  0
 16 17  1  0  0  0  0
 16 20  1  0  0  0  0
 17 19  1  0  0  0  0
 17 18  1  0  0  0  0
 17 35  1  0  0  0  0
 18 19  1  0  0  0  0
 18 36  1  0  0  0  0
 18 37  1  0  0  0  0
 19 38  1  0  0  0  0
 19 39  1  0  0  0  0
 20 21  2  0  0  0  0
M  END
> <s_m_source_file>
AV-unprocessed.smi

> <i_m_source_file_index>
379

> <i_lp_mmshare_version>
43012

> <i_f3d_flags>
0

> <s_epik_input>
W0NIM11bQ0gyXVtDQEhdKFtDSDNdKVtOSF1DKD1PKVtDSDJdbjFjKD1PKWMoQyNOKVtjSF1uKGMxPU8pW0NIXTJbQ0gyXVtDSDJdMg==

> <s_epik_cmdline>
J2VwaWtfcHl0aG9uJywgJy1waCcsICc3LjAnLCAnLXRuJywgJzgnLCAnLW1hJywgJzIwMCcsICctbWV0YWxfYmluZGluZycsICctaW1hZScsICc8aW5maWxlLm1hZT4nLCAnLW9tYWUnLCAnPG91dGZpbGUubWFlPic=

> <r_lp_tautomer_probability>
1

> <r_epik_Ionization_Penalty>
1.93863e-08

> <r_epik_Ionization_Penalty_Charging>
8.45512e-11

> <r_epik_Ionization_Penalty_Neutral>
1.93017e-08

> <r_epik_State_Penalty>
-0

> <r_epik_Charging_Adjusted_Penalty>
8.45512e-11

> <i_epik_Tot_Q>
0

> <i_epik_Tot_abs_Q>
0

> <r_epik_Metal_State_Penalty>
-0

> <b_epik_Metal_Only>
0

> <s_lp_Force_Field>
OPLS_2005

> <r_lp_Energy>
29.5524

> <b_lp_Chiralities_Consistent>
1

> <s_lp_Variant>
AV-unprocessed.smi:379-1

> <Gold.Version>
5.8.1

> <Gold.Id.Protein>
6NUR|6NUR_protein|mol2

> <Gold.PLP.Fitness>
46.8607

> <Gold.PLP.PLP>
-38.9853

> <Gold.PLP.part.hbond>
-2.6130

> <Gold.PLP.part.metal>
0.0000

> <Gold.PLP.part.buried>
-3.0788

> <Gold.PLP.part.nonpolar>
-35.3220

> <Gold.PLP.part.repulsive>
2.2340

> <Gold.PLP.ligand.clash>
0.0000

> <Gold.PLP.ligand.torsion>
0.3361

> <Gold.PLP.Chemscore.Hbond>
1.9913

> <Gold.PLP.Chemscore.CHOScore>
0.7803

> <Gold.PLP.Chemscore.Metal>
0.0000

> <Gold.Chemscore.Hbonds>
donor molecule, donor type, donor heavy atom, donor atom, acceptor molecule, acceptor atom, score
      P1  H  7997  8009       L1    11  1.00
      P1  H 10752 10765       L1    14  1.00
      L1  C    15    34       P1  7948  0.80

> <Gold.PLP.Chemscore.Internal.Correction>
0.2331

> <Gold.Rescore>
     Score         DG    S(hbond)    S(metal)    S(lipo)     H(rot)  DE(clash)    DE(int)     intcor
     13.30     -16.37       1.94        0.00      80.81       1.98       1.38       1.69       ----

> <Gold.Chemscore.Fitness>
13.3015

> <Gold.Chemscore.DG>
-16.3678

> <Gold.Chemscore.ZeroCoef>
-5.4800

> <Gold.Chemscore.Hbond>
1.9446

> <Gold.Chemscore.Metal>
0.0000

> <Gold.Chemscore.Lipo>
80.8130

> <Gold.Chemscore.Internal_Hbond>
0.0000

> <Gold.Chemscore.DEClash>
1.3757

> <Gold.Chemscore.DEInternal>
1.6906

> <Gold.Chemscore.Rot>
1.9774

> <Gold.Chemscore.Internal.Correction>
   9.000000E+99

> <Gold.Chemscore.Hbonds>
donor molecule, donor type, donor heavy atom, donor atom, acceptor molecule, acceptor atom, score
      P1  H  7997  8009       L1    11  0.93
      P1  H 10752 10765       L1    14  0.93

> <Gold.Chemscore.Hbond.Weighted>
-6.4949

> <Gold.Chemscore.Metal.Weighted>
-0.0000

> <Gold.Chemscore.Lipo.Weighted>
-9.4551

> <Gold.Chemscore.Internal_Hbond.Weighted>
0.0000

> <Gold.Chemscore.DEClash.Weighted>
1.3757

> <Gold.Chemscore.DEInternal.Weighted>
1.6906

> <Gold.Chemscore.Rot.Weighted>
5.0623

> <Gold.Chemscore.Internal.Correction.Weighted>
   9.000000E+99

> <Gold.Protein.RotatedTorsions>
[ 6907 6896 6895 6894 ] final  121.35 input  -60.11 | X-H torsion
[ 7974 7965 7964 7962 ] final  101.23 input  175.53 | X-H torsion
[ 8008 7997 7996 7995 ] final -163.49 input   59.86 | X-H torsion
[ 10167 10162 10161 10158 ] final  130.27 input  -65.29 | X-H torsion
[ 10718 10713 10712 10709 ] final  160.42 input   66.30 | X-H torsion
[ 10763 10752 10751 10750 ] final -157.57 input  -60.55 | X-H torsion
[ 11005 11000 10999 10996 ] final  178.56 input  -57.11 | X-H torsion

> <Gold.Protein.ActiveResidues>
 VAL166  LYS551  ARG553  GLY616  TRP617  ASP618  TYR619  PRO620  LYS621  CYS622 
 ASP623  PHE694  ASN695  SER759  ASP760  ASP761  ALA762  ILE779  LEU786  VAL792 
 PHE793  MET794  SER795  GLU796  ALA797  LYS798  CYS799  TRP800  GLU811  SER814 

> <Gold.Protein.RotatedAtoms>
  152.4328  133.7308  159.6586 H   0  0  0  0  0  0  0  0  0  0  0  0  # atno 6907 bound_to 6896
  150.8209  133.8244  159.3145 H   0  0  0  0  0  0  0  0  0  0  0  0  # atno 6908 bound_to 6896
  151.5926  135.1054  160.0094 H   0  0  0  0  0  0  0  0  0  0  0  0  # atno 6909 bound_to 6896
  145.3751  139.2390  143.3434 H   0  0  0  0  0  0  0  0  0  0  0  0  # atno 7974 bound_to 7965
  155.8221  140.0921  157.1843 H   0  0  0  0  0  0  0  0  0  0  0  0  # atno 8008 bound_to 7997
  154.3979  140.1435  156.3572 H   0  0  0  0  0  0  0  0  0  0  0  0  # atno 8009 bound_to 7997
  155.8256  140.3444  155.5543 H   0  0  0  0  0  0  0  0  0  0  0  0  # atno 8010 bound_to 7997
  139.5438  144.6755  151.4539 H   0  0  0  0  0  0  0  0  0  0  0  0  # atno 10167 bound_to 10162
  157.1506  131.0563  151.2282 H   0  0  0  0  0  0  0  0  0  0  0  0  # atno 10718 bound_to 10713
  154.7625  135.3122  154.8350 H   0  0  0  0  0  0  0  0  0  0  0  0  # atno 10763 bound_to 10752
  153.9106  135.6806  153.4755 H   0  0  0  0  0  0  0  0  0  0  0  0  # atno 10764 bound_to 10752
  153.1228  135.4815  154.9155 H   0  0  0  0  0  0  0  0  0  0  0  0  # atno 10765 bound_to 10752
  140.3964  134.6816  157.4537 H   0  0  0  0  0  0  0  0  0  0  0  0  # atno 11005 bound_to 11000
  146.2867  140.4409  142.8755 LP  0  0  0  0  0  0  0  0  0  0  0  0  # atno 17320 bound_to 7965
  144.8548  140.7054  143.6145 LP  0  0  0  0  0  0  0  0  0  0  0  0  # atno 17321 bound_to 7965
  140.6678  143.8359  150.6963 LP  0  0  0  0  0  0  0  0  0  0  0  0  # atno 17342 bound_to 10162
  140.1774  143.4144  152.1958 LP  0  0  0  0  0  0  0  0  0  0  0  0  # atno 17343 bound_to 10162
  157.4224  130.7444  149.6923 LP  0  0  0  0  0  0  0  0  0  0  0  0  # atno 17370 bound_to 10713
  155.9771  130.4067  150.3734 LP  0  0  0  0  0  0  0  0  0  0  0  0  # atno 17371 bound_to 10713
  140.0368  134.6325  155.9032 LP  0  0  0  0  0  0  0  0  0  0  0  0  # atno 17394 bound_to 11000
  141.1872  133.6559  156.5273 LP  0  0  0  0  0  0  0  0  0  0  0  0  # atno 17395 bound_to 11000

$$$$
