AV-unprocessed.smi:1419|AV-procd|sdf|5775|dock8
  -GOLD-   22720 5423D 1   1.00000     0.00000
 Structure written by MMmdl.
 42 43  0  0  0  0  0  0  0  0  2 V2000
  153.1019  142.6642  162.0729 C   0  0  0  0  0  0  0  0  0  0  0  0
  152.9244  141.8530  160.7826 C   0  0  1  0  0  0  0  0  0  0  0  0
  153.4186  142.6422  159.5510 C   0  0  0  0  0  0  0  0  0  0  0  0
  152.4131  143.5758  159.0309 N   0  0  0  0  0  0  0  0  0  0  0  0
  151.9740  144.7344  159.6181 C   0  0  0  0  0  0  0  0  0  0  0  0
  151.0222  145.2596  158.7823 C   0  0  0  0  0  0  0  0  0  0  0  0
  150.9241  144.4028  157.7188 N   0  3  0  0  0  0  0  0  0  0  0  0
  151.7749  143.3825  157.8686 C   0  0  0  0  0  0  0  0  0  0  0  0
  153.6479  140.5890  160.9130 N   0  0  0  0  0  0  0  0  0  0  0  0
  153.8353  139.6823  159.9374 C   0  0  0  0  0  0  0  0  0  0  0  0
  153.3323  139.8061  158.8198 O   0  0  0  0  0  0  0  0  0  0  0  0
  154.6180  138.6318  160.2854 N   0  0  0  0  0  0  0  0  0  0  0  0
  155.0453  137.5342  159.4077 C   0  0  0  0  0  0  0  0  0  0  0  0
  154.1797  136.3010  159.7368 C   0  0  1  0  0  0  0  0  0  0  0  0
  154.5750  135.0759  158.9057 C   0  0  0  0  0  0  0  0  0  0  0  0
  154.3396  135.9739  161.1175 O   0  0  0  0  0  0  0  0  0  0  0  0
  153.9969  137.0340  162.0110 C   0  0  1  0  0  0  0  0  0  0  0  0
  154.2107  136.5403  163.4456 C   0  0  0  0  0  0  0  0  0  0  0  0
  154.8607  138.2690  161.6830 C   0  0  0  0  0  0  0  0  0  0  0  0
  152.5521  143.6047  162.0236 H   0  0  0  0  0  0  0  0  0  0  0  0
  154.1508  142.9021  162.2531 H   0  0  0  0  0  0  0  0  0  0  0  0
  152.7312  142.1130  162.9378 H   0  0  0  0  0  0  0  0  0  0  0  0
  151.8562  141.6587  160.6699 H   0  0  0  0  0  0  0  0  0  0  0  0
  154.2997  143.2315  159.8085 H   0  0  0  0  0  0  0  0  0  0  0  0
  153.7153  141.9653  158.7479 H   0  0  0  0  0  0  0  0  0  0  0  0
  152.3552  145.0849  160.5665 H   0  0  0  0  0  0  0  0  0  0  0  0
  150.4221  146.1544  158.8637 H   0  0  0  0  0  0  0  0  0  0  0  0
  151.9090  142.5586  157.1903 H   0  0  0  0  0  0  0  0  0  0  0  0
  154.0735  140.4032  161.8096 H   0  0  0  0  0  0  0  0  0  0  0  0
  154.9788  137.7679  158.3450 H   0  0  0  0  0  0  0  0  0  0  0  0
  156.0984  137.3155  159.5917 H   0  0  0  0  0  0  0  0  0  0  0  0
  153.1291  136.5275  159.5462 H   0  0  0  0  0  0  0  0  0  0  0  0
  154.4566  135.2696  157.8392 H   0  0  0  0  0  0  0  0  0  0  0  0
  153.9532  134.2167  159.1583 H   0  0  0  0  0  0  0  0  0  0  0  0
  155.6145  134.7982  159.0826 H   0  0  0  0  0  0  0  0  0  0  0  0
  152.9409  137.2783  161.8804 H   0  0  0  0  0  0  0  0  0  0  0  0
  153.9457  137.3112  164.1696 H   0  0  0  0  0  0  0  0  0  0  0  0
  155.2516  136.2634  163.6166 H   0  0  0  0  0  0  0  0  0  0  0  0
  153.5947  135.6648  163.6523 H   0  0  0  0  0  0  0  0  0  0  0  0
  155.9190  138.0427  161.8230 H   0  0  0  0  0  0  0  0  0  0  0  0
  154.6363  139.0842  162.3729 H   0  0  0  0  0  0  0  0  0  0  0  0
  150.2983  144.5217  156.9318 H   0  0  0  0  0  0  0  0  0  0  0  0
  1  2  1  0  0  0  0
  1 20  1  0  0  0  0
  1 21  1  0  0  0  0
  1 22  1  0  0  0  0
  2  3  1  0  0  0  0
  2  9  1  0  0  0  0
  2 23  1  0  0  0  0
  3  4  1  0  0  0  0
  3 24  1  0  0  0  0
  3 25  1  0  0  0  0
  4  8  1  0  0  0  0
  4  5  1  0  0  0  0
  5  6  2  0  0  0  0
  5 26  1  0  0  0  0
  6  7  1  0  0  0  0
  6 27  1  0  0  0  0
  7  8  2  0  0  0  0
  7 42  1  0  0  0  0
  8 28  1  0  0  0  0
  9 10  1  0  0  0  0
  9 29  1  0  0  0  0
 10 11  2  0  0  0  0
 10 12  1  0  0  0  0
 12 19  1  0  0  0  0
 12 13  1  0  0  0  0
 13 14  1  0  0  0  0
 13 30  1  0  0  0  0
 13 31  1  0  0  0  0
 14 15  1  0  0  0  0
 14 16  1  0  0  0  0
 14 32  1  0  0  0  0
 15 33  1  0  0  0  0
 15 34  1  0  0  0  0
 15 35  1  0  0  0  0
 16 17  1  0  0  0  0
 17 18  1  0  0  0  0
 17 19  1  0  0  0  0
 17 36  1  0  0  0  0
 18 37  1  0  0  0  0
 18 38  1  0  0  0  0
 18 39  1  0  0  0  0
 19 40  1  0  0  0  0
 19 41  1  0  0  0  0
M  CHG  1   7   1
M  END
> <s_m_source_file>
AV-unprocessed.smi

> <i_m_source_file_index>
1419

> <i_lp_mmshare_version>
43012

> <i_f3d_flags>
0

> <s_epik_input>
W2NIXTFuW2NIXVtjSF1uMVtDSDJdW0NAQEhdKFtDSDNdKVtOSF1DKD1PKU4yW0NIMl1bQ0BASF0oW0NIM10pT1tDQEBIXShbQ0gzXSlbQ0gyXTI=

> <s_epik_cmdline>
J2VwaWtfcHl0aG9uJywgJy1waCcsICc3LjAnLCAnLXRuJywgJzgnLCAnLW1hJywgJzIwMCcsICctbWV0YWxfYmluZGluZycsICctaW1hZScsICc8aW5maWxlLm1hZT4nLCAnLW9tYWUnLCAnPG91dGZpbGUubWFlPic=

> <r_lp_tautomer_probability>
1

> <r_epik_Ionization_Penalty>
0.253607

> <r_epik_Ionization_Penalty_Charging>
0

> <r_epik_Ionization_Penalty_Neutral>
0.253607

> <r_epik_State_Penalty>
0.245018

> <r_epik_Charging_Adjusted_Penalty>
0.245018

> <i_epik_Tot_Q>
1

> <i_epik_Tot_abs_Q>
1

> <r_epik_Metal_State_Penalty>
0.535379

> <b_epik_Metal_Only>
0

> <s_lp_Force_Field>
OPLS_2005

> <r_lp_Energy>
29.1854

> <b_lp_Chiralities_Consistent>
1

> <s_lp_Variant>
AV-unprocessed.smi:1419-2

> <Gold.Version>
5.8.1

> <Gold.Id.Protein>
6NUR|6NUR_protein|mol2

> <Gold.PLP.Fitness>
48.9438

> <Gold.PLP.PLP>
-41.6906

> <Gold.PLP.part.hbond>
-2.0000

> <Gold.PLP.part.metal>
0.0000

> <Gold.PLP.part.buried>
-5.3945

> <Gold.PLP.part.nonpolar>
-34.0839

> <Gold.PLP.part.repulsive>
0.1206

> <Gold.PLP.ligand.clash>
0.7714

> <Gold.PLP.ligand.torsion>
0.5219

> <Gold.PLP.Chemscore.Hbond>
3.0000

> <Gold.PLP.Chemscore.CHOScore>
0.0000

> <Gold.PLP.Chemscore.Metal>
0.0000

> <Gold.Chemscore.Hbonds>
donor molecule, donor type, donor heavy atom, donor atom, acceptor molecule, acceptor atom, score
      L1  H     7    42       P1  8028  2.00
      P1  H  7997  8010       L1    11  0.57

> <Gold.PLP.Chemscore.Internal.Correction>
0.0685

> <Gold.Rescore>
     Score         DG    S(hbond)    S(metal)    S(lipo)     H(rot)  DE(clash)    DE(int)     intcor
     16.28     -18.07       1.92        0.00      88.33       1.63       0.02       1.76       ----

> <Gold.Chemscore.Fitness>
16.2828

> <Gold.Chemscore.DG>
-18.0651

> <Gold.Chemscore.ZeroCoef>
-5.4800

> <Gold.Chemscore.Hbond>
1.9211

> <Gold.Chemscore.Metal>
0.0000

> <Gold.Chemscore.Lipo>
88.3294

> <Gold.Chemscore.Internal_Hbond>
0.0000

> <Gold.Chemscore.DEClash>
0.0202

> <Gold.Chemscore.DEInternal>
1.7621

> <Gold.Chemscore.Rot>
1.6273

> <Gold.Chemscore.Internal.Correction>
   9.000000E+99

> <Gold.Chemscore.Hbonds>
donor molecule, donor type, donor heavy atom, donor atom, acceptor molecule, acceptor atom, score
      L1  H     7    42       P1  8028  0.78
      P1  H  7997  8010       L1    11  0.54

> <Gold.Chemscore.Hbond.Weighted>
-6.4164

> <Gold.Chemscore.Metal.Weighted>
-0.0000

> <Gold.Chemscore.Lipo.Weighted>
-10.3345

> <Gold.Chemscore.Internal_Hbond.Weighted>
0.0000

> <Gold.Chemscore.DEClash.Weighted>
0.0202

> <Gold.Chemscore.DEInternal.Weighted>
1.7621

> <Gold.Chemscore.Rot.Weighted>
4.1658

> <Gold.Chemscore.Internal.Correction.Weighted>
   9.000000E+99

> <Gold.Protein.RotatedTorsions>
[ 6907 6896 6895 6894 ] final  -37.24 input  -60.11 | X-H torsion
[ 7974 7965 7964 7962 ] final   53.02 input  175.53 | X-H torsion
[ 8008 7997 7996 7995 ] final   35.78 input   59.86 | X-H torsion
[ 10167 10162 10161 10158 ] final   88.94 input  -65.29 | X-H torsion
[ 10718 10713 10712 10709 ] final  130.42 input   66.30 | X-H torsion
[ 10763 10752 10751 10750 ] final -162.46 input  -60.55 | X-H torsion
[ 11005 11000 10999 10996 ] final   44.10 input  -57.11 | X-H torsion

> <Gold.Protein.ActiveResidues>
 VAL166  LYS551  ARG553  GLY616  TRP617  ASP618  TYR619  PRO620  LYS621  CYS622 
 ASP623  PHE694  ASN695  SER759  ASP760  ASP761  ALA762  ILE779  LEU786  VAL792 
 PHE793  MET794  SER795  GLU796  ALA797  LYS798  CYS799  TRP800  GLU811  SER814 

> <Gold.Protein.RotatedAtoms>
  151.0171  134.9441  159.8038 H   0  0  0  0  0  0  0  0  0  0  0  0  # atno 6907 bound_to 6896
  152.5316  134.2952  159.9068 H   0  0  0  0  0  0  0  0  0  0  0  0  # atno 6908 bound_to 6896
  151.2959  133.4102  159.2670 H   0  0  0  0  0  0  0  0  0  0  0  0  # atno 6909 bound_to 6896
  145.9754  139.4189  143.0164 H   0  0  0  0  0  0  0  0  0  0  0  0  # atno 7974 bound_to 7965
  155.1767  140.3296  155.4382 H   0  0  0  0  0  0  0  0  0  0  0  0  # atno 8008 bound_to 7997
  156.2491  140.1934  156.6817 H   0  0  0  0  0  0  0  0  0  0  0  0  # atno 8009 bound_to 7997
  154.6300  140.0584  156.9706 H   0  0  0  0  0  0  0  0  0  0  0  0  # atno 8010 bound_to 7997
  139.8622  144.6537  150.9045 H   0  0  0  0  0  0  0  0  0  0  0  0  # atno 10167 bound_to 10162
  157.5063  131.1095  150.9356 H   0  0  0  0  0  0  0  0  0  0  0  0  # atno 10718 bound_to 10713
  154.7212  135.3026  154.9044 H   0  0  0  0  0  0  0  0  0  0  0  0  # atno 10763 bound_to 10752
  153.9915  135.6718  153.4758 H   0  0  0  0  0  0  0  0  0  0  0  0  # atno 10764 bound_to 10752
  153.0836  135.4996  154.8469 H   0  0  0  0  0  0  0  0  0  0  0  0  # atno 10765 bound_to 10752
  140.1583  134.4373  155.8334 H   0  0  0  0  0  0  0  0  0  0  0  0  # atno 11005 bound_to 11000
  145.7846  140.9841  143.1081 LP  0  0  0  0  0  0  0  0  0  0  0  0  # atno 17320 bound_to 7965
  144.6847  139.9607  143.7480 LP  0  0  0  0  0  0  0  0  0  0  0  0  # atno 17321 bound_to 7965
  140.7773  143.3734  151.1607 LP  0  0  0  0  0  0  0  0  0  0  0  0  # atno 17342 bound_to 10162
  139.7362  143.8995  152.3036 LP  0  0  0  0  0  0  0  0  0  0  0  0  # atno 17343 bound_to 10162
  157.0010  130.5600  149.5311 LP  0  0  0  0  0  0  0  0  0  0  0  0  # atno 17370 bound_to 10713
  156.0261  130.5354  150.8409 LP  0  0  0  0  0  0  0  0  0  0  0  0  # atno 17371 bound_to 10713
  141.2207  133.6902  156.7548 LP  0  0  0  0  0  0  0  0  0  0  0  0  # atno 17394 bound_to 11000
  140.2520  134.8533  157.3677 LP  0  0  0  0  0  0  0  0  0  0  0  0  # atno 17395 bound_to 11000

$$$$
