AV-unprocessed.smi:2374|AV-procd|sdf|9441|dock8
  -GOLD-   2272013 73D 1   1.00000     0.00000
 Structure written by MMmdl.
 38 39  0  0  0  0  0  0  0  0  1 V2000
  149.4716  134.5625  154.5862 C   0  0  0  0  0  0  0  0  0  0  0  0
  150.1071  135.6093  155.4559 C   0  0  0  0  0  0  0  0  0  0  0  0
  151.3704  135.9437  155.2537 N   0  0  0  0  0  0  0  0  0  0  0  0
  151.6677  136.9170  156.2125 O   0  0  0  0  0  0  0  0  0  0  0  0
  150.5588  137.1304  156.9656 C   0  0  0  0  0  0  0  0  0  0  0  0
  150.6721  138.1374  158.0597 C   0  0  0  0  0  0  0  0  0  0  0  0
  149.5315  136.3349  156.5392 C   0  0  0  0  0  0  0  0  0  0  0  0
  148.1312  136.2403  157.0876 C   0  0  0  0  0  0  0  0  0  0  0  0
  148.1915  135.8887  158.5731 C   0  0  0  0  0  0  0  0  0  0  0  0
  149.2751  135.6517  159.1051 O   0  0  0  0  0  0  0  0  0  0  0  0
  147.0152  135.8423  159.2203 N   0  0  0  0  0  0  0  0  0  0  0  0
  146.7916  135.4773  160.6200 C   0  0  0  0  0  0  0  0  0  0  0  0
  147.4546  136.4331  161.5299 C   0  0  0  0  0  0  0  0  0  0  0  0
  147.9730  137.1825  162.2434 N   0  0  0  0  0  0  0  0  0  0  0  0
  145.2652  135.5143  160.8603 C   0  0  0  0  0  0  0  0  0  0  0  0
  144.8787  135.0121  162.2620 C   0  0  0  0  0  0  0  0  0  0  0  0
  145.4111  133.5927  162.5037 C   0  0  0  0  0  0  0  0  0  0  0  0
  146.9274  133.5216  162.2742 C   0  0  0  0  0  0  0  0  0  0  0  0
  147.3024  134.0364  160.8740 C   0  0  0  0  0  0  0  0  0  0  0  0
  149.4835  133.5896  155.0780 H   0  0  0  0  0  0  0  0  0  0  0  0
  149.9931  134.4600  153.6339 H   0  0  0  0  0  0  0  0  0  0  0  0
  148.4332  134.8113  154.3667 H   0  0  0  0  0  0  0  0  0  0  0  0
  151.7070  138.4486  158.2038 H   0  0  0  0  0  0  0  0  0  0  0  0
  150.3101  137.7246  159.0016 H   0  0  0  0  0  0  0  0  0  0  0  0
  150.0806  139.0236  157.8295 H   0  0  0  0  0  0  0  0  0  0  0  0
  147.5937  137.1821  156.9701 H   0  0  0  0  0  0  0  0  0  0  0  0
  147.5428  135.4906  156.5574 H   0  0  0  0  0  0  0  0  0  0  0  0
  146.1883  136.0606  158.6842 H   0  0  0  0  0  0  0  0  0  0  0  0
  144.8901  136.5295  160.7228 H   0  0  0  0  0  0  0  0  0  0  0  0
  144.7586  134.8997  160.1139 H   0  0  0  0  0  0  0  0  0  0  0  0
  145.2734  135.6876  163.0217 H   0  0  0  0  0  0  0  0  0  0  0  0
  143.7942  135.0247  162.3741 H   0  0  0  0  0  0  0  0  0  0  0  0
  145.1725  133.2729  163.5184 H   0  0  0  0  0  0  0  0  0  0  0  0
  144.9081  132.8950  161.8330 H   0  0  0  0  0  0  0  0  0  0  0  0
  147.4419  134.1099  163.0350 H   0  0  0  0  0  0  0  0  0  0  0  0
  147.2723  132.4945  162.3956 H   0  0  0  0  0  0  0  0  0  0  0  0
  146.8869  133.3611  160.1243 H   0  0  0  0  0  0  0  0  0  0  0  0
  148.3855  133.9888  160.7575 H   0  0  0  0  0  0  0  0  0  0  0  0
  1  2  1  0  0  0  0
  1 20  1  0  0  0  0
  1 21  1  0  0  0  0
  1 22  1  0  0  0  0
  2  7  1  0  0  0  0
  2  3  2  0  0  0  0
  3  4  1  0  0  0  0
  4  5  1  0  0  0  0
  5  6  1  0  0  0  0
  5  7  2  0  0  0  0
  6 23  1  0  0  0  0
  6 24  1  0  0  0  0
  6 25  1  0  0  0  0
  7  8  1  0  0  0  0
  8  9  1  0  0  0  0
  8 26  1  0  0  0  0
  8 27  1  0  0  0  0
  9 10  2  0  0  0  0
  9 11  1  0  0  0  0
 11 12  1  0  0  0  0
 11 28  1  0  0  0  0
 12 19  1  0  0  0  0
 12 13  1  0  0  0  0
 12 15  1  0  0  0  0
 13 14  3  0  0  0  0
 15 16  1  0  0  0  0
 15 29  1  0  0  0  0
 15 30  1  0  0  0  0
 16 17  1  0  0  0  0
 16 31  1  0  0  0  0
 16 32  1  0  0  0  0
 17 18  1  0  0  0  0
 17 33  1  0  0  0  0
 17 34  1  0  0  0  0
 18 19  1  0  0  0  0
 18 35  1  0  0  0  0
 18 36  1  0  0  0  0
 19 37  1  0  0  0  0
 19 38  1  0  0  0  0
M  END
> <s_m_source_file>
AV-unprocessed.smi

> <i_m_source_file_index>
2374

> <i_lp_mmshare_version>
43012

> <i_f3d_flags>
0

> <s_epik_input>
W0NIM11jMW5vYyhbQ0gzXSljMVtDSDJdQyg9TylbTkhdQzIoQyNOKVtDSDJdW0NIMl1bQ0gyXVtDSDJdW0NIMl0y

> <s_epik_cmdline>
J2VwaWtfcHl0aG9uJywgJy1waCcsICc3LjAnLCAnLXRuJywgJzgnLCAnLW1hJywgJzIwMCcsICctbWV0YWxfYmluZGluZycsICctaW1hZScsICc8aW5maWxlLm1hZT4nLCAnLW9tYWUnLCAnPG91dGZpbGUubWFlPic=

> <r_lp_tautomer_probability>
1

> <r_epik_Ionization_Penalty>
5.32351e-07

> <r_epik_Ionization_Penalty_Charging>
0

> <r_epik_Ionization_Penalty_Neutral>
5.32351e-07

> <r_epik_State_Penalty>
-0

> <r_epik_Charging_Adjusted_Penalty>
0

> <i_epik_Tot_Q>
0

> <i_epik_Tot_abs_Q>
0

> <r_epik_Metal_State_Penalty>
-0

> <b_epik_Metal_Only>
0

> <s_lp_Force_Field>
OPLS_2005

> <r_lp_Energy>
1.24433

> <b_lp_Chiralities_Consistent>
1

> <s_lp_Variant>
AV-unprocessed.smi:2374-1

> <Gold.Version>
5.8.1

> <Gold.Id.Protein>
6NUR|6NUR_protein|mol2

> <Gold.PLP.Fitness>
34.5017

> <Gold.PLP.PLP>
-25.4331

> <Gold.PLP.part.hbond>
-3.8537

> <Gold.PLP.part.metal>
0.0000

> <Gold.PLP.part.buried>
-3.4858

> <Gold.PLP.part.nonpolar>
-17.9551

> <Gold.PLP.part.repulsive>
0.1170

> <Gold.PLP.ligand.clash>
0.0000

> <Gold.PLP.ligand.torsion>
0.0336

> <Gold.PLP.Chemscore.Hbond>
3.0435

> <Gold.PLP.Chemscore.CHOScore>
0.0000

> <Gold.PLP.Chemscore.Metal>
0.0000

> <Gold.Chemscore.Hbonds>
donor molecule, donor type, donor heavy atom, donor atom, acceptor molecule, acceptor atom, score
      P1  H  6896  6908       L1    10  1.00
      P1  H  6931  6943       L1    14  1.00
      P1  H  6934  6947       L1    14  0.04
      P1  H 10752 10764       L1     3  0.95

> <Gold.PLP.Chemscore.Internal.Correction>
0.0053

> <Gold.Rescore>
     Score         DG    S(hbond)    S(metal)    S(lipo)     H(rot)  DE(clash)    DE(int)     intcor
     20.01     -20.23       3.54        0.00      55.59       1.40       0.02       0.21       ----

> <Gold.Chemscore.Fitness>
20.0062

> <Gold.Chemscore.DG>
-20.2348

> <Gold.Chemscore.ZeroCoef>
-5.4800

> <Gold.Chemscore.Hbond>
3.5440

> <Gold.Chemscore.Metal>
0.0000

> <Gold.Chemscore.Lipo>
55.5906

> <Gold.Chemscore.Internal_Hbond>
0.0000

> <Gold.Chemscore.DEClash>
0.0174

> <Gold.Chemscore.DEInternal>
0.2112

> <Gold.Chemscore.Rot>
1.4009

> <Gold.Chemscore.Internal.Correction>
   9.000000E+99

> <Gold.Chemscore.Hbonds>
donor molecule, donor type, donor heavy atom, donor atom, acceptor molecule, acceptor atom, score
      P1  H  6896  6908       L1    10  1.00
      P1  H  6931  6943       L1    14  0.90
      P1  H 10752 10764       L1     3  0.22

> <Gold.Chemscore.Hbond.Weighted>
-11.8369

> <Gold.Chemscore.Metal.Weighted>
-0.0000

> <Gold.Chemscore.Lipo.Weighted>
-6.5041

> <Gold.Chemscore.Internal_Hbond.Weighted>
0.0000

> <Gold.Chemscore.DEClash.Weighted>
0.0174

> <Gold.Chemscore.DEInternal.Weighted>
0.2112

> <Gold.Chemscore.Rot.Weighted>
3.5863

> <Gold.Chemscore.Internal.Correction.Weighted>
   9.000000E+99

> <Gold.Protein.RotatedTorsions>
[ 6907 6896 6895 6894 ] final  164.80 input  -60.11 | X-H torsion
[ 7974 7965 7964 7962 ] final  114.25 input  175.53 | X-H torsion
[ 8008 7997 7996 7995 ] final -115.96 input   59.86 | X-H torsion
[ 10167 10162 10161 10158 ] final    0.60 input  -65.29 | X-H torsion
[ 10718 10713 10712 10709 ] final -162.94 input   66.30 | X-H torsion
[ 10763 10752 10751 10750 ] final  -46.79 input  -60.55 | X-H torsion
[ 11005 11000 10999 10996 ] final  145.99 input  -57.11 | X-H torsion

> <Gold.Protein.ActiveResidues>
 VAL166  LYS551  ARG553  GLY616  TRP617  ASP618  TYR619  PRO620  LYS621  CYS622 
 ASP623  PHE694  ASN695  SER759  ASP760  ASP761  ALA762  ILE779  LEU786  VAL792 
 PHE793  MET794  SER795  GLU796  ALA797  LYS798  CYS799  TRP800  GLU811  SER814 

> <Gold.Protein.RotatedAtoms>
  151.9043  133.3545  159.3841 H   0  0  0  0  0  0  0  0  0  0  0  0  # atno 6907 bound_to 6896
  150.7073  134.4797  159.5473 H   0  0  0  0  0  0  0  0  0  0  0  0  # atno 6908 bound_to 6896
  152.2391  134.8247  160.0514 H   0  0  0  0  0  0  0  0  0  0  0  0  # atno 6909 bound_to 6896
  145.2067  139.2926  143.4290 H   0  0  0  0  0  0  0  0  0  0  0  0  # atno 7974 bound_to 7965
  155.0602  140.0393  157.2574 H   0  0  0  0  0  0  0  0  0  0  0  0  # atno 8008 bound_to 7997
  154.7066  140.2684  155.6645 H   0  0  0  0  0  0  0  0  0  0  0  0  # atno 8009 bound_to 7997
  156.2777  140.2730  156.1693 H   0  0  0  0  0  0  0  0  0  0  0  0  # atno 8010 bound_to 7997
  140.6721  143.7019  150.7945 H   0  0  0  0  0  0  0  0  0  0  0  0  # atno 10167 bound_to 10162
  156.6176  130.8877  151.2950 H   0  0  0  0  0  0  0  0  0  0  0  0  # atno 10718 bound_to 10713
  154.0508  135.6631  153.4800 H   0  0  0  0  0  0  0  0  0  0  0  0  # atno 10763 bound_to 10752
  153.0464  135.5112  154.7752 H   0  0  0  0  0  0  0  0  0  0  0  0  # atno 10764 bound_to 10752
  154.6758  135.3037  154.9647 H   0  0  0  0  0  0  0  0  0  0  0  0  # atno 10765 bound_to 10752
  140.0757  134.9126  157.1419 H   0  0  0  0  0  0  0  0  0  0  0  0  # atno 11005 bound_to 11000
  146.3406  140.2329  142.8594 LP  0  0  0  0  0  0  0  0  0  0  0  0  # atno 17320 bound_to 7965
  144.9895  140.8534  143.5348 LP  0  0  0  0  0  0  0  0  0  0  0  0  # atno 17321 bound_to 7965
  140.0706  143.5064  152.2581 LP  0  0  0  0  0  0  0  0  0  0  0  0  # atno 17342 bound_to 10162
  139.5994  144.7578  151.3207 LP  0  0  0  0  0  0  0  0  0  0  0  0  # atno 17343 bound_to 10162
  157.7237  130.9593  150.1543 LP  0  0  0  0  0  0  0  0  0  0  0  0  # atno 17370 bound_to 10713
  156.2338  130.3684  149.8414 LP  0  0  0  0  0  0  0  0  0  0  0  0  # atno 17371 bound_to 10713
  140.3561  134.2545  155.7192 LP  0  0  0  0  0  0  0  0  0  0  0  0  # atno 17394 bound_to 11000
  141.2028  133.7927  157.0370 LP  0  0  0  0  0  0  0  0  0  0  0  0  # atno 17395 bound_to 11000

$$$$
