AV-unprocessed.smi:1131|AV-procd|sdf|4853|dock5
  -GOLD-   22720 3423D 1   1.00000     0.00000
 Structure written by MMmdl.
 32 33  0  0  0  0  0  0  0  0  2 V2000
  150.4860  140.2695  154.9490 O   0  0  0  0  0  0  0  0  0  0  0  0
  149.7730  141.2298  155.2442 C   0  0  0  0  0  0  0  0  0  0  0  0
  148.4743  141.5077  154.4751 C   0  0  0  0  0  0  0  0  0  0  0  0
  147.5876  140.3355  154.3988 N   0  0  0  0  0  0  0  0  0  0  0  0
  147.3078  139.8088  153.1255 C   0  0  0  0  0  0  0  0  0  0  0  0
  146.5047  138.7406  152.9592 C   0  0  0  0  0  0  0  0  0  0  0  0
  145.9191  138.1265  154.1443 C   0  0  0  0  0  0  0  0  0  0  0  0
  145.1885  137.1464  154.0122 O   0  0  0  0  0  0  0  0  0  0  0  0
  146.2163  138.6777  155.3575 N   0  5  0  0  0  0  0  0  0  0  0  0
  147.0328  139.7661  155.5111 C   0  0  0  0  0  0  0  0  0  0  0  0
  147.2866  140.2491  156.6154 O   0  0  0  0  0  0  0  0  0  0  0  0
  150.0483  142.0679  156.2553 N   0  0  0  0  0  0  0  0  0  0  0  0
  151.2149  141.9891  157.1286 C   0  0  0  0  0  0  0  0  0  0  0  0
  151.1623  143.0402  158.2534 C   0  0  1  0  0  0  0  0  0  0  0  0
  152.0544  142.7579  159.4473 C   0  0  0  0  0  0  0  0  0  0  0  0
  152.1573  144.1331  160.1004 C   0  0  0  0  0  0  0  0  0  0  0  0
  152.0348  145.0797  159.0422 O   0  0  0  0  0  0  0  0  0  0  0  0
  151.6735  144.4177  157.8340 C   0  0  0  0  0  0  0  0  0  0  0  0
  147.9642  142.3388  154.9634 H   0  0  0  0  0  0  0  0  0  0  0  0
  148.7087  141.8663  153.4711 H   0  0  0  0  0  0  0  0  0  0  0  0
  147.7758  140.3255  152.3006 H   0  0  0  0  0  0  0  0  0  0  0  0
  146.2970  138.3499  151.9741 H   0  0  0  0  0  0  0  0  0  0  0  0
  149.4032  142.8259  156.4258 H   0  0  0  0  0  0  0  0  0  0  0  0
  151.3245  140.9850  157.5423 H   0  0  0  0  0  0  0  0  0  0  0  0
  152.0986  142.1612  156.5137 H   0  0  0  0  0  0  0  0  0  0  0  0
  150.1338  143.1453  158.6034 H   0  0  0  0  0  0  0  0  0  0  0  0
  151.6494  142.0006  160.1191 H   0  0  0  0  0  0  0  0  0  0  0  0
  153.0399  142.4275  159.1160 H   0  0  0  0  0  0  0  0  0  0  0  0
  151.3324  144.2862  160.7974 H   0  0  0  0  0  0  0  0  0  0  0  0
  153.0916  144.2642  160.6470 H   0  0  0  0  0  0  0  0  0  0  0  0
  152.5657  144.3266  157.2128 H   0  0  0  0  0  0  0  0  0  0  0  0
  150.9307  144.9873  157.2751 H   0  0  0  0  0  0  0  0  0  0  0  0
  1  2  2  0  0  0  0
  2  3  1  0  0  0  0
  2 12  1  0  0  0  0
  3  4  1  0  0  0  0
  3 19  1  0  0  0  0
  3 20  1  0  0  0  0
  4 10  1  0  0  0  0
  4  5  1  0  0  0  0
  5  6  2  0  0  0  0
  5 21  1  0  0  0  0
  6  7  1  0  0  0  0
  6 22  1  0  0  0  0
  7  8  2  0  0  0  0
  7  9  1  0  0  0  0
  9 10  1  0  0  0  0
 10 11  2  0  0  0  0
 12 13  1  0  0  0  0
 12 23  1  0  0  0  0
 13 14  1  0  0  0  0
 13 24  1  0  0  0  0
 13 25  1  0  0  0  0
 14 18  1  0  0  0  0
 14 15  1  0  0  0  0
 14 26  1  0  0  0  0
 15 16  1  0  0  0  0
 15 27  1  0  0  0  0
 15 28  1  0  0  0  0
 16 17  1  0  0  0  0
 16 29  1  0  0  0  0
 16 30  1  0  0  0  0
 17 18  1  0  0  0  0
 18 31  1  0  0  0  0
 18 32  1  0  0  0  0
M  CHG  1   9  -1
M  END
> <s_m_source_file>
AV-unprocessed.smi

> <i_m_source_file_index>
1131

> <i_lp_mmshare_version>
43012

> <i_f3d_flags>
0

> <s_epik_input>
W0NIMl0xT1tDSDJdW0NIMl1bQ0BIXTFbQ0gyXVtOSF1DKD1PKVtDSDJdbjJbY0hdW2NIXWMoPU8pW25IXWMyPU8=

> <s_epik_cmdline>
J2VwaWtfcHl0aG9uJywgJy1waCcsICc3LjAnLCAnLXRuJywgJzgnLCAnLW1hJywgJzIwMCcsICctbWV0YWxfYmluZGluZycsICctaW1hZScsICc8aW5maWxlLm1hZT4nLCAnLW9tYWUnLCAnPG91dGZpbGUubWFlPic=

> <r_lp_tautomer_probability>
0.999537

> <r_epik_Ionization_Penalty>
3.07866

> <r_epik_Ionization_Penalty_Charging>
2.6898e-08

> <r_epik_Ionization_Penalty_Neutral>
3.07866

> <r_epik_State_Penalty>
3.07769

> <r_epik_Charging_Adjusted_Penalty>
3.07769

> <i_epik_Tot_Q>
-1

> <i_epik_Tot_abs_Q>
1

> <r_epik_Metal_State_Penalty>
0.459839

> <b_epik_Metal_Only>
1

> <s_lp_Force_Field>
OPLS_2005

> <r_lp_Energy>
26.9978

> <b_lp_Chiralities_Consistent>
1

> <s_lp_Variant>
AV-unprocessed.smi:1131-4

> <Gold.Version>
5.8.1

> <Gold.Id.Protein>
6NUR|6NUR_protein|mol2

> <Gold.PLP.Fitness>
39.5869

> <Gold.PLP.PLP>
-31.1542

> <Gold.PLP.part.hbond>
-2.0000

> <Gold.PLP.part.metal>
0.0000

> <Gold.PLP.part.buried>
-3.4635

> <Gold.PLP.part.nonpolar>
-26.2578

> <Gold.PLP.part.repulsive>
0.3806

> <Gold.PLP.ligand.clash>
0.0000

> <Gold.PLP.ligand.torsion>
0.2821

> <Gold.PLP.Chemscore.Hbond>
1.9920

> <Gold.PLP.Chemscore.CHOScore>
1.0000

> <Gold.PLP.Chemscore.Metal>
0.0000

> <Gold.Chemscore.Hbonds>
donor molecule, donor type, donor heavy atom, donor atom, acceptor molecule, acceptor atom, score
      L1  H    12    23       P1  8028  0.66
      P1  H  7989  7998       L1     1  1.00
      L1  C     5    21       P1  7957  1.00

> <Gold.PLP.Chemscore.Internal.Correction>
0.0209

> <Gold.Rescore>
     Score         DG    S(hbond)    S(metal)    S(lipo)     H(rot)  DE(clash)    DE(int)     intcor
     13.99     -14.44       1.62        0.00      75.10       2.05       0.09       0.36       ----

> <Gold.Chemscore.Fitness>
13.9852

> <Gold.Chemscore.DG>
-14.4421

> <Gold.Chemscore.ZeroCoef>
-5.4800

> <Gold.Chemscore.Hbond>
1.6209

> <Gold.Chemscore.Metal>
0.0000

> <Gold.Chemscore.Lipo>
75.1024

> <Gold.Chemscore.Internal_Hbond>
0.0000

> <Gold.Chemscore.DEClash>
0.0942

> <Gold.Chemscore.DEInternal>
0.3628

> <Gold.Chemscore.Rot>
2.0463

> <Gold.Chemscore.Internal.Correction>
   9.000000E+99

> <Gold.Chemscore.Hbonds>
donor molecule, donor type, donor heavy atom, donor atom, acceptor molecule, acceptor atom, score
      L1  H    12    23       P1  8028  0.65
      P1  H  7989  7998       L1     1  0.54

> <Gold.Chemscore.Hbond.Weighted>
-5.4137

> <Gold.Chemscore.Metal.Weighted>
-0.0000

> <Gold.Chemscore.Lipo.Weighted>
-8.7870

> <Gold.Chemscore.Internal_Hbond.Weighted>
0.0000

> <Gold.Chemscore.DEClash.Weighted>
0.0942

> <Gold.Chemscore.DEInternal.Weighted>
0.3628

> <Gold.Chemscore.Rot.Weighted>
5.2386

> <Gold.Chemscore.Internal.Correction.Weighted>
   9.000000E+99

> <Gold.Protein.RotatedTorsions>
[ 6907 6896 6895 6894 ] final   94.04 input  -60.11 | X-H torsion
[ 7974 7965 7964 7962 ] final  135.59 input  175.53 | X-H torsion
[ 8008 7997 7996 7995 ] final -165.55 input   59.86 | X-H torsion
[ 10167 10162 10161 10158 ] final -159.66 input  -65.29 | X-H torsion
[ 10718 10713 10712 10709 ] final  -39.32 input   66.30 | X-H torsion
[ 10763 10752 10751 10750 ] final  118.58 input  -60.55 | X-H torsion
[ 11005 11000 10999 10996 ] final   32.93 input  -57.11 | X-H torsion

> <Gold.Protein.ActiveResidues>
 VAL166  LYS551  ARG553  GLY616  TRP617  ASP618  TYR619  PRO620  LYS621  CYS622 
 ASP623  PHE694  ASN695  SER759  ASP760  ASP761  ALA762  ILE779  LEU786  VAL792 
 PHE793  MET794  SER795  GLU796  ALA797  LYS798  CYS799  TRP800  GLU811  SER814 

> <Gold.Protein.RotatedAtoms>
  152.5451  134.1254  159.8416 H   0  0  0  0  0  0  0  0  0  0  0  0  # atno 6907 bound_to 6896
  151.1306  133.5032  159.2606 H   0  0  0  0  0  0  0  0  0  0  0  0  # atno 6908 bound_to 6896
  151.1680  135.0314  159.8794 H   0  0  0  0  0  0  0  0  0  0  0  0  # atno 6909 bound_to 6896
  144.9648  139.4670  143.5462 H   0  0  0  0  0  0  0  0  0  0  0  0  # atno 7974 bound_to 7965
  155.8514  140.0963  157.1672 H   0  0  0  0  0  0  0  0  0  0  0  0  # atno 8008 bound_to 7997
  154.3985  140.1382  156.3911 H   0  0  0  0  0  0  0  0  0  0  0  0  # atno 8009 bound_to 7997
  155.7957  140.3454  155.5376 H   0  0  0  0  0  0  0  0  0  0  0  0  # atno 8010 bound_to 7997
  139.6598  143.9933  152.2218 H   0  0  0  0  0  0  0  0  0  0  0  0  # atno 10167 bound_to 10162
  156.2937  130.4231  149.8212 H   0  0  0  0  0  0  0  0  0  0  0  0  # atno 10718 bound_to 10713
  153.5699  135.3504  155.2833 H   0  0  0  0  0  0  0  0  0  0  0  0  # atno 10763 bound_to 10752
  154.8683  135.4157  154.2737 H   0  0  0  0  0  0  0  0  0  0  0  0  # atno 10764 bound_to 10752
  153.3501  135.7054  153.6866 H   0  0  0  0  0  0  0  0  0  0  0  0  # atno 10765 bound_to 10752
  140.2684  134.3111  155.7835 H   0  0  0  0  0  0  0  0  0  0  0  0  # atno 11005 bound_to 11000
  146.3364  139.8821  142.8822 LP  0  0  0  0  0  0  0  0  0  0  0  0  # atno 17320 bound_to 7965
  145.2646  141.0088  143.3807 LP  0  0  0  0  0  0  0  0  0  0  0  0  # atno 17321 bound_to 7965
  139.9669  144.6520  150.8026 LP  0  0  0  0  0  0  0  0  0  0  0  0  # atno 17342 bound_to 10162
  140.7575  143.3088  151.2897 LP  0  0  0  0  0  0  0  0  0  0  0  0  # atno 17343 bound_to 10162
  156.5616  130.8386  151.3330 LP  0  0  0  0  0  0  0  0  0  0  0  0  # atno 17370 bound_to 10713
  157.7349  130.9754  150.2056 LP  0  0  0  0  0  0  0  0  0  0  0  0  # atno 17371 bound_to 10713
  141.2181  133.7452  156.9296 LP  0  0  0  0  0  0  0  0  0  0  0  0  # atno 17394 bound_to 11000
  140.1397  134.9302  157.2450 LP  0  0  0  0  0  0  0  0  0  0  0  0  # atno 17395 bound_to 11000

$$$$
