AV-unprocessed.smi:2093|AV-procd|sdf|8551|dock7
  -GOLD-   2272011273D 1   1.00000     0.00000
 Structure written by MMmdl.
 30 31  0  0  0  0  0  0  0  0  2 V2000
  151.0048  140.6290  158.0216 C   0  0  0  0  0  0  0  0  0  0  0  0
  151.1368  141.9805  157.2969 C   0  0  1  0  0  0  0  0  0  0  0  0
  150.0718  142.1117  156.3048 N   0  0  0  0  0  0  0  0  0  0  0  0
  149.8291  141.2752  155.2853 C   0  0  0  0  0  0  0  0  0  0  0  0
  150.5390  140.2801  155.1221 O   0  0  0  0  0  0  0  0  0  0  0  0
  148.7772  141.6434  154.5187 N   0  5  0  0  0  0  0  0  0  0  0  0
  148.0925  140.7173  153.8282 C   0  0  0  0  0  0  0  0  0  0  0  0
  147.0635  141.0164  153.0265 N   0  0  0  0  0  0  0  0  0  0  0  0
  146.5030  139.9002  152.4029 C   0  0  0  0  0  0  0  0  0  0  0  0
  147.1264  138.7249  152.7291 C   0  0  0  0  0  0  0  0  0  0  0  0
  148.4422  138.9864  153.8382 S   0  0  0  0  0  0  0  0  0  0  0  0
  151.0663  143.1724  158.2710 C   0  0  1  0  0  0  0  0  0  0  0  0
  151.9506  143.0412  159.5128 C   0  0  0  0  0  0  0  0  0  0  0  0
  152.2372  144.4815  159.9110 C   0  0  0  0  0  0  0  0  0  0  0  0
  151.7872  145.3015  158.6994 C   0  0  0  0  0  0  0  0  0  0  0  0
  151.5862  144.3478  157.6673 O   0  0  0  0  0  0  0  0  0  0  0  0
  151.8096  140.4833  158.7419 H   0  0  0  0  0  0  0  0  0  0  0  0
  151.0484  139.7974  157.3177 H   0  0  0  0  0  0  0  0  0  0  0  0
  150.0586  140.5593  158.5591 H   0  0  0  0  0  0  0  0  0  0  0  0
  152.1026  142.0126  156.7892 H   0  0  0  0  0  0  0  0  0  0  0  0
  149.4683  142.9159  156.3926 H   0  0  0  0  0  0  0  0  0  0  0  0
  145.6622  140.0358  151.7391 H   0  0  0  0  0  0  0  0  0  0  0  0
  146.8949  137.7275  152.3875 H   0  0  0  0  0  0  0  0  0  0  0  0
  150.0328  143.3591  158.5711 H   0  0  0  0  0  0  0  0  0  0  0  0
  151.4720  142.4711  160.3096 H   0  0  0  0  0  0  0  0  0  0  0  0
  152.8867  142.5420  159.2584 H   0  0  0  0  0  0  0  0  0  0  0  0
  151.6808  144.7723  160.8027 H   0  0  0  0  0  0  0  0  0  0  0  0
  153.2991  144.6203  160.1170 H   0  0  0  0  0  0  0  0  0  0  0  0
  150.8437  145.8078  158.9075 H   0  0  0  0  0  0  0  0  0  0  0  0
  152.5195  146.0533  158.4047 H   0  0  0  0  0  0  0  0  0  0  0  0
  1  2  1  0  0  0  0
  1 17  1  0  0  0  0
  1 18  1  0  0  0  0
  1 19  1  0  0  0  0
  2  3  1  0  0  0  0
  2 12  1  0  0  0  0
  2 20  1  0  0  0  0
  3  4  1  0  0  0  0
  3 21  1  0  0  0  0
  4  5  2  0  0  0  0
  4  6  1  0  0  0  0
  6  7  1  0  0  0  0
  7 11  1  0  0  0  0
  7  8  2  0  0  0  0
  8  9  1  0  0  0  0
  9 10  2  0  0  0  0
  9 22  1  0  0  0  0
 10 11  1  0  0  0  0
 10 23  1  0  0  0  0
 12 16  1  0  0  0  0
 12 13  1  0  0  0  0
 12 24  1  0  0  0  0
 13 14  1  0  0  0  0
 13 25  1  0  0  0  0
 13 26  1  0  0  0  0
 14 15  1  0  0  0  0
 14 27  1  0  0  0  0
 14 28  1  0  0  0  0
 15 16  1  0  0  0  0
 15 29  1  0  0  0  0
 15 30  1  0  0  0  0
M  CHG  1   6  -1
M  END
> <s_m_source_file>
AV-unprocessed.smi

> <i_m_source_file_index>
2093

> <i_lp_mmshare_version>
43012

> <i_f3d_flags>
0

> <s_epik_input>
TzFbQ0gyXVtDSDJdW0NIMl1bQ0BIXTFbQ0BIXShbQ0gzXSlbTkhdQyg9TylbTkhdYzJuW2NIXVtjSF1zMg==

> <s_epik_cmdline>
J2VwaWtfcHl0aG9uJywgJy1waCcsICc3LjAnLCAnLXRuJywgJzgnLCAnLW1hJywgJzIwMCcsICctbWV0YWxfYmluZGluZycsICctaW1hZScsICc8aW5maWxlLm1hZT4nLCAnLW9tYWUnLCAnPG91dGZpbGUubWFlPic=

> <r_lp_tautomer_probability>
0.999

> <r_epik_Ionization_Penalty>
8.26346

> <r_epik_Ionization_Penalty_Charging>
6.6559

> <r_epik_Ionization_Penalty_Neutral>
1.60756

> <r_epik_State_Penalty>
6.65607

> <r_epik_Charging_Adjusted_Penalty>
13.312

> <i_epik_Tot_Q>
-1

> <i_epik_Tot_abs_Q>
1

> <r_epik_Metal_State_Penalty>
2.5789

> <b_epik_Metal_Only>
1

> <s_lp_Force_Field>
OPLS_2005

> <r_lp_Energy>
13.9073

> <b_lp_Chiralities_Consistent>
1

> <s_lp_Variant>
AV-unprocessed.smi:2093-8

> <Gold.Version>
5.8.1

> <Gold.Id.Protein>
6NUR|6NUR_protein|mol2

> <Gold.PLP.Fitness>
39.8269

> <Gold.PLP.PLP>
-29.9496

> <Gold.PLP.part.hbond>
-2.4017

> <Gold.PLP.part.metal>
0.0000

> <Gold.PLP.part.buried>
1.7692

> <Gold.PLP.part.nonpolar>
-29.2067

> <Gold.PLP.part.repulsive>
0.6315

> <Gold.PLP.ligand.clash>
0.0000

> <Gold.PLP.ligand.torsion>
0.3524

> <Gold.PLP.Chemscore.Hbond>
1.9357

> <Gold.PLP.Chemscore.CHOScore>
1.5812

> <Gold.PLP.Chemscore.Metal>
0.0000

> <Gold.Chemscore.Hbonds>
donor molecule, donor type, donor heavy atom, donor atom, acceptor molecule, acceptor atom, score
      L1  H     3    21       P1  8028  0.95
      P1  H  7989  7998       L1     5  0.98
      L1  C     9    22       P1 10175  0.87
      L1  C    10    23       P1  7948  0.61

> <Gold.PLP.Chemscore.Internal.Correction>
0.0314

> <Gold.Rescore>
     Score         DG    S(hbond)    S(metal)    S(lipo)     H(rot)  DE(clash)    DE(int)     intcor
     11.84     -16.03       1.23        0.00      83.00       1.28       1.40       2.79       ----

> <Gold.Chemscore.Fitness>
11.8430

> <Gold.Chemscore.DG>
-16.0334

> <Gold.Chemscore.ZeroCoef>
-5.4800

> <Gold.Chemscore.Hbond>
1.2318

> <Gold.Chemscore.Metal>
0.0000

> <Gold.Chemscore.Lipo>
82.9956

> <Gold.Chemscore.Internal_Hbond>
0.0000

> <Gold.Chemscore.DEClash>
1.4043

> <Gold.Chemscore.DEInternal>
2.7862

> <Gold.Chemscore.Rot>
1.2778

> <Gold.Chemscore.Internal.Correction>
   9.000000E+99

> <Gold.Chemscore.Hbonds>
donor molecule, donor type, donor heavy atom, donor atom, acceptor molecule, acceptor atom, score
      L1  H     3    21       P1  8028  0.85
      P1  H  7989  7998       L1     5  0.23

> <Gold.Chemscore.Hbond.Weighted>
-4.1141

> <Gold.Chemscore.Metal.Weighted>
-0.0000

> <Gold.Chemscore.Lipo.Weighted>
-9.7105

> <Gold.Chemscore.Internal_Hbond.Weighted>
0.0000

> <Gold.Chemscore.DEClash.Weighted>
1.4043

> <Gold.Chemscore.DEInternal.Weighted>
2.7862

> <Gold.Chemscore.Rot.Weighted>
3.2711

> <Gold.Chemscore.Internal.Correction.Weighted>
   9.000000E+99

> <Gold.Protein.RotatedTorsions>
[ 6907 6896 6895 6894 ] final  114.59 input  -60.11 | X-H torsion
[ 7974 7965 7964 7962 ] final   19.60 input  175.53 | X-H torsion
[ 8008 7997 7996 7995 ] final   58.06 input   59.86 | X-H torsion
[ 10167 10162 10161 10158 ] final  -50.82 input  -65.29 | X-H torsion
[ 10718 10713 10712 10709 ] final   37.80 input   66.30 | X-H torsion
[ 10763 10752 10751 10750 ] final  -38.57 input  -60.55 | X-H torsion
[ 11005 11000 10999 10996 ] final -178.16 input  -57.11 | X-H torsion

> <Gold.Protein.ActiveResidues>
 VAL166  LYS551  ARG553  GLY616  TRP617  ASP618  TYR619  PRO620  LYS621  CYS622 
 ASP623  PHE694  ASN695  SER759  ASP760  ASP761  ALA762  ILE779  LEU786  VAL792 
 PHE793  MET794  SER795  GLU796  ALA797  LYS798  CYS799  TRP800  GLU811  SER814 

> <Gold.Protein.RotatedAtoms>
  152.4793  133.8215  159.7055 H   0  0  0  0  0  0  0  0  0  0  0  0  # atno 6907 bound_to 6896
  150.8832  133.7334  159.2932 H   0  0  0  0  0  0  0  0  0  0  0  0  # atno 6908 bound_to 6896
  151.4832  135.1057  159.9835 H   0  0  0  0  0  0  0  0  0  0  0  0  # atno 6909 bound_to 6896
  146.2143  139.8289  142.8664 H   0  0  0  0  0  0  0  0  0  0  0  0  # atno 7974 bound_to 7965
  155.5438  140.3485  155.4453 H   0  0  0  0  0  0  0  0  0  0  0  0  # atno 8008 bound_to 7997
  156.0632  140.1345  156.9943 H   0  0  0  0  0  0  0  0  0  0  0  0  # atno 8009 bound_to 7997
  154.4490  140.0981  156.6533 H   0  0  0  0  0  0  0  0  0  0  0  0  # atno 8010 bound_to 7997
  140.6619  143.2643  151.4415 H   0  0  0  0  0  0  0  0  0  0  0  0  # atno 10167 bound_to 10162
  157.3512  130.7599  149.6980 H   0  0  0  0  0  0  0  0  0  0  0  0  # atno 10718 bound_to 10713
  153.9151  135.6788  153.4749 H   0  0  0  0  0  0  0  0  0  0  0  0  # atno 10763 bound_to 10752
  153.1058  135.4806  154.8945 H   0  0  0  0  0  0  0  0  0  0  0  0  # atno 10764 bound_to 10752
  154.7507  135.3184  154.8518 H   0  0  0  0  0  0  0  0  0  0  0  0  # atno 10765 bound_to 10752
  140.4329  134.6503  157.4720 H   0  0  0  0  0  0  0  0  0  0  0  0  # atno 11005 bound_to 11000
  145.3018  141.0196  143.3604 LP  0  0  0  0  0  0  0  0  0  0  0  0  # atno 17320 bound_to 7965
  144.9001  139.4661  143.6637 LP  0  0  0  0  0  0  0  0  0  0  0  0  # atno 17321 bound_to 7965
  139.5855  144.1614  152.2023 LP  0  0  0  0  0  0  0  0  0  0  0  0  # atno 17342 bound_to 10162
  140.0952  144.5586  150.7027 LP  0  0  0  0  0  0  0  0  0  0  0  0  # atno 17343 bound_to 10162
  155.9722  130.4140  150.4110 LP  0  0  0  0  0  0  0  0  0  0  0  0  # atno 17370 bound_to 10713
  157.2173  131.0474  151.2566 LP  0  0  0  0  0  0  0  0  0  0  0  0  # atno 17371 bound_to 10713
  140.0122  134.6673  155.9363 LP  0  0  0  0  0  0  0  0  0  0  0  0  # atno 17394 bound_to 11000
  141.1738  133.6539  156.4751 LP  0  0  0  0  0  0  0  0  0  0  0  0  # atno 17395 bound_to 11000

$$$$
