AV-unprocessed.smi:837|AV-procd|sdf|3894|dock4
  -GOLD-   22720 1353D 1   1.00000     0.00000
 Structure written by MMmdl.
 49 51  0  0  0  0  0  0  0  0  1 V2000
  146.3065  134.0781  153.2770 C   0  0  0  0  0  0  0  0  0  0  0  0
  145.4636  133.2401  152.2920 C   0  0  2  0  0  0  0  0  0  0  0  0
  146.2185  133.0433  150.9594 C   0  0  0  0  0  0  0  0  0  0  0  0
  145.4412  132.1345  149.9943 C   0  0  0  0  0  0  0  0  0  0  0  0
  144.0271  132.6709  149.7324 C   0  0  0  0  0  0  0  0  0  0  0  0
  143.2553  132.8725  151.0487 C   0  0  0  0  0  0  0  0  0  0  0  0
  144.0103  133.7658  152.0652 C   0  0  1  0  0  0  0  0  0  0  0  0
  143.2703  133.8164  153.3144 N   0  0  0  0  0  0  0  0  0  0  0  0
  142.8462  135.0465  153.6289 C   0  0  0  0  0  0  0  0  0  0  0  0
  142.2128  135.3408  154.6413 O   0  0  0  0  0  0  0  0  0  0  0  0
  143.2410  135.8895  152.6589 N   0  0  0  0  0  0  0  0  0  0  0  0
  143.0081  137.3397  152.6762 C   0  0  0  0  0  0  0  0  0  0  0  0
  141.6138  137.7268  153.1915 C   0  0  0  0  0  0  0  0  0  0  0  0
  140.7288  136.8806  153.3319 O   0  0  0  0  0  0  0  0  0  0  0  0
  141.4322  139.0277  153.4629 N   0  0  0  0  0  0  0  0  0  0  0  0
  140.1908  139.6145  153.9532 C   0  0  0  0  0  0  0  0  0  0  0  0
  138.9637  138.9887  153.2709 C   0  0  0  0  0  0  0  0  0  0  0  0
  137.7064  139.8039  153.5000 C   0  0  0  0  0  0  0  0  0  0  0  0
  137.5917  141.1137  152.9908 C   0  0  0  0  0  0  0  0  0  0  0  0
  136.4025  141.8305  153.2254 C   0  0  0  0  0  0  0  0  0  0  0  0
  135.3758  141.2045  153.9602 C   0  0  0  0  0  0  0  0  0  0  0  0
  135.4745  139.9507  154.4521 N   0  0  0  0  0  0  0  0  0  0  0  0
  136.6185  139.2704  154.2234 C   0  0  0  0  0  0  0  0  0  0  0  0
  143.9275  135.2500  151.7021 C   0  0  0  0  0  0  0  0  0  0  0  0
  144.4298  135.7546  150.6976 O   0  0  0  0  0  0  0  0  0  0  0  0
  146.5008  135.0803  152.8939 H   0  0  0  0  0  0  0  0  0  0  0  0
  147.2730  133.6072  153.4574 H   0  0  0  0  0  0  0  0  0  0  0  0
  145.8142  134.1809  154.2440 H   0  0  0  0  0  0  0  0  0  0  0  0
  145.3698  132.2517  152.7453 H   0  0  0  0  0  0  0  0  0  0  0  0
  146.4098  134.0057  150.4845 H   0  0  0  0  0  0  0  0  0  0  0  0
  147.1979  132.6038  151.1517 H   0  0  0  0  0  0  0  0  0  0  0  0
  145.9835  132.0428  149.0529 H   0  0  0  0  0  0  0  0  0  0  0  0
  145.3778  131.1290  150.4125 H   0  0  0  0  0  0  0  0  0  0  0  0
  144.0858  133.6091  149.1806 H   0  0  0  0  0  0  0  0  0  0  0  0
  143.4836  131.9770  149.0906 H   0  0  0  0  0  0  0  0  0  0  0  0
  142.2719  133.2911  150.8282 H   0  0  0  0  0  0  0  0  0  0  0  0
  143.0681  131.8965  151.4987 H   0  0  0  0  0  0  0  0  0  0  0  0
  143.1099  132.9993  153.8853 H   0  0  0  0  0  0  0  0  0  0  0  0
  143.7630  137.8283  153.2949 H   0  0  0  0  0  0  0  0  0  0  0  0
  143.1350  137.7518  151.6737 H   0  0  0  0  0  0  0  0  0  0  0  0
  142.2094  139.6565  153.3193 H   0  0  0  0  0  0  0  0  0  0  0  0
  140.1258  139.5019  155.0369 H   0  0  0  0  0  0  0  0  0  0  0  0
  140.2216  140.6862  153.7540 H   0  0  0  0  0  0  0  0  0  0  0  0
  139.1370  138.8979  152.1978 H   0  0  0  0  0  0  0  0  0  0  0  0
  138.7984  137.9761  153.6420 H   0  0  0  0  0  0  0  0  0  0  0  0
  138.3984  141.5618  152.4291 H   0  0  0  0  0  0  0  0  0  0  0  0
  136.2798  142.8358  152.8505 H   0  0  0  0  0  0  0  0  0  0  0  0
  134.4502  141.7248  154.1576 H   0  0  0  0  0  0  0  0  0  0  0  0
  136.6655  138.2699  154.6275 H   0  0  0  0  0  0  0  0  0  0  0  0
  1  2  1  0  0  0  0
  1 26  1  0  0  0  0
  1 27  1  0  0  0  0
  1 28  1  0  0  0  0
  2  7  1  0  0  0  0
  2  3  1  0  0  0  0
  2 29  1  0  0  0  0
  3  4  1  0  0  0  0
  3 30  1  0  0  0  0
  3 31  1  0  0  0  0
  4  5  1  0  0  0  0
  4 32  1  0  0  0  0
  4 33  1  0  0  0  0
  5  6  1  0  0  0  0
  5 34  1  0  0  0  0
  5 35  1  0  0  0  0
  6  7  1  0  0  0  0
  6 36  1  0  0  0  0
  6 37  1  0  0  0  0
  7 24  1  0  0  0  0
  7  8  1  0  0  0  0
  8  9  1  0  0  0  0
  8 38  1  0  0  0  0
  9 10  2  0  0  0  0
  9 11  1  0  0  0  0
 11 12  1  0  0  0  0
 11 24  1  0  0  0  0
 12 13  1  0  0  0  0
 12 39  1  0  0  0  0
 12 40  1  0  0  0  0
 13 14  2  0  0  0  0
 13 15  1  0  0  0  0
 15 16  1  0  0  0  0
 15 41  1  0  0  0  0
 16 17  1  0  0  0  0
 16 42  1  0  0  0  0
 16 43  1  0  0  0  0
 17 18  1  0  0  0  0
 17 44  1  0  0  0  0
 17 45  1  0  0  0  0
 18 23  1  0  0  0  0
 18 19  2  0  0  0  0
 19 20  1  0  0  0  0
 19 46  1  0  0  0  0
 20 21  2  0  0  0  0
 20 47  1  0  0  0  0
 21 22  1  0  0  0  0
 21 48  1  0  0  0  0
 22 23  2  0  0  0  0
 23 49  1  0  0  0  0
 24 25  2  0  0  0  0
M  END
> <s_m_source_file>
AV-unprocessed.smi

> <i_m_source_file_index>
837

> <i_lp_mmshare_version>
43012

> <i_f3d_flags>
0

> <s_epik_input>
W0NIMl0xW0NIMl1bQ0gyXVtDSDJdW0NAQEhdKFtDSDNdKVtDQEBdMTJbTkhdQyg9TylOKEMyPU8pW0NIMl1DKD1PKVtOSF1bQ0gyXVtDSDJdYzNbY0hdW2NIXVtjSF1uW2NIXTM=

> <s_epik_cmdline>
J2VwaWtfcHl0aG9uJywgJy1waCcsICc3LjAnLCAnLXRuJywgJzgnLCAnLW1hJywgJzIwMCcsICctbWV0YWxfYmluZGluZycsICctaW1hZScsICc8aW5maWxlLm1hZT4nLCAnLW9tYWUnLCAnPG91dGZpbGUubWFlPic=

> <r_lp_tautomer_probability>
1

> <r_epik_Ionization_Penalty>
0.0127837

> <r_epik_Ionization_Penalty_Charging>
0

> <r_epik_Ionization_Penalty_Neutral>
0.0127837

> <r_epik_State_Penalty>
0.00987657

> <r_epik_Charging_Adjusted_Penalty>
0.00987657

> <i_epik_Tot_Q>
0

> <i_epik_Tot_abs_Q>
0

> <r_epik_Metal_State_Penalty>
0.0309865

> <b_epik_Metal_Only>
0

> <s_lp_Force_Field>
OPLS_2005

> <r_lp_Energy>
17.4759

> <b_lp_Chiralities_Consistent>
1

> <s_lp_Variant>
AV-unprocessed.smi:837-3

> <Gold.Version>
5.8.1

> <Gold.Id.Protein>
6NUR|6NUR_protein|mol2

> <Gold.PLP.Fitness>
48.1963

> <Gold.PLP.PLP>
-43.0615

> <Gold.PLP.part.hbond>
-3.6387

> <Gold.PLP.part.metal>
0.0000

> <Gold.PLP.part.buried>
-4.9007

> <Gold.PLP.part.nonpolar>
-35.7196

> <Gold.PLP.part.repulsive>
1.2731

> <Gold.PLP.ligand.clash>
0.0000

> <Gold.PLP.ligand.torsion>
0.6338

> <Gold.PLP.Chemscore.Hbond>
2.1201

> <Gold.PLP.Chemscore.CHOScore>
0.0000

> <Gold.PLP.Chemscore.Metal>
0.0000

> <Gold.Chemscore.Hbonds>
donor molecule, donor type, donor heavy atom, donor atom, acceptor molecule, acceptor atom, score
      L1  H     8    38       P1 10957  1.00
      L1  H    15    41       P1 10175  1.00
      P1  H 11000 11005       L1    10  0.12

> <Gold.PLP.Chemscore.Internal.Correction>
0.0420

> <Gold.Rescore>
     Score         DG    S(hbond)    S(metal)    S(lipo)     H(rot)  DE(clash)    DE(int)     intcor
     12.43     -19.63       2.10        0.00     101.54       1.86       0.61       6.59       ----

> <Gold.Chemscore.Fitness>
12.4308

> <Gold.Chemscore.DG>
-19.6324

> <Gold.Chemscore.ZeroCoef>
-5.4800

> <Gold.Chemscore.Hbond>
2.1023

> <Gold.Chemscore.Metal>
0.0000

> <Gold.Chemscore.Lipo>
101.5435

> <Gold.Chemscore.Internal_Hbond>
0.0000

> <Gold.Chemscore.DEClash>
0.6088

> <Gold.Chemscore.DEInternal>
6.5928

> <Gold.Chemscore.Rot>
1.8553

> <Gold.Chemscore.Internal.Correction>
   9.000000E+99

> <Gold.Chemscore.Hbonds>
donor molecule, donor type, donor heavy atom, donor atom, acceptor molecule, acceptor atom, score
      L1  H     8    38       P1 10957  0.97
      L1  H    15    41       P1 10175  0.92
      P1  H 11000 11005       L1    10  0.12

> <Gold.Chemscore.Hbond.Weighted>
-7.0215

> <Gold.Chemscore.Metal.Weighted>
-0.0000

> <Gold.Chemscore.Lipo.Weighted>
-11.8806

> <Gold.Chemscore.Internal_Hbond.Weighted>
0.0000

> <Gold.Chemscore.DEClash.Weighted>
0.6088

> <Gold.Chemscore.DEInternal.Weighted>
6.5928

> <Gold.Chemscore.Rot.Weighted>
4.7497

> <Gold.Chemscore.Internal.Correction.Weighted>
   9.000000E+99

> <Gold.Protein.RotatedTorsions>
[ 6907 6896 6895 6894 ] final -106.55 input  -60.11 | X-H torsion
[ 7974 7965 7964 7962 ] final   31.81 input  175.53 | X-H torsion
[ 8008 7997 7996 7995 ] final  142.84 input   59.86 | X-H torsion
[ 10167 10162 10161 10158 ] final   49.98 input  -65.29 | X-H torsion
[ 10718 10713 10712 10709 ] final -118.48 input   66.30 | X-H torsion
[ 10763 10752 10751 10750 ] final   10.11 input  -60.55 | X-H torsion
[ 11005 11000 10999 10996 ] final    9.12 input  -57.11 | X-H torsion

> <Gold.Protein.ActiveResidues>
 VAL166  LYS551  ARG553  GLY616  TRP617  ASP618  TYR619  PRO620  LYS621  CYS622 
 ASP623  PHE694  ASN695  SER759  ASP760  ASP761  ALA762  ILE779  LEU786  VAL792 
 PHE793  MET794  SER795  GLU796  ALA797  LYS798  CYS799  TRP800  GLU811  SER814 

> <Gold.Protein.RotatedAtoms>
  150.7395  133.9960  159.3622 H   0  0  0  0  0  0  0  0  0  0  0  0  # atno 6907 bound_to 6896
  151.7911  135.0733  160.0396 H   0  0  0  0  0  0  0  0  0  0  0  0  # atno 6908 bound_to 6896
  152.3207  133.5814  159.5779 H   0  0  0  0  0  0  0  0  0  0  0  0  # atno 6909 bound_to 6896
  146.1527  139.6608  142.9088 H   0  0  0  0  0  0  0  0  0  0  0  0  # atno 7974 bound_to 7965
  156.2942  140.2278  156.4793 H   0  0  0  0  0  0  0  0  0  0  0  0  # atno 8008 bound_to 7997
  154.7867  140.0457  157.1190 H   0  0  0  0  0  0  0  0  0  0  0  0  # atno 8009 bound_to 7997
  154.9694  140.3064  155.4998 H   0  0  0  0  0  0  0  0  0  0  0  0  # atno 8010 bound_to 7997
  140.2772  144.3198  150.6274 H   0  0  0  0  0  0  0  0  0  0  0  0  # atno 10167 bound_to 10162
  156.1110  130.6248  150.9296 H   0  0  0  0  0  0  0  0  0  0  0  0  # atno 10718 bound_to 10713
  153.2067  135.6863  153.8163 H   0  0  0  0  0  0  0  0  0  0  0  0  # atno 10763 bound_to 10752
  153.7410  135.3238  155.3305 H   0  0  0  0  0  0  0  0  0  0  0  0  # atno 10764 bound_to 10752
  154.8201  135.4658  154.0857 H   0  0  0  0  0  0  0  0  0  0  0  0  # atno 10765 bound_to 10752
  140.5293  134.0482  155.7868 H   0  0  0  0  0  0  0  0  0  0  0  0  # atno 11005 bound_to 11000
  145.4785  141.0437  143.2659 LP  0  0  0  0  0  0  0  0  0  0  0  0  # atno 17320 bound_to 7965
  144.7924  139.6302  143.7107 LP  0  0  0  0  0  0  0  0  0  0  0  0  # atno 17321 bound_to 7965
  140.5842  143.2171  151.7373 LP  0  0  0  0  0  0  0  0  0  0  0  0  # atno 17342 bound_to 10162
  139.4972  144.4036  152.0155 LP  0  0  0  0  0  0  0  0  0  0  0  0  # atno 17343 bound_to 10162
  157.6291  131.0923  150.8477 LP  0  0  0  0  0  0  0  0  0  0  0  0  # atno 17370 bound_to 10713
  156.8588  130.5106  149.5305 LP  0  0  0  0  0  0  0  0  0  0  0  0  # atno 17371 bound_to 10713
  141.1290  133.9333  157.2574 LP  0  0  0  0  0  0  0  0  0  0  0  0  # atno 17394 bound_to 11000
  139.9563  135.0165  156.9137 LP  0  0  0  0  0  0  0  0  0  0  0  0  # atno 17395 bound_to 11000

$$$$
