AV-unprocessed.smi:1512|AV-procd|sdf|6104|dock5
  -GOLD-   22720 6233D 1   1.00000     0.00000
 Structure written by MMmdl.
 44 46  0  0  0  0  0  0  0  0  3 V2000
  152.9368  143.4954  162.7049 C   0  0  0  0  0  0  0  0  0  0  0  0
  152.6631  142.7903  161.3656 C   0  0  2  0  0  0  0  0  0  0  0  0
  153.6151  141.7031  161.1695 N   0  0  0  0  0  0  0  0  0  0  0  0
  153.4654  140.6593  160.3368 C   0  0  0  0  0  0  0  0  0  0  0  0
  152.4301  140.4484  159.7069 O   0  0  0  0  0  0  0  0  0  0  0  0
  154.6666  139.7153  160.1493 C   0  0  0  0  0  0  0  0  0  0  0  0
  154.3436  138.2815  160.2848 N   0  0  0  0  0  0  0  0  0  0  0  0
  154.4825  137.7129  161.5647 C   0  0  0  0  0  0  0  0  0  0  0  0
  154.2474  136.4127  161.7916 C   0  0  0  0  0  0  0  0  0  0  0  0
  153.8573  135.5843  160.6769 C   0  0  0  0  0  0  0  0  0  0  0  0
  153.7163  136.1087  159.4379 C   0  0  0  0  0  0  0  0  0  0  0  0
  153.3578  135.2186  158.3589 N   0  3  0  0  0  0  0  0  0  0  0  0
  152.8962  134.1148  158.6319 O   0  0  0  0  0  0  0  0  0  0  0  0
  153.5112  135.6060  157.2046 O   0  5  0  0  0  0  0  0  0  0  0  0
  153.9423  137.5484  159.1990 C   0  0  0  0  0  0  0  0  0  0  0  0
  153.7933  138.0734  158.0941 O   0  0  0  0  0  0  0  0  0  0  0  0
  152.7484  143.7659  160.1674 C   0  0  2  0  0  0  0  0  0  0  0  0
  151.9396  145.0713  160.3372 C   0  0  0  0  0  0  0  0  0  0  0  0
  151.1335  145.1519  159.0268 C   0  0  2  0  0  0  0  0  0  0  0  0
  150.0054  144.1042  159.0633 C   0  0  0  0  0  0  0  0  0  0  0  0
  150.7678  142.7791  158.8812 C   0  0  0  0  0  0  0  0  0  0  0  0
  152.2369  143.2408  158.8008 C   0  0  1  0  0  0  0  0  0  0  0  0
  152.0973  144.5409  158.0164 C   0  0  0  0  0  0  0  0  0  0  0  0
  152.2291  144.3065  162.8757 H   0  0  0  0  0  0  0  0  0  0  0  0
  153.9414  143.9190  162.7332 H   0  0  0  0  0  0  0  0  0  0  0  0
  152.8445  142.8030  163.5421 H   0  0  0  0  0  0  0  0  0  0  0  0
  151.6566  142.3702  161.4034 H   0  0  0  0  0  0  0  0  0  0  0  0
  154.4961  141.7892  161.6550 H   0  0  0  0  0  0  0  0  0  0  0  0
  155.1030  139.9215  159.1711 H   0  0  0  0  0  0  0  0  0  0  0  0
  155.4416  139.9900  160.8670 H   0  0  0  0  0  0  0  0  0  0  0  0
  154.7916  138.3956  162.3432 H   0  0  0  0  0  0  0  0  0  0  0  0
  154.3588  135.9935  162.7807 H   0  0  0  0  0  0  0  0  0  0  0  0
  153.7005  134.5283  160.8431 H   0  0  0  0  0  0  0  0  0  0  0  0
  153.7983  144.0327  160.0320 H   0  0  0  0  0  0  0  0  0  0  0  0
  151.2872  145.0602  161.2114 H   0  0  0  0  0  0  0  0  0  0  0  0
  152.6103  145.9254  160.4376 H   0  0  0  0  0  0  0  0  0  0  0  0
  150.7879  146.1578  158.7866 H   0  0  0  0  0  0  0  0  0  0  0  0
  149.4423  144.1348  159.9968 H   0  0  0  0  0  0  0  0  0  0  0  0
  149.3026  144.2574  158.2434 H   0  0  0  0  0  0  0  0  0  0  0  0
  150.5807  142.0689  159.6862 H   0  0  0  0  0  0  0  0  0  0  0  0
  150.4705  142.2961  157.9495 H   0  0  0  0  0  0  0  0  0  0  0  0
  152.8987  142.5089  158.3371 H   0  0  0  0  0  0  0  0  0  0  0  0
  151.6594  144.4049  157.0258 H   0  0  0  0  0  0  0  0  0  0  0  0
  153.0332  145.0943  157.9207 H   0  0  0  0  0  0  0  0  0  0  0  0
  1  2  1  0  0  0  0
  1 24  1  0  0  0  0
  1 25  1  0  0  0  0
  1 26  1  0  0  0  0
  2  3  1  0  0  0  0
  2 17  1  0  0  0  0
  2 27  1  0  0  0  0
  3  4  1  0  0  0  0
  3 28  1  0  0  0  0
  4  5  2  0  0  0  0
  4  6  1  0  0  0  0
  6  7  1  0  0  0  0
  6 29  1  0  0  0  0
  6 30  1  0  0  0  0
  7 15  1  0  0  0  0
  7  8  1  0  0  0  0
  8  9  2  0  0  0  0
  8 31  1  0  0  0  0
  9 10  1  0  0  0  0
  9 32  1  0  0  0  0
 10 11  2  0  0  0  0
 10 33  1  0  0  0  0
 11 12  1  0  0  0  0
 11 15  1  0  0  0  0
 12 13  2  0  0  0  0
 12 14  1  0  0  0  0
 15 16  2  0  0  0  0
 17 22  1  0  0  0  0
 17 18  1  0  0  0  0
 17 34  1  0  0  0  0
 18 19  1  0  0  0  0
 18 35  1  0  0  0  0
 18 36  1  0  0  0  0
 19 23  1  0  0  0  0
 19 20  1  0  0  0  0
 19 37  1  0  0  0  0
 20 21  1  0  0  0  0
 20 38  1  0  0  0  0
 20 39  1  0  0  0  0
 21 22  1  0  0  0  0
 21 40  1  0  0  0  0
 21 41  1  0  0  0  0
 22 23  1  0  0  0  0
 22 42  1  0  0  0  0
 23 43  1  0  0  0  0
 23 44  1  0  0  0  0
M  CHG  1  12   1
M  CHG  1  14  -1
M  END
> <s_m_source_file>
AV-unprocessed.smi

> <i_m_source_file_index>
1512

> <i_lp_mmshare_version>
43012

> <i_f3d_flags>
0

> <s_epik_input>
W0NIMl0xW0NIMl1bQ0BIXShbQ0gyXTIpW0NAQEhdKFtDSDJdW0NAQEhdMTIpW0NASF0oW0NIM10pW05IXUMoPU8pW0NIMl1uM1tjSF1bY0hdW2NIXWMoW04rXSg9TylbTy1dKWMzPU8=

> <s_epik_cmdline>
J2VwaWtfcHl0aG9uJywgJy1waCcsICc3LjAnLCAnLXRuJywgJzgnLCAnLW1hJywgJzIwMCcsICctbWV0YWxfYmluZGluZycsICctaW1hZScsICc8aW5maWxlLm1hZT4nLCAnLW9tYWUnLCAnPG91dGZpbGUubWFlPic=

> <r_lp_tautomer_probability>
1

> <r_epik_Ionization_Penalty>
2.17697e-08

> <r_epik_Ionization_Penalty_Charging>
1.42735e-10

> <r_epik_Ionization_Penalty_Neutral>
2.16269e-08

> <r_epik_State_Penalty>
-0

> <r_epik_Charging_Adjusted_Penalty>
1.42735e-10

> <i_epik_Tot_Q>
0

> <i_epik_Tot_abs_Q>
2

> <r_epik_Metal_State_Penalty>
-0

> <b_epik_Metal_Only>
0

> <s_lp_Force_Field>
OPLS_2005

> <r_lp_Energy>
63.3532

> <b_lp_Chiralities_Consistent>
1

> <s_lp_Variant>
AV-unprocessed.smi:1512-5

> <Gold.Version>
5.8.1

> <Gold.Id.Protein>
6NUR|6NUR_protein|mol2

> <Gold.PLP.Fitness>
54.1425

> <Gold.PLP.PLP>
-47.0445

> <Gold.PLP.part.hbond>
-3.0000

> <Gold.PLP.part.metal>
0.0000

> <Gold.PLP.part.buried>
-5.5580

> <Gold.PLP.part.nonpolar>
-38.8330

> <Gold.PLP.part.repulsive>
0.0180

> <Gold.PLP.ligand.clash>
0.0000

> <Gold.PLP.ligand.torsion>
0.9234

> <Gold.PLP.Chemscore.Hbond>
2.9680

> <Gold.PLP.Chemscore.CHOScore>
0.0000

> <Gold.PLP.Chemscore.Metal>
0.0000

> <Gold.Chemscore.Hbonds>
donor molecule, donor type, donor heavy atom, donor atom, acceptor molecule, acceptor atom, score
      P1  H  6896  6907       L1    13  0.02
      P1  H  7997  8010       L1    16  0.04
      P1  H 10752 10765       L1    14  0.75

> <Gold.PLP.Chemscore.Internal.Correction>
0.0408

> <Gold.Rescore>
     Score         DG    S(hbond)    S(metal)    S(lipo)     H(rot)  DE(clash)    DE(int)     intcor
     22.43     -25.55       2.79        0.00     130.18       1.75       0.28       2.84       ----

> <Gold.Chemscore.Fitness>
22.4308

> <Gold.Chemscore.DG>
-25.5501

> <Gold.Chemscore.ZeroCoef>
-5.4800

> <Gold.Chemscore.Hbond>
2.7880

> <Gold.Chemscore.Metal>
0.0000

> <Gold.Chemscore.Lipo>
130.1838

> <Gold.Chemscore.Internal_Hbond>
0.0000

> <Gold.Chemscore.DEClash>
0.2813

> <Gold.Chemscore.DEInternal>
2.8380

> <Gold.Chemscore.Rot>
1.7474

> <Gold.Chemscore.Internal.Correction>
   9.000000E+99

> <Gold.Chemscore.Hbonds>
donor molecule, donor type, donor heavy atom, donor atom, acceptor molecule, acceptor atom, score
      P1  H  6896  6907       L1    13  0.03
      P1  H  7997  8010       L1    16  0.07
      P1  H 10752 10765       L1    14  0.71

> <Gold.Chemscore.Hbond.Weighted>
-9.3119

> <Gold.Chemscore.Metal.Weighted>
-0.0000

> <Gold.Chemscore.Lipo.Weighted>
-15.2315

> <Gold.Chemscore.Internal_Hbond.Weighted>
0.0000

> <Gold.Chemscore.DEClash.Weighted>
0.2813

> <Gold.Chemscore.DEInternal.Weighted>
2.8380

> <Gold.Chemscore.Rot.Weighted>
4.4733

> <Gold.Chemscore.Internal.Correction.Weighted>
   9.000000E+99

> <Gold.Protein.RotatedTorsions>
[ 6907 6896 6895 6894 ] final  100.50 input  -60.11 | X-H torsion
[ 7974 7965 7964 7962 ] final   88.24 input  175.53 | X-H torsion
[ 8008 7997 7996 7995 ] final    4.08 input   59.86 | X-H torsion
[ 10167 10162 10161 10158 ] final  -35.18 input  -65.29 | X-H torsion
[ 10718 10713 10712 10709 ] final   84.16 input   66.30 | X-H torsion
[ 10763 10752 10751 10750 ] final  -78.60 input  -60.55 | X-H torsion
[ 11005 11000 10999 10996 ] final -171.98 input  -57.11 | X-H torsion

> <Gold.Protein.ActiveResidues>
 VAL166  LYS551  ARG553  GLY616  TRP617  ASP618  TYR619  PRO620  LYS621  CYS622 
 ASP623  PHE694  ASN695  SER759  ASP760  ASP761  ALA762  ILE779  LEU786  VAL792 
 PHE793  MET794  SER795  GLU796  ALA797  LYS798  CYS799  TRP800  GLU811  SER814 

> <Gold.Protein.RotatedAtoms>
  152.5370  134.0267  159.8006 H   0  0  0  0  0  0  0  0  0  0  0  0  # atno 6907 bound_to 6896
  151.0445  133.5670  159.2655 H   0  0  0  0  0  0  0  0  0  0  0  0  # atno 6908 bound_to 6896
  151.2627  135.0666  159.9158 H   0  0  0  0  0  0  0  0  0  0  0  0  # atno 6909 bound_to 6896
  145.5483  139.2293  143.2527 H   0  0  0  0  0  0  0  0  0  0  0  0  # atno 7974 bound_to 7965
  154.7115  140.2693  155.6625 H   0  0  0  0  0  0  0  0  0  0  0  0  # atno 8008 bound_to 7997
  156.2796  140.2752  156.1682 H   0  0  0  0  0  0  0  0  0  0  0  0  # atno 8009 bound_to 7997
  155.0629  140.0371  157.2573 H   0  0  0  0  0  0  0  0  0  0  0  0  # atno 8010 bound_to 7997
  140.7170  143.3495  151.2185 H   0  0  0  0  0  0  0  0  0  0  0  0  # atno 10167 bound_to 10162
  157.6893  131.0121  150.2631 H   0  0  0  0  0  0  0  0  0  0  0  0  # atno 10718 bound_to 10713
  154.5280  135.5724  153.6735 H   0  0  0  0  0  0  0  0  0  0  0  0  # atno 10763 bound_to 10752
  152.9932  135.6198  154.2666 H   0  0  0  0  0  0  0  0  0  0  0  0  # atno 10764 bound_to 10752
  154.2591  135.2856  155.2765 H   0  0  0  0  0  0  0  0  0  0  0  0  # atno 10765 bound_to 10752
  140.5022  134.5883  157.4991 H   0  0  0  0  0  0  0  0  0  0  0  0  # atno 11005 bound_to 11000
  146.1934  140.6305  142.9135 LP  0  0  0  0  0  0  0  0  0  0  0  0  # atno 17320 bound_to 7965
  144.7542  140.5266  143.6780 LP  0  0  0  0  0  0  0  0  0  0  0  0  # atno 17321 bound_to 7965
  139.7023  143.9513  152.2911 LP  0  0  0  0  0  0  0  0  0  0  0  0  # atno 17342 bound_to 10162
  139.9210  144.6799  150.8461 LP  0  0  0  0  0  0  0  0  0  0  0  0  # atno 17343 bound_to 10162
  156.3207  130.3785  149.7578 LP  0  0  0  0  0  0  0  0  0  0  0  0  # atno 17370 bound_to 10713
  156.5149  130.8189  151.3182 LP  0  0  0  0  0  0  0  0  0  0  0  0  # atno 17371 bound_to 10713
  139.9707  134.7298  156.0047 LP  0  0  0  0  0  0  0  0  0  0  0  0  # atno 17394 bound_to 11000
  141.1430  133.6561  156.3784 LP  0  0  0  0  0  0  0  0  0  0  0  0  # atno 17395 bound_to 11000

$$$$
