AV-unprocessed.smi:153|AV-procd|sdf|1261|dock8
  -GOLD-   2262018513D 1   1.00000     0.00000
 Structure written by MMmdl.
 59 62  0  0  0  0  0  0  0  0  1 V2000
  147.6829  132.5906  153.3066 C   0  0  0  0  0  0  0  0  0  0  0  0
  146.9142  133.4374  152.2803 C   0  0  1  0  0  0  0  0  0  0  0  0
  146.0947  132.5484  151.5245 O   0  0  0  0  0  0  0  0  0  0  0  0
  144.9119  133.2255  151.1390 C   0  0  0  0  0  0  0  0  0  0  0  0
  144.5825  134.0407  152.3798 C   0  0  0  0  0  0  0  0  0  0  0  0
  145.9535  134.5211  152.8470 C   0  0  2  0  0  0  0  0  0  0  0  0
  146.2359  135.7390  152.1774 O   0  0  0  0  0  0  0  0  0  0  0  0
  146.0372  134.7883  154.3731 C   0  0  0  0  0  0  0  0  0  0  0  0
  147.0745  135.7423  154.7369 N   0  0  0  0  0  0  0  0  0  0  0  0
  146.9498  137.1104  154.7936 C   0  0  0  0  0  0  0  0  0  0  0  0
  148.0272  137.7494  155.1558 N   0  0  0  0  0  0  0  0  0  0  0  0
  148.9769  136.7524  155.3604 C   0  0  0  0  0  0  0  0  0  0  0  0
  150.3491  136.7360  155.7649 C   0  0  0  0  0  0  0  0  0  0  0  0
  151.0815  137.8433  156.0908 N   0  0  0  0  0  0  0  0  0  0  0  0
  152.1617  138.2634  155.2062 C   0  0  0  0  0  0  0  0  0  0  0  0
  150.5175  138.8562  156.9867 C   0  0  0  0  0  0  0  0  0  0  0  0
  151.4924  140.0267  157.2483 C   0  0  2  0  0  0  0  0  0  0  0  0
  152.6278  139.5175  157.9188 O   0  0  0  0  0  0  0  0  0  0  0  0
  150.8568  141.1033  158.1539 C   0  0  0  0  0  0  0  0  0  0  0  0
  151.7225  142.2343  158.4925 N   0  0  0  0  0  0  0  0  0  0  0  0
  152.1684  142.1483  159.8795 C   0  0  0  0  0  0  0  0  0  0  0  0
  153.0732  143.3297  160.2706 C   0  0  0  0  0  0  0  0  0  0  0  0
  152.3819  144.5532  160.0435 O   0  0  0  0  0  0  0  0  0  0  0  0
  151.9674  144.7035  158.6901 C   0  0  0  0  0  0  0  0  0  0  0  0
  151.0622  143.5248  158.2917 C   0  0  0  0  0  0  0  0  0  0  0  0
  150.9505  135.5156  155.8226 N   0  0  0  0  0  0  0  0  0  0  0  0
  150.2788  134.4000  155.5302 C   0  0  0  0  0  0  0  0  0  0  0  0
  149.0074  134.2700  155.1559 N   0  0  0  0  0  0  0  0  0  0  0  0
  148.3891  135.4823  155.0837 C   0  0  0  0  0  0  0  0  0  0  0  0
  148.3416  133.2060  153.9192 H   0  0  0  0  0  0  0  0  0  0  0  0
  148.3052  131.8504  152.8032 H   0  0  0  0  0  0  0  0  0  0  0  0
  147.0052  132.0503  153.9677 H   0  0  0  0  0  0  0  0  0  0  0  0
  147.6358  133.8875  151.5958 H   0  0  0  0  0  0  0  0  0  0  0  0
  145.1163  133.8714  150.2838 H   0  0  0  0  0  0  0  0  0  0  0  0
  144.1185  132.5288  150.8680 H   0  0  0  0  0  0  0  0  0  0  0  0
  143.8701  134.8451  152.1913 H   0  0  0  0  0  0  0  0  0  0  0  0
  144.1440  133.3758  153.1246 H   0  0  0  0  0  0  0  0  0  0  0  0
  147.1109  135.6899  151.8243 H   0  0  0  0  0  0  0  0  0  0  0  0
  145.0880  135.1713  154.7481 H   0  0  0  0  0  0  0  0  0  0  0  0
  146.2290  133.8590  154.9110 H   0  0  0  0  0  0  0  0  0  0  0  0
  146.0265  137.6224  154.5626 H   0  0  0  0  0  0  0  0  0  0  0  0
  153.0254  137.6081  155.3187 H   0  0  0  0  0  0  0  0  0  0  0  0
  152.4874  139.2777  155.4389 H   0  0  0  0  0  0  0  0  0  0  0  0
  151.8408  138.2521  154.1640 H   0  0  0  0  0  0  0  0  0  0  0  0
  149.5839  139.2213  156.5572 H   0  0  0  0  0  0  0  0  0  0  0  0
  150.2190  138.3872  157.9253 H   0  0  0  0  0  0  0  0  0  0  0  0
  151.8137  140.4561  156.3006 H   0  0  0  0  0  0  0  0  0  0  0  0
  152.3790  139.2933  158.8022 H   0  0  0  0  0  0  0  0  0  0  0  0
  149.9592  141.4934  157.6716 H   0  0  0  0  0  0  0  0  0  0  0  0
  150.5068  140.6199  159.0674 H   0  0  0  0  0  0  0  0  0  0  0  0
  151.3041  142.1219  160.5451 H   0  0  0  0  0  0  0  0  0  0  0  0
  152.7107  141.2151  160.0360 H   0  0  0  0  0  0  0  0  0  0  0  0
  153.3478  143.2654  161.3235 H   0  0  0  0  0  0  0  0  0  0  0  0
  154.0002  143.3146  159.6954 H   0  0  0  0  0  0  0  0  0  0  0  0
  151.4305  145.6462  158.5842 H   0  0  0  0  0  0  0  0  0  0  0  0
  152.8408  144.7569  158.0385 H   0  0  0  0  0  0  0  0  0  0  0  0
  150.7716  143.6524  157.2504 H   0  0  0  0  0  0  0  0  0  0  0  0
  150.1427  143.5653  158.8777 H   0  0  0  0  0  0  0  0  0  0  0  0
  150.8408  133.4809  155.6091 H   0  0  0  0  0  0  0  0  0  0  0  0
  1  2  1  0  0  0  0
  1 30  1  0  0  0  0
  1 31  1  0  0  0  0
  1 32  1  0  0  0  0
  2  6  1  0  0  0  0
  2  3  1  0  0  0  0
  2 33  1  0  0  0  0
  3  4  1  0  0  0  0
  4  5  1  0  0  0  0
  4 34  1  0  0  0  0
  4 35  1  0  0  0  0
  5  6  1  0  0  0  0
  5 36  1  0  0  0  0
  5 37  1  0  0  0  0
  6  7  1  0  0  0  0
  6  8  1  0  0  0  0
  7 38  1  0  0  0  0
  8  9  1  0  0  0  0
  8 39  1  0  0  0  0
  8 40  1  0  0  0  0
  9 29  1  0  0  0  0
  9 10  1  0  0  0  0
 10 11  2  0  0  0  0
 10 41  1  0  0  0  0
 11 12  1  0  0  0  0
 12 29  2  0  0  0  0
 12 13  1  0  0  0  0
 13 14  1  0  0  0  0
 13 26  2  0  0  0  0
 14 15  1  0  0  0  0
 14 16  1  0  0  0  0
 15 42  1  0  0  0  0
 15 43  1  0  0  0  0
 15 44  1  0  0  0  0
 16 17  1  0  0  0  0
 16 45  1  0  0  0  0
 16 46  1  0  0  0  0
 17 18  1  0  0  0  0
 17 19  1  0  0  0  0
 17 47  1  0  0  0  0
 18 48  1  0  0  0  0
 19 20  1  0  0  0  0
 19 49  1  0  0  0  0
 19 50  1  0  0  0  0
 20 25  1  0  0  0  0
 20 21  1  0  0  0  0
 21 22  1  0  0  0  0
 21 51  1  0  0  0  0
 21 52  1  0  0  0  0
 22 23  1  0  0  0  0
 22 53  1  0  0  0  0
 22 54  1  0  0  0  0
 23 24  1  0  0  0  0
 24 25  1  0  0  0  0
 24 55  1  0  0  0  0
 24 56  1  0  0  0  0
 25 57  1  0  0  0  0
 25 58  1  0  0  0  0
 26 27  1  0  0  0  0
 27 28  2  0  0  0  0
 27 59  1  0  0  0  0
 28 29  1  0  0  0  0
M  END
> <s_m_source_file>
AV-unprocessed.smi

> <i_m_source_file_index>
153

> <i_lp_mmshare_version>
43012

> <i_f3d_flags>
0

> <s_epik_input>
W0NIMl0xW0NIMl1PW0NAQEhdKFtDSDNdKVtDQEBdMShbT0hdKVtDSDJdbihbY0hdbjIpYyhjMjMpbltjSF1uYzNOKFtDSDNdKVtDSDJdW0NASF0oW09IXSlbQ0gyXU40W0NIMl1bQ0gyXU9bQ0gyXVtDSDJdNA==

> <s_epik_cmdline>
J2VwaWtfcHl0aG9uJywgJy1waCcsICc3LjAnLCAnLXRuJywgJzgnLCAnLW1hJywgJzIwMCcsICctbWV0YWxfYmluZGluZycsICctaW1hZScsICc8aW5maWxlLm1hZT4nLCAnLW9tYWUnLCAnPG91dGZpbGUubWFlPic=

> <r_lp_tautomer_probability>
1

> <r_epik_Ionization_Penalty>
0.424123

> <r_epik_Ionization_Penalty_Charging>
0

> <r_epik_Ionization_Penalty_Neutral>
0.424123

> <r_epik_State_Penalty>
0.421495

> <r_epik_Charging_Adjusted_Penalty>
0.421495

> <i_epik_Tot_Q>
0

> <i_epik_Tot_abs_Q>
0

> <r_epik_Metal_State_Penalty>
0.421223

> <b_epik_Metal_Only>
0

> <s_lp_Force_Field>
OPLS_2005

> <r_lp_Energy>
56.2601

> <b_lp_Chiralities_Consistent>
1

> <s_lp_Variant>
AV-unprocessed.smi:153-12

> <Gold.Version>
5.8.1

> <Gold.Id.Protein>
6NUR|6NUR_protein|mol2

> <Gold.PLP.Fitness>
44.3631

> <Gold.PLP.PLP>
-40.0297

> <Gold.PLP.part.hbond>
-3.0000

> <Gold.PLP.part.metal>
0.0000

> <Gold.PLP.part.buried>
-6.4267

> <Gold.PLP.part.nonpolar>
-30.1028

> <Gold.PLP.part.repulsive>
0.5326

> <Gold.PLP.ligand.clash>
0.0000

> <Gold.PLP.ligand.torsion>
2.6624

> <Gold.PLP.Chemscore.Hbond>
2.9920

> <Gold.PLP.Chemscore.CHOScore>
0.0000

> <Gold.PLP.Chemscore.Metal>
0.0000

> <Gold.Chemscore.Hbonds>
donor molecule, donor type, donor heavy atom, donor atom, acceptor molecule, acceptor atom, score
      L1  H     7    38       P1  7948  1.00
      P1  H  7997  8008       L1    18  0.41
      P1  H 10752 10763       L1    26  0.06

> <Gold.PLP.Chemscore.Internal.Correction>
0.6823

> <Gold.Rescore>
     Score         DG    S(hbond)    S(metal)    S(lipo)     H(rot)  DE(clash)    DE(int)     intcor
     13.61     -16.95       2.71        0.00      97.57       3.52       0.26       3.08       ----

> <Gold.Chemscore.Fitness>
13.6059

> <Gold.Chemscore.DG>
-16.9503

> <Gold.Chemscore.ZeroCoef>
-5.4800

> <Gold.Chemscore.Hbond>
2.7119

> <Gold.Chemscore.Metal>
0.0000

> <Gold.Chemscore.Lipo>
97.5738

> <Gold.Chemscore.Internal_Hbond>
0.0000

> <Gold.Chemscore.DEClash>
0.2598

> <Gold.Chemscore.DEInternal>
3.0846

> <Gold.Chemscore.Rot>
3.5170

> <Gold.Chemscore.Internal.Correction>
   9.000000E+99

> <Gold.Chemscore.Hbonds>
donor molecule, donor type, donor heavy atom, donor atom, acceptor molecule, acceptor atom, score
      L1  H     7    38       P1  7948  0.96
      P1  H  7997  8008       L1    18  0.18
      P1  H 10752 10763       L1    26  0.04

> <Gold.Chemscore.Hbond.Weighted>
-9.0578

> <Gold.Chemscore.Metal.Weighted>
-0.0000

> <Gold.Chemscore.Lipo.Weighted>
-11.4161

> <Gold.Chemscore.Internal_Hbond.Weighted>
0.0000

> <Gold.Chemscore.DEClash.Weighted>
0.2598

> <Gold.Chemscore.DEInternal.Weighted>
3.0846

> <Gold.Chemscore.Rot.Weighted>
9.0036

> <Gold.Chemscore.Internal.Correction.Weighted>
   9.000000E+99

> <Gold.Protein.RotatedTorsions>
[ 6907 6896 6895 6894 ] final  154.29 input  -60.11 | X-H torsion
[ 7974 7965 7964 7962 ] final  144.14 input  175.53 | X-H torsion
[ 8008 7997 7996 7995 ] final  -55.22 input   59.86 | X-H torsion
[ 10167 10162 10161 10158 ] final    1.12 input  -65.29 | X-H torsion
[ 10718 10713 10712 10709 ] final  168.17 input   66.30 | X-H torsion
[ 10763 10752 10751 10750 ] final   49.74 input  -60.55 | X-H torsion
[ 11005 11000 10999 10996 ] final -136.78 input  -57.11 | X-H torsion

> <Gold.Protein.ActiveResidues>
 VAL166  LYS551  ARG553  GLY616  TRP617  ASP618  TYR619  PRO620  LYS621  CYS622 
 ASP623  PHE694  ASN695  SER759  ASP760  ASP761  ALA762  ILE779  LEU786  VAL792 
 PHE793  MET794  SER795  GLU796  ALA797  LYS798  CYS799  TRP800  GLU811  SER814 

> <Gold.Protein.RotatedAtoms>
  152.0605  133.4060  159.4415 H   0  0  0  0  0  0  0  0  0  0  0  0  # atno 6907 bound_to 6896
  150.6866  134.3205  159.4794 H   0  0  0  0  0  0  0  0  0  0  0  0  # atno 6908 bound_to 6896
  152.1026  134.9330  160.0620 H   0  0  0  0  0  0  0  0  0  0  0  0  # atno 6909 bound_to 6896
  144.8861  139.5626  143.5820 H   0  0  0  0  0  0  0  0  0  0  0  0  # atno 7974 bound_to 7965
  154.4188  140.1158  156.5442 H   0  0  0  0  0  0  0  0  0  0  0  0  # atno 8008 bound_to 7997
  155.6477  140.3496  155.4718 H   0  0  0  0  0  0  0  0  0  0  0  0  # atno 8009 bound_to 7997
  155.9819  140.1162  157.0709 H   0  0  0  0  0  0  0  0  0  0  0  0  # atno 8010 bound_to 7997
  140.6697  143.7081  150.7899 H   0  0  0  0  0  0  0  0  0  0  0  0  # atno 10167 bound_to 10162
  157.0410  131.0286  151.2713 H   0  0  0  0  0  0  0  0  0  0  0  0  # atno 10718 bound_to 10713
  152.9786  135.5902  154.4139 H   0  0  0  0  0  0  0  0  0  0  0  0  # atno 10763 bound_to 10752
  154.3771  135.2767  155.2235 H   0  0  0  0  0  0  0  0  0  0  0  0  # atno 10764 bound_to 10752
  154.4165  135.6069  153.6038 H   0  0  0  0  0  0  0  0  0  0  0  0  # atno 10765 bound_to 10752
  140.8773  134.1976  157.4613 H   0  0  0  0  0  0  0  0  0  0  0  0  # atno 11005 bound_to 11000
  146.3025  139.7473  142.9080 LP  0  0  0  0  0  0  0  0  0  0  0  0  # atno 17320 bound_to 7965
  145.3866  141.0366  143.3147 LP  0  0  0  0  0  0  0  0  0  0  0  0  # atno 17321 bound_to 7965
  140.0765  143.5010  152.2553 LP  0  0  0  0  0  0  0  0  0  0  0  0  # atno 17342 bound_to 10162
  139.5961  144.7567  151.3284 LP  0  0  0  0  0  0  0  0  0  0  0  0  # atno 17343 bound_to 10162
  157.5105  130.7935  149.7699 LP  0  0  0  0  0  0  0  0  0  0  0  0  # atno 17370 bound_to 10713
  156.0038  130.3866  150.2506 LP  0  0  0  0  0  0  0  0  0  0  0  0  # atno 17371 bound_to 10713
  139.8716  134.9801  156.5064 LP  0  0  0  0  0  0  0  0  0  0  0  0  # atno 17394 bound_to 11000
  140.8503  133.8137  155.9162 LP  0  0  0  0  0  0  0  0  0  0  0  0  # atno 17395 bound_to 11000

$$$$
