#       Name:                AV-unprocessed.smi:3339
#       Creating user name   scv26
#       Creation time:       Fri Mar 27 19:28:07 2020


#       File generated by GOLD software.
#

@<TRIPOS>MOLECULE
AV-unprocessed.smi:3339
    45    46     1
SMALL
NO_CHARGES


@<TRIPOS>ATOM
      1 ****        -4.3325   3.1861  -0.1462 C.3            1 S1                 0.0000
      2 ****        -4.0376   1.6871  -0.0171 C.3            1 S1                 0.0000
      3 ****        -4.3929   1.1664   1.3855 C.3            1 S1                 0.0000
      4 ****        -2.6526   1.5107  -0.2874 O.3            1 S1                 0.0000
      5 ****        -2.2839   0.1918  -0.6668 C.3            1 S1                 0.0000
      6 ****        -0.7771   0.1667  -0.9751 C.3            1 S1                 0.0000
      7 ****        -0.6112   0.6463  -2.2949 O.3            1 S1                 0.0000
      8 ****        -0.2009  -1.2630  -0.9162 C.3            1 S1                 0.0000
      9 ****         1.2477  -1.2519  -0.7212 N.am           1 S1                 0.0000
     10 ****         2.1927  -1.3575  -1.6850 C.2            1 S1                 0.0000
     11 ****         1.9826  -1.4825  -2.8912 O.2            1 S1                 0.0000
     12 ****         3.4068  -1.2838  -1.0914 N.am           1 S1                 0.0000
     13 ****         4.7065  -1.3367  -1.7498 C.3            1 S1                 0.0000
     14 ****         3.2347  -1.1029   0.2870 C.ar           1 S1                 0.0000
     15 ****         4.1722  -0.9520   1.3230 C.ar           1 S1                 0.0000
     16 ****         3.6650  -0.7748   2.6319 C.ar           1 S1                 0.0000
     17 ****         2.2664  -0.7500   2.8728 C.ar           1 S1                 0.0000
     18 ****         1.3449  -0.9037   1.8104 C.ar           1 S1                 0.0000
     19 ****         1.8760  -1.0814   0.5209 C.ar           1 S1                 0.0000
     20 ****        -5.3889   3.3960   0.0239 H              1 S1                 0.0000
     21 ****        -4.0795   3.5484  -1.1431 H              1 S1                 0.0000
     22 ****        -3.7553   3.7661   0.5747 H              1 S1                 0.0000
     23 ****        -4.6331   1.1611  -0.7651 H              1 S1                 0.0000
     24 ****        -5.4361   1.3746   1.6244 H              1 S1                 0.0000
     25 ****        -3.7760   1.6413   2.1490 H              1 S1                 0.0000
     26 ****        -4.2543   0.0888   1.4667 H              1 S1                 0.0000
     27 ****        -2.4960  -0.4807   0.1640 H              1 S1                 0.0000
     28 ****        -2.8670  -0.1585  -1.5206 H              1 S1                 0.0000
     29 ****        -0.2515   0.8141  -0.2715 H              1 S1                 0.0000
     30 ****         0.3100   0.6345  -2.5061 H              1 S1                 0.0000
     31 ****        -0.6326  -1.8059  -0.0749 H              1 S1                 0.0000
     32 ****        -0.4751  -1.8360  -1.8038 H              1 S1                 0.0000
     33 ****         5.3975  -1.9631  -1.1849 H              1 S1                 0.0000
     34 ****         5.1310  -0.3352  -1.8205 H              1 S1                 0.0000
     35 ****         4.6342  -1.7477  -2.7577 H              1 S1                 0.0000
     36 ****         5.2349  -0.9678   1.1313 H              1 S1                 0.0000
     37 ****         4.3509  -0.6545   3.4575 H              1 S1                 0.0000
     38 ****         1.9009  -0.6100   3.8795 H              1 S1                 0.0000
     39 ****         0.2795  -0.8813   1.9866 H              1 S1                 0.0000
     40 ****        -2.1413   1.7518   0.5375 LP             1 S1                 0.0000
     41 ****        -2.3989   2.1307  -1.0299 LP             1 S1                 0.0000
     42 ****        -0.9599   1.5813  -2.3600 LP             1 S1                 0.0000
     43 ****        -1.1106   0.0592  -2.9320 LP             1 S1                 0.0000
     44 ****         1.0439  -1.5136  -3.2346 LP             1 S1                 0.0000
     45 ****         2.7505  -1.5530  -3.5278 LP             1 S1                 0.0000
@<TRIPOS>BOND
    1    1    2 1     
    2    1   20 1     
    3    1   21 1     
    4    1   22 1     
    5    2    3 1     
    6    2    4 1     
    7    2   23 1     
    8    3   24 1     
    9    3   25 1     
   10    3   26 1     
   11    4    5 1     
   12    5    6 1     
   13    5   27 1     
   14    5   28 1     
   15    6    7 1     
   16    6    8 1     
   17    6   29 1     
   18    7   30 1     
   19    8    9 1     
   20    8   31 1     
   21    8   32 1     
   22    9   19 1     
   23    9   10 am    
   24   10   11 2     
   25   10   12 am    
   26   12   13 1     
   27   12   14 1     
   28   13   33 1     
   29   13   34 1     
   30   13   35 1     
   31   14   19 ar    
   32   14   15 ar    
   33   15   16 ar    
   34   15   36 1     
   35   16   17 ar    
   36   16   37 1     
   37   17   18 ar    
   38   17   38 1     
   39   18   19 ar    
   40   18   39 1     
   41    4   40 1     
   42    4   41 1     
   43    7   42 1     
   44    7   43 1     
   45   11   44 1     
   46   11   45 1     
@<TRIPOS>SUBSTRUCTURE
      1 S1             1
@<TRIPOS>SET
LONE_PAIRS      STATIC     ATOMS    <user>   **** ""
6 40 41 42 43 44 45
DONOR_HYDROGENS      STATIC     ATOMS    <user>   **** ""
1 30
ATOM$BLUE        STATIC     ATOMS    COLORGROUP SYSTEM
6 40 41 42 43 44 45
ATOM$RED        STATIC     ATOMS    COLORGROUP SYSTEM
1 30
