AV-unprocessed.smi:1280|AV-procd|sdf|5357|dock10
  -GOLD-   22720 4493D 1   1.00000     0.00000
 Structure written by MMmdl.
 45 46  0  0  0  0  0  0  0  0  1 V2000
  154.6356  134.4184  162.6257 C   0  0  0  0  0  0  0  0  0  0  0  0
  155.2804  135.1611  161.0735 S   0  0  0  0  0  0  0  0  0  0  0  0
  156.6394  134.6488  160.8409 O   0  0  0  0  0  0  0  0  0  0  0  0
  154.2559  135.0448  160.0247 O   0  0  0  0  0  0  0  0  0  0  0  0
  155.4117  136.8296  161.4856 N   0  0  0  0  0  0  0  0  0  0  0  0
  154.1954  137.5292  161.8933 C   0  0  0  0  0  0  0  0  0  0  0  0
  154.5491  138.8219  162.6387 C   0  0  0  0  0  0  0  0  0  0  0  0
  155.1802  139.8734  161.7129 C   0  0  0  0  0  0  0  0  0  0  0  0
  154.1703  140.5690  160.9261 N   0  0  0  0  0  0  0  0  0  0  0  0
  154.0254  140.4733  159.5943 C   0  0  0  0  0  0  0  0  0  0  0  0
  154.7132  139.7355  158.8885 O   0  0  0  0  0  0  0  0  0  0  0  0
  152.9037  141.2795  158.9930 C   0  0  0  0  0  0  0  0  0  0  0  0
  152.4958  142.4602  159.6534 C   0  0  0  0  0  0  0  0  0  0  0  0
  151.4576  143.2381  159.1118 C   0  0  0  0  0  0  0  0  0  0  0  0
  150.8529  142.8017  157.9211 C   0  0  0  0  0  0  0  0  0  0  0  0
  151.2126  141.6690  157.2850 N   0  0  0  0  0  0  0  0  0  0  0  0
  152.2074  140.9060  157.8025 C   0  0  0  0  0  0  0  0  0  0  0  0
  152.4868  139.7023  157.1242 N   0  0  0  0  0  0  0  0  0  0  0  0
  152.2215  138.5022  157.9081 C   0  0  0  0  0  0  0  0  0  0  0  0
  152.8367  137.2776  157.2094 C   0  0  0  0  0  0  0  0  0  0  0  0
  152.3398  137.1852  155.8767 O   0  0  0  0  0  0  0  0  0  0  0  0
  152.6676  138.3337  155.0989 C   0  0  0  0  0  0  0  0  0  0  0  0
  152.0437  139.5857  155.7390 C   0  0  0  0  0  0  0  0  0  0  0  0
  154.5083  133.3450  162.4869 H   0  0  0  0  0  0  0  0  0  0  0  0
  153.6745  134.8671  162.8751 H   0  0  0  0  0  0  0  0  0  0  0  0
  155.3424  134.5965  163.4358 H   0  0  0  0  0  0  0  0  0  0  0  0
  156.1556  136.9740  162.1681 H   0  0  0  0  0  0  0  0  0  0  0  0
  153.5946  137.7479  161.0098 H   0  0  0  0  0  0  0  0  0  0  0  0
  153.6057  136.8730  162.5344 H   0  0  0  0  0  0  0  0  0  0  0  0
  153.6480  139.2314  163.0976 H   0  0  0  0  0  0  0  0  0  0  0  0
  155.2373  138.5964  163.4545 H   0  0  0  0  0  0  0  0  0  0  0  0
  155.7160  140.6164  162.3043 H   0  0  0  0  0  0  0  0  0  0  0  0
  155.9174  139.4121  161.0534 H   0  0  0  0  0  0  0  0  0  0  0  0
  153.5446  141.1838  161.4264 H   0  0  0  0  0  0  0  0  0  0  0  0
  152.9805  142.7798  160.5648 H   0  0  0  0  0  0  0  0  0  0  0  0
  151.1359  144.1484  159.5955 H   0  0  0  0  0  0  0  0  0  0  0  0
  150.0544  143.3728  157.4709 H   0  0  0  0  0  0  0  0  0  0  0  0
  152.6268  138.5980  158.9155 H   0  0  0  0  0  0  0  0  0  0  0  0
  151.1429  138.3733  158.0094 H   0  0  0  0  0  0  0  0  0  0  0  0
  153.9259  137.3446  157.1985 H   0  0  0  0  0  0  0  0  0  0  0  0
  152.5784  136.3669  157.7499 H   0  0  0  0  0  0  0  0  0  0  0  0
  153.7513  138.4354  155.0216 H   0  0  0  0  0  0  0  0  0  0  0  0
  152.2862  138.1989  154.0867 H   0  0  0  0  0  0  0  0  0  0  0  0
  150.9556  139.5146  155.7042 H   0  0  0  0  0  0  0  0  0  0  0  0
  152.3316  140.4767  155.1796 H   0  0  0  0  0  0  0  0  0  0  0  0
  1  2  1  0  0  0  0
  1 24  1  0  0  0  0
  1 25  1  0  0  0  0
  1 26  1  0  0  0  0
  2  3  2  0  0  0  0
  2  4  2  0  0  0  0
  2  5  1  0  0  0  0
  5  6  1  0  0  0  0
  5 27  1  0  0  0  0
  6  7  1  0  0  0  0
  6 28  1  0  0  0  0
  6 29  1  0  0  0  0
  7  8  1  0  0  0  0
  7 30  1  0  0  0  0
  7 31  1  0  0  0  0
  8  9  1  0  0  0  0
  8 32  1  0  0  0  0
  8 33  1  0  0  0  0
  9 10  1  0  0  0  0
  9 34  1  0  0  0  0
 10 11  2  0  0  0  0
 10 12  1  0  0  0  0
 12 17  1  0  0  0  0
 12 13  2  0  0  0  0
 13 14  1  0  0  0  0
 13 35  1  0  0  0  0
 14 15  2  0  0  0  0
 14 36  1  0  0  0  0
 15 16  1  0  0  0  0
 15 37  1  0  0  0  0
 16 17  2  0  0  0  0
 17 18  1  0  0  0  0
 18 23  1  0  0  0  0
 18 19  1  0  0  0  0
 19 20  1  0  0  0  0
 19 38  1  0  0  0  0
 19 39  1  0  0  0  0
 20 21  1  0  0  0  0
 20 40  1  0  0  0  0
 20 41  1  0  0  0  0
 21 22  1  0  0  0  0
 22 23  1  0  0  0  0
 22 42  1  0  0  0  0
 22 43  1  0  0  0  0
 23 44  1  0  0  0  0
 23 45  1  0  0  0  0
M  END
> <s_m_source_file>
AV-unprocessed.smi

> <i_m_source_file_index>
1280

> <i_lp_mmshare_version>
43012

> <i_f3d_flags>
0

> <s_epik_input>
W0NIM11TKD1PKSg9TylbTkhdW0NIMl1bQ0gyXVtDSDJdW05IXUMoPU8pYzFbY0hdW2NIXVtjSF1uYzFOMltDSDJdW0NIMl1PW0NIMl1bQ0gyXTI=

> <s_epik_cmdline>
J2VwaWtfcHl0aG9uJywgJy1waCcsICc3LjAnLCAnLXRuJywgJzgnLCAnLW1hJywgJzIwMCcsICctbWV0YWxfYmluZGluZycsICctaW1hZScsICc8aW5maWxlLm1hZT4nLCAnLW9tYWUnLCAnPG91dGZpbGUubWFlPic=

> <r_lp_tautomer_probability>
1

> <r_epik_Ionization_Penalty>
2.29251e-05

> <r_epik_Ionization_Penalty_Charging>
0

> <r_epik_Ionization_Penalty_Neutral>
2.29251e-05

> <r_epik_State_Penalty>
-0

> <r_epik_Charging_Adjusted_Penalty>
0

> <i_epik_Tot_Q>
0

> <i_epik_Tot_abs_Q>
0

> <r_epik_Metal_State_Penalty>
0.00766126

> <b_epik_Metal_Only>
0

> <s_lp_Force_Field>
OPLS_2005

> <r_lp_Energy>
17.2463

> <b_lp_Chiralities_Consistent>
1

> <s_lp_Variant>
AV-unprocessed.smi:1280-1

> <Gold.Version>
5.8.1

> <Gold.Id.Protein>
6NUR|6NUR_protein|mol2

> <Gold.PLP.Fitness>
43.4910

> <Gold.PLP.PLP>
-33.2933

> <Gold.PLP.part.hbond>
-4.0000

> <Gold.PLP.part.metal>
0.0000

> <Gold.PLP.part.buried>
-4.0725

> <Gold.PLP.part.nonpolar>
-25.4056

> <Gold.PLP.part.repulsive>
0.0752

> <Gold.PLP.ligand.clash>
0.0000

> <Gold.PLP.ligand.torsion>
0.8286

> <Gold.PLP.Chemscore.Hbond>
2.8089

> <Gold.PLP.Chemscore.CHOScore>
1.0000

> <Gold.PLP.Chemscore.Metal>
0.0000

> <Gold.Chemscore.Hbonds>
donor molecule, donor type, donor heavy atom, donor atom, acceptor molecule, acceptor atom, score
      P1  H  6896  6908       L1     4  1.00
      P1  H  7997  8008       L1    11  1.00
      P1  H 10752 10763       L1    21  0.80
      L1  C    15    37       P1  8028  1.00

> <Gold.PLP.Chemscore.Internal.Correction>
0.4283

> <Gold.Rescore>
     Score         DG    S(hbond)    S(metal)    S(lipo)     H(rot)  DE(clash)    DE(int)     intcor
     15.27     -17.70       2.52        0.00      89.05       2.58       0.15       2.28       ----

> <Gold.Chemscore.Fitness>
15.2724

> <Gold.Chemscore.DG>
-17.7009

> <Gold.Chemscore.ZeroCoef>
-5.4800

> <Gold.Chemscore.Hbond>
2.5196

> <Gold.Chemscore.Metal>
0.0000

> <Gold.Chemscore.Lipo>
89.0535

> <Gold.Chemscore.Internal_Hbond>
0.0000

> <Gold.Chemscore.DEClash>
0.1533

> <Gold.Chemscore.DEInternal>
2.2752

> <Gold.Chemscore.Rot>
2.5835

> <Gold.Chemscore.Internal.Correction>
   9.000000E+99

> <Gold.Chemscore.Hbonds>
donor molecule, donor type, donor heavy atom, donor atom, acceptor molecule, acceptor atom, score
      P1  H  6896  6908       L1     4  1.00
      P1  H  7997  8008       L1    11  0.95
      P1  H 10752 10763       L1    21  0.37

> <Gold.Chemscore.Hbond.Weighted>
-8.4154

> <Gold.Chemscore.Metal.Weighted>
-0.0000

> <Gold.Chemscore.Lipo.Weighted>
-10.4193

> <Gold.Chemscore.Internal_Hbond.Weighted>
0.0000

> <Gold.Chemscore.DEClash.Weighted>
0.1533

> <Gold.Chemscore.DEInternal.Weighted>
2.2752

> <Gold.Chemscore.Rot.Weighted>
6.6137

> <Gold.Chemscore.Internal.Correction.Weighted>
   9.000000E+99

> <Gold.Protein.RotatedTorsions>
[ 6907 6896 6895 6894 ] final  -45.43 input  -60.11 | X-H torsion
[ 7974 7965 7964 7962 ] final  103.52 input  175.53 | X-H torsion
[ 8008 7997 7996 7995 ] final -134.62 input   59.86 | X-H torsion
[ 10167 10162 10161 10158 ] final  -73.29 input  -65.29 | X-H torsion
[ 10718 10713 10712 10709 ] final  159.97 input   66.30 | X-H torsion
[ 10763 10752 10751 10750 ] final   86.60 input  -60.55 | X-H torsion
[ 11005 11000 10999 10996 ] final  -75.60 input  -57.11 | X-H torsion

> <Gold.Protein.ActiveResidues>
 VAL166  LYS551  ARG553  GLY616  TRP617  ASP618  TYR619  PRO620  LYS621  CYS622 
 ASP623  PHE694  ASN695  SER759  ASP760  ASP761  ALA762  ILE779  LEU786  VAL792 
 PHE793  MET794  SER795  GLU796  ALA797  LYS798  CYS799  TRP800  GLU811  SER814 

> <Gold.Protein.RotatedAtoms>
  150.9220  134.8637  159.7494 H   0  0  0  0  0  0  0  0  0  0  0  0  # atno 6907 bound_to 6896
  152.4997  134.4204  159.9489 H   0  0  0  0  0  0  0  0  0  0  0  0  # atno 6908 bound_to 6896
  151.4238  133.3651  159.2794 H   0  0  0  0  0  0  0  0  0  0  0  0  # atno 6909 bound_to 6896
  145.3448  139.2453  143.3590 H   0  0  0  0  0  0  0  0  0  0  0  0  # atno 7974 bound_to 7965
  155.3651  140.0485  157.3046 H   0  0  0  0  0  0  0  0  0  0  0  0  # atno 8008 bound_to 7997
  154.5158  140.2208  155.9032 H   0  0  0  0  0  0  0  0  0  0  0  0  # atno 8009 bound_to 7997
  156.1635  140.3111  155.8853 H   0  0  0  0  0  0  0  0  0  0  0  0  # atno 8010 bound_to 7997
  140.5123  143.2343  151.7573 H   0  0  0  0  0  0  0  0  0  0  0  0  # atno 10167 bound_to 10162
  157.1568  131.0577  151.2252 H   0  0  0  0  0  0  0  0  0  0  0  0  # atno 10718 bound_to 10713
  153.1586  135.4574  154.9740 H   0  0  0  0  0  0  0  0  0  0  0  0  # atno 10763 bound_to 10752
  154.7881  135.3211  154.7843 H   0  0  0  0  0  0  0  0  0  0  0  0  # atno 10764 bound_to 10752
  153.8337  135.6936  153.4866 H   0  0  0  0  0  0  0  0  0  0  0  0  # atno 10765 bound_to 10752
  141.1647  133.6952  156.7542 H   0  0  0  0  0  0  0  0  0  0  0  0  # atno 11005 bound_to 11000
  146.2992  140.4053  142.8710 LP  0  0  0  0  0  0  0  0  0  0  0  0  # atno 17320 bound_to 7965
  144.8762  140.7340  143.6015 LP  0  0  0  0  0  0  0  0  0  0  0  0  # atno 17321 bound_to 7965
  139.4899  144.4374  151.9804 LP  0  0  0  0  0  0  0  0  0  0  0  0  # atno 17342 bound_to 10162
  140.3466  144.3139  150.5957 LP  0  0  0  0  0  0  0  0  0  0  0  0  # atno 17343 bound_to 10162
  157.4169  130.7416  149.6883 LP  0  0  0  0  0  0  0  0  0  0  0  0  # atno 17370 bound_to 10713
  155.9760  130.4080  150.3805 LP  0  0  0  0  0  0  0  0  0  0  0  0  # atno 17371 bound_to 10713
  140.2582  134.8487  157.3733 LP  0  0  0  0  0  0  0  0  0  0  0  0  # atno 17394 bound_to 11000
  140.1637  134.4696  155.7877 LP  0  0  0  0  0  0  0  0  0  0  0  0  # atno 17395 bound_to 11000

$$$$
