#       Name:                AV-unprocessed.smi:1230
#       Creating user name   scv26
#       Creation time:       Fri Mar 27 04:22:37 2020


#       File generated by GOLD software.
#

@<TRIPOS>MOLECULE
AV-unprocessed.smi:1230
    46    47     1
SMALL
NO_CHARGES


@<TRIPOS>ATOM
      1 ****        -1.3517   1.2264  -2.4333 C.3            1 S1                 0.0000
      2 ****        -2.1978   1.3914  -1.1614 C.3            1 S1                 0.0000
      3 ****        -3.3809   0.4032  -1.1279 C.3            1 S1                 0.0000
      4 ****        -4.2493   0.6070   0.1240 C.3            1 S1                 0.0000
      5 ****        -3.4122   0.5003   1.4075 C.3            1 S1                 0.0000
      6 ****        -2.2262   1.4794   1.3833 C.3            1 S1                 0.0000
      7 ****        -1.3519   1.2931   0.1296 C.3            1 S1                 0.0000
      8 ****        -0.7361   0.0123   0.2127 O.3            1 S1                 0.0000
      9 ****         0.6775   0.0382   0.0993 C.3            1 S1                 0.0000
     10 ****         1.2003  -1.4039   0.1420 C.3            1 S1                 0.0000
     11 ****         2.6634  -1.4439   0.0247 N.am           1 S1                 0.0000
     12 ****         3.4095  -1.4713   1.2151 C.2            1 S1                 0.0000
     13 ****         4.7556  -1.4999   1.2041 C.2            1 S1                 0.0000
     14 ****         5.5367  -1.5240   2.3968 C.1            1 S1                 0.0000
     15 ****         6.1440  -1.5418   3.3825 N.1            1 S1                 0.0000
     16 ****         5.4453  -1.5007  -0.0840 C.2            1 S1                 0.0000
     17 ****         6.6746  -1.5321  -0.1241 O.2            1 S1                 0.0000
     18 ****         4.6706  -1.4641  -1.2081 N.pl3          1 S1                -1.0000
     19 ****         3.3015  -1.4299  -1.1841 C.2            1 S1                 0.0000
     20 ****         2.6264  -1.3842  -2.2128 O.2            1 S1                 0.0000
     21 ****        -0.9244   0.2255  -2.5017 H              1 S1                 0.0000
     22 ****        -0.5296   1.9422  -2.4541 H              1 S1                 0.0000
     23 ****        -1.9525   1.3902  -3.3281 H              1 S1                 0.0000
     24 ****        -2.6177   2.3979  -1.1939 H              1 S1                 0.0000
     25 ****        -3.9952   0.5275  -2.0203 H              1 S1                 0.0000
     26 ****        -3.0091  -0.6221  -1.1516 H              1 S1                 0.0000
     27 ****        -4.7284   1.5859   0.0805 H              1 S1                 0.0000
     28 ****        -5.0529  -0.1296   0.1423 H              1 S1                 0.0000
     29 ****        -4.0388   0.6982   2.2775 H              1 S1                 0.0000
     30 ****        -3.0447  -0.5204   1.5194 H              1 S1                 0.0000
     31 ****        -2.6044   2.5020   1.4095 H              1 S1                 0.0000
     32 ****        -1.6205   1.3538   2.2813 H              1 S1                 0.0000
     33 ****        -0.6016   2.0867   0.1233 H              1 S1                 0.0000
     34 ****         0.9707   0.5199  -0.8344 H              1 S1                 0.0000
     35 ****         1.1032   0.6189   0.9192 H              1 S1                 0.0000
     36 ****         0.8852  -1.8789   1.0720 H              1 S1                 0.0000
     37 ****         0.7346  -1.9926  -0.6503 H              1 S1                 0.0000
     38 ****         2.8261  -1.4615   2.1243 H              1 S1                 0.0000
     39 ****        -1.0993  -0.5586  -0.5236 LP             1 S1                 0.0000
     40 ****        -0.9724  -0.3925   1.0960 LP             1 S1                 0.0000
     41 ****         6.6685  -1.5571   4.2338 LP             1 S1                 0.0000
     42 ****         7.2021  -1.5571   0.7251 LP             1 S1                 0.0000
     43 ****         7.1463  -1.5326  -1.0059 LP             1 S1                 0.0000
     44 ****         5.1279  -1.4621  -2.0974 LP             1 S1                 0.0000
     45 ****         1.6284  -1.3580  -2.1552 LP             1 S1                 0.0000
     46 ****         3.0761  -1.3732  -3.1059 LP             1 S1                 0.0000
@<TRIPOS>BOND
    1    1    2 1     
    2    1   21 1     
    3    1   22 1     
    4    1   23 1     
    5    2    7 1     
    6    2    3 1     
    7    2   24 1     
    8    3    4 1     
    9    3   25 1     
   10    3   26 1     
   11    4    5 1     
   12    4   27 1     
   13    4   28 1     
   14    5    6 1     
   15    5   29 1     
   16    5   30 1     
   17    6    7 1     
   18    6   31 1     
   19    6   32 1     
   20    7    8 1     
   21    7   33 1     
   22    8    9 1     
   23    9   10 1     
   24    9   34 1     
   25    9   35 1     
   26   10   11 1     
   27   10   36 1     
   28   10   37 1     
   29   11   19 am    
   30   11   12 1     
   31   12   13 2     
   32   12   38 1     
   33   13   14 1     
   34   13   16 1     
   35   14   15 3     
   36   16   17 2     
   37   16   18 1     
   38   18   19 1     
   39   19   20 2     
   40    8   39 1     
   41    8   40 1     
   42   15   41 1     
   43   17   42 1     
   44   17   43 1     
   45   18   44 1     
   46   20   45 1     
   47   20   46 1     
@<TRIPOS>SUBSTRUCTURE
      1 S1             1
@<TRIPOS>SET
LONE_PAIRS      STATIC     ATOMS    <user>   **** ""
8 39 40 41 42 43 44 45 46
ATOM$BLUE        STATIC     ATOMS    COLORGROUP SYSTEM
8 39 40 41 42 43 44 45 46
