#       Name:                AV-unprocessed.smi:2787
#       Creating user name   scv26
#       Creation time:       Fri Mar 27 15:18:56 2020


#       File generated by GOLD software.
#

@<TRIPOS>MOLECULE
AV-unprocessed.smi:2787
    40    41     1
SMALL
NO_CHARGES


@<TRIPOS>ATOM
      1 ****        -4.3069   0.8950   0.1828 O.3            1 S1                 0.0000
      2 ****        -3.6274   2.1150  -0.0278 C.3            1 S1                 0.0000
      3 ****        -2.1112   1.9198   0.1184 C.3            1 S1                 0.0000
      4 ****        -1.4966   1.0746  -1.0111 C.3            1 S1                 0.0000
      5 ****        -0.0164   0.8733  -0.8494 C.2            1 S1                 0.0000
      6 ****         0.8290   1.8945  -0.9999 N.2            1 S1                 0.0000
      7 ****         2.0599   1.3149  -0.7694 C.ar           1 S1                 0.0000
      8 ****         3.3563   1.8780  -0.7740 C.ar           1 S1                 0.0000
      9 ****         4.4841   1.0746  -0.5061 C.ar           1 S1                 0.0000
     10 ****         4.3318  -0.2998  -0.2313 C.ar           1 S1                 0.0000
     11 ****         3.0487  -0.8799  -0.2220 C.ar           1 S1                 0.0000
     12 ****         1.9258  -0.0733  -0.4892 C.ar           1 S1                 0.0000
     13 ****         0.5583  -0.3256  -0.5570 N.pl3          1 S1                 0.0000
     14 ****        -0.0583  -1.6326  -0.3529 C.3            1 S1                 0.0000
     15 ****        -0.2725  -1.9647   1.1376 C.3            1 S1                 0.0000
     16 ****        -1.1352  -1.0096   1.7220 O.3            1 S1                 0.0000
     17 ****        -0.8528  -3.3746   1.3601 C.3            1 S1                 0.0000
     18 ****        -0.9956  -3.6120   2.6642 F              1 S1                 0.0000
     19 ****        -2.0305  -3.5093   0.7495 F              1 S1                 0.0000
     20 ****        -0.0112  -4.2834   0.8671 F              1 S1                 0.0000
     21 ****        -5.2360   1.0501   0.1058 H              1 S1                 0.0000
     22 ****        -3.8767   2.5061  -1.0148 H              1 S1                 0.0000
     23 ****        -3.9836   2.8389   0.7056 H              1 S1                 0.0000
     24 ****        -1.6338   2.9004   0.1253 H              1 S1                 0.0000
     25 ****        -1.8931   1.4735   1.0885 H              1 S1                 0.0000
     26 ****        -2.0153   0.1219  -1.0772 H              1 S1                 0.0000
     27 ****        -1.6672   1.5688  -1.9683 H              1 S1                 0.0000
     28 ****         3.4828   2.9297  -0.9839 H              1 S1                 0.0000
     29 ****         5.4706   1.5146  -0.5118 H              1 S1                 0.0000
     30 ****         5.2007  -0.9085  -0.0280 H              1 S1                 0.0000
     31 ****         2.9298  -1.9323  -0.0116 H              1 S1                 0.0000
     32 ****        -0.9893  -1.7066  -0.9108 H              1 S1                 0.0000
     33 ****         0.5988  -2.3798  -0.7990 H              1 S1                 0.0000
     34 ****         0.6849  -1.8973   1.6558 H              1 S1                 0.0000
     35 ****        -0.7504  -0.1534   1.6141 H              1 S1                 0.0000
     36 ****        -4.0982   0.5465   1.0965 LP             1 S1                 0.0000
     37 ****        -4.0191   0.2263  -0.5028 LP             1 S1                 0.0000
     38 ****         0.6214   2.8465  -1.2247 LP             1 S1                 0.0000
     39 ****        -1.2489  -1.2084   2.6954 LP             1 S1                 0.0000
     40 ****        -2.0266  -1.0385   1.2696 LP             1 S1                 0.0000
@<TRIPOS>BOND
    1    1    2 1     
    2    1   21 1     
    3    2    3 1     
    4    2   22 1     
    5    2   23 1     
    6    3    4 1     
    7    3   24 1     
    8    3   25 1     
    9    4    5 1     
   10    4   26 1     
   11    4   27 1     
   12    5   13 1     
   13    5    6 2     
   14    6    7 1     
   15    7   12 ar    
   16    7    8 ar    
   17    8    9 ar    
   18    8   28 1     
   19    9   10 ar    
   20    9   29 1     
   21   10   11 ar    
   22   10   30 1     
   23   11   12 ar    
   24   11   31 1     
   25   12   13 1     
   26   13   14 1     
   27   14   15 1     
   28   14   32 1     
   29   14   33 1     
   30   15   16 1     
   31   15   17 1     
   32   15   34 1     
   33   16   35 1     
   34   17   18 1     
   35   17   19 1     
   36   17   20 1     
   37    1   36 1     
   38    1   37 1     
   39    6   38 1     
   40   16   39 1     
   41   16   40 1     
@<TRIPOS>SUBSTRUCTURE
      1 S1             1
@<TRIPOS>SET
LONE_PAIRS      STATIC     ATOMS    <user>   **** ""
5 36 37 38 39 40
DONOR_HYDROGENS      STATIC     ATOMS    <user>   **** ""
2 21 35
ATOM$BLUE        STATIC     ATOMS    COLORGROUP SYSTEM
5 36 37 38 39 40
ATOM$RED        STATIC     ATOMS    COLORGROUP SYSTEM
2 21 35
