AV-unprocessed.smi:2786|AV-procd|sdf|10755|dock10
  -GOLD-   2272015183D 1   1.00000     0.00000
 Structure written by MMmdl.
 26 27  0  0  0  0  0  0  0  0  1 V2000
  151.6373  144.4148  157.5075 C   0  0  0  0  0  0  0  0  0  0  0  0
  151.7577  143.1532  158.2121 N   0  0  0  0  0  0  0  0  0  0  0  0
  152.1646  142.9947  159.5303 C   0  0  0  0  0  0  0  0  0  0  0  0
  152.1461  141.6459  159.7890 C   0  0  0  0  0  0  0  0  0  0  0  0
  151.7344  140.9644  158.6493 N   0  0  0  0  0  0  0  0  0  0  0  0
  151.5082  141.9141  157.7437 C   0  0  0  0  0  0  0  0  0  0  0  0
  151.0601  141.6493  156.3342 C   0  0  1  0  0  0  0  0  0  0  0  0
  151.3489  140.1882  155.9261 C   0  0  0  0  0  0  0  0  0  0  0  0
  150.9194  139.9317  154.5495 N   0  0  0  0  0  0  0  0  0  0  0  0
  149.4980  140.2361  154.3787 C   0  0  0  0  0  0  0  0  0  0  0  0
  149.2051  141.6945  154.7751 C   0  0  0  0  0  0  0  0  0  0  0  0
  149.6350  141.9532  156.1507 N   0  0  0  0  0  0  0  0  0  0  0  0
  152.0261  145.2274  158.1219 H   0  0  0  0  0  0  0  0  0  0  0  0
  150.5888  144.6124  157.2832 H   0  0  0  0  0  0  0  0  0  0  0  0
  152.2045  144.3759  156.5771 H   0  0  0  0  0  0  0  0  0  0  0  0
  152.4302  143.8328  160.1582 H   0  0  0  0  0  0  0  0  0  0  0  0
  152.3970  141.1179  160.6970 H   0  0  0  0  0  0  0  0  0  0  0  0
  151.6309  142.3030  155.6740 H   0  0  0  0  0  0  0  0  0  0  0  0
  152.4151  139.9817  156.0218 H   0  0  0  0  0  0  0  0  0  0  0  0
  150.8389  139.5056  156.6074 H   0  0  0  0  0  0  0  0  0  0  0  0
  151.0851  138.9567  154.3215 H   0  0  0  0  0  0  0  0  0  0  0  0
  149.2034  140.0678  153.3429 H   0  0  0  0  0  0  0  0  0  0  0  0
  148.8961  139.5598  154.9873 H   0  0  0  0  0  0  0  0  0  0  0  0
  149.7160  142.3732  154.0906 H   0  0  0  0  0  0  0  0  0  0  0  0
  148.1387  141.8974  154.6758 H   0  0  0  0  0  0  0  0  0  0  0  0
  149.4691  142.9283  156.3774 H   0  0  0  0  0  0  0  0  0  0  0  0
  1  2  1  0  0  0  0
  1 13  1  0  0  0  0
  1 14  1  0  0  0  0
  1 15  1  0  0  0  0
  2  6  1  0  0  0  0
  2  3  1  0  0  0  0
  3  4  2  0  0  0  0
  3 16  1  0  0  0  0
  4  5  1  0  0  0  0
  4 17  1  0  0  0  0
  5  6  2  0  0  0  0
  6  7  1  0  0  0  0
  7 12  1  0  0  0  0
  7  8  1  0  0  0  0
  7 18  1  0  0  0  0
  8  9  1  0  0  0  0
  8 19  1  0  0  0  0
  8 20  1  0  0  0  0
  9 10  1  0  0  0  0
  9 21  1  0  0  0  0
 10 11  1  0  0  0  0
 10 22  1  0  0  0  0
 10 23  1  0  0  0  0
 11 12  1  0  0  0  0
 11 24  1  0  0  0  0
 11 25  1  0  0  0  0
 12 26  1  0  0  0  0
M  END
> <s_m_source_file>
AV-unprocessed.smi

> <i_m_source_file_index>
2786

> <i_lp_mmshare_version>
43012

> <i_f3d_flags>
0

> <s_epik_input>
W0NIM11uMVtjSF1bY0hdbmMxW0NAQEhdMltDSDJdW05IXVtDSDJdW0NIMl1bTkhdMg==

> <s_epik_cmdline>
J2VwaWtfcHl0aG9uJywgJy1waCcsICc3LjAnLCAnLXRuJywgJzgnLCAnLW1hJywgJzIwMCcsICctbWV0YWxfYmluZGluZycsICctaW1hZScsICc8aW5maWxlLm1hZT4nLCAnLW9tYWUnLCAnPG91dGZpbGUubWFlPic=

> <r_lp_tautomer_probability>
1

> <r_epik_Ionization_Penalty>
3.5722

> <r_epik_Ionization_Penalty_Charging>
1.66148

> <r_epik_Ionization_Penalty_Neutral>
1.91072

> <r_epik_State_Penalty>
2.63328

> <r_epik_Charging_Adjusted_Penalty>
4.29476

> <i_epik_Tot_Q>
0

> <i_epik_Tot_abs_Q>
0

> <r_epik_Metal_State_Penalty>
0.942173

> <b_epik_Metal_Only>
0

> <s_lp_Force_Field>
OPLS_2005

> <r_lp_Energy>
22.0451

> <b_lp_Chiralities_Consistent>
1

> <s_lp_Variant>
AV-unprocessed.smi:2786-8

> <Gold.Version>
5.8.1

> <Gold.Id.Protein>
6NUR|6NUR_protein|mol2

> <Gold.PLP.Fitness>
33.8834

> <Gold.PLP.PLP>
-29.1783

> <Gold.PLP.part.hbond>
-2.0000

> <Gold.PLP.part.metal>
0.0000

> <Gold.PLP.part.buried>
-2.5483

> <Gold.PLP.part.nonpolar>
-23.3117

> <Gold.PLP.part.repulsive>
0.0000

> <Gold.PLP.ligand.clash>
0.0000

> <Gold.PLP.ligand.torsion>
0.4989

> <Gold.PLP.Chemscore.Hbond>
1.8960

> <Gold.PLP.Chemscore.CHOScore>
0.0000

> <Gold.PLP.Chemscore.Metal>
0.0000

> <Gold.Chemscore.Hbonds>
donor molecule, donor type, donor heavy atom, donor atom, acceptor molecule, acceptor atom, score
      L1  H    12    26       P1  8028  0.91
      P1  H  7989  7998       L1     9  1.00

> <Gold.PLP.Chemscore.Internal.Correction>
0.0150

> <Gold.Rescore>
     Score         DG    S(hbond)    S(metal)    S(lipo)     H(rot)  DE(clash)    DE(int)     intcor
     14.01     -14.30       1.23        0.00      62.03       1.00       0.01       0.28       ----

> <Gold.Chemscore.Fitness>
14.0096

> <Gold.Chemscore.DG>
-14.3000

> <Gold.Chemscore.ZeroCoef>
-5.4800

> <Gold.Chemscore.Hbond>
1.2342

> <Gold.Chemscore.Metal>
0.0000

> <Gold.Chemscore.Lipo>
62.0325

> <Gold.Chemscore.Internal_Hbond>
0.0000

> <Gold.Chemscore.DEClash>
0.0148

> <Gold.Chemscore.DEInternal>
0.2755

> <Gold.Chemscore.Rot>
1.0000

> <Gold.Chemscore.Internal.Correction>
   9.000000E+99

> <Gold.Chemscore.Hbonds>
donor molecule, donor type, donor heavy atom, donor atom, acceptor molecule, acceptor atom, score
      L1  H    12    26       P1  8028  0.83
      P1  H  7989  7998       L1     9  0.28

> <Gold.Chemscore.Hbond.Weighted>
-4.1222

> <Gold.Chemscore.Metal.Weighted>
-0.0000

> <Gold.Chemscore.Lipo.Weighted>
-7.2578

> <Gold.Chemscore.Internal_Hbond.Weighted>
0.0000

> <Gold.Chemscore.DEClash.Weighted>
0.0148

> <Gold.Chemscore.DEInternal.Weighted>
0.2755

> <Gold.Chemscore.Rot.Weighted>
2.5600

> <Gold.Chemscore.Internal.Correction.Weighted>
   9.000000E+99

> <Gold.Protein.RotatedTorsions>
[ 6907 6896 6895 6894 ] final -141.77 input  -60.11 | X-H torsion
[ 7974 7965 7964 7962 ] final  138.24 input  175.53 | X-H torsion
[ 8008 7997 7996 7995 ] final  -38.95 input   59.86 | X-H torsion
[ 10167 10162 10161 10158 ] final   -0.70 input  -65.29 | X-H torsion
[ 10718 10713 10712 10709 ] final -103.17 input   66.30 | X-H torsion
[ 10763 10752 10751 10750 ] final  -59.51 input  -60.55 | X-H torsion
[ 11005 11000 10999 10996 ] final -179.29 input  -57.11 | X-H torsion

> <Gold.Protein.ActiveResidues>
 VAL166  LYS551  ARG553  GLY616  TRP617  ASP618  TYR619  PRO620  LYS621  CYS622 
 ASP623  PHE694  ASN695  SER759  ASP760  ASP761  ALA762  ILE779  LEU786  VAL792 
 PHE793  MET794  SER795  GLU796  ALA797  LYS798  CYS799  TRP800  GLU811  SER814 

> <Gold.Protein.RotatedAtoms>
  151.0782  133.5411  159.2622 H   0  0  0  0  0  0  0  0  0  0  0  0  # atno 6907 bound_to 6896
  151.2325  135.0559  159.9003 H   0  0  0  0  0  0  0  0  0  0  0  0  # atno 6908 bound_to 6896
  152.5420  134.0568  159.8188 H   0  0  0  0  0  0  0  0  0  0  0  0  # atno 6909 bound_to 6896
  144.9391  139.4952  143.5580 H   0  0  0  0  0  0  0  0  0  0  0  0  # atno 7974 bound_to 7965
  154.4029  140.1564  156.2783 H   0  0  0  0  0  0  0  0  0  0  0  0  # atno 8008 bound_to 7997
  155.8892  140.3439  155.5922 H   0  0  0  0  0  0  0  0  0  0  0  0  # atno 8009 bound_to 7997
  155.7578  140.0813  157.2161 H   0  0  0  0  0  0  0  0  0  0  0  0  # atno 8010 bound_to 7997
  140.6778  143.6863  150.8064 H   0  0  0  0  0  0  0  0  0  0  0  0  # atno 10167 bound_to 10162
  156.0255  130.5454  150.7214 H   0  0  0  0  0  0  0  0  0  0  0  0  # atno 10718 bound_to 10713
  154.2548  135.6319  153.5253 H   0  0  0  0  0  0  0  0  0  0  0  0  # atno 10763 bound_to 10752
  152.9906  135.5573  154.5769 H   0  0  0  0  0  0  0  0  0  0  0  0  # atno 10764 bound_to 10752
  154.5304  135.2888  155.1160 H   0  0  0  0  0  0  0  0  0  0  0  0  # atno 10765 bound_to 10752
  140.4202  134.6612  157.4660 H   0  0  0  0  0  0  0  0  0  0  0  0  # atno 11005 bound_to 11000
  146.3278  139.8397  142.8892 LP  0  0  0  0  0  0  0  0  0  0  0  0  # atno 17320 bound_to 7965
  145.3019  141.0196  143.3604 LP  0  0  0  0  0  0  0  0  0  0  0  0  # atno 17321 bound_to 7965
  140.0559  143.5203  152.2651 LP  0  0  0  0  0  0  0  0  0  0  0  0  # atno 17342 bound_to 10162
  139.6082  144.7602  151.3013 LP  0  0  0  0  0  0  0  0  0  0  0  0  # atno 17343 bound_to 10162
  157.4829  131.0904  151.0516 LP  0  0  0  0  0  0  0  0  0  0  0  0  # atno 17370 bound_to 10713
  157.0944  130.5956  149.5446 LP  0  0  0  0  0  0  0  0  0  0  0  0  # atno 17371 bound_to 10713
  140.0205  134.6554  155.9246 LP  0  0  0  0  0  0  0  0  0  0  0  0  # atno 17394 bound_to 11000
  141.1787  133.6543  156.4931 LP  0  0  0  0  0  0  0  0  0  0  0  0  # atno 17395 bound_to 11000

$$$$
