AV-unprocessed.smi:1823|AV-procd|sdf|7392|dock10
  -GOLD-   22720 9 63D 1   1.00000     0.00000
 Structure written by MMmdl.
 43 44  0  0  0  0  0  0  0  0  1 V2000
  146.5824  133.9136  162.4522 C   0  0  0  0  0  0  0  0  0  0  0  0
  147.0564  135.1771  161.8204 C   0  0  0  0  0  0  0  0  0  0  0  0
  147.1442  136.3011  162.5209 N   0  0  0  0  0  0  0  0  0  0  0  0
  147.6305  137.2266  161.5867 O   0  0  0  0  0  0  0  0  0  0  0  0
  147.7646  136.5432  160.4240 C   0  0  0  0  0  0  0  0  0  0  0  0
  148.3354  137.2463  159.2343 C   0  0  0  0  0  0  0  0  0  0  0  0
  149.6181  136.5999  158.6744 C   0  0  0  0  0  0  0  0  0  0  0  0
  150.5664  137.5849  158.1583 N   0  0  0  0  0  0  0  0  0  0  0  0
  151.8989  137.5366  158.3162 C   0  0  0  0  0  0  0  0  0  0  0  0
  152.4779  136.6170  158.8962 O   0  0  0  0  0  0  0  0  0  0  0  0
  152.7017  138.7180  157.7500 C   0  0  1  0  0  0  0  0  0  0  0  0
  152.3159  138.9967  156.2838 C   0  0  0  0  0  0  0  0  0  0  0  0
  151.5299  140.2954  156.3557 C   0  0  0  0  0  0  0  0  0  0  0  0
  150.9484  140.7773  155.3848 O   0  0  0  0  0  0  0  0  0  0  0  0
  151.5518  140.7994  157.5954 N   0  0  0  0  0  0  0  0  0  0  0  0
  150.9030  142.0264  158.0545 C   0  0  0  0  0  0  0  0  0  0  0  0
  151.9131  143.1220  158.4641 C   0  0  0  0  0  0  0  0  0  0  0  0
  152.6961  142.7832  159.7449 C   0  0  0  0  0  0  0  0  0  0  0  0
  151.2058  144.4778  158.6093 C   0  0  0  0  0  0  0  0  0  0  0  0
  152.4081  140.0394  158.4908 C   0  0  0  0  0  0  0  0  0  0  0  0
  147.4256  135.2594  160.5124 N   0  0  0  0  0  0  0  0  0  0  0  0
  145.5659  134.0367  162.8266 H   0  0  0  0  0  0  0  0  0  0  0  0
  147.2300  133.6426  163.2863 H   0  0  0  0  0  0  0  0  0  0  0  0
  146.5879  133.0950  161.7318 H   0  0  0  0  0  0  0  0  0  0  0  0
  147.5732  137.2820  158.4554 H   0  0  0  0  0  0  0  0  0  0  0  0
  148.5374  138.2816  159.5118 H   0  0  0  0  0  0  0  0  0  0  0  0
  150.0877  135.9824  159.4419 H   0  0  0  0  0  0  0  0  0  0  0  0
  149.3576  135.9222  157.8615 H   0  0  0  0  0  0  0  0  0  0  0  0
  150.1774  138.3771  157.6673 H   0  0  0  0  0  0  0  0  0  0  0  0
  153.7667  138.4897  157.8192 H   0  0  0  0  0  0  0  0  0  0  0  0
  153.2015  139.1419  155.6648 H   0  0  0  0  0  0  0  0  0  0  0  0
  151.7128  138.2083  155.8304 H   0  0  0  0  0  0  0  0  0  0  0  0
  150.2639  142.3968  157.2517 H   0  0  0  0  0  0  0  0  0  0  0  0
  150.2347  141.8036  158.8883 H   0  0  0  0  0  0  0  0  0  0  0  0
  152.6395  143.2238  157.6567 H   0  0  0  0  0  0  0  0  0  0  0  0
  152.0237  142.5964  160.5827 H   0  0  0  0  0  0  0  0  0  0  0  0
  153.3592  143.6015  160.0266 H   0  0  0  0  0  0  0  0  0  0  0  0
  153.3207  141.8999  159.6123 H   0  0  0  0  0  0  0  0  0  0  0  0
  150.4675  144.4555  159.4117 H   0  0  0  0  0  0  0  0  0  0  0  0
  150.6899  144.7536  157.6891 H   0  0  0  0  0  0  0  0  0  0  0  0
  151.9187  145.2717  158.8348 H   0  0  0  0  0  0  0  0  0  0  0  0
  151.9255  139.8900  159.4583 H   0  0  0  0  0  0  0  0  0  0  0  0
  153.3297  140.5964  158.6661 H   0  0  0  0  0  0  0  0  0  0  0  0
  1  2  1  0  0  0  0
  1 22  1  0  0  0  0
  1 23  1  0  0  0  0
  1 24  1  0  0  0  0
  2 21  1  0  0  0  0
  2  3  2  0  0  0  0
  3  4  1  0  0  0  0
  4  5  1  0  0  0  0
  5  6  1  0  0  0  0
  5 21  2  0  0  0  0
  6  7  1  0  0  0  0
  6 25  1  0  0  0  0
  6 26  1  0  0  0  0
  7  8  1  0  0  0  0
  7 27  1  0  0  0  0
  7 28  1  0  0  0  0
  8  9  1  0  0  0  0
  8 29  1  0  0  0  0
  9 10  2  0  0  0  0
  9 11  1  0  0  0  0
 11 20  1  0  0  0  0
 11 12  1  0  0  0  0
 11 30  1  0  0  0  0
 12 13  1  0  0  0  0
 12 31  1  0  0  0  0
 12 32  1  0  0  0  0
 13 14  2  0  0  0  0
 13 15  1  0  0  0  0
 15 16  1  0  0  0  0
 15 20  1  0  0  0  0
 16 17  1  0  0  0  0
 16 33  1  0  0  0  0
 16 34  1  0  0  0  0
 17 18  1  0  0  0  0
 17 19  1  0  0  0  0
 17 35  1  0  0  0  0
 18 36  1  0  0  0  0
 18 37  1  0  0  0  0
 18 38  1  0  0  0  0
 19 39  1  0  0  0  0
 19 40  1  0  0  0  0
 19 41  1  0  0  0  0
 20 42  1  0  0  0  0
 20 43  1  0  0  0  0
M  END
> <s_m_source_file>
AV-unprocessed.smi

> <i_m_source_file_index>
1823

> <i_lp_mmshare_version>
43012

> <i_f3d_flags>
0

> <s_epik_input>
W0NIM11jMW5vYyhuMSlbQ0gyXVtDSDJdW05IXUMoPU8pW0NAQEhdMltDSDJdQyg9TylOKFtDSDJdMilbQ0gyXVtDSF0oW0NIM10pW0NIM10=

> <s_epik_cmdline>
J2VwaWtfcHl0aG9uJywgJy1waCcsICc3LjAnLCAnLXRuJywgJzgnLCAnLW1hJywgJzIwMCcsICctbWV0YWxfYmluZGluZycsICctaW1hZScsICc8aW5maWxlLm1hZT4nLCAnLW9tYWUnLCAnPG91dGZpbGUubWFlPic=

> <r_lp_tautomer_probability>
1

> <r_epik_Ionization_Penalty>
3.64678e-08

> <r_epik_Ionization_Penalty_Charging>
0

> <r_epik_Ionization_Penalty_Neutral>
3.64678e-08

> <r_epik_State_Penalty>
-0

> <r_epik_Charging_Adjusted_Penalty>
0

> <i_epik_Tot_Q>
0

> <i_epik_Tot_abs_Q>
0

> <r_epik_Metal_State_Penalty>
-0

> <b_epik_Metal_Only>
0

> <s_lp_Force_Field>
OPLS_2005

> <r_lp_Energy>
11.154

> <b_lp_Chiralities_Consistent>
1

> <s_lp_Variant>
AV-unprocessed.smi:1823-2

> <Gold.Version>
5.8.1

> <Gold.Id.Protein>
6NUR|6NUR_protein|mol2

> <Gold.PLP.Fitness>
49.0115

> <Gold.PLP.PLP>
-40.1044

> <Gold.PLP.part.hbond>
-4.0000

> <Gold.PLP.part.metal>
0.0000

> <Gold.PLP.part.buried>
-5.1726

> <Gold.PLP.part.nonpolar>
-31.4074

> <Gold.PLP.part.repulsive>
0.1458

> <Gold.PLP.ligand.clash>
0.0000

> <Gold.PLP.ligand.torsion>
0.6147

> <Gold.PLP.Chemscore.Hbond>
3.3360

> <Gold.PLP.Chemscore.CHOScore>
0.0000

> <Gold.PLP.Chemscore.Metal>
0.0000

> <Gold.Chemscore.Hbonds>
donor molecule, donor type, donor heavy atom, donor atom, acceptor molecule, acceptor atom, score
      P1  H  6896  6909       L1    10  0.82
      P1  H  6931  6943       L1     4  0.98
      P1  H  6934  6947       L1     4  0.77
      P1  H  7989  7998       L1    14  0.82

> <Gold.PLP.Chemscore.Internal.Correction>
0.1286

> <Gold.Rescore>
     Score         DG    S(hbond)    S(metal)    S(lipo)     H(rot)  DE(clash)    DE(int)     intcor
     17.89     -18.69       3.24        0.00      72.73       2.40       0.01       0.79       ----

> <Gold.Chemscore.Fitness>
17.8860

> <Gold.Chemscore.DG>
-18.6893

> <Gold.Chemscore.ZeroCoef>
-5.4800

> <Gold.Chemscore.Hbond>
3.2434

> <Gold.Chemscore.Metal>
0.0000

> <Gold.Chemscore.Lipo>
72.7279

> <Gold.Chemscore.Internal_Hbond>
0.0000

> <Gold.Chemscore.DEClash>
0.0135

> <Gold.Chemscore.DEInternal>
0.7897

> <Gold.Chemscore.Rot>
2.3957

> <Gold.Chemscore.Internal.Correction>
   9.000000E+99

> <Gold.Chemscore.Hbonds>
donor molecule, donor type, donor heavy atom, donor atom, acceptor molecule, acceptor atom, score
      P1  H  6896  6909       L1    10  0.80
      P1  H  6931  6943       L1     4  0.76
      P1  H  6934  6947       L1     4  0.26
      P1  H  7989  7998       L1    14  0.78

> <Gold.Chemscore.Hbond.Weighted>
-10.8330

> <Gold.Chemscore.Metal.Weighted>
-0.0000

> <Gold.Chemscore.Lipo.Weighted>
-8.5092

> <Gold.Chemscore.Internal_Hbond.Weighted>
0.0000

> <Gold.Chemscore.DEClash.Weighted>
0.0135

> <Gold.Chemscore.DEInternal.Weighted>
0.7897

> <Gold.Chemscore.Rot.Weighted>
6.1329

> <Gold.Chemscore.Internal.Correction.Weighted>
   9.000000E+99

> <Gold.Protein.RotatedTorsions>
[ 6907 6896 6895 6894 ] final  136.99 input  -60.11 | X-H torsion
[ 7974 7965 7964 7962 ] final  -54.66 input  175.53 | X-H torsion
[ 8008 7997 7996 7995 ] final  -64.22 input   59.86 | X-H torsion
[ 10167 10162 10161 10158 ] final -152.88 input  -65.29 | X-H torsion
[ 10718 10713 10712 10709 ] final   14.99 input   66.30 | X-H torsion
[ 10763 10752 10751 10750 ] final    1.29 input  -60.55 | X-H torsion
[ 11005 11000 10999 10996 ] final  -36.74 input  -57.11 | X-H torsion

> <Gold.Protein.ActiveResidues>
 VAL166  LYS551  ARG553  GLY616  TRP617  ASP618  TYR619  PRO620  LYS621  CYS622 
 ASP623  PHE694  ASN695  SER759  ASP760  ASP761  ALA762  ILE779  LEU786  VAL792 
 PHE793  MET794  SER795  GLU796  ALA797  LYS798  CYS799  TRP800  GLU811  SER814 

> <Gold.Protein.RotatedAtoms>
  152.2832  133.5490  159.5510 H   0  0  0  0  0  0  0  0  0  0  0  0  # atno 6907 bound_to 6896
  150.7204  134.0535  159.3815 H   0  0  0  0  0  0  0  0  0  0  0  0  # atno 6908 bound_to 6896
  151.8445  135.0579  160.0502 H   0  0  0  0  0  0  0  0  0  0  0  0  # atno 6909 bound_to 6896
  145.8830  140.8130  142.9830 H   0  0  0  0  0  0  0  0  0  0  0  0  # atno 7974 bound_to 7965
  154.4599  140.0958  156.6863 H   0  0  0  0  0  0  0  0  0  0  0  0  # atno 8008 bound_to 7997
  155.5025  140.3474  155.4355 H   0  0  0  0  0  0  0  0  0  0  0  0  # atno 8009 bound_to 7997
  156.0850  140.1383  156.9653 H   0  0  0  0  0  0  0  0  0  0  0  0  # atno 8010 bound_to 7997
  139.7144  143.9057  152.2480 H   0  0  0  0  0  0  0  0  0  0  0  0  # atno 10167 bound_to 10162
  157.0471  130.6255  149.5761 H   0  0  0  0  0  0  0  0  0  0  0  0  # atno 10718 bound_to 10713
  153.3099  135.6962  153.7125 H   0  0  0  0  0  0  0  0  0  0  0  0  # atno 10763 bound_to 10752
  153.6007  135.3462  155.2945 H   0  0  0  0  0  0  0  0  0  0  0  0  # atno 10764 bound_to 10752
  154.8572  135.4340  154.2234 H   0  0  0  0  0  0  0  0  0  0  0  0  # atno 10765 bound_to 10752
  140.9898  133.7011  156.1830 H   0  0  0  0  0  0  0  0  0  0  0  0  # atno 11005 bound_to 11000
  144.6728  140.1413  143.7437 LP  0  0  0  0  0  0  0  0  0  0  0  0  # atno 17320 bound_to 7965
  145.9001  139.2425  143.1499 LP  0  0  0  0  0  0  0  0  0  0  0  0  # atno 17321 bound_to 7965
  139.8935  144.6952  150.8744 LP  0  0  0  0  0  0  0  0  0  0  0  0  # atno 17342 bound_to 10162
  140.7740  143.3568  151.1906 LP  0  0  0  0  0  0  0  0  0  0  0  0  # atno 17343 bound_to 10162
  156.0019  130.5100  150.7694 LP  0  0  0  0  0  0  0  0  0  0  0  0  # atno 17370 bound_to 10713
  157.5059  131.0922  151.0258 LP  0  0  0  0  0  0  0  0  0  0  0  0  # atno 17371 bound_to 10713
  140.7057  134.4515  157.5584 LP  0  0  0  0  0  0  0  0  0  0  0  0  # atno 17394 bound_to 11000
  139.8987  134.8607  156.1990 LP  0  0  0  0  0  0  0  0  0  0  0  0  # atno 17395 bound_to 11000

$$$$
