#       Name:                AV-unprocessed.smi:298
#       Creating user name   scv26
#       Creation time:       Thu Mar 26 22:15:18 2020


#       File generated by GOLD software.
#

@<TRIPOS>MOLECULE
AV-unprocessed.smi:298
    44    46     1
SMALL
NO_CHARGES


@<TRIPOS>ATOM
      1 ****        -1.7508   4.0830   2.1394 C.3            1 S1                 0.0000
      2 ****        -1.3754   3.0091   1.1325 C.ar           1 S1                 0.0000
      3 ****        -1.4731   3.3117  -0.2446 C.ar           1 S1                 0.0000
      4 ****        -1.1209   2.3097  -1.1411 C.ar           1 S1                 0.0000
      5 ****        -1.1039   2.2952  -2.5377 N.pl3          1 S1                 1.0000
      6 ****        -0.6798   1.0772  -2.9753 C.2            1 S1                 0.0000
      7 ****        -0.4259   0.3134  -1.8783 N.pl3          1 S1                 0.0000
      8 ****         0.0448  -1.0755  -1.7850 C.3            1 S1                 0.0000
      9 ****         1.5841  -1.1984  -1.8417 C.3            1 S1                 0.0000
     10 ****         2.1800  -0.3818  -0.8517 O.3            1 S1                 0.0000
     11 ****         2.0892  -2.6506  -1.6870 C.3            1 S1                 0.0000
     12 ****         1.5681  -3.3313  -0.5118 N.pl3          1 S1                 0.0000
     13 ****         0.6523  -4.3003  -0.4076 C.2            1 S1                 0.0000
     14 ****         0.4057  -4.6788   0.8404 N.2            1 S1                 0.0000
     15 ****         1.2733  -3.8483   1.4883 C.2            1 S1                 0.0000
     16 ****         1.3896  -3.8501   2.9365 C.1            1 S1                 0.0000
     17 ****         1.4817  -3.8505   4.0900 N.1            1 S1                 0.0000
     18 ****         2.0006  -3.0260   0.7360 N.2            1 S1                 0.0000
     19 ****        -0.6859   1.0415  -0.7108 C.ar           1 S1                 0.0000
     20 ****        -0.5817   0.7275   0.6426 C.ar           1 S1                 0.0000
     21 ****        -0.9348   1.7330   1.5702 C.ar           1 S1                 0.0000
     22 ****        -0.8291   1.4181   3.0527 C.3            1 S1                 0.0000
     23 ****        -2.0503   5.0071   1.6443 H              1 S1                 0.0000
     24 ****        -0.9055   4.3124   2.7887 H              1 S1                 0.0000
     25 ****        -2.5847   3.7519   2.7590 H              1 S1                 0.0000
     26 ****        -1.8058   4.2815  -0.5849 H              1 S1                 0.0000
     27 ****        -0.5671   0.7725  -4.0060 H              1 S1                 0.0000
     28 ****        -0.3648  -1.5198  -0.8781 H              1 S1                 0.0000
     29 ****        -0.3994  -1.6252  -2.6156 H              1 S1                 0.0000
     30 ****         1.9287  -0.8182  -2.8040 H              1 S1                 0.0000
     31 ****         1.9220   0.5140  -1.0056 H              1 S1                 0.0000
     32 ****         1.7974  -3.2296  -2.5642 H              1 S1                 0.0000
     33 ****         3.1794  -2.6773  -1.6520 H              1 S1                 0.0000
     34 ****         0.1482  -4.7296  -1.2612 H              1 S1                 0.0000
     35 ****        -0.2386  -0.2405   0.9780 H              1 S1                 0.0000
     36 ****        -0.5155   0.3871   3.2199 H              1 S1                 0.0000
     37 ****        -1.7922   1.5556   3.5449 H              1 S1                 0.0000
     38 ****        -0.0981   2.0705   3.5307 H              1 S1                 0.0000
     39 ****        -1.3626   3.0588  -3.1495 H              1 S1                 0.0000
     40 ****         3.1756  -0.4597  -0.9049 LP             1 S1                 0.0000
     41 ****         1.8710  -0.6707   0.0544 LP             1 S1                 0.0000
     42 ****        -0.2262  -5.3662   1.1984 LP             1 S1                 0.0000
     43 ****         1.5613  -3.8508   5.0868 LP             1 S1                 0.0000
     44 ****         2.6879  -2.3566   1.0181 LP             1 S1                 0.0000
@<TRIPOS>BOND
    1    1    2 1     
    2    1   23 1     
    3    1   24 1     
    4    1   25 1     
    5    2   21 ar    
    6    2    3 ar    
    7    3    4 ar    
    8    3   26 1     
    9    4   19 ar    
   10    4    5 1     
   11    5    6 2     
   12    5   39 1     
   13    6    7 1     
   14    6   27 1     
   15    7    8 1     
   16    7   19 1     
   17    8    9 1     
   18    8   28 1     
   19    8   29 1     
   20    9   10 1     
   21    9   11 1     
   22    9   30 1     
   23   10   31 1     
   24   11   12 1     
   25   11   32 1     
   26   11   33 1     
   27   12   18 1     
   28   12   13 1     
   29   13   14 2     
   30   13   34 1     
   31   14   15 1     
   32   15   16 1     
   33   15   18 2     
   34   16   17 3     
   35   19   20 ar    
   36   20   21 ar    
   37   20   35 1     
   38   21   22 1     
   39   22   36 1     
   40   22   37 1     
   41   22   38 1     
   42   10   40 1     
   43   10   41 1     
   44   14   42 1     
   45   17   43 1     
   46   18   44 1     
@<TRIPOS>SUBSTRUCTURE
      1 S1             1
@<TRIPOS>SET
LONE_PAIRS      STATIC     ATOMS    <user>   **** ""
5 40 41 42 43 44
DONOR_HYDROGENS      STATIC     ATOMS    <user>   **** ""
2 39 31
ATOM$BLUE        STATIC     ATOMS    COLORGROUP SYSTEM
5 40 41 42 43 44
ATOM$RED        STATIC     ATOMS    COLORGROUP SYSTEM
2 39 31
