#       Name:                AV-unprocessed.smi:2089
#       Creating user name   scv26
#       Creation time:       Fri Mar 27 11:24:48 2020


#       File generated by GOLD software.
#

@<TRIPOS>MOLECULE
AV-unprocessed.smi:2089
    43    44     1
SMALL
NO_CHARGES


@<TRIPOS>ATOM
      1 ****        -2.1521   3.7866   1.2259 C.3            1 S1                 0.0000
      2 ****        -2.5976   2.0063   1.3381 S.o2           1 S1                 0.0000
      3 ****        -1.5234   1.3073   2.0601 O.2            1 S1                 0.0000
      4 ****        -3.9895   1.8841   1.7977 O.2            1 S1                 0.0000
      5 ****        -2.5383   1.4906  -0.3131 N.3            1 S1                 0.0000
      6 ****        -3.4481   2.1193  -1.2815 C.3            1 S1                 0.0000
      7 ****        -3.6491   1.0898  -2.3912 C.3            1 S1                 0.0000
      8 ****        -3.4951  -0.2361  -1.6595 C.3            1 S1                 0.0000
      9 ****        -2.4198   0.0506  -0.5966 C.3            1 S1                 0.0000
     10 ****        -1.0010  -0.3512  -1.0274 C.2            1 S1                 0.0000
     11 ****        -0.6952  -0.4198  -2.2185 O.2            1 S1                 0.0000
     12 ****        -0.1352  -0.6061  -0.0363 N.am           1 S1                 0.0000
     13 ****         1.2564  -0.9855  -0.2328 C.3            1 S1                 0.0000
     14 ****         1.9347  -1.2709   1.1140 C.3            1 S1                 0.0000
     15 ****         3.3872  -1.6772   0.9498 C.ar           1 S1                 0.0000
     16 ****         3.7611  -3.0378   0.9720 C.ar           1 S1                 0.0000
     17 ****         5.1210  -3.3629   0.8028 C.ar           1 S1                 0.0000
     18 ****         6.0499  -2.3207   0.6182 C.ar           1 S1                 0.0000
     19 ****         5.5751  -0.9938   0.6105 C.ar           1 S1                 0.0000
     20 ****         4.2734  -0.6714   0.7713 N.ar           1 S1                 0.0000
     21 ****        -2.1129   4.2133   2.2279 H              1 S1                 0.0000
     22 ****        -2.9009   4.3167   0.6381 H              1 S1                 0.0000
     23 ****        -1.1768   3.8884   0.7505 H              1 S1                 0.0000
     24 ****        -4.4011   2.3366  -0.7979 H              1 S1                 0.0000
     25 ****        -3.0324   3.0562  -1.6525 H              1 S1                 0.0000
     26 ****        -4.6129   1.1892  -2.8909 H              1 S1                 0.0000
     27 ****        -2.8666   1.1946  -3.1438 H              1 S1                 0.0000
     28 ****        -4.4333  -0.4975  -1.1681 H              1 S1                 0.0000
     29 ****        -3.2463  -1.0563  -2.3343 H              1 S1                 0.0000
     30 ****        -2.6695  -0.5174   0.3014 H              1 S1                 0.0000
     31 ****        -0.4588  -0.5124   0.9160 H              1 S1                 0.0000
     32 ****         1.3055  -1.8702  -0.8697 H              1 S1                 0.0000
     33 ****         1.7776  -0.1811  -0.7544 H              1 S1                 0.0000
     34 ****         1.8838  -0.3880   1.7533 H              1 S1                 0.0000
     35 ****         1.3995  -2.0618   1.6413 H              1 S1                 0.0000
     36 ****         3.0248  -3.8157   1.1118 H              1 S1                 0.0000
     37 ****         5.4454  -4.3930   0.8127 H              1 S1                 0.0000
     38 ****         7.1002  -2.5330   0.4849 H              1 S1                 0.0000
     39 ****         6.2590  -0.1698   0.4706 H              1 S1                 0.0000
     40 ****        -1.6352   1.8885  -0.4749 LP             1 S1                 0.0000
     41 ****        -1.3749  -0.2124  -2.9220 LP             1 S1                 0.0000
     42 ****         0.2329  -0.6829  -2.4821 LP             1 S1                 0.0000
     43 ****         3.9739   0.2826   0.7587 LP             1 S1                 0.0000
@<TRIPOS>BOND
    1    1    2 1     
    2    1   21 1     
    3    1   22 1     
    4    1   23 1     
    5    2    3 2     
    6    2    4 2     
    7    2    5 1     
    8    5    9 1     
    9    5    6 1     
   10    6    7 1     
   11    6   24 1     
   12    6   25 1     
   13    7    8 1     
   14    7   26 1     
   15    7   27 1     
   16    8    9 1     
   17    8   28 1     
   18    8   29 1     
   19    9   10 1     
   20    9   30 1     
   21   10   11 2     
   22   10   12 am    
   23   12   13 1     
   24   12   31 1     
   25   13   14 1     
   26   13   32 1     
   27   13   33 1     
   28   14   15 1     
   29   14   34 1     
   30   14   35 1     
   31   15   20 ar    
   32   15   16 ar    
   33   16   17 ar    
   34   16   36 1     
   35   17   18 ar    
   36   17   37 1     
   37   18   19 ar    
   38   18   38 1     
   39   19   20 ar    
   40   19   39 1     
   41    5   40 1     
   42   11   41 1     
   43   11   42 1     
   44   20   43 1     
@<TRIPOS>SUBSTRUCTURE
      1 S1             1
@<TRIPOS>SET
LONE_PAIRS      STATIC     ATOMS    <user>   **** ""
6 3 4 40 41 42 43
DONOR_HYDROGENS      STATIC     ATOMS    <user>   **** ""
1 31
ATOM$BLUE        STATIC     ATOMS    COLORGROUP SYSTEM
6 3 4 40 41 42 43
ATOM$RED        STATIC     ATOMS    COLORGROUP SYSTEM
1 31
