AV-unprocessed.smi:2329|AV-procd|sdf|9306|dock4
  -GOLD-   2272012523D 1   1.00000     0.00000
 Structure written by MMmdl.
 45 48  0  0  0  0  0  0  0  0  1 V2000
  141.6422  134.6475  153.2551 C   0  0  0  0  0  0  0  0  0  0  0  0
  143.0053  134.4649  152.6214 C   0  0  0  0  0  0  0  0  0  0  0  0
  143.2572  133.3915  151.7447 C   0  0  0  0  0  0  0  0  0  0  0  0
  144.5433  133.2794  151.1868 C   0  0  0  0  0  0  0  0  0  0  0  0
  145.5168  134.2390  151.5249 C   0  0  0  0  0  0  0  0  0  0  0  0
  145.1812  135.2866  152.4115 C   0  0  0  0  0  0  0  0  0  0  0  0
  146.2310  136.2022  152.6815 N   0  0  0  0  0  0  0  0  0  0  0  0
  146.2313  137.2551  153.5227 C   0  0  0  0  0  0  0  0  0  0  0  0
  145.2984  137.5650  154.2615 O   0  0  0  0  0  0  0  0  0  0  0  0
  147.3665  137.9757  153.4929 N   0  0  0  0  0  0  0  0  0  0  0  0
  147.6845  139.1703  154.2778 C   0  0  2  0  0  0  0  0  0  0  0  0
  147.7841  140.4277  153.3984 C   0  0  1  0  0  0  0  0  0  0  0  0
  146.7815  141.5373  153.5634 C   0  0  0  0  0  0  0  0  0  0  0  0
  147.4946  142.5027  154.5140 C   0  0  0  0  0  0  0  0  0  0  0  0
  148.4716  141.7017  155.1751 O   0  0  0  0  0  0  0  0  0  0  0  0
  149.0136  140.8013  154.2117 C   0  0  1  0  0  0  0  0  0  0  0  0
  149.1792  139.3311  154.6517 C   0  0  0  0  0  0  0  0  0  0  0  0
  149.6125  139.0860  156.0952 C   0  0  0  0  0  0  0  0  0  0  0  0
  151.1428  139.0260  156.1023 C   0  0  0  0  0  0  0  0  0  0  0  0
  151.5532  138.6998  154.6628 C   0  0  0  0  0  0  0  0  0  0  0  0
  150.2426  138.5343  153.8903 C   0  0  0  0  0  0  0  0  0  0  0  0
  143.9382  135.3865  152.9449 N   0  0  0  0  0  0  0  0  0  0  0  0
  141.0529  133.7324  153.1888 H   0  0  0  0  0  0  0  0  0  0  0  0
  141.0960  135.4443  152.7499 H   0  0  0  0  0  0  0  0  0  0  0  0
  141.7392  134.9114  154.3087 H   0  0  0  0  0  0  0  0  0  0  0  0
  142.4876  132.6727  151.5042 H   0  0  0  0  0  0  0  0  0  0  0  0
  144.7798  132.4716  150.5100 H   0  0  0  0  0  0  0  0  0  0  0  0
  146.5094  134.1685  151.1042 H   0  0  0  0  0  0  0  0  0  0  0  0
  147.0759  136.0631  152.1472 H   0  0  0  0  0  0  0  0  0  0  0  0
  148.0815  137.6667  152.8502 H   0  0  0  0  0  0  0  0  0  0  0  0
  147.0255  139.3317  155.1339 H   0  0  0  0  0  0  0  0  0  0  0  0
  148.0464  140.1989  152.3637 H   0  0  0  0  0  0  0  0  0  0  0  0
  146.5282  142.0183  152.6182 H   0  0  0  0  0  0  0  0  0  0  0  0
  145.8581  141.1650  154.0080 H   0  0  0  0  0  0  0  0  0  0  0  0
  148.0010  143.2892  153.9525 H   0  0  0  0  0  0  0  0  0  0  0  0
  146.8147  142.9738  155.2242 H   0  0  0  0  0  0  0  0  0  0  0  0
  149.8279  141.2262  153.6231 H   0  0  0  0  0  0  0  0  0  0  0  0
  149.2416  139.8457  156.7834 H   0  0  0  0  0  0  0  0  0  0  0  0
  149.2173  138.1325  156.4454 H   0  0  0  0  0  0  0  0  0  0  0  0
  151.5588  139.9898  156.3970 H   0  0  0  0  0  0  0  0  0  0  0  0
  151.5065  138.2805  156.8099 H   0  0  0  0  0  0  0  0  0  0  0  0
  152.1316  139.5260  154.2479 H   0  0  0  0  0  0  0  0  0  0  0  0
  152.1708  137.8031  154.6036 H   0  0  0  0  0  0  0  0  0  0  0  0
  149.9862  137.4747  153.8691 H   0  0  0  0  0  0  0  0  0  0  0  0
  150.3460  138.8553  152.8531 H   0  0  0  0  0  0  0  0  0  0  0  0
  1  2  1  0  0  0  0
  1 23  1  0  0  0  0
  1 24  1  0  0  0  0
  1 25  1  0  0  0  0
  2 22  1  0  0  0  0
  2  3  2  0  0  0  0
  3  4  1  0  0  0  0
  3 26  1  0  0  0  0
  4  5  2  0  0  0  0
  4 27  1  0  0  0  0
  5  6  1  0  0  0  0
  5 28  1  0  0  0  0
  6  7  1  0  0  0  0
  6 22  2  0  0  0  0
  7  8  1  0  0  0  0
  7 29  1  0  0  0  0
  8  9  2  0  0  0  0
  8 10  1  0  0  0  0
 10 11  1  0  0  0  0
 10 30  1  0  0  0  0
 11 17  1  0  0  0  0
 11 12  1  0  0  0  0
 11 31  1  0  0  0  0
 12 16  1  0  0  0  0
 12 13  1  0  0  0  0
 12 32  1  0  0  0  0
 13 14  1  0  0  0  0
 13 33  1  0  0  0  0
 13 34  1  0  0  0  0
 14 15  1  0  0  0  0
 14 35  1  0  0  0  0
 14 36  1  0  0  0  0
 15 16  1  0  0  0  0
 16 17  1  0  0  0  0
 16 37  1  0  0  0  0
 17 21  1  0  0  0  0
 17 18  1  0  0  0  0
 18 19  1  0  0  0  0
 18 38  1  0  0  0  0
 18 39  1  0  0  0  0
 19 20  1  0  0  0  0
 19 40  1  0  0  0  0
 19 41  1  0  0  0  0
 20 21  1  0  0  0  0
 20 42  1  0  0  0  0
 20 43  1  0  0  0  0
 21 44  1  0  0  0  0
 21 45  1  0  0  0  0
M  END
> <s_m_source_file>
AV-unprocessed.smi

> <i_m_source_file_index>
2329

> <i_lp_mmshare_version>
43012

> <i_f3d_flags>
0

> <s_epik_input>
W0NIM11jMVtjSF1bY0hdW2NIXWMobjEpW05IXUMoPU8pW05IXVtDQEBIXTJbQ0BASF0oW0NIMl1bQ0gyXU8zKVtDQEhdM0MyNFtDSDJdW0NIMl1bQ0gyXVtDSDJdNA==

> <s_epik_cmdline>
J2VwaWtfcHl0aG9uJywgJy1waCcsICc3LjAnLCAnLXRuJywgJzgnLCAnLW1hJywgJzIwMCcsICctbWV0YWxfYmluZGluZycsICctaW1hZScsICc8aW5maWxlLm1hZT4nLCAnLW9tYWUnLCAnPG91dGZpbGUubWFlPic=

> <r_lp_tautomer_probability>
1

> <r_epik_Ionization_Penalty>
8.97002e-05

> <r_epik_Ionization_Penalty_Charging>
0

> <r_epik_Ionization_Penalty_Neutral>
8.97002e-05

> <r_epik_State_Penalty>
-0

> <r_epik_Charging_Adjusted_Penalty>
0

> <i_epik_Tot_Q>
0

> <i_epik_Tot_abs_Q>
0

> <r_epik_Metal_State_Penalty>
-0

> <b_epik_Metal_Only>
0

> <s_lp_Force_Field>
OPLS_2005

> <r_lp_Energy>
64.3151

> <b_lp_Chiralities_Consistent>
1

> <s_lp_Variant>
AV-unprocessed.smi:2329-5

> <Gold.Version>
5.8.1

> <Gold.Id.Protein>
6NUR|6NUR_protein|mol2

> <Gold.PLP.Fitness>
39.2640

> <Gold.PLP.PLP>
-33.5148

> <Gold.PLP.part.hbond>
-2.0000

> <Gold.PLP.part.metal>
0.0000

> <Gold.PLP.part.buried>
-0.4460

> <Gold.PLP.part.nonpolar>
-31.8932

> <Gold.PLP.part.repulsive>
0.7242

> <Gold.PLP.ligand.clash>
0.0000

> <Gold.PLP.ligand.torsion>
0.2171

> <Gold.PLP.Chemscore.Hbond>
2.0000

> <Gold.PLP.Chemscore.CHOScore>
0.0000

> <Gold.PLP.Chemscore.Metal>
0.0000

> <Gold.Chemscore.Hbonds>
donor molecule, donor type, donor heavy atom, donor atom, acceptor molecule, acceptor atom, score
      L1  H     7    29       P1  7948  1.00
      L1  H    10    30       P1  7948  1.00

> <Gold.PLP.Chemscore.Internal.Correction>
0.1834

> <Gold.Rescore>
     Score         DG    S(hbond)    S(metal)    S(lipo)     H(rot)  DE(clash)    DE(int)     intcor
     17.86     -20.19       1.89        0.00      93.68       1.00       0.86       1.46       ----

> <Gold.Chemscore.Fitness>
17.8643

> <Gold.Chemscore.DG>
-20.1851

> <Gold.Chemscore.ZeroCoef>
-5.4800

> <Gold.Chemscore.Hbond>
1.8874

> <Gold.Chemscore.Metal>
0.0000

> <Gold.Chemscore.Lipo>
93.6844

> <Gold.Chemscore.Internal_Hbond>
0.0000

> <Gold.Chemscore.DEClash>
0.8616

> <Gold.Chemscore.DEInternal>
1.4592

> <Gold.Chemscore.Rot>
1.0000

> <Gold.Chemscore.Internal.Correction>
   9.000000E+99

> <Gold.Chemscore.Hbonds>
donor molecule, donor type, donor heavy atom, donor atom, acceptor molecule, acceptor atom, score
      L1  H     7    29       P1  7948  0.98
      L1  H    10    30       P1  7948  0.95

> <Gold.Chemscore.Hbond.Weighted>
-6.3041

> <Gold.Chemscore.Metal.Weighted>
-0.0000

> <Gold.Chemscore.Lipo.Weighted>
-10.9611

> <Gold.Chemscore.Internal_Hbond.Weighted>
0.0000

> <Gold.Chemscore.DEClash.Weighted>
0.8616

> <Gold.Chemscore.DEInternal.Weighted>
1.4592

> <Gold.Chemscore.Rot.Weighted>
2.5600

> <Gold.Chemscore.Internal.Correction.Weighted>
   9.000000E+99

> <Gold.Protein.RotatedTorsions>
[ 6907 6896 6895 6894 ] final   27.32 input  -60.11 | X-H torsion
[ 7974 7965 7964 7962 ] final -138.25 input  175.53 | X-H torsion
[ 8008 7997 7996 7995 ] final  128.89 input   59.86 | X-H torsion
[ 10167 10162 10161 10158 ] final   -0.59 input  -65.29 | X-H torsion
[ 10718 10713 10712 10709 ] final -152.70 input   66.30 | X-H torsion
[ 10763 10752 10751 10750 ] final -122.32 input  -60.55 | X-H torsion
[ 11005 11000 10999 10996 ] final  -39.68 input  -57.11 | X-H torsion

> <Gold.Protein.ActiveResidues>
 VAL166  LYS551  ARG553  GLY616  TRP617  ASP618  TYR619  PRO620  LYS621  CYS622 
 ASP623  PHE694  ASN695  SER759  ASP760  ASP761  ALA762  ILE779  LEU786  VAL792 
 PHE793  MET794  SER795  GLU796  ALA797  LYS798  CYS799  TRP800  GLU811  SER814 

> <Gold.Protein.RotatedAtoms>
  152.0005  134.9931  160.0564 H   0  0  0  0  0  0  0  0  0  0  0  0  # atno 6907 bound_to 6896
  152.1524  133.4525  159.4828 H   0  0  0  0  0  0  0  0  0  0  0  0  # atno 6908 bound_to 6896
  150.6877  134.2091  159.4395 H   0  0  0  0  0  0  0  0  0  0  0  0  # atno 6909 bound_to 6896
  144.8774  140.6457  143.5228 H   0  0  0  0  0  0  0  0  0  0  0  0  # atno 7974 bound_to 7965
  156.2924  140.2634  156.2509 H   0  0  0  0  0  0  0  0  0  0  0  0  # atno 8008 bound_to 7997
  154.9884  140.0389  157.2327 H   0  0  0  0  0  0  0  0  0  0  0  0  # atno 8009 bound_to 7997
  154.7708  140.2778  155.6144 H   0  0  0  0  0  0  0  0  0  0  0  0  # atno 8010 bound_to 7997
  140.6774  143.6876  150.8054 H   0  0  0  0  0  0  0  0  0  0  0  0  # atno 10167 bound_to 10162
  156.4760  130.8281  151.2509 H   0  0  0  0  0  0  0  0  0  0  0  0  # atno 10718 bound_to 10713
  154.8687  135.4137  154.2762 H   0  0  0  0  0  0  0  0  0  0  0  0  # atno 10763 bound_to 10752
  153.3663  135.7005  153.6678 H   0  0  0  0  0  0  0  0  0  0  0  0  # atno 10764 bound_to 10752
  153.5558  135.3620  155.2750 H   0  0  0  0  0  0  0  0  0  0  0  0  # atno 10765 bound_to 10752
  141.0119  133.6904  156.2219 H   0  0  0  0  0  0  0  0  0  0  0  0  # atno 11005 bound_to 11000
  145.4017  139.1596  143.4174 LP  0  0  0  0  0  0  0  0  0  0  0  0  # atno 17320 bound_to 7965
  146.2972  140.4115  142.8717 LP  0  0  0  0  0  0  0  0  0  0  0  0  # atno 17321 bound_to 7965
  140.0571  143.5192  152.2646 LP  0  0  0  0  0  0  0  0  0  0  0  0  # atno 17342 bound_to 10162
  139.6075  144.7600  151.3029 LP  0  0  0  0  0  0  0  0  0  0  0  0  # atno 17343 bound_to 10162
  157.7487  131.0060  150.3137 LP  0  0  0  0  0  0  0  0  0  0  0  0  # atno 17370 bound_to 10713
  156.3570  130.3840  149.7282 LP  0  0  0  0  0  0  0  0  0  0  0  0  # atno 17371 bound_to 10713
  140.6719  134.4859  157.5587 LP  0  0  0  0  0  0  0  0  0  0  0  0  # atno 17394 bound_to 11000
  139.9095  134.8376  156.1581 LP  0  0  0  0  0  0  0  0  0  0  0  0  # atno 17395 bound_to 11000

$$$$
