AV-unprocessed.smi:2134|AV-procd|sdf|8697|dock7
  -GOLD-   2272011453D 1   1.00000     0.00000
 Structure written by MMmdl.
 35 36  0  0  0  0  0  0  0  0  3 V2000
  147.2637  140.7298  159.0324 C   0  0  0  0  0  0  0  0  0  0  0  0
  147.5759  140.8441  157.6082 N   0  0  0  0  0  0  0  0  0  0  0  0
  148.9253  140.7706  157.3333 N   0  0  0  0  0  0  0  0  0  0  0  0
  149.3832  140.6157  156.1299 C   0  0  0  0  0  0  0  0  0  0  0  0
  150.8562  140.5081  155.9116 C   0  0  0  0  0  0  0  0  0  0  0  0
  151.1961  139.9939  154.8394 O   0  0  0  0  0  0  0  0  0  0  0  0
  151.6942  140.9614  156.8910 N   0  5  0  0  0  0  0  0  0  0  0  0
  151.6706  140.5355  158.2905 C   0  0  0  0  0  0  0  0  0  0  0  0
  152.7776  141.2702  159.0778 C   0  0  0  0  0  0  0  0  0  0  0  0
  152.3158  142.5534  159.7617 C   0  0  0  0  0  0  0  0  0  0  0  0
  151.8452  143.6507  159.0041 C   0  0  0  0  0  0  0  0  0  0  0  0
  151.4340  144.8259  159.6667 C   0  0  0  0  0  0  0  0  0  0  0  0
  151.4997  144.8796  161.0739 C   0  0  0  0  0  0  0  0  0  0  0  0
  151.9486  143.8111  161.7676 N   0  3  0  0  0  0  0  0  0  0  0  0
  152.3476  142.6672  161.1711 C   0  0  0  0  0  0  0  0  0  0  0  0
  148.4274  140.4994  154.9571 C   0  0  0  0  0  0  0  0  0  0  0  0
  147.0888  141.2131  155.2282 C   0  0  0  0  0  0  0  0  0  0  0  0
  146.6108  141.0237  156.6705 C   0  0  0  0  0  0  0  0  0  0  0  0
  145.4056  141.0633  156.9182 O   0  0  0  0  0  0  0  0  0  0  0  0
  146.2037  140.8440  159.2627 H   0  0  0  0  0  0  0  0  0  0  0  0
  147.8022  141.4918  159.5972 H   0  0  0  0  0  0  0  0  0  0  0  0
  147.5768  139.7537  159.4046 H   0  0  0  0  0  0  0  0  0  0  0  0
  150.7103  140.7388  158.7667 H   0  0  0  0  0  0  0  0  0  0  0  0
  151.8286  139.4605  158.3809 H   0  0  0  0  0  0  0  0  0  0  0  0
  153.1809  140.5998  159.8373 H   0  0  0  0  0  0  0  0  0  0  0  0
  153.6120  141.5033  158.4146 H   0  0  0  0  0  0  0  0  0  0  0  0
  151.8078  143.5949  157.9258 H   0  0  0  0  0  0  0  0  0  0  0  0
  151.0783  145.6751  159.1022 H   0  0  0  0  0  0  0  0  0  0  0  0
  151.2107  145.7389  161.6610 H   0  0  0  0  0  0  0  0  0  0  0  0
  152.6974  141.8864  161.8312 H   0  0  0  0  0  0  0  0  0  0  0  0
  148.8660  140.9315  154.0571 H   0  0  0  0  0  0  0  0  0  0  0  0
  148.2513  139.4453  154.7397 H   0  0  0  0  0  0  0  0  0  0  0  0
  147.2037  142.2843  155.0594 H   0  0  0  0  0  0  0  0  0  0  0  0
  146.3261  140.8651  154.5308 H   0  0  0  0  0  0  0  0  0  0  0  0
  151.9924  143.8706  162.7850 H   0  0  0  0  0  0  0  0  0  0  0  0
  1  2  1  0  0  0  0
  1 20  1  0  0  0  0
  1 21  1  0  0  0  0
  1 22  1  0  0  0  0
  2 18  1  0  0  0  0
  2  3  1  0  0  0  0
  3  4  2  0  0  0  0
  4  5  1  0  0  0  0
  4 16  1  0  0  0  0
  5  6  2  0  0  0  0
  5  7  1  0  0  0  0
  7  8  1  0  0  0  0
  8  9  1  0  0  0  0
  8 23  1  0  0  0  0
  8 24  1  0  0  0  0
  9 10  1  0  0  0  0
  9 25  1  0  0  0  0
  9 26  1  0  0  0  0
 10 15  1  0  0  0  0
 10 11  2  0  0  0  0
 11 12  1  0  0  0  0
 11 27  1  0  0  0  0
 12 13  2  0  0  0  0
 12 28  1  0  0  0  0
 13 14  1  0  0  0  0
 13 29  1  0  0  0  0
 14 15  2  0  0  0  0
 14 35  1  0  0  0  0
 15 30  1  0  0  0  0
 16 17  1  0  0  0  0
 16 31  1  0  0  0  0
 16 32  1  0  0  0  0
 17 18  1  0  0  0  0
 17 33  1  0  0  0  0
 17 34  1  0  0  0  0
 18 19  2  0  0  0  0
M  CHG  1   7  -1
M  CHG  1  14   1
M  END
> <s_m_source_file>
AV-unprocessed.smi

> <i_m_source_file_index>
2134

> <i_lp_mmshare_version>
43012

> <i_f3d_flags>
0

> <s_epik_input>
Tz1DMVtDSDJdW0NIMl1DKD1OTjFbQ0gzXSlDKD1PKVtOSF1bQ0gyXVtDSDJdYzJbY0hdW2NIXVtjSF1uW2NIXTI=

> <s_epik_cmdline>
J2VwaWtfcHl0aG9uJywgJy1waCcsICc3LjAnLCAnLXRuJywgJzgnLCAnLW1hJywgJzIwMCcsICctbWV0YWxfYmluZGluZycsICctaW1hZScsICc8aW5maWxlLm1hZT4nLCAnLW9tYWUnLCAnPG91dGZpbGUubWFlPic=

> <r_epik_Ionization_Penalty>
7.05425

> <r_epik_Ionization_Penalty_Charging>
7.05425

> <r_epik_Ionization_Penalty_Neutral>
3.33049e-09

> <r_epik_State_Penalty>
7.67337

> <r_epik_Charging_Adjusted_Penalty>
14.7276

> <i_epik_Tot_Q>
0

> <i_epik_Tot_abs_Q>
2

> <r_epik_Metal_State_Penalty>
3.75463

> <b_epik_Metal_Only>
1

> <s_epik_Chemistry_Notes>
This compound has an imine and may undergo hydrolysis.

> <s_lp_Force_Field>
OPLS_2005

> <r_lp_Energy>
23.3893

> <b_lp_Chiralities_Consistent>
1

> <s_lp_Variant>
AV-unprocessed.smi:2134-4

> <Gold.Version>
5.8.1

> <Gold.Id.Protein>
6NUR|6NUR_protein|mol2

> <Gold.PLP.Fitness>
43.6797

> <Gold.PLP.PLP>
-42.4213

> <Gold.PLP.part.hbond>
-1.2559

> <Gold.PLP.part.metal>
0.0000

> <Gold.PLP.part.buried>
-4.3401

> <Gold.PLP.part.nonpolar>
-35.9850

> <Gold.PLP.part.repulsive>
0.4263

> <Gold.PLP.ligand.clash>
0.0000

> <Gold.PLP.ligand.torsion>
0.8883

> <Gold.PLP.Chemscore.Hbond>
1.0000

> <Gold.PLP.Chemscore.CHOScore>
0.0000

> <Gold.PLP.Chemscore.Metal>
0.0000

> <Gold.Chemscore.Hbonds>
donor molecule, donor type, donor heavy atom, donor atom, acceptor molecule, acceptor atom, score
      P1  H  7989  7998       L1     6  1.00

> <Gold.PLP.Chemscore.Internal.Correction>
0.0350

> <Gold.Rescore>
     Score         DG    S(hbond)    S(metal)    S(lipo)     H(rot)  DE(clash)    DE(int)     intcor
     12.87     -15.09       0.81        0.00      91.57       1.49       0.03       2.18       ----

> <Gold.Chemscore.Fitness>
12.8728

> <Gold.Chemscore.DG>
-15.0859

> <Gold.Chemscore.ZeroCoef>
-5.4800

> <Gold.Chemscore.Hbond>
0.8069

> <Gold.Chemscore.Metal>
0.0000

> <Gold.Chemscore.Lipo>
91.5677

> <Gold.Chemscore.Internal_Hbond>
0.0000

> <Gold.Chemscore.DEClash>
0.0348

> <Gold.Chemscore.DEInternal>
2.1783

> <Gold.Chemscore.Rot>
1.4854

> <Gold.Chemscore.Internal.Correction>
   9.000000E+99

> <Gold.Chemscore.Hbonds>
donor molecule, donor type, donor heavy atom, donor atom, acceptor molecule, acceptor atom, score
      P1  H  7989  7998       L1     6  0.99

> <Gold.Chemscore.Hbond.Weighted>
-2.6951

> <Gold.Chemscore.Metal.Weighted>
-0.0000

> <Gold.Chemscore.Lipo.Weighted>
-10.7134

> <Gold.Chemscore.Internal_Hbond.Weighted>
0.0000

> <Gold.Chemscore.DEClash.Weighted>
0.0348

> <Gold.Chemscore.DEInternal.Weighted>
2.1783

> <Gold.Chemscore.Rot.Weighted>
3.8026

> <Gold.Chemscore.Internal.Correction.Weighted>
   9.000000E+99

> <Gold.Protein.RotatedTorsions>
[ 6907 6896 6895 6894 ] final -129.34 input  -60.11 | X-H torsion
[ 7974 7965 7964 7962 ] final  -81.90 input  175.53 | X-H torsion
[ 8008 7997 7996 7995 ] final  -43.35 input   59.86 | X-H torsion
[ 10167 10162 10161 10158 ] final   36.10 input  -65.29 | X-H torsion
[ 10718 10713 10712 10709 ] final -118.59 input   66.30 | X-H torsion
[ 10763 10752 10751 10750 ] final  -79.19 input  -60.55 | X-H torsion
[ 11005 11000 10999 10996 ] final -159.28 input  -57.11 | X-H torsion

> <Gold.Protein.ActiveResidues>
 VAL166  LYS551  ARG553  GLY616  TRP617  ASP618  TYR619  PRO620  LYS621  CYS622 
 ASP623  PHE694  ASN695  SER759  ASP760  ASP761  ALA762  ILE779  LEU786  VAL792 
 PHE793  MET794  SER795  GLU796  ALA797  LYS798  CYS799  TRP800  GLU811  SER814 

> <Gold.Protein.RotatedAtoms>
  150.9276  133.6805  159.2817 H   0  0  0  0  0  0  0  0  0  0  0  0  # atno 6907 bound_to 6896
  151.4237  135.1000  159.9631 H   0  0  0  0  0  0  0  0  0  0  0  0  # atno 6908 bound_to 6896
  152.5010  133.8722  159.7359 H   0  0  0  0  0  0  0  0  0  0  0  0  # atno 6909 bound_to 6896
  145.5405  140.9510  143.1554 H   0  0  0  0  0  0  0  0  0  0  0  0  # atno 7974 bound_to 7965
  154.3997  140.1450  156.3505 H   0  0  0  0  0  0  0  0  0  0  0  0  # atno 8008 bound_to 7997
  155.8274  140.3467  155.5530 H   0  0  0  0  0  0  0  0  0  0  0  0  # atno 8009 bound_to 7997
  155.8224  140.0900  157.1831 H   0  0  0  0  0  0  0  0  0  0  0  0  # atno 8010 bound_to 7997
  140.4160  144.1526  150.6143 H   0  0  0  0  0  0  0  0  0  0  0  0  # atno 10167 bound_to 10162
  156.1117  130.6254  150.9310 H   0  0  0  0  0  0  0  0  0  0  0  0  # atno 10718 bound_to 10713
  154.5355  135.5704  153.6795 H   0  0  0  0  0  0  0  0  0  0  0  0  # atno 10763 bound_to 10752
  152.9950  135.6215  154.2572 H   0  0  0  0  0  0  0  0  0  0  0  0  # atno 10764 bound_to 10752
  154.2501  135.2859  155.2800 H   0  0  0  0  0  0  0  0  0  0  0  0  # atno 10765 bound_to 10752
  140.6443  134.4518  157.5234 H   0  0  0  0  0  0  0  0  0  0  0  0  # atno 11005 bound_to 11000
  144.7580  139.7027  143.7246 LP  0  0  0  0  0  0  0  0  0  0  0  0  # atno 17320 bound_to 7965
  146.1984  139.5265  142.9759 LP  0  0  0  0  0  0  0  0  0  0  0  0  # atno 17321 bound_to 7965
  140.4586  143.2458  151.9251 LP  0  0  0  0  0  0  0  0  0  0  0  0  # atno 17342 bound_to 10162
  139.4782  144.5490  151.8414 LP  0  0  0  0  0  0  0  0  0  0  0  0  # atno 17343 bound_to 10162
  157.6299  131.0922  150.8462 LP  0  0  0  0  0  0  0  0  0  0  0  0  # atno 17370 bound_to 10713
  156.8572  130.5100  149.5307 LP  0  0  0  0  0  0  0  0  0  0  0  0  # atno 17371 bound_to 10713
  139.9069  134.8430  156.1674 LP  0  0  0  0  0  0  0  0  0  0  0  0  # atno 17394 bound_to 11000
  141.0584  133.6854  156.1904 LP  0  0  0  0  0  0  0  0  0  0  0  0  # atno 17395 bound_to 11000

$$$$
