AV-unprocessed.smi:1317|AV-procd|sdf|5456|dock6
  -GOLD-   22720 5 23D 1   1.00000     0.00000
 Structure written by MMmdl.
 31 32  0  0  0  0  0  0  0  0  1 V2000
  152.8048  142.9880  161.9693 C   0  0  0  0  0  0  0  0  0  0  0  0
  152.3624  143.6453  160.7070 C   0  0  0  0  0  0  0  0  0  0  0  0
  152.2718  143.0112  159.5351 N   0  0  0  0  0  0  0  0  0  0  0  0
  151.8398  143.8487  158.5017 C   0  0  0  0  0  0  0  0  0  0  0  0
  151.6858  143.3082  157.1123 C   0  0  0  0  0  0  0  0  0  0  0  0
  150.8642  142.0087  157.0827 C   0  0  0  0  0  0  0  0  0  0  0  0
  149.8571  142.0309  156.0280 N   0  0  0  0  0  0  0  0  0  0  0  0
  149.7796  141.1569  155.0137 C   0  0  0  0  0  0  0  0  0  0  0  0
  150.5719  140.2259  154.8635 O   0  0  0  0  0  0  0  0  0  0  0  0
  148.6283  141.3785  154.0237 C   0  0  0  0  0  0  0  0  0  0  0  0
  147.5352  142.3380  154.5250 C   0  0  0  0  0  0  0  0  0  0  0  0
  146.4866  141.3580  153.9904 C   0  0  0  0  0  0  0  0  0  0  0  0
  147.5624  140.2681  154.0111 C   0  0  0  0  0  0  0  0  0  0  0  0
  151.6018  145.1366  158.9132 C   0  0  0  0  0  0  0  0  0  0  0  0
  151.9132  145.3437  160.6146 S   0  0  0  0  0  0  0  0  0  0  0  0
  152.7959  141.9029  161.8610 H   0  0  0  0  0  0  0  0  0  0  0  0
  152.1382  143.2624  162.7869 H   0  0  0  0  0  0  0  0  0  0  0  0
  153.8167  143.3072  162.2192 H   0  0  0  0  0  0  0  0  0  0  0  0
  151.2139  144.0578  156.4756 H   0  0  0  0  0  0  0  0  0  0  0  0
  152.6689  143.1244  156.6770 H   0  0  0  0  0  0  0  0  0  0  0  0
  151.5226  141.1596  156.8970 H   0  0  0  0  0  0  0  0  0  0  0  0
  150.3916  141.8298  158.0501 H   0  0  0  0  0  0  0  0  0  0  0  0
  149.1658  142.7655  156.0737 H   0  0  0  0  0  0  0  0  0  0  0  0
  148.9633  141.6327  153.0160 H   0  0  0  0  0  0  0  0  0  0  0  0
  147.4962  142.4460  155.6104 H   0  0  0  0  0  0  0  0  0  0  0  0
  147.5283  143.3090  154.0290 H   0  0  0  0  0  0  0  0  0  0  0  0
  145.6460  141.1804  154.6615 H   0  0  0  0  0  0  0  0  0  0  0  0
  146.1553  141.6046  152.9805 H   0  0  0  0  0  0  0  0  0  0  0  0
  147.5759  139.6434  153.1176 H   0  0  0  0  0  0  0  0  0  0  0  0
  147.5293  139.6624  154.9181 H   0  0  0  0  0  0  0  0  0  0  0  0
  151.2646  145.9738  158.3201 H   0  0  0  0  0  0  0  0  0  0  0  0
  1  2  1  0  0  0  0
  1 16  1  0  0  0  0
  1 17  1  0  0  0  0
  1 18  1  0  0  0  0
  2 15  1  0  0  0  0
  2  3  2  0  0  0  0
  3  4  1  0  0  0  0
  4  5  1  0  0  0  0
  4 14  2  0  0  0  0
  5  6  1  0  0  0  0
  5 19  1  0  0  0  0
  5 20  1  0  0  0  0
  6  7  1  0  0  0  0
  6 21  1  0  0  0  0
  6 22  1  0  0  0  0
  7  8  1  0  0  0  0
  7 23  1  0  0  0  0
  8  9  2  0  0  0  0
  8 10  1  0  0  0  0
 10 13  1  0  0  0  0
 10 11  1  0  0  0  0
 10 24  1  0  0  0  0
 11 12  1  0  0  0  0
 11 25  1  0  0  0  0
 11 26  1  0  0  0  0
 12 13  1  0  0  0  0
 12 27  1  0  0  0  0
 12 28  1  0  0  0  0
 13 29  1  0  0  0  0
 13 30  1  0  0  0  0
 14 15  1  0  0  0  0
 14 31  1  0  0  0  0
M  END
> <s_m_source_file>
AV-unprocessed.smi

> <i_m_source_file_index>
1317

> <i_lp_mmshare_version>
43012

> <i_f3d_flags>
0

> <s_epik_input>
W0NIM11jMW5jKFtjSF1zMSlbQ0gyXVtDSDJdW05IXUMoPU8pW0NIXTJbQ0gyXVtDSDJdW0NIMl0y

> <s_epik_cmdline>
J2VwaWtfcHl0aG9uJywgJy1waCcsICc3LjAnLCAnLXRuJywgJzgnLCAnLW1hJywgJzIwMCcsICctbWV0YWxfYmluZGluZycsICctaW1hZScsICc8aW5maWxlLm1hZT4nLCAnLW9tYWUnLCAnPG91dGZpbGUubWFlPic=

> <r_epik_Ionization_Penalty>
0.00109666

> <r_epik_Ionization_Penalty_Charging>
0

> <r_epik_Ionization_Penalty_Neutral>
0.00109666

> <r_epik_State_Penalty>
0.000719322

> <r_epik_Charging_Adjusted_Penalty>
0.000719322

> <i_epik_Tot_Q>
0

> <i_epik_Tot_abs_Q>
0

> <r_epik_Metal_State_Penalty>
-0

> <b_epik_Metal_Only>
0

> <s_lp_Force_Field>
OPLS_2005

> <r_lp_Energy>
5.86325

> <b_lp_Chiralities_Consistent>
1

> <s_lp_Variant>
AV-unprocessed.smi:1317-1

> <Gold.Version>
5.8.1

> <Gold.Id.Protein>
6NUR|6NUR_protein|mol2

> <Gold.PLP.Fitness>
42.6310

> <Gold.PLP.PLP>
-37.9178

> <Gold.PLP.part.hbond>
-2.0000

> <Gold.PLP.part.metal>
0.0000

> <Gold.PLP.part.buried>
-1.6324

> <Gold.PLP.part.nonpolar>
-33.8410

> <Gold.PLP.part.repulsive>
0.1724

> <Gold.PLP.ligand.clash>
0.0000

> <Gold.PLP.ligand.torsion>
0.6406

> <Gold.PLP.Chemscore.Hbond>
1.8640

> <Gold.PLP.Chemscore.CHOScore>
0.0000

> <Gold.PLP.Chemscore.Metal>
0.0000

> <Gold.Chemscore.Hbonds>
donor molecule, donor type, donor heavy atom, donor atom, acceptor molecule, acceptor atom, score
      L1  H     7    23       P1  8028  0.85
      P1  H  7989  7998       L1     9  1.00

> <Gold.PLP.Chemscore.Internal.Correction>
0.4024

> <Gold.Rescore>
     Score         DG    S(hbond)    S(metal)    S(lipo)     H(rot)  DE(clash)    DE(int)     intcor
     16.53     -19.55       1.55        0.00     107.44       1.44       2.39       0.62       ----

> <Gold.Chemscore.Fitness>
16.5295

> <Gold.Chemscore.DG>
-19.5461

> <Gold.Chemscore.ZeroCoef>
-5.4800

> <Gold.Chemscore.Hbond>
1.5501

> <Gold.Chemscore.Metal>
0.0000

> <Gold.Chemscore.Lipo>
107.4423

> <Gold.Chemscore.Internal_Hbond>
0.0000

> <Gold.Chemscore.DEClash>
2.3940

> <Gold.Chemscore.DEInternal>
0.6226

> <Gold.Chemscore.Rot>
1.4383

> <Gold.Chemscore.Internal.Correction>
   9.000000E+99

> <Gold.Chemscore.Hbonds>
donor molecule, donor type, donor heavy atom, donor atom, acceptor molecule, acceptor atom, score
      L1  H     7    23       P1  8028  0.80
      P1  H  7989  7998       L1     9  0.30

> <Gold.Chemscore.Hbond.Weighted>
-5.1774

> <Gold.Chemscore.Metal.Weighted>
-0.0000

> <Gold.Chemscore.Lipo.Weighted>
-12.5708

> <Gold.Chemscore.Internal_Hbond.Weighted>
0.0000

> <Gold.Chemscore.DEClash.Weighted>
2.3940

> <Gold.Chemscore.DEInternal.Weighted>
0.6226

> <Gold.Chemscore.Rot.Weighted>
3.6820

> <Gold.Chemscore.Internal.Correction.Weighted>
   9.000000E+99

> <Gold.Protein.RotatedTorsions>
[ 6907 6896 6895 6894 ] final  -29.98 input  -60.11 | X-H torsion
[ 7974 7965 7964 7962 ] final  127.48 input  175.53 | X-H torsion
[ 8008 7997 7996 7995 ] final   67.29 input   59.86 | X-H torsion
[ 10167 10162 10161 10158 ] final  -27.10 input  -65.29 | X-H torsion
[ 10718 10713 10712 10709 ] final  122.72 input   66.30 | X-H torsion
[ 10763 10752 10751 10750 ] final -145.23 input  -60.55 | X-H torsion
[ 11005 11000 10999 10996 ] final -168.78 input  -57.11 | X-H torsion

> <Gold.Protein.ActiveResidues>
 VAL166  LYS551  ARG553  GLY616  TRP617  ASP618  TYR619  PRO620  LYS621  CYS622 
 ASP623  PHE694  ASN695  SER759  ASP760  ASP761  ALA762  ILE779  LEU786  VAL792 
 PHE793  MET794  SER795  GLU796  ALA797  LYS798  CYS799  TRP800  GLU811  SER814 

> <Gold.Protein.RotatedAtoms>
  151.1118  135.0031  159.8497 H   0  0  0  0  0  0  0  0  0  0  0  0  # atno 6907 bound_to 6896
  152.5443  134.1827  159.8652 H   0  0  0  0  0  0  0  0  0  0  0  0  # atno 6908 bound_to 6896
  151.1878  133.4641  159.2628 H   0  0  0  0  0  0  0  0  0  0  0  0  # atno 6909 bound_to 6896
  145.0501  139.3890  143.5058 H   0  0  0  0  0  0  0  0  0  0  0  0  # atno 7974 bound_to 7965
  155.6905  140.3496  155.4892 H   0  0  0  0  0  0  0  0  0  0  0  0  # atno 8008 bound_to 7997
  155.9528  140.1122  157.0985 H   0  0  0  0  0  0  0  0  0  0  0  0  # atno 8009 bound_to 7997
  154.4125  140.1191  156.5061 H   0  0  0  0  0  0  0  0  0  0  0  0  # atno 8010 bound_to 7997
  140.7279  143.4122  151.1087 H   0  0  0  0  0  0  0  0  0  0  0  0  # atno 10167 bound_to 10162
  157.5720  131.1082  150.8349 H   0  0  0  0  0  0  0  0  0  0  0  0  # atno 10718 bound_to 10713
  154.8393  135.3419  154.6471 H   0  0  0  0  0  0  0  0  0  0  0  0  # atno 10763 bound_to 10752
  153.7083  135.6965  153.5049 H   0  0  0  0  0  0  0  0  0  0  0  0  # atno 10764 bound_to 10752
  153.2471  135.4365  155.0712 H   0  0  0  0  0  0  0  0  0  0  0  0  # atno 10765 bound_to 10752
  140.5381  134.5549  157.5092 H   0  0  0  0  0  0  0  0  0  0  0  0  # atno 11005 bound_to 11000
  146.3517  140.0147  142.8664 LP  0  0  0  0  0  0  0  0  0  0  0  0  # atno 17320 bound_to 7965
  145.1537  140.9637  143.4417 LP  0  0  0  0  0  0  0  0  0  0  0  0  # atno 17321 bound_to 7965
  139.7757  143.8429  152.3129 LP  0  0  0  0  0  0  0  0  0  0  0  0  # atno 17342 bound_to 10162
  139.8363  144.7231  150.9387 LP  0  0  0  0  0  0  0  0  0  0  0  0  # atno 17343 bound_to 10162
  156.8818  130.5182  149.5290 LP  0  0  0  0  0  0  0  0  0  0  0  0  # atno 17370 bound_to 10713
  156.0766  130.5786  150.9484 LP  0  0  0  0  0  0  0  0  0  0  0  0  # atno 17371 bound_to 10713
  139.9518  134.7603  156.0430 LP  0  0  0  0  0  0  0  0  0  0  0  0  # atno 17394 bound_to 11000
  141.1243  133.6604  156.3295 LP  0  0  0  0  0  0  0  0  0  0  0  0  # atno 17395 bound_to 11000

$$$$
