AV-unprocessed.smi:532|AV-procd|sdf|2849|dock5
  -GOLD-   2262023343D 1   1.00000     0.00000
 Structure written by MMmdl.
 49 51  0  0  0  0  0  0  0  0  1 V2000
  153.2687  136.3777  157.5036 C   0  0  0  0  0  0  0  0  0  0  0  0
  153.3357  137.6029  156.7959 O   0  0  0  0  0  0  0  0  0  0  0  0
  152.0620  138.1997  156.6244 C   0  0  0  0  0  0  0  0  0  0  0  0
  152.2494  139.7017  156.3843 C   0  0  0  0  0  0  0  0  0  0  0  0
  150.9766  140.3614  156.1205 N   0  0  0  0  0  0  0  0  0  0  0  0
  150.4121  141.4219  156.7626 C   0  0  0  0  0  0  0  0  0  0  0  0
  151.0381  142.0926  157.8180 N   0  0  0  0  0  0  0  0  0  0  0  0
  151.7958  141.3712  158.8416 C   0  0  0  0  0  0  0  0  0  0  0  0
  153.0568  142.1304  159.2921 C   0  0  2  0  0  0  0  0  0  0  0  0
  153.8548  141.3239  160.3255 C   0  0  0  0  0  0  0  0  0  0  0  0
  152.6609  143.5097  159.8416 C   0  0  0  0  0  0  0  0  0  0  0  0
  151.7953  144.2786  158.8301 C   0  0  1  0  0  0  0  0  0  0  0  0
  152.6272  144.8774  157.6840 C   0  0  0  0  0  0  0  0  0  0  0  0
  150.6205  143.3958  158.3469 C   0  0  0  0  0  0  0  0  0  0  0  0
  149.1924  141.7464  156.3213 N   0  0  0  0  0  0  0  0  0  0  0  0
  148.9663  140.8324  155.3050 C   0  0  0  0  0  0  0  0  0  0  0  0
  150.0191  139.9865  155.1759 C   0  0  0  0  0  0  0  0  0  0  0  0
  150.0293  138.8870  154.2007 C   0  0  0  0  0  0  0  0  0  0  0  0
  150.9617  138.0960  154.0780 O   0  0  0  0  0  0  0  0  0  0  0  0
  148.8993  138.8271  153.4550 N   0  0  0  0  0  0  0  0  0  0  0  0
  147.8086  139.6493  153.5301 C   0  0  0  0  0  0  0  0  0  0  0  0
  146.8467  139.4650  152.7845 O   0  0  0  0  0  0  0  0  0  0  0  0
  147.8366  140.6616  154.4549 N   0  0  0  0  0  0  0  0  0  0  0  0
  146.6959  141.5707  154.5813 C   0  0  0  0  0  0  0  0  0  0  0  0
  148.8548  138.0879  152.7689 H   0  0  0  0  0  0  0  0  0  0  0  0
  154.2693  135.9575  157.6039 H   0  0  0  0  0  0  0  0  0  0  0  0
  152.6491  135.6507  156.9767 H   0  0  0  0  0  0  0  0  0  0  0  0
  152.8632  136.5234  158.5057 H   0  0  0  0  0  0  0  0  0  0  0  0
  151.5435  137.7431  155.7799 H   0  0  0  0  0  0  0  0  0  0  0  0
  151.4502  138.0361  157.5133 H   0  0  0  0  0  0  0  0  0  0  0  0
  152.7314  140.1586  157.2405 H   0  0  0  0  0  0  0  0  0  0  0  0
  152.9309  139.8775  155.5536 H   0  0  0  0  0  0  0  0  0  0  0  0
  151.1447  141.1752  159.6948 H   0  0  0  0  0  0  0  0  0  0  0  0
  152.0880  140.3971  158.4472 H   0  0  0  0  0  0  0  0  0  0  0  0
  153.6994  142.2702  158.4220 H   0  0  0  0  0  0  0  0  0  0  0  0
  153.2661  141.1383  161.2243 H   0  0  0  0  0  0  0  0  0  0  0  0
  154.7597  141.8541  160.6230 H   0  0  0  0  0  0  0  0  0  0  0  0
  154.1573  140.3579  159.9203 H   0  0  0  0  0  0  0  0  0  0  0  0
  152.0951  143.3786  160.7652 H   0  0  0  0  0  0  0  0  0  0  0  0
  153.5467  144.0883  160.1059 H   0  0  0  0  0  0  0  0  0  0  0  0
  151.3614  145.1273  159.3597 H   0  0  0  0  0  0  0  0  0  0  0  0
  153.0882  144.1053  157.0699 H   0  0  0  0  0  0  0  0  0  0  0  0
  153.4269  145.5093  158.0709 H   0  0  0  0  0  0  0  0  0  0  0  0
  152.0114  145.4995  157.0348 H   0  0  0  0  0  0  0  0  0  0  0  0
  150.0101  143.9316  157.6215 H   0  0  0  0  0  0  0  0  0  0  0  0
  149.9542  143.2069  159.1898 H   0  0  0  0  0  0  0  0  0  0  0  0
  146.4431  142.0121  153.6164 H   0  0  0  0  0  0  0  0  0  0  0  0
  146.8908  142.3932  155.2692 H   0  0  0  0  0  0  0  0  0  0  0  0
  145.8218  141.0329  154.9502 H   0  0  0  0  0  0  0  0  0  0  0  0
  1  2  1  0  0  0  0
  1 26  1  0  0  0  0
  1 27  1  0  0  0  0
  1 28  1  0  0  0  0
  2  3  1  0  0  0  0
  3  4  1  0  0  0  0
  3 29  1  0  0  0  0
  3 30  1  0  0  0  0
  4  5  1  0  0  0  0
  4 31  1  0  0  0  0
  4 32  1  0  0  0  0
  5 17  1  0  0  0  0
  5  6  1  0  0  0  0
  6  7  1  0  0  0  0
  6 15  2  0  0  0  0
  7 14  1  0  0  0  0
  7  8  1  0  0  0  0
  8  9  1  0  0  0  0
  8 33  1  0  0  0  0
  8 34  1  0  0  0  0
  9 10  1  0  0  0  0
  9 11  1  0  0  0  0
  9 35  1  0  0  0  0
 10 36  1  0  0  0  0
 10 37  1  0  0  0  0
 10 38  1  0  0  0  0
 11 12  1  0  0  0  0
 11 39  1  0  0  0  0
 11 40  1  0  0  0  0
 12 13  1  0  0  0  0
 12 14  1  0  0  0  0
 12 41  1  0  0  0  0
 13 42  1  0  0  0  0
 13 43  1  0  0  0  0
 13 44  1  0  0  0  0
 14 45  1  0  0  0  0
 14 46  1  0  0  0  0
 15 16  1  0  0  0  0
 16 23  1  0  0  0  0
 16 17  2  0  0  0  0
 17 18  1  0  0  0  0
 18 19  2  0  0  0  0
 18 20  1  0  0  0  0
 20 25  1  0  0  0  0
 20 21  1  0  0  0  0
 21 22  2  0  0  0  0
 21 23  1  0  0  0  0
 23 24  1  0  0  0  0
 24 47  1  0  0  0  0
 24 48  1  0  0  0  0
 24 49  1  0  0  0  0
M  END
> <s_m_source_file>
AV-unprocessed.smi

> <i_m_source_file_index>
532

> <i_lp_mmshare_version>
43012

> <i_f3d_flags>
0

> <s_epik_input>
W0NIM11uMWMoPU8pW25IXWMoPU8pYyhjMTIpbihbQ0gyXVtDSDJdT1tDSDNdKWMobjIpTjNbQ0gyXVtDQEBIXShbQ0gzXSlbQ0gyXVtDQEBIXShbQ0gzXSlbQ0gyXTM=

> <s_epik_cmdline>
J2VwaWtfcHl0aG9uJywgJy1waCcsICc3LjAnLCAnLXRuJywgJzgnLCAnLW1hJywgJzIwMCcsICctbWV0YWxfYmluZGluZycsICctaW1hZScsICc8aW5maWxlLm1hZT4nLCAnLW9tYWUnLCAnPG91dGZpbGUubWFlPic=

> <r_lp_tautomer_probability>
1

> <r_epik_Ionization_Penalty>
0.000642525

> <r_epik_Ionization_Penalty_Charging>
0.000121571

> <r_epik_Ionization_Penalty_Neutral>
0.000520954

> <r_epik_State_Penalty>
-0

> <r_epik_Charging_Adjusted_Penalty>
0.000121571

> <i_epik_Tot_Q>
0

> <i_epik_Tot_abs_Q>
0

> <r_epik_Metal_State_Penalty>
0.0931709

> <b_epik_Metal_Only>
0

> <s_lp_Force_Field>
OPLS_2005

> <r_lp_Energy>
41.4845

> <b_lp_Chiralities_Consistent>
1

> <s_lp_Variant>
AV-unprocessed.smi:532-2

> <Gold.Version>
5.8.1

> <Gold.Id.Protein>
6NUR|6NUR_protein|mol2

> <Gold.PLP.Fitness>
49.3631

> <Gold.PLP.PLP>
-47.0110

> <Gold.PLP.part.hbond>
-2.0000

> <Gold.PLP.part.metal>
0.0000

> <Gold.PLP.part.buried>
-3.7048

> <Gold.PLP.part.nonpolar>
-43.3728

> <Gold.PLP.part.repulsive>
2.1519

> <Gold.PLP.ligand.clash>
0.0000

> <Gold.PLP.ligand.torsion>
0.5217

> <Gold.PLP.Chemscore.Hbond>
1.0000

> <Gold.PLP.Chemscore.CHOScore>
0.0000

> <Gold.PLP.Chemscore.Metal>
0.0000

> <Gold.Chemscore.Hbonds>
donor molecule, donor type, donor heavy atom, donor atom, acceptor molecule, acceptor atom, score
      L1  H    20    25       P1  7948  0.98

> <Gold.PLP.Chemscore.Internal.Correction>
0.3956

> <Gold.Rescore>
     Score         DG    S(hbond)    S(metal)    S(lipo)     H(rot)  DE(clash)    DE(int)     intcor
     15.35     -16.91       0.99        0.00     100.81       1.43       0.02       1.54       ----

> <Gold.Chemscore.Fitness>
15.3491

> <Gold.Chemscore.DG>
-16.9118

> <Gold.Chemscore.ZeroCoef>
-5.4800

> <Gold.Chemscore.Hbond>
0.9892

> <Gold.Chemscore.Metal>
0.0000

> <Gold.Chemscore.Lipo>
100.8104

> <Gold.Chemscore.Internal_Hbond>
0.0000

> <Gold.Chemscore.DEClash>
0.0186

> <Gold.Chemscore.DEInternal>
1.5441

> <Gold.Chemscore.Rot>
1.4324

> <Gold.Chemscore.Internal.Correction>
   9.000000E+99

> <Gold.Chemscore.Hbonds>
donor molecule, donor type, donor heavy atom, donor atom, acceptor molecule, acceptor atom, score
      L1  H    20    25       P1  7948  0.92

> <Gold.Chemscore.Hbond.Weighted>
-3.3039

> <Gold.Chemscore.Metal.Weighted>
-0.0000

> <Gold.Chemscore.Lipo.Weighted>
-11.7948

> <Gold.Chemscore.Internal_Hbond.Weighted>
0.0000

> <Gold.Chemscore.DEClash.Weighted>
0.0186

> <Gold.Chemscore.DEInternal.Weighted>
1.5441

> <Gold.Chemscore.Rot.Weighted>
3.6669

> <Gold.Chemscore.Internal.Correction.Weighted>
   9.000000E+99

> <Gold.Protein.RotatedTorsions>
[ 6907 6896 6895 6894 ] final   59.12 input  -60.11 | X-H torsion
[ 7974 7965 7964 7962 ] final  -61.65 input  175.53 | X-H torsion
[ 8008 7997 7996 7995 ] final   53.58 input   59.86 | X-H torsion
[ 10167 10162 10161 10158 ] final   31.68 input  -65.29 | X-H torsion
[ 10718 10713 10712 10709 ] final -171.56 input   66.30 | X-H torsion
[ 10763 10752 10751 10750 ] final  -97.08 input  -60.55 | X-H torsion
[ 11005 11000 10999 10996 ] final  137.45 input  -57.11 | X-H torsion

> <Gold.Protein.ActiveResidues>
 VAL166  LYS551  ARG553  GLY616  TRP617  ASP618  TYR619  PRO620  LYS621  CYS622 
 ASP623  PHE694  ASN695  SER759  ASP760  ASP761  ALA762  ILE779  LEU786  VAL792 
 PHE793  MET794  SER795  GLU796  ALA797  LYS798  CYS799  TRP800  GLU811  SER814 

> <Gold.Protein.RotatedAtoms>
  152.3886  134.6478  160.0115 H   0  0  0  0  0  0  0  0  0  0  0  0  # atno 6907 bound_to 6896
  151.6718  133.3308  159.3206 H   0  0  0  0  0  0  0  0  0  0  0  0  # atno 6908 bound_to 6896
  150.7807  134.6792  159.6479 H   0  0  0  0  0  0  0  0  0  0  0  0  # atno 6909 bound_to 6896
  145.8009  140.8655  143.0232 H   0  0  0  0  0  0  0  0  0  0  0  0  # atno 7974 bound_to 7965
  155.4707  140.3465  155.4325 H   0  0  0  0  0  0  0  0  0  0  0  0  # atno 8008 bound_to 7997
  156.1102  140.1459  156.9377 H   0  0  0  0  0  0  0  0  0  0  0  0  # atno 8009 bound_to 7997
  154.4751  140.0887  156.7221 H   0  0  0  0  0  0  0  0  0  0  0  0  # atno 8010 bound_to 7997
  140.4566  144.0968  150.6203 H   0  0  0  0  0  0  0  0  0  0  0  0  # atno 10167 bound_to 10162
  156.7427  130.9348  151.3111 H   0  0  0  0  0  0  0  0  0  0  0  0  # atno 10718 bound_to 10713
  154.7296  135.5060  153.8942 H   0  0  0  0  0  0  0  0  0  0  0  0  # atno 10763 bound_to 10752
  153.0937  135.6666  153.9812 H   0  0  0  0  0  0  0  0  0  0  0  0  # atno 10764 bound_to 10752
  153.9617  135.3047  155.3412 H   0  0  0  0  0  0  0  0  0  0  0  0  # atno 10765 bound_to 10752
  140.0115  134.9437  157.0287 H   0  0  0  0  0  0  0  0  0  0  0  0  # atno 11005 bound_to 11000
  144.6769  140.0258  143.7483 LP  0  0  0  0  0  0  0  0  0  0  0  0  # atno 17320 bound_to 7965
  145.9879  139.2991  143.1003 LP  0  0  0  0  0  0  0  0  0  0  0  0  # atno 17321 bound_to 7965
  140.4143  143.2642  151.9794 LP  0  0  0  0  0  0  0  0  0  0  0  0  # atno 17342 bound_to 10162
  139.4802  144.5887  151.7808 LP  0  0  0  0  0  0  0  0  0  0  0  0  # atno 17343 bound_to 10162
  157.6811  130.9141  150.0270 LP  0  0  0  0  0  0  0  0  0  0  0  0  # atno 17370 bound_to 10713
  156.1453  130.3642  149.9519 LP  0  0  0  0  0  0  0  0  0  0  0  0  # atno 17371 bound_to 10713
  140.4546  134.1547  155.7185 LP  0  0  0  0  0  0  0  0  0  0  0  0  # atno 17394 bound_to 11000
  141.1714  133.8601  157.1559 LP  0  0  0  0  0  0  0  0  0  0  0  0  # atno 17395 bound_to 11000

$$$$
