AV-unprocessed.smi:283|AV-procd|sdf|2144|dock2
  -GOLD-   2262021473D 1   1.00000     0.00000
 Structure written by MMmdl.
 48 51  0  0  0  0  0  0  0  0  1 V2000
  149.3451  141.2378  157.2318 C   0  0  0  0  0  0  0  0  0  0  0  0
  150.7451  141.0703  157.8376 C   0  0  1  0  0  0  0  0  0  0  0  0
  151.7035  140.7472  156.7823 N   0  0  0  0  0  0  0  0  0  0  0  0
  151.6196  139.5806  156.1054 C   0  0  0  0  0  0  0  0  0  0  0  0
  152.4073  139.4810  155.0084 N   0  0  0  0  0  0  0  0  0  0  0  0
  152.4164  138.3553  154.2899 C   0  0  0  0  0  0  0  0  0  0  0  0
  151.7244  137.2328  154.4911 N   0  0  0  0  0  0  0  0  0  0  0  0
  150.9141  137.3298  155.5843 C   0  0  0  0  0  0  0  0  0  0  0  0
  150.7969  138.4641  156.4380 C   0  0  0  0  0  0  0  0  0  0  0  0
  149.8617  138.1954  157.4307 N   0  0  0  0  0  0  0  0  0  0  0  0
  149.4683  136.9760  157.1862 C   0  0  0  0  0  0  0  0  0  0  0  0
  150.0565  136.3770  156.0963 N   0  0  0  0  0  0  0  0  0  0  0  0
  149.8192  134.9952  155.5812 C   0  0  1  0  0  0  0  0  0  0  0  0
  150.3782  134.0915  156.4821 O   0  0  0  0  0  0  0  0  0  0  0  0
  149.5486  132.9419  156.6099 C   0  0  2  0  0  0  0  0  0  0  0  0
  149.9586  131.9053  155.5459 C   0  0  0  0  0  0  0  0  0  0  0  0
  149.1083  130.7812  155.6172 O   0  0  0  0  0  0  0  0  0  0  0  0
  148.1315  133.4905  156.3920 C   0  0  1  0  0  0  0  0  0  0  0  0
  147.5861  133.8774  157.6376 O   0  0  0  0  0  0  0  0  0  0  0  0
  148.3140  134.7001  155.4783 C   0  0  2  0  0  0  0  0  0  0  0  0
  147.9560  134.3505  154.1560 O   0  0  0  0  0  0  0  0  0  0  0  0
  151.1092  142.2964  158.6806 C   0  0  0  0  0  0  0  0  0  0  0  0
  150.2369  143.4096  158.7185 C   0  0  0  0  0  0  0  0  0  0  0  0
  150.5563  144.5478  159.4821 C   0  0  0  0  0  0  0  0  0  0  0  0
  151.7493  144.5825  160.2258 C   0  0  0  0  0  0  0  0  0  0  0  0
  152.6170  143.4750  160.2092 C   0  0  0  0  0  0  0  0  0  0  0  0
  152.3021  142.3325  159.4464 C   0  0  0  0  0  0  0  0  0  0  0  0
  153.3988  140.9960  159.4777 Cl  0  0  0  0  0  0  0  0  0  0  0  0
  150.3431  134.9564  154.6248 H   0  0  0  0  0  0  0  0  0  0  0  0
  149.6500  132.5027  157.6041 H   0  0  0  0  0  0  0  0  0  0  0  0
  147.4593  132.7421  155.9695 H   0  0  0  0  0  0  0  0  0  0  0  0
  147.7162  135.5567  155.7954 H   0  0  0  0  0  0  0  0  0  0  0  0
  148.5971  141.3904  158.0105 H   0  0  0  0  0  0  0  0  0  0  0  0
  149.0525  140.3532  156.6653 H   0  0  0  0  0  0  0  0  0  0  0  0
  149.3035  142.0945  156.5584 H   0  0  0  0  0  0  0  0  0  0  0  0
  150.7033  140.1945  158.4824 H   0  0  0  0  0  0  0  0  0  0  0  0
  152.5636  141.2743  156.8218 H   0  0  0  0  0  0  0  0  0  0  0  0
  153.0751  138.3516  153.4340 H   0  0  0  0  0  0  0  0  0  0  0  0
  148.7358  136.4756  157.8029 H   0  0  0  0  0  0  0  0  0  0  0  0
  149.8499  132.3277  154.5466 H   0  0  0  0  0  0  0  0  0  0  0  0
  150.9992  131.5984  155.6530 H   0  0  0  0  0  0  0  0  0  0  0  0
  149.5982  130.0582  155.9789 H   0  0  0  0  0  0  0  0  0  0  0  0
  146.6428  133.8404  157.5747 H   0  0  0  0  0  0  0  0  0  0  0  0
  148.2067  135.0572  153.5808 H   0  0  0  0  0  0  0  0  0  0  0  0
  149.3150  143.3990  158.1560 H   0  0  0  0  0  0  0  0  0  0  0  0
  149.8847  145.3936  159.4971 H   0  0  0  0  0  0  0  0  0  0  0  0
  151.9965  145.4550  160.8125 H   0  0  0  0  0  0  0  0  0  0  0  0
  153.5288  143.5021  160.7876 H   0  0  0  0  0  0  0  0  0  0  0  0
  1  2  1  0  0  0  0
  1 33  1  0  0  0  0
  1 34  1  0  0  0  0
  1 35  1  0  0  0  0
  2  3  1  0  0  0  0
  2 22  1  0  0  0  0
  2 36  1  0  0  0  0
  3  4  1  0  0  0  0
  3 37  1  0  0  0  0
  4  9  1  0  0  0  0
  4  5  2  0  0  0  0
  5  6  1  0  0  0  0
  6  7  2  0  0  0  0
  6 38  1  0  0  0  0
  7  8  1  0  0  0  0
  8 12  1  0  0  0  0
  8  9  2  0  0  0  0
  9 10  1  0  0  0  0
 10 11  2  0  0  0  0
 11 12  1  0  0  0  0
 11 39  1  0  0  0  0
 12 13  1  0  0  0  0
 13 29  1  0  0  0  0
 13 20  1  0  0  0  0
 13 14  1  0  0  0  0
 14 15  1  0  0  0  0
 15 30  1  0  0  0  0
 15 16  1  0  0  0  0
 15 18  1  0  0  0  0
 16 17  1  0  0  0  0
 16 40  1  0  0  0  0
 16 41  1  0  0  0  0
 17 42  1  0  0  0  0
 18 31  1  0  0  0  0
 18 19  1  0  0  0  0
 18 20  1  0  0  0  0
 19 43  1  0  0  0  0
 20 32  1  0  0  0  0
 20 21  1  0  0  0  0
 21 44  1  0  0  0  0
 22 27  1  0  0  0  0
 22 23  2  0  0  0  0
 23 24  1  0  0  0  0
 23 45  1  0  0  0  0
 24 25  2  0  0  0  0
 24 46  1  0  0  0  0
 25 26  1  0  0  0  0
 25 47  1  0  0  0  0
 26 27  2  0  0  0  0
 26 48  1  0  0  0  0
 27 28  1  0  0  0  0
M  END
> <s_m_source_file>
AV-unprocessed.smi

> <i_m_source_file_index>
283

> <i_lp_mmshare_version>
43012

> <i_f3d_flags>
0

> <s_epik_input>
Q2xjMVtjSF1bY0hdW2NIXVtjSF1jMVtDQEhdKFtDSDNdKVtOSF1jKG5bY0hdbjIpYyhjMjMpbltjSF1uM1tDQEBIXTRPW0NASF0oW0NIMl1bT0hdKVtDQEBIXShbT0hdKVtDQEhdNFtPSF0=

> <s_epik_cmdline>
J2VwaWtfcHl0aG9uJywgJy1waCcsICc3LjAnLCAnLXRuJywgJzgnLCAnLW1hJywgJzIwMCcsICctbWV0YWxfYmluZGluZycsICctaW1hZScsICc8aW5maWxlLm1hZT4nLCAnLW9tYWUnLCAnPG91dGZpbGUubWFlPic=

> <r_lp_tautomer_probability>
1

> <r_epik_Ionization_Penalty>
0.000266407

> <r_epik_Ionization_Penalty_Charging>
0

> <r_epik_Ionization_Penalty_Neutral>
0.000266407

> <r_epik_State_Penalty>
-0

> <r_epik_Charging_Adjusted_Penalty>
0

> <i_epik_Tot_Q>
0

> <i_epik_Tot_abs_Q>
0

> <r_epik_Metal_State_Penalty>
-0

> <b_epik_Metal_Only>
0

> <s_epik_Chemistry_Notes>
This compound contains an acetal/aminal-like group ( X-CH(R)-Y where X, Y are N, S, or O) that may be acid/base labile, releasing an aldehyde.

> <s_lp_Force_Field>
OPLS_2005

> <r_lp_Energy>
38.3642

> <b_lp_Chiralities_Consistent>
1

> <s_lp_Variant>
AV-unprocessed.smi:283-20

> <Gold.Version>
5.8.1

> <Gold.Id.Protein>
6NUR|6NUR_protein|mol2

> <Gold.PLP.Fitness>
51.0485

> <Gold.PLP.PLP>
-42.4409

> <Gold.PLP.part.hbond>
-4.0000

> <Gold.PLP.part.metal>
0.0000

> <Gold.PLP.part.buried>
-7.7114

> <Gold.PLP.part.nonpolar>
-31.5204

> <Gold.PLP.part.repulsive>
0.2753

> <Gold.PLP.ligand.clash>
0.0000

> <Gold.PLP.ligand.torsion>
0.3718

> <Gold.PLP.Chemscore.Hbond>
3.0627

> <Gold.PLP.Chemscore.CHOScore>
0.0000

> <Gold.PLP.Chemscore.Metal>
0.0000

> <Gold.Chemscore.Hbonds>
donor molecule, donor type, donor heavy atom, donor atom, acceptor molecule, acceptor atom, score
      L1  H    21    44       P1  7948  0.60
      P1  H  7989  7998       L1     5  0.44
      P1  H  7997  8010       L1     5  0.19
      P1  H 10752 10765       L1     7  1.00

> <Gold.PLP.Chemscore.Internal.Correction>
0.1630

> <Gold.Rescore>
     Score         DG    S(hbond)    S(metal)    S(lipo)     H(rot)  DE(clash)    DE(int)     intcor
     13.09     -14.84       2.56        0.00      96.47       4.10       0.01       1.73       ----

> <Gold.Chemscore.Fitness>
13.0906

> <Gold.Chemscore.DG>
-14.8393

> <Gold.Chemscore.ZeroCoef>
-5.4800

> <Gold.Chemscore.Hbond>
2.5630

> <Gold.Chemscore.Metal>
0.0000

> <Gold.Chemscore.Lipo>
96.4683

> <Gold.Chemscore.Internal_Hbond>
0.0000

> <Gold.Chemscore.DEClash>
0.0149

> <Gold.Chemscore.DEInternal>
1.7339

> <Gold.Chemscore.Rot>
4.0968

> <Gold.Chemscore.Internal.Correction>
   9.000000E+99

> <Gold.Chemscore.Hbonds>
donor molecule, donor type, donor heavy atom, donor atom, acceptor molecule, acceptor atom, score
      L1  H    21    44       P1  7948  0.58
      P1  H  7989  7998       L1     5  0.07
      P1  H  7997  8010       L1     5  0.06
      P1  H 10752 10765       L1     7  0.65

> <Gold.Chemscore.Hbond.Weighted>
-8.5605

> <Gold.Chemscore.Metal.Weighted>
-0.0000

> <Gold.Chemscore.Lipo.Weighted>
-11.2868

> <Gold.Chemscore.Internal_Hbond.Weighted>
0.0000

> <Gold.Chemscore.DEClash.Weighted>
0.0149

> <Gold.Chemscore.DEInternal.Weighted>
1.7339

> <Gold.Chemscore.Rot.Weighted>
10.4879

> <Gold.Chemscore.Internal.Correction.Weighted>
   9.000000E+99

> <Gold.Protein.RotatedTorsions>
[ 6907 6896 6895 6894 ] final  127.10 input  -60.11 | X-H torsion
[ 7974 7965 7964 7962 ] final  -81.91 input  175.53 | X-H torsion
[ 8008 7997 7996 7995 ] final  109.97 input   59.86 | X-H torsion
[ 10167 10162 10161 10158 ] final  -85.11 input  -65.29 | X-H torsion
[ 10718 10713 10712 10709 ] final  150.41 input   66.30 | X-H torsion
[ 10763 10752 10751 10750 ] final  161.09 input  -60.55 | X-H torsion
[ 11005 11000 10999 10996 ] final -150.36 input  -57.11 | X-H torsion

> <Gold.Protein.ActiveResidues>
 VAL166  LYS551  ARG553  GLY616  TRP617  ASP618  TYR619  PRO620  LYS621  CYS622 
 ASP623  PHE694  ASN695  SER759  ASP760  ASP761  ALA762  ILE779  LEU786  VAL792 
 PHE793  MET794  SER795  GLU796  ALA797  LYS798  CYS799  TRP800  GLU811  SER814 

> <Gold.Protein.RotatedAtoms>
  152.3843  133.6589  159.6185 H   0  0  0  0  0  0  0  0  0  0  0  0  # atno 6907 bound_to 6896
  150.7766  133.9061  159.3364 H   0  0  0  0  0  0  0  0  0  0  0  0  # atno 6908 bound_to 6896
  151.6861  135.0955  160.0276 H   0  0  0  0  0  0  0  0  0  0  0  0  # atno 6909 bound_to 6896
  145.5404  140.9510  143.1554 H   0  0  0  0  0  0  0  0  0  0  0  0  # atno 7974 bound_to 7965
  156.2019  140.3047  155.9544 H   0  0  0  0  0  0  0  0  0  0  0  0  # atno 8008 bound_to 7997
  155.2934  140.0443  157.3041 H   0  0  0  0  0  0  0  0  0  0  0  0  # atno 8009 bound_to 7997
  154.5581  140.2312  155.8386 H   0  0  0  0  0  0  0  0  0  0  0  0  # atno 8010 bound_to 7997
  140.4068  143.2639  151.9070 H   0  0  0  0  0  0  0  0  0  0  0  0  # atno 10167 bound_to 10162
  157.2838  131.0840  151.1512 H   0  0  0  0  0  0  0  0  0  0  0  0  # atno 10718 bound_to 10713
  154.2576  135.2769  155.2791 H   0  0  0  0  0  0  0  0  0  0  0  0  # atno 10763 bound_to 10752
  154.5412  135.5702  153.6844 H   0  0  0  0  0  0  0  0  0  0  0  0  # atno 10764 bound_to 10752
  152.9968  135.6251  154.2725 H   0  0  0  0  0  0  0  0  0  0  0  0  # atno 10765 bound_to 10752
  140.7410  134.3514  157.5147 H   0  0  0  0  0  0  0  0  0  0  0  0  # atno 11005 bound_to 11000
  144.7580  139.7026  143.7246 LP  0  0  0  0  0  0  0  0  0  0  0  0  # atno 17320 bound_to 7965
  146.1985  139.5266  142.9759 LP  0  0  0  0  0  0  0  0  0  0  0  0  # atno 17321 bound_to 7965
  139.4783  144.5577  151.8288 LP  0  0  0  0  0  0  0  0  0  0  0  0  # atno 17342 bound_to 10162
  140.4680  144.1627  150.5914 LP  0  0  0  0  0  0  0  0  0  0  0  0  # atno 17343 bound_to 10162
  157.2935  130.6808  149.6126 LP  0  0  0  0  0  0  0  0  0  0  0  0  # atno 17370 bound_to 10713
  155.9665  130.4413  150.5337 LP  0  0  0  0  0  0  0  0  0  0  0  0  # atno 17371 bound_to 10713
  139.8806  134.9081  156.2959 LP  0  0  0  0  0  0  0  0  0  0  0  0  # atno 17394 bound_to 11000
  140.9836  133.7252  156.0709 LP  0  0  0  0  0  0  0  0  0  0  0  0  # atno 17395 bound_to 11000

$$$$
