AV-unprocessed.smi:1803|AV-procd|sdf|7286|dock8
  -GOLD-   22720 8543D 1   1.00000     0.00000
 Structure written by MMmdl.
 36 38  0  0  0  0  0  0  0  0  2 V2000
  147.3030  132.7811  154.2085 O   0  0  0  0  0  0  0  0  0  0  0  0
  147.8721  133.8646  154.0895 C   0  0  0  0  0  0  0  0  0  0  0  0
  149.0380  134.1112  154.7247 N   0  0  0  0  0  0  0  0  0  0  0  0
  149.8366  133.3056  155.5884 C   0  0  0  0  0  0  0  0  0  0  0  0
  150.3287  133.7117  156.7702 N   0  0  0  0  0  0  0  0  0  0  0  0
  151.0799  132.7236  157.3917 N   0  0  0  0  0  0  0  0  0  0  0  0
  151.1332  131.6118  156.6535 C   0  0  0  0  0  0  0  0  0  0  0  0
  150.2710  131.6655  155.1263 S   0  0  0  0  0  0  0  0  0  0  0  0
  147.3797  134.8623  153.3368 N   0  0  0  0  0  0  0  0  0  0  0  0
  146.1451  134.8140  152.5608 C   0  0  1  0  0  0  0  0  0  0  0  0
  145.8238  136.1336  151.8691 C   0  0  0  0  0  0  0  0  0  0  0  0
  144.8452  135.6964  150.7782 C   0  0  0  0  0  0  0  0  0  0  0  0
  145.2789  134.3433  150.3607 N   0  3  2  0  0  0  0  0  0  0  0  0
  144.1726  133.4295  149.9842 C   0  0  0  0  0  0  0  0  0  0  0  0
  144.7214  132.0568  149.5531 C   0  0  0  0  0  0  0  0  0  0  0  0
  145.7290  131.4637  150.5603 C   0  0  0  0  0  0  0  0  0  0  0  0
  145.9208  132.3589  151.7942 C   0  0  0  0  0  0  0  0  0  0  0  0
  146.2222  133.8199  151.3895 C   0  0  2  0  0  0  0  0  0  0  0  0
  149.4011  135.0420  154.5776 H   0  0  0  0  0  0  0  0  0  0  0  0
  151.6855  130.7548  157.0094 H   0  0  0  0  0  0  0  0  0  0  0  0
  147.9097  135.7218  153.2970 H   0  0  0  0  0  0  0  0  0  0  0  0
  145.3008  134.5618  153.2059 H   0  0  0  0  0  0  0  0  0  0  0  0
  145.3995  136.8769  152.5448 H   0  0  0  0  0  0  0  0  0  0  0  0
  146.7220  136.5582  151.4173 H   0  0  0  0  0  0  0  0  0  0  0  0
  143.8387  135.6516  151.1975 H   0  0  0  0  0  0  0  0  0  0  0  0
  144.8238  136.3862  149.9343 H   0  0  0  0  0  0  0  0  0  0  0  0
  143.4889  133.3123  150.8268 H   0  0  0  0  0  0  0  0  0  0  0  0
  143.5956  133.8727  149.1718 H   0  0  0  0  0  0  0  0  0  0  0  0
  143.8916  131.3645  149.4066 H   0  0  0  0  0  0  0  0  0  0  0  0
  145.2060  132.1525  148.5805 H   0  0  0  0  0  0  0  0  0  0  0  0
  145.4085  130.4687  150.8712 H   0  0  0  0  0  0  0  0  0  0  0  0
  146.6914  131.3291  150.0651 H   0  0  0  0  0  0  0  0  0  0  0  0
  145.0218  132.3184  152.4109 H   0  0  0  0  0  0  0  0  0  0  0  0
  146.7275  131.9660  152.4134 H   0  0  0  0  0  0  0  0  0  0  0  0
  147.2148  133.8669  150.9381 H   0  0  0  0  0  0  0  0  0  0  0  0
  145.8362  134.4665  149.5274 H   0  0  0  0  0  0  0  0  0  0  0  0
  1  2  2  0  0  0  0
  2  3  1  0  0  0  0
  2  9  1  0  0  0  0
  3  4  1  0  0  0  0
  3 19  1  0  0  0  0
  4  8  1  0  0  0  0
  4  5  2  0  0  0  0
  5  6  1  0  0  0  0
  6  7  2  0  0  0  0
  7  8  1  0  0  0  0
  7 20  1  0  0  0  0
  9 10  1  0  0  0  0
  9 21  1  0  0  0  0
 10 18  1  0  0  0  0
 10 11  1  0  0  0  0
 10 22  1  0  0  0  0
 11 12  1  0  0  0  0
 11 23  1  0  0  0  0
 11 24  1  0  0  0  0
 12 13  1  0  0  0  0
 12 25  1  0  0  0  0
 12 26  1  0  0  0  0
 13 18  1  0  0  0  0
 13 14  1  0  0  0  0
 13 36  1  0  0  0  0
 14 15  1  0  0  0  0
 14 27  1  0  0  0  0
 14 28  1  0  0  0  0
 15 16  1  0  0  0  0
 15 29  1  0  0  0  0
 15 30  1  0  0  0  0
 16 17  1  0  0  0  0
 16 31  1  0  0  0  0
 16 32  1  0  0  0  0
 17 18  1  0  0  0  0
 17 33  1  0  0  0  0
 17 34  1  0  0  0  0
 18 35  1  0  0  0  0
M  CHG  1  13   1
M  END
> <s_m_source_file>
AV-unprocessed.smi

> <i_m_source_file_index>
1803

> <i_lp_mmshare_version>
43012

> <i_f3d_flags>
0

> <s_epik_input>
czFbY0hdbm5jMVtOSF1DKD1PKVtOSF1bQ0BIXShbQ0gyXVtDSDJdMilbQ0BASF0oTjIzKVtDSDJdW0NIMl1bQ0gyXVtDSDJdMw==

> <s_epik_cmdline>
J2VwaWtfcHl0aG9uJywgJy1waCcsICc3LjAnLCAnLXRuJywgJzgnLCAnLW1hJywgJzIwMCcsICctbWV0YWxfYmluZGluZycsICctaW1hZScsICc8aW5maWxlLm1hZT4nLCAnLW9tYWUnLCAnPG91dGZpbGUubWFlPic=

> <r_lp_tautomer_probability>
1

> <r_epik_Ionization_Penalty>
0.00213286

> <r_epik_Ionization_Penalty_Charging>
0.00107044

> <r_epik_Ionization_Penalty_Neutral>
0.00106242

> <r_epik_State_Penalty>
-0

> <r_epik_Charging_Adjusted_Penalty>
0.00107044

> <i_epik_Tot_Q>
1

> <i_epik_Tot_abs_Q>
1

> <r_epik_Metal_State_Penalty>
0.292783

> <b_epik_Metal_Only>
0

> <s_lp_Force_Field>
OPLS_2005

> <r_lp_Energy>
41.2336

> <b_lp_Chiralities_Consistent>
1

> <s_lp_Variant>
AV-unprocessed.smi:1803-8

> <Gold.Version>
5.8.1

> <Gold.Id.Protein>
6NUR|6NUR_protein|mol2

> <Gold.PLP.Fitness>
35.1128

> <Gold.PLP.PLP>
-28.5719

> <Gold.PLP.part.hbond>
-3.0000

> <Gold.PLP.part.metal>
0.0000

> <Gold.PLP.part.buried>
-2.7537

> <Gold.PLP.part.nonpolar>
-23.7975

> <Gold.PLP.part.repulsive>
0.1135

> <Gold.PLP.ligand.clash>
0.0000

> <Gold.PLP.ligand.torsion>
0.4536

> <Gold.PLP.Chemscore.Hbond>
2.4800

> <Gold.PLP.Chemscore.CHOScore>
0.0000

> <Gold.PLP.Chemscore.Metal>
0.0000

> <Gold.Chemscore.Hbonds>
donor molecule, donor type, donor heavy atom, donor atom, acceptor molecule, acceptor atom, score
      L1  H     9    21       P1  7948  0.46
      L1  H    13    36       P1  7921  1.00
      P1  H  6896  6907       L1     6  1.00

> <Gold.PLP.Chemscore.Internal.Correction>
0.0080

> <Gold.Rescore>
     Score         DG    S(hbond)    S(metal)    S(lipo)     H(rot)  DE(clash)    DE(int)     intcor
     18.79     -19.55       2.61        0.00      67.54       1.00       0.03       0.73       ----

> <Gold.Chemscore.Fitness>
18.7881

> <Gold.Chemscore.DG>
-19.5466

> <Gold.Chemscore.ZeroCoef>
-5.4800

> <Gold.Chemscore.Hbond>
2.6121

> <Gold.Chemscore.Metal>
0.0000

> <Gold.Chemscore.Lipo>
67.5401

> <Gold.Chemscore.Internal_Hbond>
0.0000

> <Gold.Chemscore.DEClash>
0.0322

> <Gold.Chemscore.DEInternal>
0.7262

> <Gold.Chemscore.Rot>
1.0000

> <Gold.Chemscore.Internal.Correction>
   9.000000E+99

> <Gold.Chemscore.Hbonds>
donor molecule, donor type, donor heavy atom, donor atom, acceptor molecule, acceptor atom, score
      L1  H     9    21       P1  7948  0.46
      L1  H    13    36       P1  7921  0.68
      P1  H  6896  6907       L1     6  0.53

> <Gold.Chemscore.Hbond.Weighted>
-8.7244

> <Gold.Chemscore.Metal.Weighted>
-0.0000

> <Gold.Chemscore.Lipo.Weighted>
-7.9022

> <Gold.Chemscore.Internal_Hbond.Weighted>
0.0000

> <Gold.Chemscore.DEClash.Weighted>
0.0322

> <Gold.Chemscore.DEInternal.Weighted>
0.7262

> <Gold.Chemscore.Rot.Weighted>
2.5600

> <Gold.Chemscore.Internal.Correction.Weighted>
   9.000000E+99

> <Gold.Protein.RotatedTorsions>
[ 6907 6896 6895 6894 ] final -164.79 input  -60.11 | X-H torsion
[ 7974 7965 7964 7962 ] final   29.92 input  175.53 | X-H torsion
[ 8008 7997 7996 7995 ] final   91.67 input   59.86 | X-H torsion
[ 10167 10162 10161 10158 ] final   86.08 input  -65.29 | X-H torsion
[ 10718 10713 10712 10709 ] final  117.04 input   66.30 | X-H torsion
[ 10763 10752 10751 10750 ] final   -9.40 input  -60.55 | X-H torsion
[ 11005 11000 10999 10996 ] final  -52.57 input  -57.11 | X-H torsion

> <Gold.Protein.ActiveResidues>
 VAL166  LYS551  ARG553  GLY616  TRP617  ASP618  TYR619  PRO620  LYS621  CYS622 
 ASP623  PHE694  ASN695  SER759  ASP760  ASP761  ALA762  ILE779  LEU786  VAL792 
 PHE793  MET794  SER795  GLU796  ALA797  LYS798  CYS799  TRP800  GLU811  SER814 

> <Gold.Protein.RotatedAtoms>
  151.4174  133.3709  159.2751 H   0  0  0  0  0  0  0  0  0  0  0  0  # atno 6907 bound_to 6896
  150.9319  134.8735  159.7567 H   0  0  0  0  0  0  0  0  0  0  0  0  # atno 6908 bound_to 6896
  152.5032  134.4119  159.9503 H   0  0  0  0  0  0  0  0  0  0  0  0  # atno 6909 bound_to 6896
  146.1643  139.6858  142.9012 H   0  0  0  0  0  0  0  0  0  0  0  0  # atno 7974 bound_to 7965
  156.0264  140.3335  155.7093 H   0  0  0  0  0  0  0  0  0  0  0  0  # atno 8008 bound_to 7997
  155.5948  140.0650  157.2767 H   0  0  0  0  0  0  0  0  0  0  0  0  # atno 8009 bound_to 7997
  154.4336  140.1821  156.1099 H   0  0  0  0  0  0  0  0  0  0  0  0  # atno 8010 bound_to 7997
  139.8911  144.6385  150.8737 H   0  0  0  0  0  0  0  0  0  0  0  0  # atno 10167 bound_to 10162
  157.6122  131.1032  150.7558 H   0  0  0  0  0  0  0  0  0  0  0  0  # atno 10718 bound_to 10713
  153.4543  135.7015  153.6090 H   0  0  0  0  0  0  0  0  0  0  0  0  # atno 10763 bound_to 10752
  153.4411  135.3780  155.2229 H   0  0  0  0  0  0  0  0  0  0  0  0  # atno 10764 bound_to 10752
  154.8728  135.3974  154.3959 H   0  0  0  0  0  0  0  0  0  0  0  0  # atno 10765 bound_to 10752
  141.0931  133.6629  156.4044 H   0  0  0  0  0  0  0  0  0  0  0  0  # atno 11005 bound_to 11000
  145.4508  141.0428  143.2805 LP  0  0  0  0  0  0  0  0  0  0  0  0  # atno 17320 bound_to 7965
  144.8070  139.6032  143.7046 LP  0  0  0  0  0  0  0  0  0  0  0  0  # atno 17321 bound_to 7965
  140.7726  143.3509  151.2016 LP  0  0  0  0  0  0  0  0  0  0  0  0  # atno 17342 bound_to 10162
  139.7108  143.9379  152.2947 LP  0  0  0  0  0  0  0  0  0  0  0  0  # atno 17343 bound_to 10162
  156.7933  130.4897  149.5381 LP  0  0  0  0  0  0  0  0  0  0  0  0  # atno 17370 bound_to 10713
  156.1230  130.6123  151.0221 LP  0  0  0  0  0  0  0  0  0  0  0  0  # atno 17371 bound_to 10713
  140.5204  134.6309  157.5316 LP  0  0  0  0  0  0  0  0  0  0  0  0  # atno 17394 bound_to 11000
  139.9761  134.7213  155.9947 LP  0  0  0  0  0  0  0  0  0  0  0  0  # atno 17395 bound_to 11000

$$$$
