AV-unprocessed.smi:203|AV-procd|sdf|1592|dock2
  -GOLD-   2262019493D 1   1.00000     0.00000
 Structure written by MMmdl.
 57 61  0  0  0  0  0  0  0  0  1 V2000
  154.2135  136.7679  161.1678 O   0  0  0  0  0  0  0  0  0  0  0  0
  154.1333  137.9776  160.9681 C   0  0  0  0  0  0  0  0  0  0  0  0
  153.2215  138.5960  159.9205 C   0  0  0  0  0  0  0  0  0  0  0  0
  153.7112  140.0550  159.8685 C   0  0  1  0  0  0  0  0  0  0  0  0
  152.6449  141.1379  159.5133 C   0  0  1  0  0  0  0  0  0  0  0  0
  153.0622  142.5699  159.9428 C   0  0  0  0  0  0  0  0  0  0  0  0
  151.9935  143.6084  159.5771 C   0  0  0  0  0  0  0  0  0  0  0  0
  151.6919  143.5399  158.0769 C   0  0  0  0  0  0  0  0  0  0  0  0
  151.2706  142.1181  157.6861 C   0  0  0  0  0  0  0  0  0  0  0  0
  152.2776  141.1347  158.0846 N   0  0  0  0  0  0  0  0  0  0  0  0
  151.9923  139.9358  157.5278 C   0  0  0  0  0  0  0  0  0  0  0  0
  152.8849  139.4413  156.6353 N   0  0  0  0  0  0  0  0  0  0  0  0
  152.6590  138.2612  156.0500 C   0  0  0  0  0  0  0  0  0  0  0  0
  151.6228  137.4347  156.2083 N   0  0  0  0  0  0  0  0  0  0  0  0
  150.7194  137.9366  157.0987 C   0  0  0  0  0  0  0  0  0  0  0  0
  150.8220  139.1715  157.7979 C   0  0  0  0  0  0  0  0  0  0  0  0
  149.7085  139.3513  158.6099 N   0  0  0  0  0  0  0  0  0  0  0  0
  148.9856  138.2854  158.3989 C   0  0  0  0  0  0  0  0  0  0  0  0
  149.5155  137.3865  157.5018 N   0  0  0  0  0  0  0  0  0  0  0  0
  148.9154  136.1378  157.0701 C   0  0  0  0  0  0  0  0  0  0  0  0
  149.4855  135.6297  155.7289 C   0  0  2  0  0  0  0  0  0  0  0  0
  149.0335  136.5110  154.7205 O   0  0  0  0  0  0  0  0  0  0  0  0
  149.0674  134.1870  155.3666 C   0  0  1  0  0  0  0  0  0  0  0  0
  149.4861  133.7296  153.9684 C   0  0  0  0  0  0  0  0  0  0  0  0
  149.4855  132.2134  154.0785 C   0  0  0  0  0  0  0  0  0  0  0  0
  149.5638  131.9543  155.5852 C   0  0  0  0  0  0  0  0  0  0  0  0
  149.7487  133.2350  156.1706 O   0  0  0  0  0  0  0  0  0  0  0  0
  154.4858  140.2643  161.1855 C   0  0  0  0  0  0  0  0  0  0  0  0
  154.8136  138.9205  161.6195 N   0  0  0  0  0  0  0  0  0  0  0  0
  153.3206  138.0948  158.9572 H   0  0  0  0  0  0  0  0  0  0  0  0
  152.1922  138.4918  160.2566 H   0  0  0  0  0  0  0  0  0  0  0  0
  154.4591  140.0497  159.0742 H   0  0  0  0  0  0  0  0  0  0  0  0
  151.7421  140.8959  160.0749 H   0  0  0  0  0  0  0  0  0  0  0  0
  153.2360  142.6240  161.0158 H   0  0  0  0  0  0  0  0  0  0  0  0
  153.9987  142.8562  159.4656 H   0  0  0  0  0  0  0  0  0  0  0  0
  151.0835  143.4200  160.1480 H   0  0  0  0  0  0  0  0  0  0  0  0
  152.3326  144.6090  159.8475 H   0  0  0  0  0  0  0  0  0  0  0  0
  150.9050  144.2485  157.8178 H   0  0  0  0  0  0  0  0  0  0  0  0
  152.5756  143.8318  157.5077 H   0  0  0  0  0  0  0  0  0  0  0  0
  150.3194  141.8728  158.1612 H   0  0  0  0  0  0  0  0  0  0  0  0
  151.1073  142.0721  156.6080 H   0  0  0  0  0  0  0  0  0  0  0  0
  153.4168  137.9325  155.3543 H   0  0  0  0  0  0  0  0  0  0  0  0
  148.0352  138.1283  158.8878 H   0  0  0  0  0  0  0  0  0  0  0  0
  149.0636  135.3924  157.8527 H   0  0  0  0  0  0  0  0  0  0  0  0
  147.8385  136.2915  156.9887 H   0  0  0  0  0  0  0  0  0  0  0  0
  150.5744  135.6908  155.7520 H   0  0  0  0  0  0  0  0  0  0  0  0
  149.1289  136.0835  153.8832 H   0  0  0  0  0  0  0  0  0  0  0  0
  147.9902  134.0596  155.4908 H   0  0  0  0  0  0  0  0  0  0  0  0
  148.8221  134.0969  153.1853 H   0  0  0  0  0  0  0  0  0  0  0  0
  150.4953  134.0800  153.7466 H   0  0  0  0  0  0  0  0  0  0  0  0
  148.5681  131.7896  153.6684 H   0  0  0  0  0  0  0  0  0  0  0  0
  150.3285  131.7768  153.5423 H   0  0  0  0  0  0  0  0  0  0  0  0
  148.6319  131.5214  155.9516 H   0  0  0  0  0  0  0  0  0  0  0  0
  150.3808  131.2844  155.8539 H   0  0  0  0  0  0  0  0  0  0  0  0
  155.3873  140.8598  161.0377 H   0  0  0  0  0  0  0  0  0  0  0  0
  153.8882  140.7433  161.9593 H   0  0  0  0  0  0  0  0  0  0  0  0
  155.4750  138.7335  162.3594 H   0  0  0  0  0  0  0  0  0  0  0  0
  1  2  2  0  0  0  0
  2 29  1  0  0  0  0
  2  3  1  0  0  0  0
  3  4  1  0  0  0  0
  3 30  1  0  0  0  0
  3 31  1  0  0  0  0
  4  5  1  0  0  0  0
  4 28  1  0  0  0  0
  4 32  1  0  0  0  0
  5 10  1  0  0  0  0
  5  6  1  0  0  0  0
  5 33  1  0  0  0  0
  6  7  1  0  0  0  0
  6 34  1  0  0  0  0
  6 35  1  0  0  0  0
  7  8  1  0  0  0  0
  7 36  1  0  0  0  0
  7 37  1  0  0  0  0
  8  9  1  0  0  0  0
  8 38  1  0  0  0  0
  8 39  1  0  0  0  0
  9 10  1  0  0  0  0
  9 40  1  0  0  0  0
  9 41  1  0  0  0  0
 10 11  1  0  0  0  0
 11 16  1  0  0  0  0
 11 12  2  0  0  0  0
 12 13  1  0  0  0  0
 13 14  2  0  0  0  0
 13 42  1  0  0  0  0
 14 15  1  0  0  0  0
 15 19  1  0  0  0  0
 15 16  2  0  0  0  0
 16 17  1  0  0  0  0
 17 18  2  0  0  0  0
 18 19  1  0  0  0  0
 18 43  1  0  0  0  0
 19 20  1  0  0  0  0
 20 21  1  0  0  0  0
 20 44  1  0  0  0  0
 20 45  1  0  0  0  0
 21 22  1  0  0  0  0
 21 23  1  0  0  0  0
 21 46  1  0  0  0  0
 22 47  1  0  0  0  0
 23 27  1  0  0  0  0
 23 24  1  0  0  0  0
 23 48  1  0  0  0  0
 24 25  1  0  0  0  0
 24 49  1  0  0  0  0
 24 50  1  0  0  0  0
 25 26  1  0  0  0  0
 25 51  1  0  0  0  0
 25 52  1  0  0  0  0
 26 27  1  0  0  0  0
 26 53  1  0  0  0  0
 26 54  1  0  0  0  0
 28 29  1  0  0  0  0
 28 55  1  0  0  0  0
 28 56  1  0  0  0  0
 29 57  1  0  0  0  0
M  END
> <s_m_source_file>
AV-unprocessed.smi

> <i_m_source_file_index>
203

> <i_lp_mmshare_version>
43012

> <i_f3d_flags>
0

> <s_epik_input>
Tz1DMVtDSDJdW0NASF0oW0NIMl1bTkhdMSlbQ0BASF0yW0NIMl1bQ0gyXVtDSDJdW0NIMl1OMmMobltjSF1uMyljKGMzNCluW2NIXW40W0NIMl1bQ0BIXShbT0hdKVtDQEBIXTVbQ0gyXVtDSDJdW0NIMl1PNQ==

> <s_epik_cmdline>
J2VwaWtfcHl0aG9uJywgJy1waCcsICc3LjAnLCAnLXRuJywgJzgnLCAnLW1hJywgJzIwMCcsICctbWV0YWxfYmluZGluZycsICctaW1hZScsICc8aW5maWxlLm1hZT4nLCAnLW9tYWUnLCAnPG91dGZpbGUubWFlPic=

> <r_lp_tautomer_probability>
1

> <r_epik_Ionization_Penalty>
0.00175146

> <r_epik_Ionization_Penalty_Charging>
0

> <r_epik_Ionization_Penalty_Neutral>
0.00175146

> <r_epik_State_Penalty>
0.00109045

> <r_epik_Charging_Adjusted_Penalty>
0.00109045

> <i_epik_Tot_Q>
0

> <i_epik_Tot_abs_Q>
0

> <r_epik_Metal_State_Penalty>
-0

> <b_epik_Metal_Only>
0

> <s_lp_Force_Field>
OPLS_2005

> <r_lp_Energy>
55.4973

> <b_lp_Chiralities_Consistent>
1

> <s_lp_Variant>
AV-unprocessed.smi:203-11

> <Gold.Version>
5.8.1

> <Gold.Id.Protein>
6NUR|6NUR_protein|mol2

> <Gold.PLP.Fitness>
45.9737

> <Gold.PLP.PLP>
-41.7479

> <Gold.PLP.part.hbond>
-2.0382

> <Gold.PLP.part.metal>
0.0000

> <Gold.PLP.part.buried>
-6.2866

> <Gold.PLP.part.nonpolar>
-34.0924

> <Gold.PLP.part.repulsive>
0.0000

> <Gold.PLP.ligand.clash>
0.0000

> <Gold.PLP.ligand.torsion>
0.9317

> <Gold.PLP.Chemscore.Hbond>
1.9280

> <Gold.PLP.Chemscore.CHOScore>
0.0000

> <Gold.PLP.Chemscore.Metal>
0.0000

> <Gold.Chemscore.Hbonds>
donor molecule, donor type, donor heavy atom, donor atom, acceptor molecule, acceptor atom, score
      L1  H    22    47       P1  7948  0.96
      P1  H  7997  8009       L1    12  1.00

> <Gold.PLP.Chemscore.Internal.Correction>
0.3051

> <Gold.Rescore>
     Score         DG    S(hbond)    S(metal)    S(lipo)     H(rot)  DE(clash)    DE(int)     intcor
     14.55     -16.99       1.92        0.00     102.89       2.72       0.00       2.43       ----

> <Gold.Chemscore.Fitness>
14.5528

> <Gold.Chemscore.DG>
-16.9916

> <Gold.Chemscore.ZeroCoef>
-5.4800

> <Gold.Chemscore.Hbond>
1.9247

> <Gold.Chemscore.Metal>
0.0000

> <Gold.Chemscore.Lipo>
102.8944

> <Gold.Chemscore.Internal_Hbond>
0.0000

> <Gold.Chemscore.DEClash>
0.0044

> <Gold.Chemscore.DEInternal>
2.4344

> <Gold.Chemscore.Rot>
2.7171

> <Gold.Chemscore.Internal.Correction>
   9.000000E+99

> <Gold.Chemscore.Hbonds>
donor molecule, donor type, donor heavy atom, donor atom, acceptor molecule, acceptor atom, score
      L1  H    22    47       P1  7948  0.81
      P1  H  7997  8009       L1    12  0.93

> <Gold.Chemscore.Hbond.Weighted>
-6.4286

> <Gold.Chemscore.Metal.Weighted>
-0.0000

> <Gold.Chemscore.Lipo.Weighted>
-12.0386

> <Gold.Chemscore.Internal_Hbond.Weighted>
0.0000

> <Gold.Chemscore.DEClash.Weighted>
0.0044

> <Gold.Chemscore.DEInternal.Weighted>
2.4344

> <Gold.Chemscore.Rot.Weighted>
6.9557

> <Gold.Chemscore.Internal.Correction.Weighted>
   9.000000E+99

> <Gold.Protein.RotatedTorsions>
[ 6907 6896 6895 6894 ] final   81.78 input  -60.11 | X-H torsion
[ 7974 7965 7964 7962 ] final   14.37 input  175.53 | X-H torsion
[ 8008 7997 7996 7995 ] final -172.28 input   59.86 | X-H torsion
[ 10167 10162 10161 10158 ] final  148.80 input  -65.29 | X-H torsion
[ 10718 10713 10712 10709 ] final -146.37 input   66.30 | X-H torsion
[ 10763 10752 10751 10750 ] final   75.37 input  -60.55 | X-H torsion
[ 11005 11000 10999 10996 ] final -108.57 input  -57.11 | X-H torsion

> <Gold.Protein.ActiveResidues>
 VAL166  LYS551  ARG553  GLY616  TRP617  ASP618  TYR619  PRO620  LYS621  CYS622 
 ASP623  PHE694  ASN695  SER759  ASP760  ASP761  ALA762  ILE779  LEU786  VAL792 
 PHE793  MET794  SER795  GLU796  ALA797  LYS798  CYS799  TRP800  GLU811  SER814 

> <Gold.Protein.RotatedAtoms>
  152.5279  134.3151  159.9127 H   0  0  0  0  0  0  0  0  0  0  0  0  # atno 6907 bound_to 6896
  151.3100  133.4078  159.2654 H   0  0  0  0  0  0  0  0  0  0  0  0  # atno 6908 bound_to 6896
  151.0046  134.9366  159.8030 H   0  0  0  0  0  0  0  0  0  0  0  0  # atno 6909 bound_to 6896
  146.2306  139.9050  142.8533 H   0  0  0  0  0  0  0  0  0  0  0  0  # atno 7974 bound_to 7965
  155.9425  140.1111  157.1043 H   0  0  0  0  0  0  0  0  0  0  0  0  # atno 8008 bound_to 7997
  154.4092  140.1216  156.5012 H   0  0  0  0  0  0  0  0  0  0  0  0  # atno 8009 bound_to 7997
  155.6943  140.3472  155.4909 H   0  0  0  0  0  0  0  0  0  0  0  0  # atno 8010 bound_to 7997
  139.4870  144.5651  151.7159 H   0  0  0  0  0  0  0  0  0  0  0  0  # atno 10167 bound_to 10162
  156.3941  130.7900  151.2105 H   0  0  0  0  0  0  0  0  0  0  0  0  # atno 10718 bound_to 10713
  153.0650  135.4991  154.8180 H   0  0  0  0  0  0  0  0  0  0  0  0  # atno 10763 bound_to 10752
  154.6940  135.2989  154.9440 H   0  0  0  0  0  0  0  0  0  0  0  0  # atno 10764 bound_to 10752
  154.0186  135.6745  153.4823 H   0  0  0  0  0  0  0  0  0  0  0  0  # atno 10765 bound_to 10752
  141.0894  133.9081  157.2110 H   0  0  0  0  0  0  0  0  0  0  0  0  # atno 11005 bound_to 11000
  145.2285  140.9964  143.4004 LP  0  0  0  0  0  0  0  0  0  0  0  0  # atno 17320 bound_to 7965
  144.9550  139.4041  143.6384 LP  0  0  0  0  0  0  0  0  0  0  0  0  # atno 17321 bound_to 7965
  140.5228  144.0852  150.6028 LP  0  0  0  0  0  0  0  0  0  0  0  0  # atno 17342 bound_to 10162
  140.3816  143.2800  152.0164 LP  0  0  0  0  0  0  0  0  0  0  0  0  # atno 17343 bound_to 10162
  157.7500  131.0307  150.4147 LP  0  0  0  0  0  0  0  0  0  0  0  0  # atno 17370 bound_to 10713
  156.4414  130.3992  149.6695 LP  0  0  0  0  0  0  0  0  0  0  0  0  # atno 17371 bound_to 10713
  139.9718  135.0126  156.9530 LP  0  0  0  0  0  0  0  0  0  0  0  0  # atno 17394 bound_to 11000
  140.5287  134.0835  155.7310 LP  0  0  0  0  0  0  0  0  0  0  0  0  # atno 17395 bound_to 11000

$$$$
