AV-unprocessed.smi:907|AV-procd|sdf|4111|dock2
  -GOLD-   22720 2 03D 1   1.00000     0.00000
 Structure written by MMmdl.
 54 57  0  0  0  0  0  0  0  0  3 V2000
  149.6568  140.6730  154.1617 O   0  0  0  0  0  0  0  0  0  0  0  0
  148.6102  140.6375  154.8092 C   0  0  0  0  0  0  0  0  0  0  0  0
  148.6024  140.6797  156.1516 N   0  0  0  0  0  0  0  0  0  0  0  0
  149.7958  140.7744  156.9814 C   0  0  0  0  0  0  0  0  0  0  0  0
  150.6445  141.9870  156.5751 C   0  0  0  0  0  0  0  0  0  0  0  0
  151.0984  142.7992  157.7731 C   0  0  0  0  0  0  0  0  0  0  0  0
  151.9628  142.2689  158.7554 C   0  0  0  0  0  0  0  0  0  0  0  0
  152.3496  143.0792  159.8432 C   0  0  0  0  0  0  0  0  0  0  0  0
  151.8664  144.4017  159.9249 C   0  0  0  0  0  0  0  0  0  0  0  0
  151.0069  144.8808  158.9153 C   0  0  0  0  0  0  0  0  0  0  0  0
  150.6583  144.0732  157.8896 N   0  3  0  0  0  0  0  0  0  0  0  0
  147.3870  140.5078  154.2363 N   0  0  0  0  0  0  0  0  0  0  0  0
  147.0797  140.6013  152.8042 C   0  0  0  0  0  0  0  0  0  0  0  0
  146.7695  139.1952  152.2552 C   0  0  0  0  0  0  0  0  0  0  0  0
  145.6841  138.5142  153.0223 N   0  3  0  0  0  0  0  0  0  0  0  0
  145.3870  137.1208  152.5661 C   0  0  1  0  0  0  0  0  0  0  0  0
  146.3587  136.0856  153.1936 C   0  0  0  0  0  0  0  0  0  0  0  0
  145.4223  135.0446  153.8288 C   0  0  2  0  0  0  0  0  0  0  0  0
  144.7061  134.2515  152.7231 C   0  0  0  0  0  0  0  0  0  0  0  0
  143.7122  135.2844  152.1647 C   0  0  0  0  0  0  0  0  0  0  0  0
  144.0105  136.5431  153.0039 C   0  0  1  0  0  0  0  0  0  0  0  0
  144.3079  135.9310  154.3682 C   0  0  0  0  0  0  0  0  0  0  0  0
  145.9218  138.5723  154.4959 C   0  0  0  0  0  0  0  0  0  0  0  0
  146.2298  140.0008  154.9748 C   0  0  0  0  0  0  0  0  0  0  0  0
  147.7132  140.6262  156.6265 H   0  0  0  0  0  0  0  0  0  0  0  0
  149.4963  140.8587  158.0273 H   0  0  0  0  0  0  0  0  0  0  0  0
  150.3819  139.8587  156.8854 H   0  0  0  0  0  0  0  0  0  0  0  0
  151.5230  141.6596  156.0170 H   0  0  0  0  0  0  0  0  0  0  0  0
  150.0758  142.6323  155.9040 H   0  0  0  0  0  0  0  0  0  0  0  0
  152.3269  141.2545  158.6783 H   0  0  0  0  0  0  0  0  0  0  0  0
  153.0091  142.6911  160.6057 H   0  0  0  0  0  0  0  0  0  0  0  0
  152.1512  145.0388  160.7496 H   0  0  0  0  0  0  0  0  0  0  0  0
  150.5908  145.8776  158.8973 H   0  0  0  0  0  0  0  0  0  0  0  0
  146.2122  141.2498  152.6713 H   0  0  0  0  0  0  0  0  0  0  0  0
  147.8718  141.0568  152.2103 H   0  0  0  0  0  0  0  0  0  0  0  0
  146.4865  139.3169  151.2118 H   0  0  0  0  0  0  0  0  0  0  0  0
  147.6702  138.5798  152.2784 H   0  0  0  0  0  0  0  0  0  0  0  0
  145.4577  137.1044  151.4771 H   0  0  0  0  0  0  0  0  0  0  0  0
  147.0301  135.6457  152.4551 H   0  0  0  0  0  0  0  0  0  0  0  0
  146.9747  136.5271  153.9783 H   0  0  0  0  0  0  0  0  0  0  0  0
  145.9105  134.4139  154.5726 H   0  0  0  0  0  0  0  0  0  0  0  0
  145.3975  133.8836  151.9639 H   0  0  0  0  0  0  0  0  0  0  0  0
  144.1755  133.3936  153.1383 H   0  0  0  0  0  0  0  0  0  0  0  0
  143.8423  135.4538  151.0952 H   0  0  0  0  0  0  0  0  0  0  0  0
  142.6865  134.9487  152.3240 H   0  0  0  0  0  0  0  0  0  0  0  0
  143.1677  137.2300  152.9838 H   0  0  0  0  0  0  0  0  0  0  0  0
  143.4700  135.3672  154.7825 H   0  0  0  0  0  0  0  0  0  0  0  0
  144.6489  136.6598  155.1055 H   0  0  0  0  0  0  0  0  0  0  0  0
  145.0565  138.2001  155.0428 H   0  0  0  0  0  0  0  0  0  0  0  0
  146.7560  137.9169  154.7515 H   0  0  0  0  0  0  0  0  0  0  0  0
  146.3838  140.0070  156.0549 H   0  0  0  0  0  0  0  0  0  0  0  0
  145.3715  140.6505  154.7968 H   0  0  0  0  0  0  0  0  0  0  0  0
  144.8478  139.0540  152.8499 H   0  0  0  0  0  0  0  0  0  0  0  0
  150.0355  144.4422  157.1706 H   0  0  0  0  0  0  0  0  0  0  0  0
  1  2  2  0  0  0  0
  2  3  1  0  0  0  0
  2 12  1  0  0  0  0
  3  4  1  0  0  0  0
  3 25  1  0  0  0  0
  4  5  1  0  0  0  0
  4 26  1  0  0  0  0
  4 27  1  0  0  0  0
  5  6  1  0  0  0  0
  5 28  1  0  0  0  0
  5 29  1  0  0  0  0
  6 11  1  0  0  0  0
  6  7  2  0  0  0  0
  7  8  1  0  0  0  0
  7 30  1  0  0  0  0
  8  9  2  0  0  0  0
  8 31  1  0  0  0  0
  9 10  1  0  0  0  0
  9 32  1  0  0  0  0
 10 11  2  0  0  0  0
 10 33  1  0  0  0  0
 11 54  1  0  0  0  0
 12 24  1  0  0  0  0
 12 13  1  0  0  0  0
 13 14  1  0  0  0  0
 13 34  1  0  0  0  0
 13 35  1  0  0  0  0
 14 15  1  0  0  0  0
 14 36  1  0  0  0  0
 14 37  1  0  0  0  0
 15 16  1  0  0  0  0
 15 23  1  0  0  0  0
 15 53  1  0  0  0  0
 16 21  1  0  0  0  0
 16 17  1  0  0  0  0
 16 38  1  0  0  0  0
 17 18  1  0  0  0  0
 17 39  1  0  0  0  0
 17 40  1  0  0  0  0
 18 22  1  0  0  0  0
 18 19  1  0  0  0  0
 18 41  1  0  0  0  0
 19 20  1  0  0  0  0
 19 42  1  0  0  0  0
 19 43  1  0  0  0  0
 20 21  1  0  0  0  0
 20 44  1  0  0  0  0
 20 45  1  0  0  0  0
 21 22  1  0  0  0  0
 21 46  1  0  0  0  0
 22 47  1  0  0  0  0
 22 48  1  0  0  0  0
 23 24  1  0  0  0  0
 23 49  1  0  0  0  0
 23 50  1  0  0  0  0
 24 51  1  0  0  0  0
 24 52  1  0  0  0  0
M  CHG  1  11   1
M  CHG  1  15   1
M  END
> <s_m_source_file>
AV-unprocessed.smi

> <i_m_source_file_index>
907

> <i_lp_mmshare_version>
43012

> <i_f3d_flags>
0

> <s_epik_input>
W0NIMl0xW0NIMl1bQ0BASF0oW0NIMl0yKVtDQEBIXShbQ0gyXVtDQEhdMTIpTihbQ0gyXVtDSDJdMylbQ0gyXVtDSDJdTjNDKD1PKVtOSF1bQ0gyXVtDSDJdYzRbY0hdW2NIXVtjSF1bY0hdbjQ=

> <s_epik_cmdline>
J2VwaWtfcHl0aG9uJywgJy1waCcsICc3LjAnLCAnLXRuJywgJzgnLCAnLW1hJywgJzIwMCcsICctbWV0YWxfYmluZGluZycsICctaW1hZScsICc8aW5maWxlLm1hZT4nLCAnLW9tYWUnLCAnPG91dGZpbGUubWFlPic=

> <r_epik_Ionization_Penalty>
1.63018

> <r_epik_Ionization_Penalty_Charging>
1.63015

> <r_epik_Ionization_Penalty_Neutral>
2.64641e-05

> <r_epik_State_Penalty>
1.72761

> <r_epik_Charging_Adjusted_Penalty>
3.35777

> <i_epik_Tot_Q>
2

> <i_epik_Tot_abs_Q>
2

> <r_epik_Metal_State_Penalty>
1.76501

> <b_epik_Metal_Only>
0

> <s_lp_Force_Field>
OPLS_2005

> <r_lp_Energy>
104.704

> <b_lp_Chiralities_Consistent>
1

> <s_lp_Variant>
AV-unprocessed.smi:907-6

> <Gold.Version>
5.8.1

> <Gold.Id.Protein>
6NUR|6NUR_protein|mol2

> <Gold.PLP.Fitness>
53.8130

> <Gold.PLP.PLP>
-41.6909

> <Gold.PLP.part.hbond>
-3.0000

> <Gold.PLP.part.metal>
0.0000

> <Gold.PLP.part.buried>
-4.2899

> <Gold.PLP.part.nonpolar>
-35.3502

> <Gold.PLP.part.repulsive>
1.1070

> <Gold.PLP.ligand.clash>
0.5785

> <Gold.PLP.ligand.torsion>
0.7597

> <Gold.PLP.Chemscore.Hbond>
4.7040

> <Gold.PLP.Chemscore.CHOScore>
0.0000

> <Gold.PLP.Chemscore.Metal>
0.0000

> <Gold.Chemscore.Hbonds>
donor molecule, donor type, donor heavy atom, donor atom, acceptor molecule, acceptor atom, score
      L1  H    11    54       P1  8028  2.00
      L1  H    15    53       P1 10175  2.00
      P1  H  7989  7998       L1     1  0.57

> <Gold.PLP.Chemscore.Internal.Correction>
0.1080

> <Gold.Rescore>
     Score         DG    S(hbond)    S(metal)    S(lipo)     H(rot)  DE(clash)    DE(int)     intcor
     20.46     -24.03       2.72        0.00     112.91       1.46       1.49       2.08       ----

> <Gold.Chemscore.Fitness>
20.4616

> <Gold.Chemscore.DG>
-24.0322

> <Gold.Chemscore.ZeroCoef>
-5.4800

> <Gold.Chemscore.Hbond>
2.7162

> <Gold.Chemscore.Metal>
0.0000

> <Gold.Chemscore.Lipo>
112.9107

> <Gold.Chemscore.Internal_Hbond>
0.0000

> <Gold.Chemscore.DEClash>
1.4940

> <Gold.Chemscore.DEInternal>
2.0766

> <Gold.Chemscore.Rot>
1.4572

> <Gold.Chemscore.Internal.Correction>
   9.000000E+99

> <Gold.Chemscore.Hbonds>
donor molecule, donor type, donor heavy atom, donor atom, acceptor molecule, acceptor atom, score
      L1  H    11    54       P1  8028  0.50
      L1  H    15    53       P1 10175  1.00
      P1  H  7989  7998       L1     1  0.56
      P1  H  8011  8017       L1     1  0.01

> <Gold.Chemscore.Hbond.Weighted>
-9.0721

> <Gold.Chemscore.Metal.Weighted>
-0.0000

> <Gold.Chemscore.Lipo.Weighted>
-13.2106

> <Gold.Chemscore.Internal_Hbond.Weighted>
0.0000

> <Gold.Chemscore.DEClash.Weighted>
1.4940

> <Gold.Chemscore.DEInternal.Weighted>
2.0766

> <Gold.Chemscore.Rot.Weighted>
3.7305

> <Gold.Chemscore.Internal.Correction.Weighted>
   9.000000E+99

> <Gold.Protein.RotatedTorsions>
[ 6907 6896 6895 6894 ] final -150.41 input  -60.11 | X-H torsion
[ 7974 7965 7964 7962 ] final   -9.73 input  175.53 | X-H torsion
[ 8008 7997 7996 7995 ] final  119.01 input   59.86 | X-H torsion
[ 10167 10162 10161 10158 ] final   15.26 input  -65.29 | X-H torsion
[ 10718 10713 10712 10709 ] final  130.19 input   66.30 | X-H torsion
[ 10763 10752 10751 10750 ] final   96.54 input  -60.55 | X-H torsion
[ 11005 11000 10999 10996 ] final  -67.06 input  -57.11 | X-H torsion

> <Gold.Protein.ActiveResidues>
 VAL166  LYS551  ARG553  GLY616  TRP617  ASP618  TYR619  PRO620  LYS621  CYS622 
 ASP623  PHE694  ASN695  SER759  ASP760  ASP761  ALA762  ILE779  LEU786  VAL792 
 PHE793  MET794  SER795  GLU796  ALA797  LYS798  CYS799  TRP800  GLU811  SER814 

> <Gold.Protein.RotatedAtoms>
  151.1981  133.4627  159.2595 H   0  0  0  0  0  0  0  0  0  0  0  0  # atno 6907 bound_to 6896
  151.1096  135.0019  159.8498 H   0  0  0  0  0  0  0  0  0  0  0  0  # atno 6908 bound_to 6896
  152.5449  134.1902  159.8724 H   0  0  0  0  0  0  0  0  0  0  0  0  # atno 6909 bound_to 6896
  146.2243  140.2660  142.8354 H   0  0  0  0  0  0  0  0  0  0  0  0  # atno 7974 bound_to 7965
  156.2575  140.2862  156.0924 H   0  0  0  0  0  0  0  0  0  0  0  0  # atno 8008 bound_to 7997
  155.1448  140.0396  157.2824 H   0  0  0  0  0  0  0  0  0  0  0  0  # atno 8009 bound_to 7997
  154.6503  140.2543  155.7227 H   0  0  0  0  0  0  0  0  0  0  0  0  # atno 8010 bound_to 7997
  140.5879  143.8852  150.6847 H   0  0  0  0  0  0  0  0  0  0  0  0  # atno 10167 bound_to 10162
  157.5085  131.1096  150.9327 H   0  0  0  0  0  0  0  0  0  0  0  0  # atno 10718 bound_to 10713
  153.2662  135.4215  155.0943 H   0  0  0  0  0  0  0  0  0  0  0  0  # atno 10763 bound_to 10752
  154.8439  135.3461  154.6308 H   0  0  0  0  0  0  0  0  0  0  0  0  # atno 10764 bound_to 10752
  153.6728  135.7043  153.5199 H   0  0  0  0  0  0  0  0  0  0  0  0  # atno 10765 bound_to 10752
  141.1498  133.6711  156.6235 H   0  0  0  0  0  0  0  0  0  0  0  0  # atno 11005 bound_to 11000
  144.9304  140.7968  143.5693 LP  0  0  0  0  0  0  0  0  0  0  0  0  # atno 17320 bound_to 7965
  145.2603  139.1995  143.4895 LP  0  0  0  0  0  0  0  0  0  0  0  0  # atno 17321 bound_to 7965
  140.2368  143.3694  152.1520 LP  0  0  0  0  0  0  0  0  0  0  0  0  # atno 17342 bound_to 10162
  139.5209  144.7039  151.5412 LP  0  0  0  0  0  0  0  0  0  0  0  0  # atno 17343 bound_to 10162
  156.9975  130.5587  149.5308 LP  0  0  0  0  0  0  0  0  0  0  0  0  # atno 17370 bound_to 10713
  156.0274  130.5367  150.8442 LP  0  0  0  0  0  0  0  0  0  0  0  0  # atno 17371 bound_to 10713
  140.3522  134.7759  157.4475 LP  0  0  0  0  0  0  0  0  0  0  0  0  # atno 17394 bound_to 11000
  140.0852  134.5677  155.8500 LP  0  0  0  0  0  0  0  0  0  0  0  0  # atno 17395 bound_to 11000

$$$$
