#       Name:                AV-unprocessed.smi:157
#       Creating user name   scv26
#       Creation time:       Thu Mar 26 18:59:41 2020


#       File generated by GOLD software.
#

@<TRIPOS>MOLECULE
AV-unprocessed.smi:157
    45    47     1
SMALL
NO_CHARGES


@<TRIPOS>ATOM
      1 ****        -3.0977   1.1823  -3.2811 O.3            1 S1                 0.0000
      2 ****        -2.6852  -0.0594  -2.7512 C.3            1 S1                 0.0000
      3 ****        -1.1675  -0.2271  -2.9231 C.3            1 S1                 0.0000
      4 ****        -0.4992   0.4894  -1.8900 O.3            1 S1                 0.0000
      5 ****         0.7118  -0.1403  -1.6596 C.3            1 S1                 0.0000
      6 ****         1.2163   0.2731  -0.3154 N.pl3          1 S1                 0.0000
      7 ****         2.4691   0.6951  -0.0481 C.2            1 S1                 0.0000
      8 ****         2.6778   1.0201   1.2165 N.pl3          1 S1                 1.0000
      9 ****         1.4838   0.8159   1.8751 C.2            1 S1                 0.0000
     10 ****         0.5891   0.3454   0.9101 C.2            1 S1                 0.0000
     11 ****        -0.7602  -0.0201   1.0429 N.2            1 S1                 0.0000
     12 ****        -1.3156  -0.2631   2.1852 C.2            1 S1                 0.0000
     13 ****        -0.7850  -0.1341   3.4578 N.pl3          1 S1                 0.0000
     14 ****        -0.0533   1.0427   3.8915 C.3            1 S1                 0.0000
     15 ****         1.3756   1.1196   3.3372 C.3            1 S1                 0.0000
     16 ****         2.2107   0.2965   4.1252 O.3            1 S1                 0.0000
     17 ****         0.4105  -1.6318  -1.7131 C.3            1 S1                 0.0000
     18 ****        -0.6903  -1.6888  -2.7641 C.3            1 S1                 0.0000
     19 ****        -0.1727  -2.1780  -3.9856 O.3            1 S1                 0.0000
     20 ****        -0.8422   0.1692  -3.8875 H              1 S1                 0.0000
     21 ****         1.4628   0.1812  -2.3836 H              1 S1                 0.0000
     22 ****         1.7324   2.1388   3.4894 H              1 S1                 0.0000
     23 ****        -1.4920  -2.3495  -2.4310 H              1 S1                 0.0000
     24 ****        -4.0358   1.2518  -3.1911 H              1 S1                 0.0000
     25 ****        -2.9783  -0.1444  -1.7042 H              1 S1                 0.0000
     26 ****        -3.2138  -0.8385  -3.3014 H              1 S1                 0.0000
     27 ****         3.2309   0.7616  -0.8041 H              1 S1                 0.0000
     28 ****        -2.3482  -0.6144   2.2056 H              1 S1                 0.0000
     29 ****        -1.2660  -0.5750   4.2291 H              1 S1                 0.0000
     30 ****        -0.6110   1.9164   3.5507 H              1 S1                 0.0000
     31 ****        -0.0506   1.0934   4.9810 H              1 S1                 0.0000
     32 ****         3.1115   0.4787   3.9062 H              1 S1                 0.0000
     33 ****         1.3060  -2.2064  -1.9539 H              1 S1                 0.0000
     34 ****         0.0244  -1.9687  -0.7506 H              1 S1                 0.0000
     35 ****         0.5094  -1.5944  -4.2808 H              1 S1                 0.0000
     36 ****         3.5435   1.3616   1.6143 H              1 S1                 0.0000
     37 ****        -2.8471   1.2361  -4.2476 LP             1 S1                 0.0000
     38 ****        -2.6552   1.9261  -2.7801 LP             1 S1                 0.0000
     39 ****        -1.0519   0.4810  -1.0566 LP             1 S1                 0.0000
     40 ****        -0.3429   1.4346  -2.1767 LP             1 S1                 0.0000
     41 ****        -1.3174  -0.0960   0.2160 LP             1 S1                 0.0000
     42 ****         2.0073  -0.6648   3.9393 LP             1 S1                 0.0000
     43 ****         2.0547   0.4889   5.0941 LP             1 S1                 0.0000
     44 ****        -0.9019  -2.2162  -4.6688 LP             1 S1                 0.0000
     45 ****         0.2041  -3.0941  -3.8486 LP             1 S1                 0.0000
@<TRIPOS>BOND
    1    1    2 1     
    2    1   24 1     
    3    2    3 1     
    4    2   25 1     
    5    2   26 1     
    6    3   20 1     
    7    3   18 1     
    8    3    4 1     
    9    4    5 1     
   10    5   21 1     
   11    5    6 1     
   12    5   17 1     
   13    6   10 1     
   14    6    7 1     
   15    7    8 2     
   16    7   27 1     
   17    8    9 1     
   18    8   36 1     
   19    9   15 1     
   20    9   10 2     
   21   10   11 1     
   22   11   12 2     
   23   12   13 1     
   24   12   28 1     
   25   13   14 1     
   26   13   29 1     
   27   14   15 1     
   28   14   30 1     
   29   14   31 1     
   30   15   22 1     
   31   15   16 1     
   32   16   32 1     
   33   17   18 1     
   34   17   33 1     
   35   17   34 1     
   36   18   23 1     
   37   18   19 1     
   38   19   35 1     
   39    1   37 1     
   40    1   38 1     
   41    4   39 1     
   42    4   40 1     
   43   11   41 1     
   44   16   42 1     
   45   16   43 1     
   46   19   44 1     
   47   19   45 1     
@<TRIPOS>SUBSTRUCTURE
      1 S1             1
@<TRIPOS>SET
LONE_PAIRS      STATIC     ATOMS    <user>   **** ""
9 37 38 39 40 41 42 43 44 45
DONOR_HYDROGENS      STATIC     ATOMS    <user>   **** ""
5 24 36 29 32 35
ATOM$BLUE        STATIC     ATOMS    COLORGROUP SYSTEM
9 37 38 39 40 41 42 43 44 45
ATOM$RED        STATIC     ATOMS    COLORGROUP SYSTEM
5 24 36 29 32 35
