AV-unprocessed.smi:3028|AV-procd|sdf|11522|dock3
  -GOLD-   2272016463D 1   1.00000     0.00000
 Structure written by MMmdl.
 47 48  0  0  0  0  0  0  0  0  1 V2000
  146.4177  128.4239  152.0253 C   0  0  0  0  0  0  0  0  0  0  0  0
  146.2710  129.9153  152.1115 C   0  0  0  0  0  0  0  0  0  0  0  0
  146.5678  130.7612  153.2173 C   0  0  0  0  0  0  0  0  0  0  0  0
  146.3221  132.0368  152.9698 N   0  0  0  0  0  0  0  0  0  0  0  0
  145.8653  132.0560  151.6990 N   0  0  0  0  0  0  0  0  0  0  0  0
  145.4862  133.3221  151.0822 C   0  0  1  0  0  0  0  0  0  0  0  0
  144.0321  133.2235  150.5830 C   0  0  0  0  0  0  0  0  0  0  0  0
  145.7297  134.5253  152.0380 C   0  0  2  0  0  0  0  0  0  0  0  0
  145.6016  135.8881  151.3351 C   0  0  0  0  0  0  0  0  0  0  0  0
  147.0892  134.4808  152.5725 N   0  0  0  0  0  0  0  0  0  0  0  0
  147.1250  134.4392  154.0408 C   0  0  0  0  0  0  0  0  0  0  0  0
  147.4297  135.8093  154.6661 C   0  0  0  0  0  0  0  0  0  0  0  0
  146.6201  136.3338  155.4298 O   0  0  0  0  0  0  0  0  0  0  0  0
  148.5934  136.4185  154.3808 N   0  0  0  0  0  0  0  0  0  0  0  0
  149.0678  137.7116  154.8686 C   0  0  0  0  0  0  0  0  0  0  0  0
  148.4129  138.8445  154.0644 C   0  0  0  0  0  0  0  0  0  0  0  0
  149.0118  140.2047  154.4576 C   0  0  0  0  0  0  0  0  0  0  0  0
  150.4234  140.1891  154.2725 O   0  0  0  0  0  0  0  0  0  0  0  0
  151.0798  139.2269  155.0905 C   0  0  0  0  0  0  0  0  0  0  0  0
  150.5960  137.8137  154.7299 C   0  0  0  0  0  0  0  0  0  0  0  0
  145.8244  130.7859  151.1585 C   0  0  0  0  0  0  0  0  0  0  0  0
  146.4371  127.9620  153.0124 H   0  0  0  0  0  0  0  0  0  0  0  0
  147.3401  128.1400  151.5188 H   0  0  0  0  0  0  0  0  0  0  0  0
  145.5938  127.9683  151.4758 H   0  0  0  0  0  0  0  0  0  0  0  0
  146.9490  130.4859  154.1896 H   0  0  0  0  0  0  0  0  0  0  0  0
  146.1132  133.4600  150.1989 H   0  0  0  0  0  0  0  0  0  0  0  0
  143.7645  134.0710  149.9524 H   0  0  0  0  0  0  0  0  0  0  0  0
  143.3258  133.1866  151.4128 H   0  0  0  0  0  0  0  0  0  0  0  0
  143.8864  132.3251  149.9822 H   0  0  0  0  0  0  0  0  0  0  0  0
  144.9977  134.5069  152.8475 H   0  0  0  0  0  0  0  0  0  0  0  0
  144.5810  136.0721  150.9998 H   0  0  0  0  0  0  0  0  0  0  0  0
  146.2567  135.9529  150.4654 H   0  0  0  0  0  0  0  0  0  0  0  0
  145.8616  136.7056  152.0089 H   0  0  0  0  0  0  0  0  0  0  0  0
  147.6033  135.2784  152.2262 H   0  0  0  0  0  0  0  0  0  0  0  0
  146.1609  134.0976  154.4193 H   0  0  0  0  0  0  0  0  0  0  0  0
  147.8755  133.7198  154.3604 H   0  0  0  0  0  0  0  0  0  0  0  0
  149.2199  135.9261  153.7606 H   0  0  0  0  0  0  0  0  0  0  0  0
  148.7909  137.8474  155.9150 H   0  0  0  0  0  0  0  0  0  0  0  0
  148.5671  138.6817  152.9966 H   0  0  0  0  0  0  0  0  0  0  0  0
  147.3348  138.8504  154.2274 H   0  0  0  0  0  0  0  0  0  0  0  0
  148.5848  140.9944  153.8392 H   0  0  0  0  0  0  0  0  0  0  0  0
  148.7736  140.4488  155.4941 H   0  0  0  0  0  0  0  0  0  0  0  0
  152.1556  139.3054  154.9336 H   0  0  0  0  0  0  0  0  0  0  0  0
  150.8950  139.4433  156.1437 H   0  0  0  0  0  0  0  0  0  0  0  0
  151.0895  137.0783  155.3641 H   0  0  0  0  0  0  0  0  0  0  0  0
  150.8919  137.5856  153.7048 H   0  0  0  0  0  0  0  0  0  0  0  0
  145.4808  130.6087  150.1501 H   0  0  0  0  0  0  0  0  0  0  0  0
  1  2  1  0  0  0  0
  1 22  1  0  0  0  0
  1 23  1  0  0  0  0
  1 24  1  0  0  0  0
  2 21  2  0  0  0  0
  2  3  1  0  0  0  0
  3  4  2  0  0  0  0
  3 25  1  0  0  0  0
  4  5  1  0  0  0  0
  5  6  1  0  0  0  0
  5 21  1  0  0  0  0
  6  7  1  0  0  0  0
  6  8  1  0  0  0  0
  6 26  1  0  0  0  0
  7 27  1  0  0  0  0
  7 28  1  0  0  0  0
  7 29  1  0  0  0  0
  8  9  1  0  0  0  0
  8 10  1  0  0  0  0
  8 30  1  0  0  0  0
  9 31  1  0  0  0  0
  9 32  1  0  0  0  0
  9 33  1  0  0  0  0
 10 11  1  0  0  0  0
 10 34  1  0  0  0  0
 11 12  1  0  0  0  0
 11 35  1  0  0  0  0
 11 36  1  0  0  0  0
 12 13  2  0  0  0  0
 12 14  1  0  0  0  0
 14 15  1  0  0  0  0
 14 37  1  0  0  0  0
 15 20  1  0  0  0  0
 15 16  1  0  0  0  0
 15 38  1  0  0  0  0
 16 17  1  0  0  0  0
 16 39  1  0  0  0  0
 16 40  1  0  0  0  0
 17 18  1  0  0  0  0
 17 41  1  0  0  0  0
 17 42  1  0  0  0  0
 18 19  1  0  0  0  0
 19 20  1  0  0  0  0
 19 43  1  0  0  0  0
 19 44  1  0  0  0  0
 20 45  1  0  0  0  0
 20 46  1  0  0  0  0
 21 47  1  0  0  0  0
M  END
> <s_m_source_file>
AV-unprocessed.smi

> <i_m_source_file_index>
3028

> <i_lp_mmshare_version>
43012

> <i_f3d_flags>
0

> <s_epik_input>
W0NIM11jMVtjSF1ubihbY0hdMSlbQ0BIXShbQ0gzXSlbQ0BIXShbQ0gzXSlbTkhdW0NIMl1DKD1PKVtOSF1bQ0hdMltDSDJdW0NIMl1PW0NIMl1bQ0gyXTI=

> <s_epik_cmdline>
J2VwaWtfcHl0aG9uJywgJy1waCcsICc3LjAnLCAnLXRuJywgJzgnLCAnLW1hJywgJzIwMCcsICctbWV0YWxfYmluZGluZycsICctaW1hZScsICc8aW5maWxlLm1hZT4nLCAnLW9tYWUnLCAnPG91dGZpbGUubWFlPic=

> <r_lp_tautomer_probability>
1

> <r_epik_Ionization_Penalty>
0.88617

> <r_epik_Ionization_Penalty_Charging>
0

> <r_epik_Ionization_Penalty_Neutral>
0.88617

> <r_epik_State_Penalty>
0.921066

> <r_epik_Charging_Adjusted_Penalty>
0.921066

> <i_epik_Tot_Q>
0

> <i_epik_Tot_abs_Q>
0

> <r_epik_Metal_State_Penalty>
0.917309

> <b_epik_Metal_Only>
0

> <s_lp_Force_Field>
OPLS_2005

> <r_lp_Energy>
17.6671

> <b_lp_Chiralities_Consistent>
1

> <s_lp_Variant>
AV-unprocessed.smi:3028-6

> <Gold.Version>
5.8.1

> <Gold.Id.Protein>
6NUR|6NUR_protein|mol2

> <Gold.PLP.Fitness>
40.5467

> <Gold.PLP.PLP>
-36.1800

> <Gold.PLP.part.hbond>
-2.9900

> <Gold.PLP.part.metal>
0.0000

> <Gold.PLP.part.buried>
-4.8216

> <Gold.PLP.part.nonpolar>
-29.4468

> <Gold.PLP.part.repulsive>
0.2875

> <Gold.PLP.ligand.clash>
0.0000

> <Gold.PLP.ligand.torsion>
1.4098

> <Gold.PLP.Chemscore.Hbond>
2.3680

> <Gold.PLP.Chemscore.CHOScore>
0.0000

> <Gold.PLP.Chemscore.Metal>
0.0000

> <Gold.Chemscore.Hbonds>
donor molecule, donor type, donor heavy atom, donor atom, acceptor molecule, acceptor atom, score
      L1  H    10    34       P1  7948  1.00
      L1  H    14    37       P1  7948  0.35
      P1  H  7989  7998       L1    18  1.00

> <Gold.PLP.Chemscore.Internal.Correction>
0.0823

> <Gold.Rescore>
     Score         DG    S(hbond)    S(metal)    S(lipo)     H(rot)  DE(clash)    DE(int)     intcor
     16.18     -18.98       2.12        0.00      96.99       1.92       0.03       2.76       ----

> <Gold.Chemscore.Fitness>
16.1810

> <Gold.Chemscore.DG>
-18.9776

> <Gold.Chemscore.ZeroCoef>
-5.4800

> <Gold.Chemscore.Hbond>
2.1179

> <Gold.Chemscore.Metal>
0.0000

> <Gold.Chemscore.Lipo>
96.9850

> <Gold.Chemscore.Internal_Hbond>
0.0000

> <Gold.Chemscore.DEClash>
0.0333

> <Gold.Chemscore.DEInternal>
2.7634

> <Gold.Chemscore.Rot>
1.9233

> <Gold.Chemscore.Internal.Correction>
   9.000000E+99

> <Gold.Chemscore.Hbonds>
donor molecule, donor type, donor heavy atom, donor atom, acceptor molecule, acceptor atom, score
      L1  H    10    34       P1  7948  0.98
      L1  H    14    37       P1  7948  0.29
      P1  H  7989  7998       L1    18  0.38

> <Gold.Chemscore.Hbond.Weighted>
-7.0739

> <Gold.Chemscore.Metal.Weighted>
-0.0000

> <Gold.Chemscore.Lipo.Weighted>
-11.3472

> <Gold.Chemscore.Internal_Hbond.Weighted>
0.0000

> <Gold.Chemscore.DEClash.Weighted>
0.0333

> <Gold.Chemscore.DEInternal.Weighted>
2.7634

> <Gold.Chemscore.Rot.Weighted>
4.9235

> <Gold.Chemscore.Internal.Correction.Weighted>
   9.000000E+99

> <Gold.Protein.RotatedTorsions>
[ 6907 6896 6895 6894 ] final  -57.59 input  -60.11 | X-H torsion
[ 7974 7965 7964 7962 ] final  -59.14 input  175.53 | X-H torsion
[ 8008 7997 7996 7995 ] final   70.89 input   59.86 | X-H torsion
[ 10167 10162 10161 10158 ] final   87.79 input  -65.29 | X-H torsion
[ 10718 10713 10712 10709 ] final   35.55 input   66.30 | X-H torsion
[ 10763 10752 10751 10750 ] final  162.48 input  -60.55 | X-H torsion
[ 11005 11000 10999 10996 ] final  169.80 input  -57.11 | X-H torsion

> <Gold.Protein.ActiveResidues>
 VAL166  LYS551  ARG553  GLY616  TRP617  ASP618  TYR619  PRO620  LYS621  CYS622 
 ASP623  PHE694  ASN695  SER759  ASP760  ASP761  ALA762  ILE779  LEU786  VAL792 
 PHE793  MET794  SER795  GLU796  ALA797  LYS798  CYS799  TRP800  GLU811  SER814 

> <Gold.Protein.RotatedAtoms>
  150.8074  134.7207  159.6656 H   0  0  0  0  0  0  0  0  0  0  0  0  # atno 6907 bound_to 6896
  152.4193  134.5980  160.0002 H   0  0  0  0  0  0  0  0  0  0  0  0  # atno 6908 bound_to 6896
  151.6200  133.3303  159.3122 H   0  0  0  0  0  0  0  0  0  0  0  0  # atno 6909 bound_to 6896
  145.8310  140.8479  143.0083 H   0  0  0  0  0  0  0  0  0  0  0  0  # atno 7974 bound_to 7965
  155.7456  140.3489  155.5125 H   0  0  0  0  0  0  0  0  0  0  0  0  # atno 8008 bound_to 7997
  155.9053  140.1041  157.1341 H   0  0  0  0  0  0  0  0  0  0  0  0  # atno 8009 bound_to 7997
  154.4049  140.1278  156.4475 H   0  0  0  0  0  0  0  0  0  0  0  0  # atno 8010 bound_to 7997
  139.8738  144.6478  150.8920 H   0  0  0  0  0  0  0  0  0  0  0  0  # atno 10167 bound_to 10162
  157.3240  130.7463  149.6803 H   0  0  0  0  0  0  0  0  0  0  0  0  # atno 10718 bound_to 10713
  154.2790  135.2763  155.2705 H   0  0  0  0  0  0  0  0  0  0  0  0  # atno 10763 bound_to 10752
  154.5235  135.5750  153.6703 H   0  0  0  0  0  0  0  0  0  0  0  0  # atno 10764 bound_to 10752
  152.9932  135.6210  154.2949 H   0  0  0  0  0  0  0  0  0  0  0  0  # atno 10765 bound_to 10752
  140.3016  134.7590  157.3921 H   0  0  0  0  0  0  0  0  0  0  0  0  # atno 11005 bound_to 11000
  144.6740  140.0672  143.7474 LP  0  0  0  0  0  0  0  0  0  0  0  0  # atno 17320 bound_to 7965
  145.9571  139.2774  143.1178 LP  0  0  0  0  0  0  0  0  0  0  0  0  # atno 17321 bound_to 7965
  140.7756  143.3642  151.1771 LP  0  0  0  0  0  0  0  0  0  0  0  0  # atno 17342 bound_to 10162
  139.7259  143.9149  152.3002 LP  0  0  0  0  0  0  0  0  0  0  0  0  # atno 17343 bound_to 10162
  155.9688  130.4214  150.4471 LP  0  0  0  0  0  0  0  0  0  0  0  0  # atno 17370 bound_to 10713
  157.2491  131.0542  151.2390 LP  0  0  0  0  0  0  0  0  0  0  0  0  # atno 17371 bound_to 10713
  140.1104  134.5353  155.8271 LP  0  0  0  0  0  0  0  0  0  0  0  0  # atno 17394 bound_to 11000
  141.2127  133.6723  156.6678 LP  0  0  0  0  0  0  0  0  0  0  0  0  # atno 17395 bound_to 11000

$$$$
