AV-unprocessed.smi:1231|AV-procd|sdf|5162|dock3
  -GOLD-   22720 4233D 1   1.00000     0.00000
 Structure written by MMmdl.
 42 43  0  0  0  0  0  0  0  0  1 V2000
  150.3828  137.4717  155.9175 C   0  0  0  0  0  0  0  0  0  0  0  0
  150.7090  138.4973  154.8185 C   0  0  1  0  0  0  0  0  0  0  0  0
  149.5528  138.7187  153.8225 C   0  0  0  0  0  0  0  0  0  0  0  0
  148.4552  139.4972  154.3877 N   0  0  0  0  0  0  0  0  0  0  0  0
  147.3944  139.6918  153.4000 C   0  0  0  0  0  0  0  0  0  0  0  0
  146.2427  138.6711  153.4690 C   0  0  0  0  0  0  0  0  0  0  0  0
  146.6019  137.4214  152.8098 N   0  0  0  0  0  0  0  0  0  0  0  0
  145.7352  136.4751  152.4218 C   0  0  0  0  0  0  0  0  0  0  0  0
  144.5175  136.5628  152.5828 O   0  0  0  0  0  0  0  0  0  0  0  0
  146.3730  135.4395  151.8478 N   0  0  0  0  0  0  0  0  0  0  0  0
  145.8131  134.2484  151.3139 C   0  0  0  0  0  0  0  0  0  0  0  0
  144.4584  134.3468  150.9234 C   0  0  0  0  0  0  0  0  0  0  0  0
  143.8101  133.2207  150.3802 C   0  0  0  0  0  0  0  0  0  0  0  0
  144.5340  132.0232  150.2424 C   0  0  0  0  0  0  0  0  0  0  0  0
  145.8788  132.0098  150.6563 C   0  0  0  0  0  0  0  0  0  0  0  0
  146.5023  133.0880  151.1765 N   0  0  0  0  0  0  0  0  0  0  0  0
  148.9839  140.7593  154.8972 C   0  0  0  0  0  0  0  0  0  0  0  0
  150.0968  140.5411  155.9382 C   0  0  2  0  0  0  0  0  0  0  0  0
  150.7149  141.8629  156.4057 C   0  0  0  0  0  0  0  0  0  0  0  0
  151.1336  139.7455  155.3674 O   0  0  0  0  0  0  0  0  0  0  0  0
  150.1792  136.4923  155.4845 H   0  0  0  0  0  0  0  0  0  0  0  0
  149.5074  137.7581  156.4998 H   0  0  0  0  0  0  0  0  0  0  0  0
  151.2208  137.3605  156.6059 H   0  0  0  0  0  0  0  0  0  0  0  0
  151.5596  138.1043  154.2610 H   0  0  0  0  0  0  0  0  0  0  0  0
  149.9431  139.2334  152.9427 H   0  0  0  0  0  0  0  0  0  0  0  0
  149.1846  137.7533  153.4732 H   0  0  0  0  0  0  0  0  0  0  0  0
  146.9928  140.7025  153.4874 H   0  0  0  0  0  0  0  0  0  0  0  0
  147.8328  139.6303  152.4029 H   0  0  0  0  0  0  0  0  0  0  0  0
  145.9601  138.4826  154.5061 H   0  0  0  0  0  0  0  0  0  0  0  0
  145.3538  139.0509  152.9670 H   0  0  0  0  0  0  0  0  0  0  0  0
  147.5844  137.2663  152.6379 H   0  0  0  0  0  0  0  0  0  0  0  0
  147.3779  135.5102  151.7883 H   0  0  0  0  0  0  0  0  0  0  0  0
  143.9168  135.2749  151.0364 H   0  0  0  0  0  0  0  0  0  0  0  0
  142.7754  133.2762  150.0751 H   0  0  0  0  0  0  0  0  0  0  0  0
  144.0715  131.1384  149.8307 H   0  0  0  0  0  0  0  0  0  0  0  0
  146.4700  131.1103  150.5676 H   0  0  0  0  0  0  0  0  0  0  0  0
  149.3689  141.3583  154.0705 H   0  0  0  0  0  0  0  0  0  0  0  0
  148.1895  141.3418  155.3619 H   0  0  0  0  0  0  0  0  0  0  0  0
  149.6852  140.0292  156.8083 H   0  0  0  0  0  0  0  0  0  0  0  0
  149.9618  142.5115  156.8540 H   0  0  0  0  0  0  0  0  0  0  0  0
  151.1695  142.4018  155.5740 H   0  0  0  0  0  0  0  0  0  0  0  0
  151.4898  141.6877  157.1525 H   0  0  0  0  0  0  0  0  0  0  0  0
  1  2  1  0  0  0  0
  1 21  1  0  0  0  0
  1 22  1  0  0  0  0
  1 23  1  0  0  0  0
  2 20  1  0  0  0  0
  2  3  1  0  0  0  0
  2 24  1  0  0  0  0
  3  4  1  0  0  0  0
  3 25  1  0  0  0  0
  3 26  1  0  0  0  0
  4  5  1  0  0  0  0
  4 17  1  0  0  0  0
  5  6  1  0  0  0  0
  5 27  1  0  0  0  0
  5 28  1  0  0  0  0
  6  7  1  0  0  0  0
  6 29  1  0  0  0  0
  6 30  1  0  0  0  0
  7  8  1  0  0  0  0
  7 31  1  0  0  0  0
  8  9  2  0  0  0  0
  8 10  1  0  0  0  0
 10 11  1  0  0  0  0
 10 32  1  0  0  0  0
 11 16  1  0  0  0  0
 11 12  2  0  0  0  0
 12 13  1  0  0  0  0
 12 33  1  0  0  0  0
 13 14  2  0  0  0  0
 13 34  1  0  0  0  0
 14 15  1  0  0  0  0
 14 35  1  0  0  0  0
 15 16  2  0  0  0  0
 15 36  1  0  0  0  0
 17 18  1  0  0  0  0
 17 37  1  0  0  0  0
 17 38  1  0  0  0  0
 18 19  1  0  0  0  0
 18 20  1  0  0  0  0
 18 39  1  0  0  0  0
 19 40  1  0  0  0  0
 19 41  1  0  0  0  0
 19 42  1  0  0  0  0
M  END
> <s_m_source_file>
AV-unprocessed.smi

> <i_m_source_file_index>
1231

> <i_lp_mmshare_version>
43012

> <i_f3d_flags>
0

> <s_epik_input>
W0NIM11bQ0BASF0xW0NIMl1OKFtDSDJdW0NASF0oTzEpW0NIM10pW0NIMl1bQ0gyXVtOSF1DKD1PKVtOSF1jMltjSF1bY0hdW2NIXVtjSF1uMg==

> <s_epik_cmdline>
J2VwaWtfcHl0aG9uJywgJy1waCcsICc3LjAnLCAnLXRuJywgJzgnLCAnLW1hJywgJzIwMCcsICctbWV0YWxfYmluZGluZycsICctaW1hZScsICc8aW5maWxlLm1hZT4nLCAnLW9tYWUnLCAnPG91dGZpbGUubWFlPic=

> <r_epik_Ionization_Penalty>
0.266037

> <r_epik_Ionization_Penalty_Charging>
0

> <r_epik_Ionization_Penalty_Neutral>
0.266037

> <r_epik_State_Penalty>
0.257924

> <r_epik_Charging_Adjusted_Penalty>
0.257924

> <i_epik_Tot_Q>
0

> <i_epik_Tot_abs_Q>
0

> <r_epik_Metal_State_Penalty>
0.257923

> <b_epik_Metal_Only>
0

> <s_lp_Force_Field>
OPLS_2005

> <r_lp_Energy>
24.2682

> <b_lp_Chiralities_Consistent>
1

> <s_lp_Variant>
AV-unprocessed.smi:1231-3

> <Gold.Version>
5.8.1

> <Gold.Id.Protein>
6NUR|6NUR_protein|mol2

> <Gold.PLP.Fitness>
42.4468

> <Gold.PLP.PLP>
-32.0742

> <Gold.PLP.part.hbond>
-3.0000

> <Gold.PLP.part.metal>
0.0000

> <Gold.PLP.part.buried>
-3.9548

> <Gold.PLP.part.nonpolar>
-27.3628

> <Gold.PLP.part.repulsive>
0.5379

> <Gold.PLP.ligand.clash>
0.0000

> <Gold.PLP.ligand.torsion>
0.8221

> <Gold.PLP.Chemscore.Hbond>
3.0000

> <Gold.PLP.Chemscore.CHOScore>
1.0000

> <Gold.PLP.Chemscore.Metal>
0.0000

> <Gold.Chemscore.Hbonds>
donor molecule, donor type, donor heavy atom, donor atom, acceptor molecule, acceptor atom, score
      L1  H     7    31       P1  7948  0.99
      L1  H    10    32       P1  7948  1.00
      P1  H  7989  7998       L1    20  0.49
      L1  C    15    36       P1 10747  1.00

> <Gold.PLP.Chemscore.Internal.Correction>
0.0169

> <Gold.Rescore>
     Score         DG    S(hbond)    S(metal)    S(lipo)     H(rot)  DE(clash)    DE(int)     intcor
     16.14     -19.47       2.39        0.00      84.59       1.52       1.12       2.20       ----

> <Gold.Chemscore.Fitness>
16.1410

> <Gold.Chemscore.DG>
-19.4656

> <Gold.Chemscore.ZeroCoef>
-5.4800

> <Gold.Chemscore.Hbond>
2.3861

> <Gold.Chemscore.Metal>
0.0000

> <Gold.Chemscore.Lipo>
84.5933

> <Gold.Chemscore.Internal_Hbond>
0.0000

> <Gold.Chemscore.DEClash>
1.1209

> <Gold.Chemscore.DEInternal>
2.2037

> <Gold.Chemscore.Rot>
1.5162

> <Gold.Chemscore.Internal.Correction>
   9.000000E+99

> <Gold.Chemscore.Hbonds>
donor molecule, donor type, donor heavy atom, donor atom, acceptor molecule, acceptor atom, score
      L1  H     7    31       P1  7948  0.94
      L1  H    10    32       P1  7948  0.99
      P1  H  7989  7998       L1    20  0.06

> <Gold.Chemscore.Hbond.Weighted>
-7.9696

> <Gold.Chemscore.Metal.Weighted>
-0.0000

> <Gold.Chemscore.Lipo.Weighted>
-9.8974

> <Gold.Chemscore.Internal_Hbond.Weighted>
0.0000

> <Gold.Chemscore.DEClash.Weighted>
1.1209

> <Gold.Chemscore.DEInternal.Weighted>
2.2037

> <Gold.Chemscore.Rot.Weighted>
3.8814

> <Gold.Chemscore.Internal.Correction.Weighted>
   9.000000E+99

> <Gold.Protein.RotatedTorsions>
[ 6907 6896 6895 6894 ] final   28.01 input  -60.11 | X-H torsion
[ 7974 7965 7964 7962 ] final   54.52 input  175.53 | X-H torsion
[ 8008 7997 7996 7995 ] final  -90.14 input   59.86 | X-H torsion
[ 10167 10162 10161 10158 ] final   15.71 input  -65.29 | X-H torsion
[ 10718 10713 10712 10709 ] final -131.53 input   66.30 | X-H torsion
[ 10763 10752 10751 10750 ] final  127.30 input  -60.55 | X-H torsion
[ 11005 11000 10999 10996 ] final -120.68 input  -57.11 | X-H torsion

> <Gold.Protein.ActiveResidues>
 VAL166  LYS551  ARG553  GLY616  TRP617  ASP618  TYR619  PRO620  LYS621  CYS622 
 ASP623  PHE694  ASN695  SER759  ASP760  ASP761  ALA762  ILE779  LEU786  VAL792 
 PHE793  MET794  SER795  GLU796  ALA797  LYS798  CYS799  TRP800  GLU811  SER814 

> <Gold.Protein.RotatedAtoms>
  152.0107  134.9878  160.0567 H   0  0  0  0  0  0  0  0  0  0  0  0  # atno 6907 bound_to 6896
  152.1432  133.4471  159.4785 H   0  0  0  0  0  0  0  0  0  0  0  0  # atno 6908 bound_to 6896
  150.6867  134.2198  159.4435 H   0  0  0  0  0  0  0  0  0  0  0  0  # atno 6909 bound_to 6896
  145.9600  139.4050  143.0254 H   0  0  0  0  0  0  0  0  0  0  0  0  # atno 7974 bound_to 7965
  154.6950  140.0534  157.0402 H   0  0  0  0  0  0  0  0  0  0  0  0  # atno 8008 bound_to 7997
  155.0763  140.3205  155.4596 H   0  0  0  0  0  0  0  0  0  0  0  0  # atno 8009 bound_to 7997
  156.2741  140.2073  156.5891 H   0  0  0  0  0  0  0  0  0  0  0  0  # atno 8010 bound_to 7997
  140.5848  143.8910  150.6821 H   0  0  0  0  0  0  0  0  0  0  0  0  # atno 10167 bound_to 10162
  156.2254  130.7004  151.0801 H   0  0  0  0  0  0  0  0  0  0  0  0  # atno 10718 bound_to 10713
  153.7071  135.3274  155.3238 H   0  0  0  0  0  0  0  0  0  0  0  0  # atno 10763 bound_to 10752
  154.8396  135.4468  154.1351 H   0  0  0  0  0  0  0  0  0  0  0  0  # atno 10764 bound_to 10752
  153.2435  135.6973  153.7836 H   0  0  0  0  0  0  0  0  0  0  0  0  # atno 10765 bound_to 10752
  141.0126  134.0243  157.3394 H   0  0  0  0  0  0  0  0  0  0  0  0  # atno 11005 bound_to 11000
  145.8053  140.9752  143.0977 LP  0  0  0  0  0  0  0  0  0  0  0  0  # atno 17320 bound_to 7965
  144.6813  139.9852  143.7484 LP  0  0  0  0  0  0  0  0  0  0  0  0  # atno 17321 bound_to 7965
  140.2419  143.3658  152.1480 LP  0  0  0  0  0  0  0  0  0  0  0  0  # atno 17342 bound_to 10162
  139.5191  144.7015  151.5479 LP  0  0  0  0  0  0  0  0  0  0  0  0  # atno 17343 bound_to 10162
  157.7108  131.0735  150.6508 LP  0  0  0  0  0  0  0  0  0  0  0  0  # atno 17370 bound_to 10713
  156.6573  130.4502  149.5699 LP  0  0  0  0  0  0  0  0  0  0  0  0  # atno 17371 bound_to 10713
  139.9098  135.0188  156.7644 LP  0  0  0  0  0  0  0  0  0  0  0  0  # atno 17394 bound_to 11000
  140.6709  133.9560  155.7856 LP  0  0  0  0  0  0  0  0  0  0  0  0  # atno 17395 bound_to 11000

$$$$
