AV-unprocessed.smi:3234|AV-procd|sdf|12358|dock3
  -GOLD-   2272018223D 1   1.00000     0.00000
 Structure written by MMmdl.
 37 39  0  0  0  0  0  0  0  0  4 V2000
  153.7205  139.9941  158.7806 O   0  0  0  0  0  0  0  0  0  0  0  0
  153.9738  140.6204  159.8163 C   0  0  0  0  0  0  0  0  0  0  0  0
  153.3914  141.8101  160.0488 N   0  0  0  0  0  0  0  0  0  0  0  0
  152.5008  142.5415  159.2182 C   0  0  0  0  0  0  0  0  0  0  0  0
  152.2896  143.9055  159.5166 C   0  0  0  0  0  0  0  0  0  0  0  0
  151.4296  144.6689  158.7014 C   0  0  0  0  0  0  0  0  0  0  0  0
  150.8274  144.0961  157.6370 N   0  3  0  0  0  0  0  0  0  0  0  0
  151.0141  142.8013  157.3015 C   0  0  0  0  0  0  0  0  0  0  0  0
  151.8624  141.9882  158.0798 C   0  0  0  0  0  0  0  0  0  0  0  0
  154.7999  140.2446  160.8300 N   0  5  0  0  0  0  0  0  0  0  0  0
  155.2788  138.8789  161.0526 C   0  0  2  0  0  0  0  0  0  0  0  0
  154.2538  137.8390  160.5975 C   0  0  0  0  0  0  0  0  0  0  0  0
  154.5440  136.6094  161.4719 C   0  0  0  0  0  0  0  0  0  0  0  0
  155.3907  137.0761  162.5949 N   0  3  2  0  0  0  0  0  0  0  0  0
  155.0132  136.5289  163.9157 C   0  0  0  0  0  0  0  0  0  0  0  0
  154.5745  135.0848  163.8669 C   0  0  0  0  0  0  0  0  0  0  0  0
  153.5477  136.1849  164.0286 C   0  0  0  0  0  0  0  0  0  0  0  0
  155.4280  138.5500  162.5385 C   0  0  0  0  0  0  0  0  0  0  0  0
  153.5598  142.2028  160.9636 H   0  0  0  0  0  0  0  0  0  0  0  0
  152.7748  144.3625  160.3672 H   0  0  0  0  0  0  0  0  0  0  0  0
  151.2093  145.7135  158.8663 H   0  0  0  0  0  0  0  0  0  0  0  0
  150.4891  142.4575  156.4225 H   0  0  0  0  0  0  0  0  0  0  0  0
  152.0202  140.9610  157.7873 H   0  0  0  0  0  0  0  0  0  0  0  0
  156.2258  138.6782  160.5484 H   0  0  0  0  0  0  0  0  0  0  0  0
  153.2387  138.1875  160.7971 H   0  0  0  0  0  0  0  0  0  0  0  0
  154.3243  137.6214  159.5314 H   0  0  0  0  0  0  0  0  0  0  0  0
  153.6125  136.1630  161.8242 H   0  0  0  0  0  0  0  0  0  0  0  0
  155.0851  135.8416  160.9167 H   0  0  0  0  0  0  0  0  0  0  0  0
  155.5618  136.9109  164.7751 H   0  0  0  0  0  0  0  0  0  0  0  0
  154.6114  134.5676  162.9096 H   0  0  0  0  0  0  0  0  0  0  0  0
  154.7852  134.4669  164.7372 H   0  0  0  0  0  0  0  0  0  0  0  0
  153.0810  136.2914  165.0058 H   0  0  0  0  0  0  0  0  0  0  0  0
  152.9016  136.3981  163.1788 H   0  0  0  0  0  0  0  0  0  0  0  0
  156.3512  138.9428  162.9660 H   0  0  0  0  0  0  0  0  0  0  0  0
  154.5899  138.9575  163.1077 H   0  0  0  0  0  0  0  0  0  0  0  0
  156.3289  136.7650  162.3886 H   0  0  0  0  0  0  0  0  0  0  0  0
  150.2102  144.6666  157.0588 H   0  0  0  0  0  0  0  0  0  0  0  0
  1  2  2  0  0  0  0
  2  3  1  0  0  0  0
  2 10  1  0  0  0  0
  3  4  1  0  0  0  0
  3 19  1  0  0  0  0
  4  9  1  0  0  0  0
  4  5  2  0  0  0  0
  5  6  1  0  0  0  0
  5 20  1  0  0  0  0
  6  7  2  0  0  0  0
  6 21  1  0  0  0  0
  7  8  1  0  0  0  0
  7 37  1  0  0  0  0
  8  9  2  0  0  0  0
  8 22  1  0  0  0  0
  9 23  1  0  0  0  0
 10 11  1  0  0  0  0
 11 18  1  0  0  0  0
 11 12  1  0  0  0  0
 11 24  1  0  0  0  0
 12 13  1  0  0  0  0
 12 25  1  0  0  0  0
 12 26  1  0  0  0  0
 13 14  1  0  0  0  0
 13 27  1  0  0  0  0
 13 28  1  0  0  0  0
 14 15  1  0  0  0  0
 14 18  1  0  0  0  0
 14 36  1  0  0  0  0
 15 17  1  0  0  0  0
 15 16  1  0  0  0  0
 15 29  1  0  0  0  0
 16 17  1  0  0  0  0
 16 30  1  0  0  0  0
 16 31  1  0  0  0  0
 17 32  1  0  0  0  0
 17 33  1  0  0  0  0
 18 34  1  0  0  0  0
 18 35  1  0  0  0  0
M  CHG  1   7   1
M  CHG  1  10  -1
M  CHG  1  14   1
M  END
> <s_m_source_file>
AV-unprocessed.smi

> <i_m_source_file_index>
3234

> <i_lp_mmshare_version>
43012

> <i_f3d_flags>
0

> <s_epik_input>
W2NIXTFbY0hdbltjSF1bY0hdYzFbTkhdQyg9TylbTkhdW0NAQEhdMltDSDJdW0NIMl1OKFtDSDJdMilbQ0hdM1tDSDJdW0NIMl0z

> <s_epik_cmdline>
J2VwaWtfcHl0aG9uJywgJy1waCcsICc3LjAnLCAnLXRuJywgJzgnLCAnLW1hJywgJzIwMCcsICctbWV0YWxfYmluZGluZycsICctaW1hZScsICc8aW5maWxlLm1hZT4nLCAnLW9tYWUnLCAnPG91dGZpbGUubWFlPic=

> <r_epik_Ionization_Penalty>
8.3234

> <r_epik_Ionization_Penalty_Charging>
8.3234

> <r_epik_Ionization_Penalty_Neutral>
3.58513e-06

> <r_epik_State_Penalty>
7.99376

> <r_epik_Charging_Adjusted_Penalty>
16.3172

> <i_epik_Tot_Q>
1

> <i_epik_Tot_abs_Q>
3

> <r_epik_Metal_State_Penalty>
3.98956

> <b_epik_Metal_Only>
1

> <s_lp_Force_Field>
OPLS_2005

> <r_lp_Energy>
39.7431

> <b_lp_Chiralities_Consistent>
1

> <s_lp_Variant>
AV-unprocessed.smi:3234-11

> <Gold.Version>
5.8.1

> <Gold.Id.Protein>
6NUR|6NUR_protein|mol2

> <Gold.PLP.Fitness>
46.4100

> <Gold.PLP.PLP>
-38.5002

> <Gold.PLP.part.hbond>
-2.0000

> <Gold.PLP.part.metal>
0.0000

> <Gold.PLP.part.buried>
-5.5115

> <Gold.PLP.part.nonpolar>
-31.6375

> <Gold.PLP.part.repulsive>
0.0833

> <Gold.PLP.ligand.clash>
0.0000

> <Gold.PLP.ligand.torsion>
1.1125

> <Gold.PLP.Chemscore.Hbond>
2.9520

> <Gold.PLP.Chemscore.CHOScore>
0.0000

> <Gold.PLP.Chemscore.Metal>
0.0000

> <Gold.Chemscore.Hbonds>
donor molecule, donor type, donor heavy atom, donor atom, acceptor molecule, acceptor atom, score
      L1  H     7    37       P1  8028  1.98
      P1  H  7997  8010       L1     1  1.00

> <Gold.PLP.Chemscore.Internal.Correction>
1.2789

> <Gold.Rescore>
     Score         DG    S(hbond)    S(metal)    S(lipo)     H(rot)  DE(clash)    DE(int)     intcor
     16.51     -20.88       1.90        0.00     103.96       1.21       0.70       3.67       ----

> <Gold.Chemscore.Fitness>
16.5123

> <Gold.Chemscore.DG>
-20.8812

> <Gold.Chemscore.ZeroCoef>
-5.4800

> <Gold.Chemscore.Hbond>
1.8975

> <Gold.Chemscore.Metal>
0.0000

> <Gold.Chemscore.Lipo>
103.9577

> <Gold.Chemscore.Internal_Hbond>
0.0000

> <Gold.Chemscore.DEClash>
0.7030

> <Gold.Chemscore.DEInternal>
3.6659

> <Gold.Chemscore.Rot>
1.2108

> <Gold.Chemscore.Internal.Correction>
   9.000000E+99

> <Gold.Chemscore.Hbonds>
donor molecule, donor type, donor heavy atom, donor atom, acceptor molecule, acceptor atom, score
      L1  H     7    37       P1  8028  0.47
      P1  H  7997  8010       L1     1  0.96

> <Gold.Chemscore.Hbond.Weighted>
-6.3377

> <Gold.Chemscore.Metal.Weighted>
-0.0000

> <Gold.Chemscore.Lipo.Weighted>
-12.1630

> <Gold.Chemscore.Internal_Hbond.Weighted>
0.0000

> <Gold.Chemscore.DEClash.Weighted>
0.7030

> <Gold.Chemscore.DEInternal.Weighted>
3.6659

> <Gold.Chemscore.Rot.Weighted>
3.0996

> <Gold.Chemscore.Internal.Correction.Weighted>
   9.000000E+99

> <Gold.Protein.RotatedTorsions>
[ 6907 6896 6895 6894 ] final -121.95 input  -60.11 | X-H torsion
[ 7974 7965 7964 7962 ] final   41.91 input  175.53 | X-H torsion
[ 8008 7997 7996 7995 ] final   25.37 input   59.86 | X-H torsion
[ 10167 10162 10161 10158 ] final  -61.71 input  -65.29 | X-H torsion
[ 10718 10713 10712 10709 ] final  -64.10 input   66.30 | X-H torsion
[ 10763 10752 10751 10750 ] final   57.40 input  -60.55 | X-H torsion
[ 11005 11000 10999 10996 ] final   92.03 input  -57.11 | X-H torsion

> <Gold.Protein.ActiveResidues>
 VAL166  LYS551  ARG553  GLY616  TRP617  ASP618  TYR619  PRO620  LYS621  CYS622 
 ASP623  PHE694  ASN695  SER759  ASP760  ASP761  ALA762  ILE779  LEU786  VAL792 
 PHE793  MET794  SER795  GLU796  ALA797  LYS798  CYS799  TRP800  GLU811  SER814 

> <Gold.Protein.RotatedAtoms>
  150.8531  133.7757  159.3018 H   0  0  0  0  0  0  0  0  0  0  0  0  # atno 6907 bound_to 6896
  151.5422  135.1067  159.9939 H   0  0  0  0  0  0  0  0  0  0  0  0  # atno 6908 bound_to 6896
  152.4568  133.7697  159.6848 H   0  0  0  0  0  0  0  0  0  0  0  0  # atno 6909 bound_to 6896
  146.0784  139.5361  142.9552 H   0  0  0  0  0  0  0  0  0  0  0  0  # atno 7974 bound_to 7965
  155.0107  140.3136  155.4831 H   0  0  0  0  0  0  0  0  0  0  0  0  # atno 8008 bound_to 7997
  156.2909  140.2215  156.5162 H   0  0  0  0  0  0  0  0  0  0  0  0  # atno 8009 bound_to 7997
  154.7537  140.0464  157.0903 H   0  0  0  0  0  0  0  0  0  0  0  0  # atno 8010 bound_to 7997
  140.5988  143.2356  151.5976 H   0  0  0  0  0  0  0  0  0  0  0  0  # atno 10167 bound_to 10162
  156.0750  130.4229  150.1372 H   0  0  0  0  0  0  0  0  0  0  0  0  # atno 10718 bound_to 10713
  152.9849  135.5643  154.5384 H   0  0  0  0  0  0  0  0  0  0  0  0  # atno 10763 bound_to 10752
  154.4843  135.2790  155.1548 H   0  0  0  0  0  0  0  0  0  0  0  0  # atno 10764 bound_to 10752
  154.3044  135.6301  153.5491 H   0  0  0  0  0  0  0  0  0  0  0  0  # atno 10765 bound_to 10752
  139.8829  134.8709  156.3514 H   0  0  0  0  0  0  0  0  0  0  0  0  # atno 11005 bound_to 11000
  145.6263  141.0313  143.1888 LP  0  0  0  0  0  0  0  0  0  0  0  0  # atno 17320 bound_to 7965
  144.7277  139.7823  143.7359 LP  0  0  0  0  0  0  0  0  0  0  0  0  # atno 17321 bound_to 7965
  139.5276  144.3011  152.1072 LP  0  0  0  0  0  0  0  0  0  0  0  0  # atno 17342 bound_to 10162
  140.2188  144.4487  150.6351 LP  0  0  0  0  0  0  0  0  0  0  0  0  # atno 17343 bound_to 10162
  156.9415  130.9746  151.3515 LP  0  0  0  0  0  0  0  0  0  0  0  0  # atno 17370 bound_to 10713
  157.5840  130.8396  149.8563 LP  0  0  0  0  0  0  0  0  0  0  0  0  # atno 17371 bound_to 10713
  140.9591  133.7400  156.0377 LP  0  0  0  0  0  0  0  0  0  0  0  0  # atno 17394 bound_to 11000
  140.8011  134.3507  157.5439 LP  0  0  0  0  0  0  0  0  0  0  0  0  # atno 17395 bound_to 11000

$$$$
