AV-unprocessed.smi:3145|AV-procd|sdf|11979|dock6
  -GOLD-   2272017383D 1   1.00000     0.00000
 Structure written by MMmdl.
 35 35  0  0  0  0  0  0  0  0  2 V2000
  145.3758  135.5354  153.6106 C   0  0  0  0  0  0  0  0  0  0  0  0
  144.8772  136.4663  152.4922 C   0  0  2  0  0  0  0  0  0  0  0  0
  145.3715  136.0370  151.0910 C   0  0  0  0  0  0  0  0  0  0  0  0
  145.3814  134.5959  150.9141 N   0  0  0  0  0  0  0  0  0  0  0  0
  144.3082  133.7303  150.8830 C   0  0  0  0  0  0  0  0  0  0  0  0
  144.8061  132.4730  150.6955 C   0  0  0  0  0  0  0  0  0  0  0  0
  146.2126  132.6742  150.6181 C   0  0  0  0  0  0  0  0  0  0  0  0
  146.5537  133.9463  150.7485 N   0  0  0  0  0  0  0  0  0  0  0  0
  145.2837  137.8587  152.8067 N   0  3  0  0  0  0  0  0  0  0  0  0
  146.5501  138.3350  152.2013 C   0  0  0  0  0  0  0  0  0  0  0  0
  147.4907  138.9853  153.2187 C   0  0  0  0  0  0  0  0  0  0  0  0
  147.0940  139.9119  153.9255 O   0  0  0  0  0  0  0  0  0  0  0  0
  148.7346  138.4888  153.2801 N   0  0  0  0  0  0  0  0  0  0  0  0
  149.8003  138.9977  154.1363 C   0  0  0  0  0  0  0  0  0  0  0  0
  151.1555  138.3425  153.8227 C   0  0  0  0  0  0  0  0  0  0  0  0
  152.3020  139.0999  154.3492 C   0  0  0  0  0  0  0  0  0  0  0  0
  153.2056  139.6920  154.7628 N   0  0  0  0  0  0  0  0  0  0  0  0
  145.0056  134.5179  153.4829 H   0  0  0  0  0  0  0  0  0  0  0  0
  145.0341  135.8786  154.5875 H   0  0  0  0  0  0  0  0  0  0  0  0
  146.4653  135.4929  153.6348 H   0  0  0  0  0  0  0  0  0  0  0  0
  143.7880  136.4133  152.5027 H   0  0  0  0  0  0  0  0  0  0  0  0
  144.7363  136.4533  150.3093 H   0  0  0  0  0  0  0  0  0  0  0  0
  146.3770  136.4215  150.9113 H   0  0  0  0  0  0  0  0  0  0  0  0
  143.2916  134.0764  150.9975 H   0  0  0  0  0  0  0  0  0  0  0  0
  144.2506  131.5495  150.6230 H   0  0  0  0  0  0  0  0  0  0  0  0
  146.9900  131.9387  150.4715 H   0  0  0  0  0  0  0  0  0  0  0  0
  144.5507  138.4747  152.4842 H   0  0  0  0  0  0  0  0  0  0  0  0
  147.0642  137.4697  151.7822 H   0  0  0  0  0  0  0  0  0  0  0  0
  146.3535  139.0076  151.3663 H   0  0  0  0  0  0  0  0  0  0  0  0
  148.9713  137.7175  152.6721 H   0  0  0  0  0  0  0  0  0  0  0  0
  149.8718  140.0814  154.0325 H   0  0  0  0  0  0  0  0  0  0  0  0
  149.5277  138.8020  155.1736 H   0  0  0  0  0  0  0  0  0  0  0  0
  151.2050  137.3336  154.2328 H   0  0  0  0  0  0  0  0  0  0  0  0
  151.2852  138.2520  152.7441 H   0  0  0  0  0  0  0  0  0  0  0  0
  145.3529  137.9459  153.8104 H   0  0  0  0  0  0  0  0  0  0  0  0
  1  2  1  0  0  0  0
  1 18  1  0  0  0  0
  1 19  1  0  0  0  0
  1 20  1  0  0  0  0
  2  3  1  0  0  0  0
  2  9  1  0  0  0  0
  2 21  1  0  0  0  0
  3  4  1  0  0  0  0
  3 22  1  0  0  0  0
  3 23  1  0  0  0  0
  4  8  1  0  0  0  0
  4  5  1  0  0  0  0
  5  6  2  0  0  0  0
  5 24  1  0  0  0  0
  6  7  1  0  0  0  0
  6 25  1  0  0  0  0
  7  8  2  0  0  0  0
  7 26  1  0  0  0  0
  9 10  1  0  0  0  0
  9 27  1  0  0  0  0
  9 35  1  0  0  0  0
 10 11  1  0  0  0  0
 10 28  1  0  0  0  0
 10 29  1  0  0  0  0
 11 12  2  0  0  0  0
 11 13  1  0  0  0  0
 13 14  1  0  0  0  0
 13 30  1  0  0  0  0
 14 15  1  0  0  0  0
 14 31  1  0  0  0  0
 14 32  1  0  0  0  0
 15 16  1  0  0  0  0
 15 33  1  0  0  0  0
 15 34  1  0  0  0  0
 16 17  3  0  0  0  0
M  CHG  1   9   1
M  END
> <s_m_source_file>
AV-unprocessed.smi

> <i_m_source_file_index>
3145

> <i_lp_mmshare_version>
43012

> <i_f3d_flags>
0

> <s_epik_input>
bjFbY0hdW2NIXVtjSF1uMVtDSDJdW0NAQEhdKFtDSDNdKVtOSF1bQ0gyXUMoPU8pW05IXVtDSDJdW0NIMl1DI04=

> <s_epik_cmdline>
J2VwaWtfcHl0aG9uJywgJy1waCcsICc3LjAnLCAnLXRuJywgJzgnLCAnLW1hJywgJzIwMCcsICctbWV0YWxfYmluZGluZycsICctaW1hZScsICc8aW5maWxlLm1hZT4nLCAnLW9tYWUnLCAnPG91dGZpbGUubWFlPic=

> <r_lp_tautomer_probability>
1

> <r_epik_Ionization_Penalty>
0.190162

> <r_epik_Ionization_Penalty_Charging>
0.190142

> <r_epik_Ionization_Penalty_Neutral>
2.0165e-05

> <r_epik_State_Penalty>
0.179787

> <r_epik_Charging_Adjusted_Penalty>
0.369929

> <i_epik_Tot_Q>
1

> <i_epik_Tot_abs_Q>
1

> <r_epik_Metal_State_Penalty>
0.191786

> <b_epik_Metal_Only>
0

> <s_lp_Force_Field>
OPLS_2005

> <r_lp_Energy>
3.88931

> <b_lp_Chiralities_Consistent>
1

> <s_lp_Variant>
AV-unprocessed.smi:3145-1

> <Gold.Version>
5.8.1

> <Gold.Id.Protein>
6NUR|6NUR_protein|mol2

> <Gold.PLP.Fitness>
50.7733

> <Gold.PLP.PLP>
-35.8741

> <Gold.PLP.part.hbond>
-4.9388

> <Gold.PLP.part.metal>
0.0000

> <Gold.PLP.part.buried>
-3.3203

> <Gold.PLP.part.nonpolar>
-27.7066

> <Gold.PLP.part.repulsive>
0.4283

> <Gold.PLP.ligand.clash>
0.0000

> <Gold.PLP.ligand.torsion>
1.1276

> <Gold.PLP.Chemscore.Hbond>
3.6960

> <Gold.PLP.Chemscore.CHOScore>
1.9972

> <Gold.PLP.Chemscore.Metal>
0.0000

> <Gold.Chemscore.Hbonds>
donor molecule, donor type, donor heavy atom, donor atom, acceptor molecule, acceptor atom, score
      L1  H     9    27       P1 10175  1.35
      L1  H    13    30       P1  7948  1.00
      P1  H  7997  8010       L1    17  1.00
      L1  C     5    24       P1 10186  0.53
      L1  C     7    26       P1 10747  1.00

> <Gold.PLP.Chemscore.Internal.Correction>
0.0746

> <Gold.Rescore>
     Score         DG    S(hbond)    S(metal)    S(lipo)     H(rot)  DE(clash)    DE(int)     intcor
     12.96     -14.22       2.84        0.00      56.78       2.89       0.00       1.26       ----

> <Gold.Chemscore.Fitness>
12.9569

> <Gold.Chemscore.DG>
-14.2155

> <Gold.Chemscore.ZeroCoef>
-5.4800

> <Gold.Chemscore.Hbond>
2.8411

> <Gold.Chemscore.Metal>
0.0000

> <Gold.Chemscore.Lipo>
56.7774

> <Gold.Chemscore.Internal_Hbond>
0.0000

> <Gold.Chemscore.DEClash>
0.0015

> <Gold.Chemscore.DEInternal>
1.2572

> <Gold.Chemscore.Rot>
2.8894

> <Gold.Chemscore.Internal.Correction>
   9.000000E+99

> <Gold.Chemscore.Hbonds>
donor molecule, donor type, donor heavy atom, donor atom, acceptor molecule, acceptor atom, score
      L1  H     9    27       P1 10175  0.65
      L1  H    13    30       P1  7948  1.00
      P1  H  7997  8010       L1    17  0.97

> <Gold.Chemscore.Hbond.Weighted>
-9.4894

> <Gold.Chemscore.Metal.Weighted>
-0.0000

> <Gold.Chemscore.Lipo.Weighted>
-6.6430

> <Gold.Chemscore.Internal_Hbond.Weighted>
0.0000

> <Gold.Chemscore.DEClash.Weighted>
0.0015

> <Gold.Chemscore.DEInternal.Weighted>
1.2572

> <Gold.Chemscore.Rot.Weighted>
7.3968

> <Gold.Chemscore.Internal.Correction.Weighted>
   9.000000E+99

> <Gold.Protein.RotatedTorsions>
[ 6907 6896 6895 6894 ] final -168.30 input  -60.11 | X-H torsion
[ 7974 7965 7964 7962 ] final  160.55 input  175.53 | X-H torsion
[ 8008 7997 7996 7995 ] final   92.18 input   59.86 | X-H torsion
[ 10167 10162 10161 10158 ] final   86.54 input  -65.29 | X-H torsion
[ 10718 10713 10712 10709 ] final   73.27 input   66.30 | X-H torsion
[ 10763 10752 10751 10750 ] final  157.09 input  -60.55 | X-H torsion
[ 11005 11000 10999 10996 ] final -166.25 input  -57.11 | X-H torsion

> <Gold.Protein.ActiveResidues>
 VAL166  LYS551  ARG553  GLY616  TRP617  ASP618  TYR619  PRO620  LYS621  CYS622 
 ASP623  PHE694  ASN695  SER759  ASP760  ASP761  ALA762  ILE779  LEU786  VAL792 
 PHE793  MET794  SER795  GLU796  ALA797  LYS798  CYS799  TRP800  GLU811  SER814 

> <Gold.Protein.RotatedAtoms>
  151.4734  133.3563  159.2826 H   0  0  0  0  0  0  0  0  0  0  0  0  # atno 6907 bound_to 6896
  150.8946  134.8355  159.7328 H   0  0  0  0  0  0  0  0  0  0  0  0  # atno 6908 bound_to 6896
  152.4843  134.4647  159.9668 H   0  0  0  0  0  0  0  0  0  0  0  0  # atno 6909 bound_to 6896
  144.7731  139.7773  143.6289 H   0  0  0  0  0  0  0  0  0  0  0  0  # atno 7974 bound_to 7965
  156.0324  140.3328  155.7154 H   0  0  0  0  0  0  0  0  0  0  0  0  # atno 8008 bound_to 7997
  155.5865  140.0642  157.2787 H   0  0  0  0  0  0  0  0  0  0  0  0  # atno 8009 bound_to 7997
  154.4358  140.1834  156.1019 H   0  0  0  0  0  0  0  0  0  0  0  0  # atno 8010 bound_to 7997
  139.8864  144.6410  150.8786 H   0  0  0  0  0  0  0  0  0  0  0  0  # atno 10167 bound_to 10162
  157.6540  130.9620  150.1045 H   0  0  0  0  0  0  0  0  0  0  0  0  # atno 10718 bound_to 10713
  154.1947  135.2793  155.3010 H   0  0  0  0  0  0  0  0  0  0  0  0  # atno 10763 bound_to 10752
  154.5901  135.5562  153.7273 H   0  0  0  0  0  0  0  0  0  0  0  0  # atno 10764 bound_to 10752
  153.0103  135.6366  154.2086 H   0  0  0  0  0  0  0  0  0  0  0  0  # atno 10765 bound_to 10752
  140.5666  134.5279  157.5154 H   0  0  0  0  0  0  0  0  0  0  0  0  # atno 11005 bound_to 11000
  146.1892  139.5123  142.9816 LP  0  0  0  0  0  0  0  0  0  0  0  0  # atno 17320 bound_to 7965
  145.6265  141.0312  143.1886 LP  0  0  0  0  0  0  0  0  0  0  0  0  # atno 17321 bound_to 7965
  140.7735  143.3544  151.1950 LP  0  0  0  0  0  0  0  0  0  0  0  0  # atno 17342 bound_to 10162
  139.7149  143.9317  152.2962 LP  0  0  0  0  0  0  0  0  0  0  0  0  # atno 17343 bound_to 10162
  156.1959  130.3657  149.8850 LP  0  0  0  0  0  0  0  0  0  0  0  0  # atno 17370 bound_to 10713
  156.6766  130.8841  151.3570 LP  0  0  0  0  0  0  0  0  0  0  0  0  # atno 17371 bound_to 10713
  139.9382  134.7836  156.0748 LP  0  0  0  0  0  0  0  0  0  0  0  0  # atno 17394 bound_to 11000
  141.1082  133.6652  156.2914 LP  0  0  0  0  0  0  0  0  0  0  0  0  # atno 17395 bound_to 11000

$$$$
