AV-unprocessed.smi:2378|AV-procd|sdf|9450|dock7
  -GOLD-   2272013 83D 1   1.00000     0.00000
 Structure written by MMmdl.
 40 41  0  0  0  0  0  0  0  0  1 V2000
  146.2626  130.8336  151.2430 C   0  0  0  0  0  0  0  0  0  0  0  0
  145.4928  132.1358  151.3122 C   0  0  0  0  0  0  0  0  0  0  0  0
  144.0852  132.1464  151.2827 C   0  0  0  0  0  0  0  0  0  0  0  0
  143.4291  133.3894  151.3491 C   0  0  0  0  0  0  0  0  0  0  0  0
  144.0830  134.5665  151.4386 N   0  0  0  0  0  0  0  0  0  0  0  0
  145.4390  134.5694  151.4675 C   0  0  0  0  0  0  0  0  0  0  0  0
  146.2239  135.7494  151.5624 N   0  0  0  0  0  0  0  0  0  0  0  0
  145.8585  136.9566  152.0292 C   0  0  0  0  0  0  0  0  0  0  0  0
  144.7413  137.2471  152.4579 O   0  0  0  0  0  0  0  0  0  0  0  0
  146.8753  137.8285  151.9663 N   0  0  0  0  0  0  0  0  0  0  0  0
  146.8082  139.2259  152.3782 C   0  0  0  0  0  0  0  0  0  0  0  0
  147.3242  139.4147  153.8149 C   0  0  0  0  0  0  0  0  0  0  0  0
  148.7982  139.8461  153.8690 C   0  0  1  0  0  0  0  0  0  0  0  0
  149.1063  140.6846  155.1249 C   0  0  0  0  0  0  0  0  0  0  0  0
  150.5973  141.0339  155.1866 C   0  0  0  0  0  0  0  0  0  0  0  0
  151.4317  139.7545  155.0681 C   0  0  0  0  0  0  0  0  0  0  0  0
  151.0091  138.9544  153.8257 C   0  0  0  0  0  0  0  0  0  0  0  0
  149.6133  138.6754  153.8792 O   0  0  0  0  0  0  0  0  0  0  0  0
  146.1762  133.3651  151.4056 C   0  0  0  0  0  0  0  0  0  0  0  0
  145.5968  129.9748  151.3351 H   0  0  0  0  0  0  0  0  0  0  0  0
  146.9959  130.7831  152.0482 H   0  0  0  0  0  0  0  0  0  0  0  0
  146.7895  130.7572  150.2916 H   0  0  0  0  0  0  0  0  0  0  0  0
  143.5189  131.2294  151.2110 H   0  0  0  0  0  0  0  0  0  0  0  0
  142.3504  133.4404  151.3293 H   0  0  0  0  0  0  0  0  0  0  0  0
  147.1748  135.6650  151.2349 H   0  0  0  0  0  0  0  0  0  0  0  0
  147.7587  137.5048  151.6004 H   0  0  0  0  0  0  0  0  0  0  0  0
  147.3699  139.8498  151.6808 H   0  0  0  0  0  0  0  0  0  0  0  0
  145.7686  139.5468  152.3116 H   0  0  0  0  0  0  0  0  0  0  0  0
  146.7131  140.1682  154.3135 H   0  0  0  0  0  0  0  0  0  0  0  0
  147.1954  138.4913  154.3813 H   0  0  0  0  0  0  0  0  0  0  0  0
  149.0249  140.4344  152.9779 H   0  0  0  0  0  0  0  0  0  0  0  0
  148.5103  141.5975  155.1275 H   0  0  0  0  0  0  0  0  0  0  0  0
  148.8261  140.1260  156.0189 H   0  0  0  0  0  0  0  0  0  0  0  0
  150.8491  141.7144  154.3723 H   0  0  0  0  0  0  0  0  0  0  0  0
  150.8285  141.5554  156.1158 H   0  0  0  0  0  0  0  0  0  0  0  0
  152.4933  139.9986  155.0189 H   0  0  0  0  0  0  0  0  0  0  0  0
  151.2916  139.1422  155.9599 H   0  0  0  0  0  0  0  0  0  0  0  0
  151.2470  139.5000  152.9112 H   0  0  0  0  0  0  0  0  0  0  0  0
  151.5545  138.0114  153.7837 H   0  0  0  0  0  0  0  0  0  0  0  0
  147.2564  133.3812  151.4292 H   0  0  0  0  0  0  0  0  0  0  0  0
  1  2  1  0  0  0  0
  1 20  1  0  0  0  0
  1 21  1  0  0  0  0
  1 22  1  0  0  0  0
  2 19  1  0  0  0  0
  2  3  2  0  0  0  0
  3  4  1  0  0  0  0
  3 23  1  0  0  0  0
  4  5  2  0  0  0  0
  4 24  1  0  0  0  0
  5  6  1  0  0  0  0
  6  7  1  0  0  0  0
  6 19  2  0  0  0  0
  7  8  1  0  0  0  0
  7 25  1  0  0  0  0
  8  9  2  0  0  0  0
  8 10  1  0  0  0  0
 10 11  1  0  0  0  0
 10 26  1  0  0  0  0
 11 12  1  0  0  0  0
 11 27  1  0  0  0  0
 11 28  1  0  0  0  0
 12 13  1  0  0  0  0
 12 29  1  0  0  0  0
 12 30  1  0  0  0  0
 13 18  1  0  0  0  0
 13 14  1  0  0  0  0
 13 31  1  0  0  0  0
 14 15  1  0  0  0  0
 14 32  1  0  0  0  0
 14 33  1  0  0  0  0
 15 16  1  0  0  0  0
 15 34  1  0  0  0  0
 15 35  1  0  0  0  0
 16 17  1  0  0  0  0
 16 36  1  0  0  0  0
 16 37  1  0  0  0  0
 17 18  1  0  0  0  0
 17 38  1  0  0  0  0
 17 39  1  0  0  0  0
 19 40  1  0  0  0  0
M  END
> <s_m_source_file>
AV-unprocessed.smi

> <i_m_source_file_index>
2378

> <i_lp_mmshare_version>
43012

> <i_f3d_flags>
0

> <s_epik_input>
W0NIM11jMVtjSF1bY0hdbmMoW2NIXTEpW05IXUMoPU8pW05IXVtDSDJdW0NIMl1bQ0BASF0yW0NIMl1bQ0gyXVtDSDJdW0NIMl1PMg==

> <s_epik_cmdline>
J2VwaWtfcHl0aG9uJywgJy1waCcsICc3LjAnLCAnLXRuJywgJzgnLCAnLW1hJywgJzIwMCcsICctbWV0YWxfYmluZGluZycsICctaW1hZScsICc8aW5maWxlLm1hZT4nLCAnLW9tYWUnLCAnPG91dGZpbGUubWFlPic=

> <r_lp_tautomer_probability>
1

> <r_epik_Ionization_Penalty>
8.60919e-05

> <r_epik_Ionization_Penalty_Charging>
0

> <r_epik_Ionization_Penalty_Neutral>
8.60919e-05

> <r_epik_State_Penalty>
-0

> <r_epik_Charging_Adjusted_Penalty>
0

> <i_epik_Tot_Q>
0

> <i_epik_Tot_abs_Q>
0

> <r_epik_Metal_State_Penalty>
-0

> <b_epik_Metal_Only>
0

> <s_lp_Force_Field>
OPLS_2005

> <r_lp_Energy>
10.7522

> <b_lp_Chiralities_Consistent>
1

> <s_lp_Variant>
AV-unprocessed.smi:2378-2

> <Gold.Version>
5.8.1

> <Gold.Id.Protein>
6NUR|6NUR_protein|mol2

> <Gold.PLP.Fitness>
40.2512

> <Gold.PLP.PLP>
-33.1008

> <Gold.PLP.part.hbond>
-2.0000

> <Gold.PLP.part.metal>
0.0000

> <Gold.PLP.part.buried>
-1.6379

> <Gold.PLP.part.nonpolar>
-30.1402

> <Gold.PLP.part.repulsive>
2.0415

> <Gold.PLP.ligand.clash>
0.0000

> <Gold.PLP.ligand.torsion>
0.8667

> <Gold.PLP.Chemscore.Hbond>
1.9600

> <Gold.PLP.Chemscore.CHOScore>
1.0000

> <Gold.PLP.Chemscore.Metal>
0.0000

> <Gold.Chemscore.Hbonds>
donor molecule, donor type, donor heavy atom, donor atom, acceptor molecule, acceptor atom, score
      L1  H     7    25       P1  7948  0.77
      L1  H    10    26       P1  7948  0.85
      L1  C     4    24       P1 10186  0.93

> <Gold.PLP.Chemscore.Internal.Correction>
0.0037

> <Gold.Rescore>
     Score         DG    S(hbond)    S(metal)    S(lipo)     H(rot)  DE(clash)    DE(int)     intcor
     15.83     -17.99       1.95        0.00      82.59       1.42       0.15       2.01       ----

> <Gold.Chemscore.Fitness>
15.8276

> <Gold.Chemscore.DG>
-17.9945

> <Gold.Chemscore.ZeroCoef>
-5.4800

> <Gold.Chemscore.Hbond>
1.9457

> <Gold.Chemscore.Metal>
0.0000

> <Gold.Chemscore.Lipo>
82.5942

> <Gold.Chemscore.Internal_Hbond>
0.0000

> <Gold.Chemscore.DEClash>
0.1523

> <Gold.Chemscore.DEInternal>
2.0145

> <Gold.Chemscore.Rot>
1.4248

> <Gold.Chemscore.Internal.Correction>
   9.000000E+99

> <Gold.Chemscore.Hbonds>
donor molecule, donor type, donor heavy atom, donor atom, acceptor molecule, acceptor atom, score
      L1  H     7    25       P1  7948  0.71
      L1  H    10    26       P1  7948  0.83

> <Gold.Chemscore.Hbond.Weighted>
-6.4986

> <Gold.Chemscore.Metal.Weighted>
-0.0000

> <Gold.Chemscore.Lipo.Weighted>
-9.6635

> <Gold.Chemscore.Internal_Hbond.Weighted>
0.0000

> <Gold.Chemscore.DEClash.Weighted>
0.1523

> <Gold.Chemscore.DEInternal.Weighted>
2.0145

> <Gold.Chemscore.Rot.Weighted>
3.6476

> <Gold.Chemscore.Internal.Correction.Weighted>
   9.000000E+99

> <Gold.Protein.RotatedTorsions>
[ 6907 6896 6895 6894 ] final -158.97 input  -60.11 | X-H torsion
[ 7974 7965 7964 7962 ] final  179.22 input  175.53 | X-H torsion
[ 8008 7997 7996 7995 ] final  139.80 input   59.86 | X-H torsion
[ 10167 10162 10161 10158 ] final   24.40 input  -65.29 | X-H torsion
[ 10718 10713 10712 10709 ] final   -2.92 input   66.30 | X-H torsion
[ 10763 10752 10751 10750 ] final -174.53 input  -60.55 | X-H torsion
[ 11005 11000 10999 10996 ] final   97.60 input  -57.11 | X-H torsion

> <Gold.Protein.ActiveResidues>
 VAL166  LYS551  ARG553  GLY616  TRP617  ASP618  TYR619  PRO620  LYS621  CYS622 
 ASP623  PHE694  ASN695  SER759  ASP760  ASP761  ALA762  ILE779  LEU786  VAL792 
 PHE793  MET794  SER795  GLU796  ALA797  LYS798  CYS799  TRP800  GLU811  SER814 

> <Gold.Protein.RotatedAtoms>
  151.3264  133.4018  159.2658 H   0  0  0  0  0  0  0  0  0  0  0  0  # atno 6907 bound_to 6896
  150.9991  134.9308  159.7954 H   0  0  0  0  0  0  0  0  0  0  0  0  # atno 6908 bound_to 6896
  152.5270  134.3229  159.9207 H   0  0  0  0  0  0  0  0  0  0  0  0  # atno 6909 bound_to 6896
  144.7148  140.0515  143.6435 H   0  0  0  0  0  0  0  0  0  0  0  0  # atno 7974 bound_to 7965
  156.2986  140.2358  156.4297 H   0  0  0  0  0  0  0  0  0  0  0  0  # atno 8008 bound_to 7997
  154.8281  140.0434  157.1478 H   0  0  0  0  0  0  0  0  0  0  0  0  # atno 8009 bound_to 7997
  154.9238  140.3007  155.5206 H   0  0  0  0  0  0  0  0  0  0  0  0  # atno 8010 bound_to 7997
  140.5191  144.0033  150.6408 H   0  0  0  0  0  0  0  0  0  0  0  0  # atno 10167 bound_to 10162
  156.7837  130.5339  149.5746 H   0  0  0  0  0  0  0  0  0  0  0  0  # atno 10718 bound_to 10713
  154.5951  135.2849  155.0594 H   0  0  0  0  0  0  0  0  0  0  0  0  # atno 10763 bound_to 10752
  154.1880  135.6445  153.5056 H   0  0  0  0  0  0  0  0  0  0  0  0  # atno 10764 bound_to 10752
  153.0136  135.5439  154.6651 H   0  0  0  0  0  0  0  0  0  0  0  0  # atno 10765 bound_to 10752
  139.8775  134.9009  156.4331 H   0  0  0  0  0  0  0  0  0  0  0  0  # atno 11005 bound_to 11000
  145.9940  139.3037  143.0968 LP  0  0  0  0  0  0  0  0  0  0  0  0  # atno 17320 bound_to 7965
  145.8870  140.9327  143.0572 LP  0  0  0  0  0  0  0  0  0  0  0  0  # atno 17321 bound_to 7965
  140.3376  143.3039  152.0621 LP  0  0  0  0  0  0  0  0  0  0  0  0  # atno 17342 bound_to 10162
  139.4918  144.6465  151.6767 LP  0  0  0  0  0  0  0  0  0  0  0  0  # atno 17343 bound_to 10162
  156.1202  130.6104  151.0181 LP  0  0  0  0  0  0  0  0  0  0  0  0  # atno 17370 bound_to 10713
  157.6634  131.0876  150.7786 LP  0  0  0  0  0  0  0  0  0  0  0  0  # atno 17371 bound_to 10713
  140.9052  133.7751  155.9727 LP  0  0  0  0  0  0  0  0  0  0  0  0  # atno 17394 bound_to 11000
  140.8607  134.2844  157.5236 LP  0  0  0  0  0  0  0  0  0  0  0  0  # atno 17395 bound_to 11000

$$$$
