#       Name:                AV-unprocessed.smi:2078
#       Creating user name   scv26
#       Creation time:       Fri Mar 27 11:16:18 2020


#       File generated by GOLD software.
#

@<TRIPOS>MOLECULE
AV-unprocessed.smi:2078
    47    48     1
SMALL
NO_CHARGES


@<TRIPOS>ATOM
      1 ****        -7.9599   1.8117   0.8326 C.3            1 S1                 0.0000
      2 ****        -6.5070   1.4805   0.8388 C.2            1 S1                 0.0000
      3 ****        -5.8211   0.2987   0.8132 C.2            1 S1                 0.0000
      4 ****        -4.4640   0.7165   0.8371 C.2            1 S1                 0.0000
      5 ****        -3.4093  -0.2317   0.8197 N.am           1 S1                 0.0000
      6 ****        -2.0884   0.0154   0.8279 C.2            1 S1                 0.0000
      7 ****        -1.5746   1.1343   0.8527 O.2            1 S1                 0.0000
      8 ****        -1.3761  -1.1206   0.8000 N.am           1 S1                 0.0000
      9 ****         0.0807  -1.1850   0.8015 C.3            1 S1                 0.0000
     10 ****         0.6622  -0.8591  -0.5879 C.3            1 S1                 0.0000
     11 ****         2.1445  -0.9334  -0.6106 N.4            1 S1                 1.0000
     12 ****         2.6726  -1.2042  -1.9725 C.3            1 S1                 0.0000
     13 ****         4.1949  -1.4130  -1.9447 C.3            1 S1                 0.0000
     14 ****         4.9032  -0.2056  -1.3180 C.3            1 S1                 0.0000
     15 ****         4.3267   0.0858   0.0779 C.3            1 S1                 0.0000
     16 ****         4.9973   1.3099   0.7174 C.3            1 S1                 0.0000
     17 ****         2.7961   0.2571  -0.0003 C.3            1 S1                 0.0000
     18 ****        -4.3330   2.0337   0.8746 N.2            1 S1                 0.0000
     19 ****        -5.6419   2.5300   0.8758 O.3            1 S1                 0.0000
     20 ****        -8.5665   0.9060   0.8372 H              1 S1                 0.0000
     21 ****        -8.2202   2.3890  -0.0546 H              1 S1                 0.0000
     22 ****        -8.2256   2.4010   1.7103 H              1 S1                 0.0000
     23 ****        -6.2284  -0.7012   0.7814 H              1 S1                 0.0000
     24 ****        -3.6918  -1.2002   0.7969 H              1 S1                 0.0000
     25 ****        -1.8748  -1.9985   0.7841 H              1 S1                 0.0000
     26 ****         0.4652  -0.5105   1.5671 H              1 S1                 0.0000
     27 ****         0.3758  -2.1913   1.0997 H              1 S1                 0.0000
     28 ****         0.2521  -1.5786  -1.2982 H              1 S1                 0.0000
     29 ****         0.3424   0.1258  -0.9322 H              1 S1                 0.0000
     30 ****         2.1988  -2.0968  -2.3828 H              1 S1                 0.0000
     31 ****         2.4167  -0.3756  -2.6350 H              1 S1                 0.0000
     32 ****         4.4321  -2.3137  -1.3768 H              1 S1                 0.0000
     33 ****         4.5668  -1.5787  -2.9562 H              1 S1                 0.0000
     34 ****         5.9751  -0.3966  -1.2536 H              1 S1                 0.0000
     35 ****         4.7799   0.6663  -1.9623 H              1 S1                 0.0000
     36 ****         4.5372  -0.7739   0.7162 H              1 S1                 0.0000
     37 ****         4.8243   2.2112   0.1281 H              1 S1                 0.0000
     38 ****         6.0753   1.1684   0.8001 H              1 S1                 0.0000
     39 ****         4.6118   1.4898   1.7213 H              1 S1                 0.0000
     40 ****         2.5452   1.1455  -0.5825 H              1 S1                 0.0000
     41 ****         2.4071   0.4221   1.0038 H              1 S1                 0.0000
     42 ****         2.3998  -1.7317  -0.0473 H              1 S1                 0.0000
     43 ****        -2.1531   1.9499   0.8686 LP             1 S1                 0.0000
     44 ****        -0.5790   1.2273   0.8569 LP             1 S1                 0.0000
     45 ****        -3.4830   2.5600   0.8972 LP             1 S1                 0.0000
     46 ****        -5.7979   3.0655   1.7058 LP             1 S1                 0.0000
     47 ****        -5.7824   3.1102   0.0736 LP             1 S1                 0.0000
@<TRIPOS>BOND
    1    1    2 1     
    2    1   20 1     
    3    1   21 1     
    4    1   22 1     
    5    2   19 1     
    6    2    3 2     
    7    3    4 1     
    8    3   23 1     
    9    4    5 1     
   10    4   18 2     
   11    5    6 am    
   12    5   24 1     
   13    6    7 2     
   14    6    8 am    
   15    8    9 1     
   16    8   25 1     
   17    9   10 1     
   18    9   26 1     
   19    9   27 1     
   20   10   11 1     
   21   10   28 1     
   22   10   29 1     
   23   11   17 1     
   24   11   12 1     
   25   11   42 1     
   26   12   13 1     
   27   12   30 1     
   28   12   31 1     
   29   13   14 1     
   30   13   32 1     
   31   13   33 1     
   32   14   15 1     
   33   14   34 1     
   34   14   35 1     
   35   15   16 1     
   36   15   17 1     
   37   15   36 1     
   38   16   37 1     
   39   16   38 1     
   40   16   39 1     
   41   17   40 1     
   42   17   41 1     
   43   18   19 1     
   44    7   43 1     
   45    7   44 1     
   46   18   45 1     
   47   19   46 1     
   48   19   47 1     
@<TRIPOS>SUBSTRUCTURE
      1 S1             1
@<TRIPOS>SET
LONE_PAIRS      STATIC     ATOMS    <user>   **** ""
5 43 44 45 46 47
DONOR_HYDROGENS      STATIC     ATOMS    <user>   **** ""
3 24 25 42
ATOM$BLUE        STATIC     ATOMS    COLORGROUP SYSTEM
5 43 44 45 46 47
ATOM$RED        STATIC     ATOMS    COLORGROUP SYSTEM
3 24 25 42
