AV-unprocessed.smi:1535|AV-procd|sdf|6174|dock6
  -GOLD-   22720 6323D 1   1.00000     0.00000
 Structure written by MMmdl.
 47 48  0  0  0  0  0  0  0  0  2 V2000
  145.6944  130.0979  151.7265 C   0  0  0  0  0  0  0  0  0  0  0  0
  145.5540  131.6016  151.8910 C   0  0  0  0  0  0  0  0  0  0  0  0
  144.5478  132.2694  151.1583 C   0  0  0  0  0  0  0  0  0  0  0  0
  144.4439  133.6445  151.3305 C   0  0  0  0  0  0  0  0  0  0  0  0
  143.5634  134.5673  150.7646 N   0  3  0  0  0  0  0  0  0  0  0  0
  143.8395  135.8107  151.2434 C   0  0  0  0  0  0  0  0  0  0  0  0
  144.8976  135.7014  152.0940 N   0  0  0  0  0  0  0  0  0  0  0  0
  145.5630  136.7416  152.8983 C   0  0  0  0  0  0  0  0  0  0  0  0
  146.2070  137.8456  152.0371 C   0  0  2  0  0  0  0  0  0  0  0  0
  146.5197  137.3052  150.7671 O   0  0  0  0  0  0  0  0  0  0  0  0
  147.4933  138.3879  152.6897 C   0  0  0  0  0  0  0  0  0  0  0  0
  147.5042  138.5187  154.1528 N   0  0  0  0  0  0  0  0  0  0  0  0
  146.4076  139.3897  154.5589 C   0  0  0  0  0  0  0  0  0  0  0  0
  148.7758  139.0215  154.6842 C   0  0  0  0  0  0  0  0  0  0  0  0
  149.9637  138.0472  154.5552 C   0  0  2  0  0  0  0  0  0  0  0  0
  149.7872  136.8146  155.4525 C   0  0  0  0  0  0  0  0  0  0  0  0
  151.2294  138.7314  154.8615 C   0  0  0  0  0  0  0  0  0  0  0  0
  152.2254  139.2692  155.1010 N   0  0  0  0  0  0  0  0  0  0  0  0
  145.2984  134.3613  152.1927 C   0  0  0  0  0  0  0  0  0  0  0  0
  146.2937  133.7141  152.9244 C   0  0  0  0  0  0  0  0  0  0  0  0
  146.4157  132.3154  152.7629 C   0  0  0  0  0  0  0  0  0  0  0  0
  147.4971  131.5877  153.5439 C   0  0  0  0  0  0  0  0  0  0  0  0
  144.9639  129.7038  151.0196 H   0  0  0  0  0  0  0  0  0  0  0  0
  145.5409  129.5923  152.6803 H   0  0  0  0  0  0  0  0  0  0  0  0
  146.6877  129.8445  151.3553 H   0  0  0  0  0  0  0  0  0  0  0  0
  143.8862  131.7330  150.4937 H   0  0  0  0  0  0  0  0  0  0  0  0
  143.3142  136.7203  150.9901 H   0  0  0  0  0  0  0  0  0  0  0  0
  144.8076  137.1688  153.5590 H   0  0  0  0  0  0  0  0  0  0  0  0
  146.3221  136.2902  153.5351 H   0  0  0  0  0  0  0  0  0  0  0  0
  145.4815  138.6491  151.9210 H   0  0  0  0  0  0  0  0  0  0  0  0
  145.9159  137.6599  150.1324 H   0  0  0  0  0  0  0  0  0  0  0  0
  148.3272  137.7526  152.3864 H   0  0  0  0  0  0  0  0  0  0  0  0
  147.6992  139.3653  152.2506 H   0  0  0  0  0  0  0  0  0  0  0  0
  146.3447  139.4532  155.6458 H   0  0  0  0  0  0  0  0  0  0  0  0
  145.4520  139.0052  154.2007 H   0  0  0  0  0  0  0  0  0  0  0  0
  146.5377  140.3990  154.1656 H   0  0  0  0  0  0  0  0  0  0  0  0
  149.0202  139.9715  154.2060 H   0  0  0  0  0  0  0  0  0  0  0  0
  148.6723  139.2597  155.7442 H   0  0  0  0  0  0  0  0  0  0  0  0
  150.0691  137.6983  153.5315 H   0  0  0  0  0  0  0  0  0  0  0  0
  150.6352  136.1363  155.3539 H   0  0  0  0  0  0  0  0  0  0  0  0
  148.8880  136.2586  155.1855 H   0  0  0  0  0  0  0  0  0  0  0  0
  149.7070  137.0964  156.5028 H   0  0  0  0  0  0  0  0  0  0  0  0
  146.9555  134.2462  153.5909 H   0  0  0  0  0  0  0  0  0  0  0  0
  148.0563  132.2710  154.1840 H   0  0  0  0  0  0  0  0  0  0  0  0
  148.2054  131.1138  152.8640 H   0  0  0  0  0  0  0  0  0  0  0  0
  147.0598  130.8185  154.1810 H   0  0  0  0  0  0  0  0  0  0  0  0
  142.8235  134.3656  150.1043 H   0  0  0  0  0  0  0  0  0  0  0  0
  1  2  1  0  0  0  0
  1 23  1  0  0  0  0
  1 24  1  0  0  0  0
  1 25  1  0  0  0  0
  2 21  1  0  0  0  0
  2  3  2  0  0  0  0
  3  4  1  0  0  0  0
  3 26  1  0  0  0  0
  4 19  2  0  0  0  0
  4  5  1  0  0  0  0
  5  6  2  0  0  0  0
  5 47  1  0  0  0  0
  6  7  1  0  0  0  0
  6 27  1  0  0  0  0
  7  8  1  0  0  0  0
  7 19  1  0  0  0  0
  8  9  1  0  0  0  0
  8 28  1  0  0  0  0
  8 29  1  0  0  0  0
  9 10  1  0  0  0  0
  9 11  1  0  0  0  0
  9 30  1  0  0  0  0
 10 31  1  0  0  0  0
 11 12  1  0  0  0  0
 11 32  1  0  0  0  0
 11 33  1  0  0  0  0
 12 13  1  0  0  0  0
 12 14  1  0  0  0  0
 13 34  1  0  0  0  0
 13 35  1  0  0  0  0
 13 36  1  0  0  0  0
 14 15  1  0  0  0  0
 14 37  1  0  0  0  0
 14 38  1  0  0  0  0
 15 16  1  0  0  0  0
 15 17  1  0  0  0  0
 15 39  1  0  0  0  0
 16 40  1  0  0  0  0
 16 41  1  0  0  0  0
 16 42  1  0  0  0  0
 17 18  3  0  0  0  0
 19 20  1  0  0  0  0
 20 21  2  0  0  0  0
 20 43  1  0  0  0  0
 21 22  1  0  0  0  0
 22 44  1  0  0  0  0
 22 45  1  0  0  0  0
 22 46  1  0  0  0  0
M  CHG  1   5   1
M  END
> <s_m_source_file>
AV-unprocessed.smi

> <i_m_source_file_index>
1535

> <i_lp_mmshare_version>
43012

> <i_f3d_flags>
0

> <s_epik_input>
W0NIM11jKFtjSF0xKWMoW0NIM10pW2NIXWMoYzEyKW4oW2NIXW4yKVtDSDJdW0NASF0oW09IXSlbQ0gyXU4oW0NIM10pW0NIMl1bQ0BIXShbQ0gzXSlDI04=

> <s_epik_cmdline>
J2VwaWtfcHl0aG9uJywgJy1waCcsICc3LjAnLCAnLXRuJywgJzgnLCAnLW1hJywgJzIwMCcsICctbWV0YWxfYmluZGluZycsICctaW1hZScsICc8aW5maWxlLm1hZT4nLCAnLW9tYWUnLCAnPG91dGZpbGUubWFlPic=

> <r_epik_Ionization_Penalty>
1.22846

> <r_epik_Ionization_Penalty_Charging>
1.21333

> <r_epik_Ionization_Penalty_Neutral>
0.0151341

> <r_epik_State_Penalty>
1.27012

> <r_epik_Charging_Adjusted_Penalty>
2.48344

> <i_epik_Tot_Q>
1

> <i_epik_Tot_abs_Q>
1

> <r_epik_Metal_State_Penalty>
5.28751

> <b_epik_Metal_Only>
0

> <s_lp_Force_Field>
OPLS_2005

> <r_lp_Energy>
32.9236

> <b_lp_Chiralities_Consistent>
1

> <s_lp_Variant>
AV-unprocessed.smi:1535-5

> <Gold.Version>
5.8.1

> <Gold.Id.Protein>
6NUR|6NUR_protein|mol2

> <Gold.PLP.Fitness>
51.0240

> <Gold.PLP.PLP>
-36.3094

> <Gold.PLP.part.hbond>
-5.0000

> <Gold.PLP.part.metal>
0.0000

> <Gold.PLP.part.buried>
-1.3011

> <Gold.PLP.part.nonpolar>
-31.4817

> <Gold.PLP.part.repulsive>
0.1972

> <Gold.PLP.ligand.clash>
0.0000

> <Gold.PLP.ligand.torsion>
0.7844

> <Gold.PLP.Chemscore.Hbond>
4.4153

> <Gold.PLP.Chemscore.CHOScore>
0.9658

> <Gold.PLP.Chemscore.Metal>
0.0000

> <Gold.Chemscore.Hbonds>
donor molecule, donor type, donor heavy atom, donor atom, acceptor molecule, acceptor atom, score
      L1  H     5    47       P1 10186  2.00
      L1  H    10    31       P1 10171  0.42
      P1  H  7954  7966       L1    10  0.85
      P1  H  7989  7998       L1    18  0.09
      L1  C     6    27       P1 10171  1.00

> <Gold.PLP.Chemscore.Internal.Correction>
0.1403

> <Gold.Rescore>
     Score         DG    S(hbond)    S(metal)    S(lipo)     H(rot)  DE(clash)    DE(int)     intcor
     16.08     -17.16       2.45        0.00      86.62       2.59       0.31       0.77       ----

> <Gold.Chemscore.Fitness>
16.0808

> <Gold.Chemscore.DG>
-17.1597

> <Gold.Chemscore.ZeroCoef>
-5.4800

> <Gold.Chemscore.Hbond>
2.4491

> <Gold.Chemscore.Metal>
0.0000

> <Gold.Chemscore.Lipo>
86.6230

> <Gold.Chemscore.Internal_Hbond>
0.0000

> <Gold.Chemscore.DEClash>
0.3088

> <Gold.Chemscore.DEInternal>
0.7701

> <Gold.Chemscore.Rot>
2.5918

> <Gold.Chemscore.Internal.Correction>
   9.000000E+99

> <Gold.Chemscore.Hbonds>
donor molecule, donor type, donor heavy atom, donor atom, acceptor molecule, acceptor atom, score
      L1  H     5    47       P1 10186  0.85
      L1  H    10    31       P1 10171  0.41
      P1  H  7954  7966       L1    10  0.14

> <Gold.Chemscore.Hbond.Weighted>
-8.1799

> <Gold.Chemscore.Metal.Weighted>
-0.0000

> <Gold.Chemscore.Lipo.Weighted>
-10.1349

> <Gold.Chemscore.Internal_Hbond.Weighted>
0.0000

> <Gold.Chemscore.DEClash.Weighted>
0.3088

> <Gold.Chemscore.DEInternal.Weighted>
0.7701

> <Gold.Chemscore.Rot.Weighted>
6.6351

> <Gold.Chemscore.Internal.Correction.Weighted>
   9.000000E+99

> <Gold.Protein.RotatedTorsions>
[ 6907 6896 6895 6894 ] final -111.44 input  -60.11 | X-H torsion
[ 7974 7965 7964 7962 ] final   67.20 input  175.53 | X-H torsion
[ 8008 7997 7996 7995 ] final   37.51 input   59.86 | X-H torsion
[ 10167 10162 10161 10158 ] final  -13.93 input  -65.29 | X-H torsion
[ 10718 10713 10712 10709 ] final   21.08 input   66.30 | X-H torsion
[ 10763 10752 10751 10750 ] final  -49.84 input  -60.55 | X-H torsion
[ 11005 11000 10999 10996 ] final   89.61 input  -57.11 | X-H torsion

> <Gold.Protein.ActiveResidues>
 VAL166  LYS551  ARG553  GLY616  TRP617  ASP618  TYR619  PRO620  LYS621  CYS622 
 ASP623  PHE694  ASN695  SER759  ASP760  ASP761  ALA762  ILE779  LEU786  VAL792 
 PHE793  MET794  SER795  GLU796  ALA797  LYS798  CYS799  TRP800  GLU811  SER814 

> <Gold.Protein.RotatedAtoms>
  150.7691  133.9234  159.3404 H   0  0  0  0  0  0  0  0  0  0  0  0  # atno 6907 bound_to 6896
  151.7125  135.0908  160.0279 H   0  0  0  0  0  0  0  0  0  0  0  0  # atno 6908 bound_to 6896
  152.3700  133.6369  159.6116 H   0  0  0  0  0  0  0  0  0  0  0  0  # atno 6909 bound_to 6896
  145.8174  139.3066  143.1063 H   0  0  0  0  0  0  0  0  0  0  0  0  # atno 7974 bound_to 7965
  155.2050  140.3319  155.4337 H   0  0  0  0  0  0  0  0  0  0  0  0  # atno 8008 bound_to 7997
  156.2392  140.1887  156.7084 H   0  0  0  0  0  0  0  0  0  0  0  0  # atno 8009 bound_to 7997
  154.6116  140.0608  156.9486 H   0  0  0  0  0  0  0  0  0  0  0  0  # atno 8010 bound_to 7997
  140.7191  143.5375  150.9448 H   0  0  0  0  0  0  0  0  0  0  0  0  # atno 10167 bound_to 10162
  157.1335  130.6601  149.5959 H   0  0  0  0  0  0  0  0  0  0  0  0  # atno 10718 bound_to 10713
  154.1007  135.6564  153.4867 H   0  0  0  0  0  0  0  0  0  0  0  0  # atno 10763 bound_to 10752
  153.0290  135.5224  154.7290 H   0  0  0  0  0  0  0  0  0  0  0  0  # atno 10764 bound_to 10752
  154.6441  135.2992  155.0037 H   0  0  0  0  0  0  0  0  0  0  0  0  # atno 10765 bound_to 10752
  139.8872  134.8562  156.3166 H   0  0  0  0  0  0  0  0  0  0  0  0  # atno 11005 bound_to 11000
  145.9711  140.8759  143.0162 LP  0  0  0  0  0  0  0  0  0  0  0  0  # atno 17320 bound_to 7965
  144.6751  140.1947  143.7393 LP  0  0  0  0  0  0  0  0  0  0  0  0  # atno 17321 bound_to 7965
  139.9097  143.6735  152.3117 LP  0  0  0  0  0  0  0  0  0  0  0  0  # atno 17342 bound_to 10162
  139.7114  144.7619  151.1106 LP  0  0  0  0  0  0  0  0  0  0  0  0  # atno 17343 bound_to 10162
  155.9803  130.4802  150.6764 LP  0  0  0  0  0  0  0  0  0  0  0  0  # atno 17370 bound_to 10713
  157.4371  131.0856  151.0981 LP  0  0  0  0  0  0  0  0  0  0  0  0  # atno 17371 bound_to 10713
  140.9815  133.7265  156.0678 LP  0  0  0  0  0  0  0  0  0  0  0  0  # atno 17394 bound_to 11000
  140.7744  134.3797  157.5501 LP  0  0  0  0  0  0  0  0  0  0  0  0  # atno 17395 bound_to 11000

$$$$
