#       Name:                AV-unprocessed.smi:2217
#       Creating user name   scv26
#       Creation time:       Fri Mar 27 12:18:41 2020


#       File generated by GOLD software.
#

@<TRIPOS>MOLECULE
AV-unprocessed.smi:2217
    50    53     1
SMALL
NO_CHARGES


@<TRIPOS>ATOM
      1 ****         1.8479  -8.1606  -2.2744 C.3            1 S1                 0.0000
      2 ****         1.6151  -6.7382  -1.8103 C.ar           1 S1                 0.0000
      3 ****         0.3143  -6.2464  -1.5932 C.ar           1 S1                 0.0000
      4 ****         0.1557  -4.9168  -1.1568 C.ar           1 S1                 0.0000
      5 ****         1.2957  -4.1084  -0.9457 C.ar           1 S1                 0.0000
      6 ****         1.0062  -2.7848  -0.4983 N.am           1 S1                 0.0000
      7 ****         1.8157  -1.7555  -0.1681 C.2            1 S1                 0.0000
      8 ****         3.0394  -1.8617  -0.2312 O.2            1 S1                 0.0000
      9 ****         1.2072  -0.6254   0.2201 N.am           1 S1                 0.0000
     10 ****         1.8875   0.6213   0.5822 C.3            1 S1                 0.0000
     11 ****         2.2179   1.5170  -0.6154 C.3            1 S1                 0.0000
     12 ****         2.3759   1.3150  -2.0792 C.3            1 S1                 0.0000
     13 ****         1.6164   2.5884  -2.5367 C.3            1 S1                 0.0000
     14 ****         0.9849   3.1256  -1.3470 O.3            1 S1                 0.0000
     15 ****         0.7833   1.9942  -0.5219 C.3            1 S1                 0.0000
     16 ****         0.9152   1.7887   1.0061 C.3            1 S1                 0.0000
     17 ****        -0.3603   1.4108   1.7706 C.3            1 S1                 0.0000
     18 ****        -0.7124   2.5768   2.6894 C.3            1 S1                 0.0000
     19 ****         0.6410   3.1614   3.0656 C.3            1 S1                 0.0000
     20 ****         1.5014   2.9616   1.8178 C.3            1 S1                 0.0000
     21 ****         2.5450  -4.5958  -1.1587 N.ar           1 S1                 0.0000
     22 ****         2.6978  -5.8694  -1.5773 C.ar           1 S1                 0.0000
     23 ****         0.9483  -8.5786  -2.7274 H              1 S1                 0.0000
     24 ****         2.1320  -8.7893  -1.4302 H              1 S1                 0.0000
     25 ****         2.6480  -8.1958  -3.0141 H              1 S1                 0.0000
     26 ****        -0.5497  -6.8739  -1.7555 H              1 S1                 0.0000
     27 ****        -0.8366  -4.5257  -0.9845 H              1 S1                 0.0000
     28 ****         0.0227  -2.5959  -0.3718 H              1 S1                 0.0000
     29 ****         0.1971  -0.6208   0.2477 H              1 S1                 0.0000
     30 ****         2.7223   0.4835   1.2712 H              1 S1                 0.0000
     31 ****         2.9300   2.2795  -0.2830 H              1 S1                 0.0000
     32 ****         3.4187   1.3082  -2.3969 H              1 S1                 0.0000
     33 ****         1.8883   0.4030  -2.4259 H              1 S1                 0.0000
     34 ****         2.2891   3.3341  -2.9612 H              1 S1                 0.0000
     35 ****         0.8649   2.3423  -3.2880 H              1 S1                 0.0000
     36 ****         0.0513   1.3184  -0.9762 H              1 S1                 0.0000
     37 ****        -1.1908   1.1717   1.1053 H              1 S1                 0.0000
     38 ****        -0.1811   0.5229   2.3785 H              1 S1                 0.0000
     39 ****        -1.2925   3.3177   2.1376 H              1 S1                 0.0000
     40 ****        -1.2969   2.2702   3.5574 H              1 S1                 0.0000
     41 ****         0.5796   4.2056   3.3733 H              1 S1                 0.0000
     42 ****         1.0644   2.5937   3.8950 H              1 S1                 0.0000
     43 ****         2.5425   2.7938   2.0952 H              1 S1                 0.0000
     44 ****         1.4818   3.8757   1.2235 H              1 S1                 0.0000
     45 ****         3.7141  -6.2024  -1.7287 H              1 S1                 0.0000
     46 ****         3.4518  -2.7218  -0.5313 LP             1 S1                 0.0000
     47 ****         3.6220  -1.0879   0.0176 LP             1 S1                 0.0000
     48 ****         0.1130   3.5598  -1.5733 LP             1 S1                 0.0000
     49 ****         1.5817   3.7906  -0.8979 LP             1 S1                 0.0000
     50 ****         3.3453  -4.0157  -1.0066 LP             1 S1                 0.0000
@<TRIPOS>BOND
    1    1    2 1     
    2    1   23 1     
    3    1   24 1     
    4    1   25 1     
    5    2   22 ar    
    6    2    3 ar    
    7    3    4 ar    
    8    3   26 1     
    9    4    5 ar    
   10    4   27 1     
   11    5    6 1     
   12    5   21 ar    
   13    6    7 am    
   14    6   28 1     
   15    7    8 2     
   16    7    9 am    
   17    9   10 1     
   18    9   29 1     
   19   10   16 1     
   20   10   11 1     
   21   10   30 1     
   22   11   15 1     
   23   11   12 1     
   24   11   31 1     
   25   12   13 1     
   26   12   32 1     
   27   12   33 1     
   28   13   14 1     
   29   13   34 1     
   30   13   35 1     
   31   14   15 1     
   32   15   16 1     
   33   15   36 1     
   34   16   20 1     
   35   16   17 1     
   36   17   18 1     
   37   17   37 1     
   38   17   38 1     
   39   18   19 1     
   40   18   39 1     
   41   18   40 1     
   42   19   20 1     
   43   19   41 1     
   44   19   42 1     
   45   20   43 1     
   46   20   44 1     
   47   21   22 ar    
   48   22   45 1     
   49    8   46 1     
   50    8   47 1     
   51   14   48 1     
   52   14   49 1     
   53   21   50 1     
@<TRIPOS>SUBSTRUCTURE
      1 S1             1
@<TRIPOS>SET
LONE_PAIRS      STATIC     ATOMS    <user>   **** ""
5 46 47 48 49 50
DONOR_HYDROGENS      STATIC     ATOMS    <user>   **** ""
2 28 29
ATOM$BLUE        STATIC     ATOMS    COLORGROUP SYSTEM
5 46 47 48 49 50
ATOM$RED        STATIC     ATOMS    COLORGROUP SYSTEM
2 28 29
