#       Name:                AV-unprocessed.smi:2317
#       Creating user name   scv26
#       Creation time:       Fri Mar 27 12:49:30 2020


#       File generated by GOLD software.
#

@<TRIPOS>MOLECULE
AV-unprocessed.smi:2317
    42    43     1
SMALL
NO_CHARGES


@<TRIPOS>ATOM
      1 ****        -0.5007   1.6662   0.9740 O.2            1 S1                 0.0000
      2 ****        -0.9854   0.5534   1.1811 C.2            1 S1                 0.0000
      3 ****        -0.2526  -0.5575   1.3406 N.am           1 S1                 0.0000
      4 ****         1.2050  -0.6142   1.2818 C.3            1 S1                 0.0000
      5 ****         1.7497  -0.5893  -0.1672 C.3            1 S1                 0.0000
      6 ****         1.1938  -1.7679  -1.0010 C.3            1 S1                 0.0000
      7 ****         1.7483  -1.7764  -2.4335 C.3            1 S1                 0.0000
      8 ****         3.2821  -1.8099  -2.4312 C.3            1 S1                 0.0000
      9 ****         3.8502  -0.6292  -1.6323 C.3            1 S1                 0.0000
     10 ****         3.2985  -0.6029  -0.1946 C.3            1 S1                 0.0000
     11 ****         3.8122   0.5490   0.4439 O.3            1 S1                 0.0000
     12 ****        -2.2986   0.2958   1.2965 N.am           1 S1                 0.0000
     13 ****        -3.3584   1.2361   1.2278 C.ar           1 S1                 0.0000
     14 ****        -4.4050   1.1318   2.1670 C.ar           1 S1                 0.0000
     15 ****        -5.4713   2.0505   2.0965 C.ar           1 S1                 0.0000
     16 ****        -5.5533   3.0219   1.1628 N.ar           1 S1                 0.0000
     17 ****        -4.5633   3.1021   0.2481 C.ar           1 S1                 0.0000
     18 ****        -3.4529   2.2339   0.2267 C.ar           1 S1                 0.0000
     19 ****        -2.5268   2.3499  -0.7553 F              1 S1                 0.0000
     20 ****        -0.7347  -1.4272   1.5147 H              1 S1                 0.0000
     21 ****         1.6150   0.2114   1.8656 H              1 S1                 0.0000
     22 ****         1.5260  -1.5280   1.7827 H              1 S1                 0.0000
     23 ****         1.4171   0.3360  -0.6408 H              1 S1                 0.0000
     24 ****         1.4427  -2.7112  -0.5128 H              1 S1                 0.0000
     25 ****         0.1054  -1.7238  -1.0464 H              1 S1                 0.0000
     26 ****         1.3587  -2.6373  -2.9774 H              1 S1                 0.0000
     27 ****         1.4009  -0.8904  -2.9665 H              1 S1                 0.0000
     28 ****         3.6287  -2.7489  -1.9980 H              1 S1                 0.0000
     29 ****         3.6574  -1.7822  -3.4545 H              1 S1                 0.0000
     30 ****         4.9392  -0.6890  -1.6144 H              1 S1                 0.0000
     31 ****         3.6001   0.3021  -2.1428 H              1 S1                 0.0000
     32 ****         3.6638  -1.4781   0.3446 H              1 S1                 0.0000
     33 ****         3.4984   1.3127  -0.0161 H              1 S1                 0.0000
     34 ****        -2.5524  -0.6368   1.5869 H              1 S1                 0.0000
     35 ****        -4.3898   0.3720   2.9348 H              1 S1                 0.0000
     36 ****        -6.2815   2.0013   2.8090 H              1 S1                 0.0000
     37 ****        -4.6660   3.8747  -0.4993 H              1 S1                 0.0000
     38 ****         0.4915   1.7766   0.9168 LP             1 S1                 0.0000
     39 ****        -1.0993   2.4595   0.8630 LP             1 S1                 0.0000
     40 ****         4.8117   0.5292   0.4219 LP             1 S1                 0.0000
     41 ****         3.5001   0.5755   1.3936 LP             1 S1                 0.0000
     42 ****        -6.3221   3.6612   1.1490 LP             1 S1                 0.0000
@<TRIPOS>BOND
    1    1    2 2     
    2    2    3 am    
    3    2   12 am    
    4    3    4 1     
    5    3   20 1     
    6    4    5 1     
    7    4   21 1     
    8    4   22 1     
    9    5   10 1     
   10    5    6 1     
   11    5   23 1     
   12    6    7 1     
   13    6   24 1     
   14    6   25 1     
   15    7    8 1     
   16    7   26 1     
   17    7   27 1     
   18    8    9 1     
   19    8   28 1     
   20    8   29 1     
   21    9   10 1     
   22    9   30 1     
   23    9   31 1     
   24   10   11 1     
   25   10   32 1     
   26   11   33 1     
   27   12   13 1     
   28   12   34 1     
   29   13   18 ar    
   30   13   14 ar    
   31   14   15 ar    
   32   14   35 1     
   33   15   16 ar    
   34   15   36 1     
   35   16   17 ar    
   36   17   18 ar    
   37   17   37 1     
   38   18   19 1     
   39    1   38 1     
   40    1   39 1     
   41   11   40 1     
   42   11   41 1     
   43   16   42 1     
@<TRIPOS>SUBSTRUCTURE
      1 S1             1
@<TRIPOS>SET
LONE_PAIRS      STATIC     ATOMS    <user>   **** ""
5 38 39 40 41 42
DONOR_HYDROGENS      STATIC     ATOMS    <user>   **** ""
3 20 33 34
ATOM$BLUE        STATIC     ATOMS    COLORGROUP SYSTEM
5 38 39 40 41 42
ATOM$RED        STATIC     ATOMS    COLORGROUP SYSTEM
3 20 33 34
