AV-unprocessed.smi:2962|AV-procd|sdf|11315|dock4
  -GOLD-   2272016213D 1   1.00000     0.00000
 Structure written by MMmdl.
 36 37  0  0  0  0  0  0  0  0  1 V2000
  154.5889  138.0708  158.7243 C   0  0  0  0  0  0  0  0  0  0  0  0
  154.8390  139.4631  158.8347 O   0  0  0  0  0  0  0  0  0  0  0  0
  153.9892  140.1207  159.7639 C   0  0  0  0  0  0  0  0  0  0  0  0
  152.5121  140.0549  159.3375 C   0  0  0  0  0  0  0  0  0  0  0  0
  152.0536  141.3116  158.7615 N   0  0  0  0  0  0  0  0  0  0  0  0
  151.5685  141.5472  157.5164 C   0  0  0  0  0  0  0  0  0  0  0  0
  151.3943  140.2765  156.3082 S   0  0  0  0  0  0  0  0  0  0  0  0
  149.6417  140.5358  155.8960 C   0  0  2  0  0  0  0  0  0  0  0  0
  148.7678  139.5009  156.6252 C   0  0  0  0  0  0  0  0  0  0  0  0
  149.4124  140.5266  154.3780 C   0  0  0  0  0  0  0  0  0  0  0  0
  149.6801  139.3885  153.7323 N   0  0  0  0  0  0  0  0  0  0  0  0
  149.0052  141.5257  153.7878 O   0  0  0  0  0  0  0  0  0  0  0  0
  151.2258  142.8091  157.2586 N   0  0  0  0  0  0  0  0  0  0  0  0
  151.5124  143.4526  158.4461 C   0  0  0  0  0  0  0  0  0  0  0  0
  151.3669  144.8092  158.8147 C   0  0  0  0  0  0  0  0  0  0  0  0
  151.7327  145.2407  160.1067 C   0  0  0  0  0  0  0  0  0  0  0  0
  152.2476  144.3241  161.0462 C   0  0  0  0  0  0  0  0  0  0  0  0
  152.3996  142.9679  160.6994 C   0  0  0  0  0  0  0  0  0  0  0  0
  152.0325  142.5426  159.4087 C   0  0  0  0  0  0  0  0  0  0  0  0
  155.2465  137.6417  157.9685 H   0  0  0  0  0  0  0  0  0  0  0  0
  153.5605  137.8629  158.4287 H   0  0  0  0  0  0  0  0  0  0  0  0
  154.7874  137.5622  159.6683 H   0  0  0  0  0  0  0  0  0  0  0  0
  154.1231  139.7192  160.7696 H   0  0  0  0  0  0  0  0  0  0  0  0
  154.2992  141.1650  159.8115 H   0  0  0  0  0  0  0  0  0  0  0  0
  152.3419  139.2398  158.6363 H   0  0  0  0  0  0  0  0  0  0  0  0
  151.8912  139.8338  160.2060 H   0  0  0  0  0  0  0  0  0  0  0  0
  149.3453  141.5187  156.2646 H   0  0  0  0  0  0  0  0  0  0  0  0
  147.7112  139.6350  156.3903 H   0  0  0  0  0  0  0  0  0  0  0  0
  148.8751  139.5955  157.7061 H   0  0  0  0  0  0  0  0  0  0  0  0
  149.0449  138.4809  156.3559 H   0  0  0  0  0  0  0  0  0  0  0  0
  149.5668  139.3371  152.7303 H   0  0  0  0  0  0  0  0  0  0  0  0
  150.0167  138.5881  154.2478 H   0  0  0  0  0  0  0  0  0  0  0  0
  150.9740  145.5194  158.1021 H   0  0  0  0  0  0  0  0  0  0  0  0
  151.6184  146.2800  160.3782 H   0  0  0  0  0  0  0  0  0  0  0  0
  152.5261  144.6628  162.0335 H   0  0  0  0  0  0  0  0  0  0  0  0
  152.7947  142.2635  161.4163 H   0  0  0  0  0  0  0  0  0  0  0  0
  1  2  1  0  0  0  0
  1 20  1  0  0  0  0
  1 21  1  0  0  0  0
  1 22  1  0  0  0  0
  2  3  1  0  0  0  0
  3  4  1  0  0  0  0
  3 23  1  0  0  0  0
  3 24  1  0  0  0  0
  4  5  1  0  0  0  0
  4 25  1  0  0  0  0
  4 26  1  0  0  0  0
  5 19  1  0  0  0  0
  5  6  1  0  0  0  0
  6  7  1  0  0  0  0
  6 13  2  0  0  0  0
  7  8  1  0  0  0  0
  8  9  1  0  0  0  0
  8 10  1  0  0  0  0
  8 27  1  0  0  0  0
  9 28  1  0  0  0  0
  9 29  1  0  0  0  0
  9 30  1  0  0  0  0
 10 11  1  0  0  0  0
 10 12  2  0  0  0  0
 11 31  1  0  0  0  0
 11 32  1  0  0  0  0
 13 14  1  0  0  0  0
 14 19  2  0  0  0  0
 14 15  1  0  0  0  0
 15 16  2  0  0  0  0
 15 33  1  0  0  0  0
 16 17  1  0  0  0  0
 16 34  1  0  0  0  0
 17 18  2  0  0  0  0
 17 35  1  0  0  0  0
 18 19  1  0  0  0  0
 18 36  1  0  0  0  0
M  END
> <s_m_source_file>
AV-unprocessed.smi

> <i_m_source_file_index>
2962

> <i_lp_mmshare_version>
43012

> <i_f3d_flags>
0

> <s_epik_input>
W2NIXTFbY0hdW2NIXVtjSF1jKGMxMiluKFtDSDJdW0NIMl1PW0NIM10pYyhuMilTW0NASF0oW0NIM10pQyg9TylbTkgyXQ==

> <s_epik_cmdline>
J2VwaWtfcHl0aG9uJywgJy1waCcsICc3LjAnLCAnLXRuJywgJzgnLCAnLW1hJywgJzIwMCcsICctbWV0YWxfYmluZGluZycsICctaW1hZScsICc8aW5maWxlLm1hZT4nLCAnLW9tYWUnLCAnPG91dGZpbGUubWFlPic=

> <r_epik_Ionization_Penalty>
0.0199986

> <r_epik_Ionization_Penalty_Charging>
0

> <r_epik_Ionization_Penalty_Neutral>
0.0199986

> <r_epik_State_Penalty>
0.0160044

> <r_epik_Charging_Adjusted_Penalty>
0.0160044

> <i_epik_Tot_Q>
0

> <i_epik_Tot_abs_Q>
0

> <r_epik_Metal_State_Penalty>
0.015472

> <b_epik_Metal_Only>
0

> <s_lp_Force_Field>
OPLS_2005

> <r_lp_Energy>
7.16755

> <b_lp_Chiralities_Consistent>
1

> <s_lp_Variant>
AV-unprocessed.smi:2962-1

> <Gold.Version>
5.8.1

> <Gold.Id.Protein>
6NUR|6NUR_protein|mol2

> <Gold.PLP.Fitness>
47.9928

> <Gold.PLP.PLP>
-41.4958

> <Gold.PLP.part.hbond>
-3.8084

> <Gold.PLP.part.metal>
0.0000

> <Gold.PLP.part.buried>
-5.6605

> <Gold.PLP.part.nonpolar>
-32.4219

> <Gold.PLP.part.repulsive>
1.0051

> <Gold.PLP.ligand.clash>
0.0000

> <Gold.PLP.ligand.torsion>
0.9710

> <Gold.PLP.Chemscore.Hbond>
2.7680

> <Gold.PLP.Chemscore.CHOScore>
0.0000

> <Gold.PLP.Chemscore.Metal>
0.0000

> <Gold.Chemscore.Hbonds>
donor molecule, donor type, donor heavy atom, donor atom, acceptor molecule, acceptor atom, score
      L1  H    11    31       P1  7957  1.00
      P1  H  7997  8008       L1     2  1.00
      P1  H  8011  8017       L1    12  0.72

> <Gold.PLP.Chemscore.Internal.Correction>
0.1350

> <Gold.Rescore>
     Score         DG    S(hbond)    S(metal)    S(lipo)     H(rot)  DE(clash)    DE(int)     intcor
     18.38     -19.53       2.67        0.00      98.71       2.50       0.11       1.04       ----

> <Gold.Chemscore.Fitness>
18.3790

> <Gold.Chemscore.DG>
-19.5261

> <Gold.Chemscore.ZeroCoef>
-5.4800

> <Gold.Chemscore.Hbond>
2.6658

> <Gold.Chemscore.Metal>
0.0000

> <Gold.Chemscore.Lipo>
98.7127

> <Gold.Chemscore.Internal_Hbond>
0.0000

> <Gold.Chemscore.DEClash>
0.1091

> <Gold.Chemscore.DEInternal>
1.0380

> <Gold.Chemscore.Rot>
2.5027

> <Gold.Chemscore.Internal.Correction>
   9.000000E+99

> <Gold.Chemscore.Hbonds>
donor molecule, donor type, donor heavy atom, donor atom, acceptor molecule, acceptor atom, score
      L1  H    11    31       P1  7957  0.97
      P1  H  7997  8008       L1     2  0.65
      P1  H  8011  8017       L1    12  0.72

> <Gold.Chemscore.Hbond.Weighted>
-8.9038

> <Gold.Chemscore.Metal.Weighted>
-0.0000

> <Gold.Chemscore.Lipo.Weighted>
-11.5494

> <Gold.Chemscore.Internal_Hbond.Weighted>
0.0000

> <Gold.Chemscore.DEClash.Weighted>
0.1091

> <Gold.Chemscore.DEInternal.Weighted>
1.0380

> <Gold.Chemscore.Rot.Weighted>
6.4070

> <Gold.Chemscore.Internal.Correction.Weighted>
   9.000000E+99

> <Gold.Protein.RotatedTorsions>
[ 6907 6896 6895 6894 ] final -159.74 input  -60.11 | X-H torsion
[ 7974 7965 7964 7962 ] final  165.64 input  175.53 | X-H torsion
[ 8008 7997 7996 7995 ] final -128.00 input   59.86 | X-H torsion
[ 10167 10162 10161 10158 ] final  -67.65 input  -65.29 | X-H torsion
[ 10718 10713 10712 10709 ] final   96.17 input   66.30 | X-H torsion
[ 10763 10752 10751 10750 ] final   47.25 input  -60.55 | X-H torsion
[ 11005 11000 10999 10996 ] final  -19.93 input  -57.11 | X-H torsion

> <Gold.Protein.ActiveResidues>
 VAL166  LYS551  ARG553  GLY616  TRP617  ASP618  TYR619  PRO620  LYS621  CYS622 
 ASP623  PHE694  ASN695  SER759  ASP760  ASP761  ALA762  ILE779  LEU786  VAL792 
 PHE793  MET794  SER795  GLU796  ALA797  LYS798  CYS799  TRP800  GLU811  SER814 

> <Gold.Protein.RotatedAtoms>
  151.3383  133.3972  159.2668 H   0  0  0  0  0  0  0  0  0  0  0  0  # atno 6907 bound_to 6896
  150.9899  134.9236  159.7903 H   0  0  0  0  0  0  0  0  0  0  0  0  # atno 6908 bound_to 6896
  152.5244  134.3348  159.9248 H   0  0  0  0  0  0  0  0  0  0  0  0  # atno 6909 bound_to 6896
  144.7494  139.8500  143.6371 H   0  0  0  0  0  0  0  0  0  0  0  0  # atno 7974 bound_to 7965
  155.2555  140.0434  157.2991 H   0  0  0  0  0  0  0  0  0  0  0  0  # atno 8008 bound_to 7997
  154.5743  140.2382  155.8115 H   0  0  0  0  0  0  0  0  0  0  0  0  # atno 8009 bound_to 7997
  156.2146  140.2988  155.9818 H   0  0  0  0  0  0  0  0  0  0  0  0  # atno 8010 bound_to 7997
  140.5567  143.2312  151.6808 H   0  0  0  0  0  0  0  0  0  0  0  0  # atno 10167 bound_to 10162
  157.6930  131.0569  150.4451 H   0  0  0  0  0  0  0  0  0  0  0  0  # atno 10718 bound_to 10713
  152.9802  135.5982  154.3732 H   0  0  0  0  0  0  0  0  0  0  0  0  # atno 10763 bound_to 10752
  154.3403  135.2768  155.2428 H   0  0  0  0  0  0  0  0  0  0  0  0  # atno 10764 bound_to 10752
  154.4512  135.5989  153.6248 H   0  0  0  0  0  0  0  0  0  0  0  0  # atno 10765 bound_to 10752
  140.8415  133.7923  155.9866 H   0  0  0  0  0  0  0  0  0  0  0  0  # atno 11005 bound_to 11000
  146.1423  139.4483  143.0101 LP  0  0  0  0  0  0  0  0  0  0  0  0  # atno 17320 bound_to 7965
  145.6999  141.0139  143.1510 LP  0  0  0  0  0  0  0  0  0  0  0  0  # atno 17321 bound_to 7965
  139.5051  144.3730  152.0451 LP  0  0  0  0  0  0  0  0  0  0  0  0  # atno 17342 bound_to 10162
  140.2852  144.3815  150.6106 LP  0  0  0  0  0  0  0  0  0  0  0  0  # atno 17343 bound_to 10162
  156.4807  130.4073  149.6463 LP  0  0  0  0  0  0  0  0  0  0  0  0  # atno 17370 bound_to 10713
  156.3510  130.7432  151.2391 LP  0  0  0  0  0  0  0  0  0  0  0  0  # atno 17371 bound_to 10713
  140.8890  134.2519  157.5104 LP  0  0  0  0  0  0  0  0  0  0  0  0  # atno 17394 bound_to 11000
  139.8703  134.9652  156.4521 LP  0  0  0  0  0  0  0  0  0  0  0  0  # atno 17395 bound_to 11000

$$$$
