#       Name:                AV-unprocessed.smi:72
#       Creating user name   scv26
#       Creation time:       Thu Mar 26 17:00:28 2020


#       File generated by GOLD software.
#

@<TRIPOS>MOLECULE
AV-unprocessed.smi:72
    41    42     1
SMALL
NO_CHARGES


@<TRIPOS>ATOM
      1 ****        -3.9772   2.7654  -1.8727 N.2            1 S1                 0.0000
      2 ****        -2.9666   2.1926  -1.3235 C.2            1 S1                 0.0000
      3 ****        -1.8400   1.7061  -2.0034 N.2            1 S1                 0.0000
      4 ****        -0.8912   1.1478  -1.3161 C.2            1 S1                 0.0000
      5 ****        -0.9612   1.0078   0.1322 N.am           1 S1                 0.0000
      6 ****         0.1451   0.3551   0.9430 C.3            1 S1                 0.0000
      7 ****         1.3392   0.3540   0.2141 O.3            1 S1                 0.0000
      8 ****         1.6497  -0.9671  -0.2197 C.3            1 S1                 0.0000
      9 ****         3.1509  -1.1161  -0.5223 C.3            1 S1                 0.0000
     10 ****         3.4310  -0.6492  -1.8248 O.3            1 S1                 0.0000
     11 ****         1.1139  -1.8374   0.9237 C.3            1 S1                 0.0000
     12 ****         2.0267  -1.8790   2.0060 O.3            1 S1                 0.0000
     13 ****        -0.1615  -1.1124   1.3328 C.3            1 S1                 0.0000
     14 ****        -1.2681  -1.6718   0.6461 O.3            1 S1                 0.0000
     15 ****        -2.0936   1.4934   0.8309 C.2            1 S1                 0.0000
     16 ****        -2.2077   1.3896   2.0521 O.2            1 S1                 0.0000
     17 ****        -3.0481   2.0694   0.0691 N.am           1 S1                 0.0000
     18 ****         0.2930   1.0049   1.8074 H              1 S1                 0.0000
     19 ****         1.0664  -1.1957  -1.1136 H              1 S1                 0.0000
     20 ****         0.9292  -2.8632   0.6014 H              1 S1                 0.0000
     21 ****        -0.3535  -1.1779   2.4047 H              1 S1                 0.0000
     22 ****        -4.6537   3.0224  -1.1682 H              1 S1                 0.0000
     23 ****         0.0105   0.7530  -1.7837 H              1 S1                 0.0000
     24 ****         3.7602  -0.5839   0.2089 H              1 S1                 0.0000
     25 ****         3.4392  -2.1671  -0.4851 H              1 S1                 0.0000
     26 ****         4.3566  -0.7496  -1.9875 H              1 S1                 0.0000
     27 ****         2.8157  -2.3117   1.7177 H              1 S1                 0.0000
     28 ****        -2.0460  -1.1989   0.8999 H              1 S1                 0.0000
     29 ****        -3.8693   2.4258   0.5358 H              1 S1                 0.0000
     30 ****        -4.0789   2.9321  -2.8535 LP             1 S1                 0.0000
     31 ****        -1.7694   1.7878  -2.9976 LP             1 S1                 0.0000
     32 ****         2.0801   0.6942   0.7932 LP             1 S1                 0.0000
     33 ****         1.2398   0.9488  -0.5836 LP             1 S1                 0.0000
     34 ****         3.1784   0.3155  -1.8987 LP             1 S1                 0.0000
     35 ****         2.9115  -1.1819  -2.4929 LP             1 S1                 0.0000
     36 ****         1.6234  -2.3860   2.7678 LP             1 S1                 0.0000
     37 ****         2.2416  -0.9482   2.3016 LP             1 S1                 0.0000
     38 ****        -1.3645  -2.6368   0.8902 LP             1 S1                 0.0000
     39 ****        -1.1298  -1.5899  -0.3409 LP             1 S1                 0.0000
     40 ****        -1.4856   0.9499   2.5861 LP             1 S1                 0.0000
     41 ****        -3.0225   1.7449   2.5101 LP             1 S1                 0.0000
@<TRIPOS>BOND
    1    1    2 2     
    2    1   22 1     
    3    2   17 1     
    4    2    3 1     
    5    3    4 2     
    6    4    5 1     
    7    4   23 1     
    8    5    6 1     
    9    5   15 am    
   10    6   18 1     
   11    6   13 1     
   12    6    7 1     
   13    7    8 1     
   14    8   19 1     
   15    8    9 1     
   16    8   11 1     
   17    9   10 1     
   18    9   24 1     
   19    9   25 1     
   20   10   26 1     
   21   11   20 1     
   22   11   12 1     
   23   11   13 1     
   24   12   27 1     
   25   13   21 1     
   26   13   14 1     
   27   14   28 1     
   28   15   16 2     
   29   15   17 am    
   30   17   29 1     
   31    1   30 1     
   32    3   31 1     
   33    7   32 1     
   34    7   33 1     
   35   10   34 1     
   36   10   35 1     
   37   12   36 1     
   38   12   37 1     
   39   14   38 1     
   40   14   39 1     
   41   16   40 1     
   42   16   41 1     
@<TRIPOS>SUBSTRUCTURE
      1 S1             1
@<TRIPOS>SET
LONE_PAIRS      STATIC     ATOMS    <user>   **** ""
12 30 31 32 33 34 35 36 37 38 39 40 41
DONOR_HYDROGENS      STATIC     ATOMS    <user>   **** ""
5 22 26 27 28 29
ATOM$BLUE        STATIC     ATOMS    COLORGROUP SYSTEM
12 30 31 32 33 34 35 36 37 38 39 40 41
ATOM$RED        STATIC     ATOMS    COLORGROUP SYSTEM
5 22 26 27 28 29
