AV-unprocessed.smi:702|AV-procd|sdf|3417|dock7
  -GOLD-   22720 0403D 1   1.00000     0.00000
 Structure written by MMmdl.
 50 52  0  0  0  0  0  0  0  0  2 V2000
  145.3541  138.2785  154.3872 C   0  0  0  0  0  0  0  0  0  0  0  0
  146.7325  137.6028  154.5224 C   0  0  1  0  0  0  0  0  0  0  0  0
  146.8686  136.6112  153.4483 N   0  0  0  0  0  0  0  0  0  0  0  0
  146.0181  135.6126  153.1652 C   0  0  0  0  0  0  0  0  0  0  0  0
  144.9757  135.4097  153.7866 O   0  0  0  0  0  0  0  0  0  0  0  0
  146.4597  134.8877  152.1225 N   0  0  0  0  0  0  0  0  0  0  0  0
  145.8777  133.7399  151.5177 C   0  0  0  0  0  0  0  0  0  0  0  0
  146.7478  132.7109  151.1015 C   0  0  0  0  0  0  0  0  0  0  0  0
  146.2005  131.5544  150.5112 C   0  0  0  0  0  0  0  0  0  0  0  0
  144.8764  131.3716  150.3270 N   0  0  0  0  0  0  0  0  0  0  0  0
  144.0435  132.3510  150.7377 C   0  0  0  0  0  0  0  0  0  0  0  0
  144.4862  133.5463  151.3394 C   0  0  0  0  0  0  0  0  0  0  0  0
  147.9313  138.6215  154.5503 C   0  0  0  0  0  0  0  0  0  0  0  0
  149.2518  137.8880  154.4518 N   0  3  0  0  0  0  0  0  0  0  0  0
  150.4673  138.7542  154.4253 C   0  0  0  0  0  0  0  0  0  0  0  0
  151.7324  137.9200  154.1610 C   0  0  0  0  0  0  0  0  0  0  0  0
  151.8584  136.9060  155.1461 O   0  0  0  0  0  0  0  0  0  0  0  0
  150.7584  136.0100  155.1122 C   0  0  0  0  0  0  0  0  0  0  0  0
  149.4629  136.7748  155.4271 C   0  0  0  0  0  0  0  0  0  0  0  0
  147.7869  139.6681  153.4028 C   0  0  0  0  0  0  0  0  0  0  0  0
  147.3488  140.9833  154.0495 C   0  0  0  0  0  0  0  0  0  0  0  0
  147.9868  140.9437  155.4322 C   0  0  0  0  0  0  0  0  0  0  0  0
  147.8501  139.4801  155.8545 C   0  0  0  0  0  0  0  0  0  0  0  0
  145.1603  138.9687  155.2080 H   0  0  0  0  0  0  0  0  0  0  0  0
  144.5554  137.5358  154.4006 H   0  0  0  0  0  0  0  0  0  0  0  0
  145.2645  138.8373  153.4556 H   0  0  0  0  0  0  0  0  0  0  0  0
  146.7177  137.0483  155.4584 H   0  0  0  0  0  0  0  0  0  0  0  0
  147.6947  136.6911  152.8733 H   0  0  0  0  0  0  0  0  0  0  0  0
  147.3011  135.2235  151.6773 H   0  0  0  0  0  0  0  0  0  0  0  0
  147.8170  132.8025  151.2258 H   0  0  0  0  0  0  0  0  0  0  0  0
  146.8450  130.7534  150.1799 H   0  0  0  0  0  0  0  0  0  0  0  0
  142.9887  132.1747  150.5872 H   0  0  0  0  0  0  0  0  0  0  0  0
  143.7541  134.2722  151.6563 H   0  0  0  0  0  0  0  0  0  0  0  0
  150.4160  139.5044  153.6406 H   0  0  0  0  0  0  0  0  0  0  0  0
  150.5716  139.2880  155.3704 H   0  0  0  0  0  0  0  0  0  0  0  0
  151.7045  137.4756  153.1646 H   0  0  0  0  0  0  0  0  0  0  0  0
  152.6161  138.5571  154.1985 H   0  0  0  0  0  0  0  0  0  0  0  0
  150.6975  135.5190  154.1395 H   0  0  0  0  0  0  0  0  0  0  0  0
  150.9208  135.2274  155.8536 H   0  0  0  0  0  0  0  0  0  0  0  0
  149.5190  137.1587  156.4450 H   0  0  0  0  0  0  0  0  0  0  0  0
  148.6510  136.0520  155.4139 H   0  0  0  0  0  0  0  0  0  0  0  0
  148.7306  139.8487  152.8919 H   0  0  0  0  0  0  0  0  0  0  0  0
  147.0930  139.3533  152.6233 H   0  0  0  0  0  0  0  0  0  0  0  0
  147.6542  141.8562  153.4719 H   0  0  0  0  0  0  0  0  0  0  0  0
  146.2624  141.0103  154.1426 H   0  0  0  0  0  0  0  0  0  0  0  0
  149.0389  141.2213  155.3624 H   0  0  0  0  0  0  0  0  0  0  0  0
  147.5079  141.6283  156.1330 H   0  0  0  0  0  0  0  0  0  0  0  0
  146.8803  139.3835  156.3407 H   0  0  0  0  0  0  0  0  0  0  0  0
  148.5599  139.1904  156.6282 H   0  0  0  0  0  0  0  0  0  0  0  0
  149.2251  137.4399  153.5470 H   0  0  0  0  0  0  0  0  0  0  0  0
  1  2  1  0  0  0  0
  1 24  1  0  0  0  0
  1 25  1  0  0  0  0
  1 26  1  0  0  0  0
  2  3  1  0  0  0  0
  2 13  1  0  0  0  0
  2 27  1  0  0  0  0
  3  4  1  0  0  0  0
  3 28  1  0  0  0  0
  4  5  2  0  0  0  0
  4  6  1  0  0  0  0
  6  7  1  0  0  0  0
  6 29  1  0  0  0  0
  7 12  1  0  0  0  0
  7  8  2  0  0  0  0
  8  9  1  0  0  0  0
  8 30  1  0  0  0  0
  9 10  2  0  0  0  0
  9 31  1  0  0  0  0
 10 11  1  0  0  0  0
 11 12  2  0  0  0  0
 11 32  1  0  0  0  0
 12 33  1  0  0  0  0
 13 23  1  0  0  0  0
 13 14  1  0  0  0  0
 13 20  1  0  0  0  0
 14 19  1  0  0  0  0
 14 15  1  0  0  0  0
 14 50  1  0  0  0  0
 15 16  1  0  0  0  0
 15 34  1  0  0  0  0
 15 35  1  0  0  0  0
 16 17  1  0  0  0  0
 16 36  1  0  0  0  0
 16 37  1  0  0  0  0
 17 18  1  0  0  0  0
 18 19  1  0  0  0  0
 18 38  1  0  0  0  0
 18 39  1  0  0  0  0
 19 40  1  0  0  0  0
 19 41  1  0  0  0  0
 20 21  1  0  0  0  0
 20 42  1  0  0  0  0
 20 43  1  0  0  0  0
 21 22  1  0  0  0  0
 21 44  1  0  0  0  0
 21 45  1  0  0  0  0
 22 23  1  0  0  0  0
 22 46  1  0  0  0  0
 22 47  1  0  0  0  0
 23 48  1  0  0  0  0
 23 49  1  0  0  0  0
M  CHG  1  14   1
M  END
> <s_m_source_file>
AV-unprocessed.smi

> <i_m_source_file_index>
702

> <i_lp_mmshare_version>
43012

> <i_f3d_flags>
0

> <s_epik_input>
W0NIMl0xW0NIMl1PW0NIMl1bQ0gyXU4xQzIoW0NIMl1bQ0gyXVtDSDJdW0NIMl0yKVtDQEhdKFtDSDNdKVtOSF1DKD1PKVtOSF1jM1tjSF1bY0hdbltjSF1bY0hdMw==

> <s_epik_cmdline>
J2VwaWtfcHl0aG9uJywgJy1waCcsICc3LjAnLCAnLXRuJywgJzgnLCAnLW1hJywgJzIwMCcsICctbWV0YWxfYmluZGluZycsICctaW1hZScsICc8aW5maWxlLm1hZT4nLCAnLW9tYWUnLCAnPG91dGZpbGUubWFlPic=

> <r_epik_Ionization_Penalty>
0.42559

> <r_epik_Ionization_Penalty_Charging>
0.324387

> <r_epik_Ionization_Penalty_Neutral>
0.101203

> <r_epik_State_Penalty>
0.407162

> <r_epik_Charging_Adjusted_Penalty>
0.731549

> <i_epik_Tot_Q>
1

> <i_epik_Tot_abs_Q>
1

> <r_epik_Metal_State_Penalty>
0.398289

> <b_epik_Metal_Only>
0

> <s_lp_Force_Field>
OPLS_2005

> <r_lp_Energy>
55.6583

> <b_lp_Chiralities_Consistent>
1

> <s_lp_Variant>
AV-unprocessed.smi:702-2

> <Gold.Version>
5.8.1

> <Gold.Id.Protein>
6NUR|6NUR_protein|mol2

> <Gold.PLP.Fitness>
53.2261

> <Gold.PLP.PLP>
-33.7005

> <Gold.PLP.part.hbond>
-4.7993

> <Gold.PLP.part.metal>
0.0000

> <Gold.PLP.part.buried>
-2.6001

> <Gold.PLP.part.nonpolar>
-27.2696

> <Gold.PLP.part.repulsive>
0.3628

> <Gold.PLP.ligand.clash>
0.0000

> <Gold.PLP.ligand.torsion>
0.5588

> <Gold.PLP.Chemscore.Hbond>
4.9619

> <Gold.PLP.Chemscore.CHOScore>
1.8731

> <Gold.PLP.Chemscore.Metal>
0.0000

> <Gold.Chemscore.Hbonds>
donor molecule, donor type, donor heavy atom, donor atom, acceptor molecule, acceptor atom, score
      L1  H     3    28       P1  7948  1.00
      L1  H     6    29       P1  7948  0.98
      L1  H    14    50       P1  7948  1.82
      P1  H 10752 10765       L1    17  0.59
      L1  C     9    31       P1 10747  0.88

> <Gold.PLP.Chemscore.Internal.Correction>
0.1382

> <Gold.Rescore>
     Score         DG    S(hbond)    S(metal)    S(lipo)     H(rot)  DE(clash)    DE(int)     intcor
     22.07     -23.97       3.62        0.00      86.56       1.45       0.02       1.88       ----

> <Gold.Chemscore.Fitness>
22.0684

> <Gold.Chemscore.DG>
-23.9691

> <Gold.Chemscore.ZeroCoef>
-5.4800

> <Gold.Chemscore.Hbond>
3.6151

> <Gold.Chemscore.Metal>
0.0000

> <Gold.Chemscore.Lipo>
86.5609

> <Gold.Chemscore.Internal_Hbond>
0.0000

> <Gold.Chemscore.DEClash>
0.0241

> <Gold.Chemscore.DEInternal>
1.8765

> <Gold.Chemscore.Rot>
1.4504

> <Gold.Chemscore.Internal.Correction>
   9.000000E+99

> <Gold.Chemscore.Hbonds>
donor molecule, donor type, donor heavy atom, donor atom, acceptor molecule, acceptor atom, score
      L1  H     3    28       P1  7948  0.99
      L1  H     6    29       P1  7948  0.88
      L1  H    14    50       P1  7948  0.86
      P1  H 10752 10765       L1    17  0.04

> <Gold.Chemscore.Hbond.Weighted>
-12.0743

> <Gold.Chemscore.Metal.Weighted>
-0.0000

> <Gold.Chemscore.Lipo.Weighted>
-10.1276

> <Gold.Chemscore.Internal_Hbond.Weighted>
0.0000

> <Gold.Chemscore.DEClash.Weighted>
0.0241

> <Gold.Chemscore.DEInternal.Weighted>
1.8765

> <Gold.Chemscore.Rot.Weighted>
3.7129

> <Gold.Chemscore.Internal.Correction.Weighted>
   9.000000E+99

> <Gold.Protein.RotatedTorsions>
[ 6907 6896 6895 6894 ] final  -54.15 input  -60.11 | X-H torsion
[ 7974 7965 7964 7962 ] final  147.79 input  175.53 | X-H torsion
[ 8008 7997 7996 7995 ] final   36.52 input   59.86 | X-H torsion
[ 10167 10162 10161 10158 ] final  -53.90 input  -65.29 | X-H torsion
[ 10718 10713 10712 10709 ] final  -65.46 input   66.30 | X-H torsion
[ 10763 10752 10751 10750 ] final -163.63 input  -60.55 | X-H torsion
[ 11005 11000 10999 10996 ] final  147.92 input  -57.11 | X-H torsion

> <Gold.Protein.ActiveResidues>
 VAL166  LYS551  ARG553  GLY616  TRP617  ASP618  TYR619  PRO620  LYS621  CYS622 
 ASP623  PHE694  ASN695  SER759  ASP760  ASP761  ALA762  ILE779  LEU786  VAL792 
 PHE793  MET794  SER795  GLU796  ALA797  LYS798  CYS799  TRP800  GLU811  SER814 

> <Gold.Protein.RotatedAtoms>
  150.8363  134.7638  159.6895 H   0  0  0  0  0  0  0  0  0  0  0  0  # atno 6907 bound_to 6896
  152.4459  134.5492  159.9871 H   0  0  0  0  0  0  0  0  0  0  0  0  # atno 6908 bound_to 6896
  151.5641  133.3361  159.3012 H   0  0  0  0  0  0  0  0  0  0  0  0  # atno 6909 bound_to 6896
  144.8564  139.6073  143.5950 H   0  0  0  0  0  0  0  0  0  0  0  0  # atno 7974 bound_to 7965
  155.1887  140.3306  155.4362 H   0  0  0  0  0  0  0  0  0  0  0  0  # atno 8008 bound_to 7997
  156.2450  140.1914  156.6931 H   0  0  0  0  0  0  0  0  0  0  0  0  # atno 8009 bound_to 7997
  154.6221  140.0594  156.9614 H   0  0  0  0  0  0  0  0  0  0  0  0  # atno 8010 bound_to 7997
  140.6460  143.2535  151.4859 H   0  0  0  0  0  0  0  0  0  0  0  0  # atno 10167 bound_to 10162
  156.0668  130.4247  150.1568 H   0  0  0  0  0  0  0  0  0  0  0  0  # atno 10718 bound_to 10713
  154.7104  135.3005  154.9206 H   0  0  0  0  0  0  0  0  0  0  0  0  # atno 10763 bound_to 10752
  154.0109  135.6695  153.4769 H   0  0  0  0  0  0  0  0  0  0  0  0  # atno 10764 bound_to 10752
  153.0750  135.5039  154.8299 H   0  0  0  0  0  0  0  0  0  0  0  0  # atno 10765 bound_to 10752
  140.0916  134.9037  157.1659 H   0  0  0  0  0  0  0  0  0  0  0  0  # atno 11005 bound_to 11000
  146.2826  139.6918  142.9218 LP  0  0  0  0  0  0  0  0  0  0  0  0  # atno 17320 bound_to 7965
  145.4398  141.0421  143.2864 LP  0  0  0  0  0  0  0  0  0  0  0  0  # atno 17321 bound_to 7965
  139.5670  144.2017  152.1780 LP  0  0  0  0  0  0  0  0  0  0  0  0  # atno 17342 bound_to 10162
  140.1302  144.5295  150.6807 LP  0  0  0  0  0  0  0  0  0  0  0  0  # atno 17343 bound_to 10162
  156.9626  130.9809  151.3476 LP  0  0  0  0  0  0  0  0  0  0  0  0  # atno 17370 bound_to 10713
  157.5715  130.8313  149.8397 LP  0  0  0  0  0  0  0  0  0  0  0  0  # atno 17371 bound_to 10713
  140.3344  134.2773  155.7222 LP  0  0  0  0  0  0  0  0  0  0  0  0  # atno 17394 bound_to 11000
  141.2079  133.7791  157.0089 LP  0  0  0  0  0  0  0  0  0  0  0  0  # atno 17395 bound_to 11000

$$$$
