AV-unprocessed.smi:287|AV-procd|sdf|2187|dock9
  -GOLD-   2262021573D 1   1.00000     0.00000
 Structure written by MMmdl.
 55 58  0  0  0  0  0  0  0  0  1 V2000
  152.8802  143.3958  162.3327 C   0  0  0  0  0  0  0  0  0  0  0  0
  152.5362  143.0324  160.9289 C   0  0  0  0  0  0  0  0  0  0  0  0
  152.2632  141.8538  160.2982 C   0  0  0  0  0  0  0  0  0  0  0  0
  152.0099  142.1530  158.9259 C   0  0  0  0  0  0  0  0  0  0  0  0
  151.6529  141.1484  157.8389 C   0  0  1  0  0  0  0  0  0  0  0  0
  151.4474  141.8823  156.5036 C   0  0  0  0  0  0  0  0  0  0  0  0
  152.6844  140.2099  157.5998 O   0  0  0  0  0  0  0  0  0  0  0  0
  150.3943  140.3218  158.1874 C   0  0  0  0  0  0  0  0  0  0  0  0
  150.1732  139.2102  157.2712 N   0  0  0  0  0  0  0  0  0  0  0  0
  148.9255  138.8352  156.9196 C   0  0  0  0  0  0  0  0  0  0  0  0
  147.9209  139.4842  157.5556 N   0  0  0  0  0  0  0  0  0  0  0  0
  146.6476  139.1907  157.2774 C   0  0  0  0  0  0  0  0  0  0  0  0
  146.1677  138.2971  156.4106 N   0  0  0  0  0  0  0  0  0  0  0  0
  147.1743  137.6396  155.7661 C   0  0  0  0  0  0  0  0  0  0  0  0
  148.5705  137.8418  155.9589 C   0  0  0  0  0  0  0  0  0  0  0  0
  149.2744  136.9813  155.1226 N   0  0  0  0  0  0  0  0  0  0  0  0
  148.3500  136.3212  154.4795 C   0  0  0  0  0  0  0  0  0  0  0  0
  147.0547  136.6509  154.8146 N   0  0  0  0  0  0  0  0  0  0  0  0
  145.7621  136.1064  154.2829 C   0  0  1  0  0  0  0  0  0  0  0  0
  145.7977  136.1678  152.8889 O   0  0  0  0  0  0  0  0  0  0  0  0
  146.1113  134.8834  152.3624 C   0  0  2  0  0  0  0  0  0  0  0  0
  145.7330  134.7784  150.8753 C   0  0  0  0  0  0  0  0  0  0  0  0
  146.3070  135.8496  150.1569 O   0  0  0  0  0  0  0  0  0  0  0  0
  145.3473  133.9519  153.3109 C   0  0  2  0  0  0  0  0  0  0  0  0
  143.9746  133.8965  152.9668 O   0  0  0  0  0  0  0  0  0  0  0  0
  145.5343  134.6225  154.6677 C   0  0  1  0  0  0  0  0  0  0  0  0
  146.6253  134.0252  155.3482 O   0  0  0  0  0  0  0  0  0  0  0  0
  152.1372  143.5183  158.8361 C   0  0  0  0  0  0  0  0  0  0  0  0
  151.9923  144.5021  157.7223 C   0  0  0  0  0  0  0  0  0  0  0  0
  152.4617  144.0580  160.0441 O   0  0  0  0  0  0  0  0  0  0  0  0
  145.0000  136.7833  154.6711 H   0  0  0  0  0  0  0  0  0  0  0  0
  147.1786  134.6922  152.4886 H   0  0  0  0  0  0  0  0  0  0  0  0
  145.7414  132.9349  153.2856 H   0  0  0  0  0  0  0  0  0  0  0  0
  144.6467  134.5384  155.2963 H   0  0  0  0  0  0  0  0  0  0  0  0
  153.0373  142.5034  162.9388 H   0  0  0  0  0  0  0  0  0  0  0  0
  152.0785  143.9772  162.7883 H   0  0  0  0  0  0  0  0  0  0  0  0
  153.7926  143.9914  162.3659 H   0  0  0  0  0  0  0  0  0  0  0  0
  152.2511  140.8812  160.7679 H   0  0  0  0  0  0  0  0  0  0  0  0
  150.6392  142.6111  156.5746 H   0  0  0  0  0  0  0  0  0  0  0  0
  151.1927  141.1895  155.7005 H   0  0  0  0  0  0  0  0  0  0  0  0
  152.3481  142.4198  156.2039 H   0  0  0  0  0  0  0  0  0  0  0  0
  152.3269  139.3405  157.6965 H   0  0  0  0  0  0  0  0  0  0  0  0
  150.5286  139.9007  159.1844 H   0  0  0  0  0  0  0  0  0  0  0  0
  149.5096  140.9591  158.2276 H   0  0  0  0  0  0  0  0  0  0  0  0
  151.0064  138.7454  156.9396 H   0  0  0  0  0  0  0  0  0  0  0  0
  145.9076  139.7522  157.8286 H   0  0  0  0  0  0  0  0  0  0  0  0
  148.5978  135.5746  153.7391 H   0  0  0  0  0  0  0  0  0  0  0  0
  146.1265  133.8533  150.4529 H   0  0  0  0  0  0  0  0  0  0  0  0
  144.6515  134.7668  150.7371 H   0  0  0  0  0  0  0  0  0  0  0  0
  145.6118  136.3534  149.7619 H   0  0  0  0  0  0  0  0  0  0  0  0
  143.5656  133.2146  153.4773 H   0  0  0  0  0  0  0  0  0  0  0  0
  146.4831  133.0911  155.3758 H   0  0  0  0  0  0  0  0  0  0  0  0
  151.0479  144.3564  157.1978 H   0  0  0  0  0  0  0  0  0  0  0  0
  152.8022  144.3897  157.0012 H   0  0  0  0  0  0  0  0  0  0  0  0
  152.0128  145.5266  158.0946 H   0  0  0  0  0  0  0  0  0  0  0  0
  1  2  1  0  0  0  0
  1 35  1  0  0  0  0
  1 36  1  0  0  0  0
  1 37  1  0  0  0  0
  2 30  1  0  0  0  0
  2  3  2  0  0  0  0
  3  4  1  0  0  0  0
  3 38  1  0  0  0  0
  4  5  1  0  0  0  0
  4 28  2  0  0  0  0
  5  6  1  0  0  0  0
  5  7  1  0  0  0  0
  5  8  1  0  0  0  0
  6 39  1  0  0  0  0
  6 40  1  0  0  0  0
  6 41  1  0  0  0  0
  7 42  1  0  0  0  0
  8  9  1  0  0  0  0
  8 43  1  0  0  0  0
  8 44  1  0  0  0  0
  9 10  1  0  0  0  0
  9 45  1  0  0  0  0
 10 15  1  0  0  0  0
 10 11  2  0  0  0  0
 11 12  1  0  0  0  0
 12 13  2  0  0  0  0
 12 46  1  0  0  0  0
 13 14  1  0  0  0  0
 14 18  1  0  0  0  0
 14 15  2  0  0  0  0
 15 16  1  0  0  0  0
 16 17  2  0  0  0  0
 17 18  1  0  0  0  0
 17 47  1  0  0  0  0
 18 19  1  0  0  0  0
 19 31  1  0  0  0  0
 19 26  1  0  0  0  0
 19 20  1  0  0  0  0
 20 21  1  0  0  0  0
 21 32  1  0  0  0  0
 21 22  1  0  0  0  0
 21 24  1  0  0  0  0
 22 23  1  0  0  0  0
 22 48  1  0  0  0  0
 22 49  1  0  0  0  0
 23 50  1  0  0  0  0
 24 33  1  0  0  0  0
 24 25  1  0  0  0  0
 24 26  1  0  0  0  0
 25 51  1  0  0  0  0
 26 34  1  0  0  0  0
 26 27  1  0  0  0  0
 27 52  1  0  0  0  0
 28 29  1  0  0  0  0
 28 30  1  0  0  0  0
 29 53  1  0  0  0  0
 29 54  1  0  0  0  0
 29 55  1  0  0  0  0
M  END
> <s_m_source_file>
AV-unprocessed.smi

> <i_m_source_file_index>
287

> <i_lp_mmshare_version>
43012

> <i_f3d_flags>
0

> <s_epik_input>
W0NIM11jMVtjSF1jKGMobzEpW0NIM10pW0NAQF0oW0NIM10pKFtPSF0pW0NIMl1bTkhdYyhuW2NIXW4yKWMoYzIzKW5bY0hdbjNbQ0BASF00T1tDQEhdKFtDSDJdW09IXSlbQ0BASF0oW09IXSlbQ0BIXTRbT0hd

> <s_epik_cmdline>
J2VwaWtfcHl0aG9uJywgJy1waCcsICc3LjAnLCAnLXRuJywgJzgnLCAnLW1hJywgJzIwMCcsICctbWV0YWxfYmluZGluZycsICctaW1hZScsICc8aW5maWxlLm1hZT4nLCAnLW9tYWUnLCAnPG91dGZpbGUubWFlPic=

> <r_lp_tautomer_probability>
1

> <r_epik_Ionization_Penalty>
0.000992612

> <r_epik_Ionization_Penalty_Charging>
0

> <r_epik_Ionization_Penalty_Neutral>
0.000992612

> <r_epik_State_Penalty>
-0

> <r_epik_Charging_Adjusted_Penalty>
0

> <i_epik_Tot_Q>
0

> <i_epik_Tot_abs_Q>
0

> <r_epik_Metal_State_Penalty>
-0

> <b_epik_Metal_Only>
0

> <s_epik_Chemistry_Notes>
This compound contains an acetal/aminal-like group ( X-CH(R)-Y where X, Y are N, S, or O) that may be acid/base labile, releasing an aldehyde.

> <s_lp_Force_Field>
OPLS_2005

> <r_lp_Energy>
42.7121

> <b_lp_Chiralities_Consistent>
1

> <s_lp_Variant>
AV-unprocessed.smi:287-11

> <Gold.Version>
5.8.1

> <Gold.Id.Protein>
6NUR|6NUR_protein|mol2

> <Gold.PLP.Fitness>
46.0313

> <Gold.PLP.PLP>
-36.6942

> <Gold.PLP.part.hbond>
-3.8593

> <Gold.PLP.part.metal>
0.0000

> <Gold.PLP.part.buried>
-4.1590

> <Gold.PLP.part.nonpolar>
-28.7367

> <Gold.PLP.part.repulsive>
0.3216

> <Gold.PLP.ligand.clash>
1.9708

> <Gold.PLP.ligand.torsion>
0.4312

> <Gold.PLP.Chemscore.Hbond>
3.0000

> <Gold.PLP.Chemscore.CHOScore>
1.0000

> <Gold.PLP.Chemscore.Metal>
0.0000

> <Gold.Chemscore.Hbonds>
donor molecule, donor type, donor heavy atom, donor atom, acceptor molecule, acceptor atom, score
      L1  H    25    51       P1 10957  0.71
      P1  H  7997  8008       L1     7  1.00
      L1  C    17    47       P1  7948  0.71

> <Gold.PLP.Chemscore.Internal.Correction>
0.1703

> <Gold.Rescore>
     Score         DG    S(hbond)    S(metal)    S(lipo)     H(rot)  DE(clash)    DE(int)     intcor
      9.97     -12.95       2.91        0.00      96.16       5.27       0.37       2.62       ----

> <Gold.Chemscore.Fitness>
9.9720

> <Gold.Chemscore.DG>
-12.9547

> <Gold.Chemscore.ZeroCoef>
-5.4800

> <Gold.Chemscore.Hbond>
2.9066

> <Gold.Chemscore.Metal>
0.0000

> <Gold.Chemscore.Lipo>
96.1594

> <Gold.Chemscore.Internal_Hbond>
0.0000

> <Gold.Chemscore.DEClash>
0.3660

> <Gold.Chemscore.DEInternal>
2.6166

> <Gold.Chemscore.Rot>
5.2672

> <Gold.Chemscore.Internal.Correction>
   9.000000E+99

> <Gold.Chemscore.Hbonds>
donor molecule, donor type, donor heavy atom, donor atom, acceptor molecule, acceptor atom, score
      L1  H    25    51       P1 10957  0.67
      P1  H  7997  8008       L1     7  0.66

> <Gold.Chemscore.Hbond.Weighted>
-9.7079

> <Gold.Chemscore.Metal.Weighted>
-0.0000

> <Gold.Chemscore.Lipo.Weighted>
-11.2507

> <Gold.Chemscore.Internal_Hbond.Weighted>
0.0000

> <Gold.Chemscore.DEClash.Weighted>
0.3660

> <Gold.Chemscore.DEInternal.Weighted>
2.6166

> <Gold.Chemscore.Rot.Weighted>
13.4839

> <Gold.Chemscore.Internal.Correction.Weighted>
   9.000000E+99

> <Gold.Protein.RotatedTorsions>
[ 6907 6896 6895 6894 ] final  -50.61 input  -60.11 | X-H torsion
[ 7974 7965 7964 7962 ] final -153.13 input  175.53 | X-H torsion
[ 8008 7997 7996 7995 ] final  -71.64 input   59.86 | X-H torsion
[ 10167 10162 10161 10158 ] final  -41.81 input  -65.29 | X-H torsion
[ 10718 10713 10712 10709 ] final  176.46 input   66.30 | X-H torsion
[ 10763 10752 10751 10750 ] final  -24.34 input  -60.55 | X-H torsion
[ 11005 11000 10999 10996 ] final   33.95 input  -57.11 | X-H torsion

> <Gold.Protein.ActiveResidues>
 VAL166  LYS551  ARG553  GLY616  TRP617  ASP618  TYR619  PRO620  LYS621  CYS622 
 ASP623  PHE694  ASN695  SER759  ASP760  ASP761  ALA762  ILE779  LEU786  VAL792 
 PHE793  MET794  SER795  GLU796  ALA797  LYS798  CYS799  TRP800  GLU811  SER814 

> <Gold.Protein.RotatedAtoms>
  150.8690  134.8060  159.7140 H   0  0  0  0  0  0  0  0  0  0  0  0  # atno 6907 bound_to 6896
  152.4701  134.4977  159.9725 H   0  0  0  0  0  0  0  0  0  0  0  0  # atno 6908 bound_to 6896
  151.5069  133.3454  159.2914 H   0  0  0  0  0  0  0  0  0  0  0  0  # atno 6909 bound_to 6896
  144.7757  140.4568  143.5875 H   0  0  0  0  0  0  0  0  0  0  0  0  # atno 7974 bound_to 7965
  154.5104  140.0812  156.7978 H   0  0  0  0  0  0  0  0  0  0  0  0  # atno 8008 bound_to 7997
  155.3799  140.3427  155.4228 H   0  0  0  0  0  0  0  0  0  0  0  0  # atno 8009 bound_to 7997
  156.1566  140.1575  156.8670 H   0  0  0  0  0  0  0  0  0  0  0  0  # atno 8010 bound_to 7997
  140.6990  143.3073  151.3119 H   0  0  0  0  0  0  0  0  0  0  0  0  # atno 10167 bound_to 10162
  156.9198  130.9937  151.3006 H   0  0  0  0  0  0  0  0  0  0  0  0  # atno 10718 bound_to 10713
  153.6823  135.6966  153.5114 H   0  0  0  0  0  0  0  0  0  0  0  0  # atno 10763 bound_to 10752
  153.2476  135.4285  155.0762 H   0  0  0  0  0  0  0  0  0  0  0  0  # atno 10764 bound_to 10752
  154.8396  135.3523  154.6366 H   0  0  0  0  0  0  0  0  0  0  0  0  # atno 10765 bound_to 10752
  140.2578  134.3228  155.7868 H   0  0  0  0  0  0  0  0  0  0  0  0  # atno 11005 bound_to 11000
  145.6193  139.1522  143.3031 LP  0  0  0  0  0  0  0  0  0  0  0  0  # atno 17320 bound_to 7965
  146.1934  140.6305  142.9135 LP  0  0  0  0  0  0  0  0  0  0  0  0  # atno 17321 bound_to 7965
  139.6484  144.0409  152.2608 LP  0  0  0  0  0  0  0  0  0  0  0  0  # atno 17342 bound_to 10162
  139.9937  144.6343  150.7791 LP  0  0  0  0  0  0  0  0  0  0  0  0  # atno 17343 bound_to 10162
  157.5915  130.8447  149.8666 LP  0  0  0  0  0  0  0  0  0  0  0  0  # atno 17370 bound_to 10713
  156.0496  130.3720  150.1233 LP  0  0  0  0  0  0  0  0  0  0  0  0  # atno 17371 bound_to 10713
  141.2194  133.7391  156.9139 LP  0  0  0  0  0  0  0  0  0  0  0  0  # atno 17394 bound_to 11000
  140.1494  134.9240  157.2573 LP  0  0  0  0  0  0  0  0  0  0  0  0  # atno 17395 bound_to 11000

$$$$
