#       Name:                AV-unprocessed.smi:3168
#       Creating user name   scv26
#       Creation time:       Fri Mar 27 17:53:31 2020


#       File generated by GOLD software.
#

@<TRIPOS>MOLECULE
AV-unprocessed.smi:3168
    38    39     1
SMALL
NO_CHARGES


@<TRIPOS>ATOM
      1 ****        -2.3417  -1.9243  -1.5012 C.3            1 S1                 0.0000
      2 ****        -1.8752  -1.0956  -0.2863 C.3            1 S1                 0.0000
      3 ****        -0.3562  -0.8507  -0.2718 C.2            1 S1                 0.0000
      4 ****         0.3901  -1.4769  -1.0252 O.2            1 S1                 0.0000
      5 ****         0.0865   0.0796   0.5898 N.am           1 S1                 0.0000
      6 ****         1.4794   0.4746   0.7725 C.3            1 S1                 0.0000
      7 ****         1.8191   1.7509  -0.0153 C.3            1 S1                 0.0000
      8 ****         1.7616   1.6097  -1.5378 C.3            1 S1                 0.0000
      9 ****         2.7158   2.6939  -1.9812 C.3            1 S1                 0.0000
     10 ****         3.8078   2.5895  -0.9218 C.3            1 S1                 0.0000
     11 ****         3.1533   2.1644   0.2710 O.3            1 S1                 0.0000
     12 ****        -2.3140  -1.6829   0.9752 N.pl3          1 S1                 0.0000
     13 ****        -2.9419  -1.0532   2.0308 C.2            1 S1                 0.0000
     14 ****        -3.1322  -1.9843   3.0110 C.2            1 S1                 0.0000
     15 ****        -2.5712  -3.1707   2.4627 C.2            1 S1                 0.0000
     16 ****        -2.0769  -2.9870   1.2495 N.2            1 S1                 0.0000
     17 ****        -2.0690  -1.4376  -2.4383 H              1 S1                 0.0000
     18 ****        -3.4257  -2.0406  -1.4987 H              1 S1                 0.0000
     19 ****        -1.9035  -2.9231  -1.5084 H              1 S1                 0.0000
     20 ****        -2.3501  -0.1163  -0.3659 H              1 S1                 0.0000
     21 ****        -0.5948   0.5464   1.1704 H              1 S1                 0.0000
     22 ****         1.6333   0.6550   1.8366 H              1 S1                 0.0000
     23 ****         2.1588  -0.3352   0.5015 H              1 S1                 0.0000
     24 ****         1.1582   2.5631   0.2922 H              1 S1                 0.0000
     25 ****         2.1389   0.6345  -1.8499 H              1 S1                 0.0000
     26 ****         0.7558   1.7324  -1.9405 H              1 S1                 0.0000
     27 ****         3.0892   2.5513  -2.9955 H              1 S1                 0.0000
     28 ****         2.2286   3.6683  -1.9272 H              1 S1                 0.0000
     29 ****         4.5380   1.8301  -1.2037 H              1 S1                 0.0000
     30 ****         4.3373   3.5310  -0.7745 H              1 S1                 0.0000
     31 ****        -3.1981  -0.0046   1.9970 H              1 S1                 0.0000
     32 ****        -3.5974  -1.8390   3.9744 H              1 S1                 0.0000
     33 ****        -2.5054  -4.1520   2.9088 H              1 S1                 0.0000
     34 ****         0.0106  -2.1537  -1.6560 LP             1 S1                 0.0000
     35 ****         1.3757  -1.3086  -1.0062 LP             1 S1                 0.0000
     36 ****         3.6578   1.3979   0.6686 LP             1 S1                 0.0000
     37 ****         3.1308   2.9225   0.9227 LP             1 S1                 0.0000
     38 ****        -1.6275  -3.6622   0.6645 LP             1 S1                 0.0000
@<TRIPOS>BOND
    1    1    2 1     
    2    1   17 1     
    3    1   18 1     
    4    1   19 1     
    5    2    3 1     
    6    2   12 1     
    7    2   20 1     
    8    3    4 2     
    9    3    5 am    
   10    5    6 1     
   11    5   21 1     
   12    6    7 1     
   13    6   22 1     
   14    6   23 1     
   15    7   11 1     
   16    7    8 1     
   17    7   24 1     
   18    8    9 1     
   19    8   25 1     
   20    8   26 1     
   21    9   10 1     
   22    9   27 1     
   23    9   28 1     
   24   10   11 1     
   25   10   29 1     
   26   10   30 1     
   27   12   16 1     
   28   12   13 1     
   29   13   14 2     
   30   13   31 1     
   31   14   15 1     
   32   14   32 1     
   33   15   16 2     
   34   15   33 1     
   35    4   34 1     
   36    4   35 1     
   37   11   36 1     
   38   11   37 1     
   39   16   38 1     
@<TRIPOS>SUBSTRUCTURE
      1 S1             1
@<TRIPOS>SET
LONE_PAIRS      STATIC     ATOMS    <user>   **** ""
5 34 35 36 37 38
DONOR_HYDROGENS      STATIC     ATOMS    <user>   **** ""
1 21
ATOM$BLUE        STATIC     ATOMS    COLORGROUP SYSTEM
5 34 35 36 37 38
ATOM$RED        STATIC     ATOMS    COLORGROUP SYSTEM
1 21
