AV-unprocessed.smi:2568|AV-procd|sdf|10093|dock4
  -GOLD-   2272014113D 1   1.00000     0.00000
 Structure written by MMmdl.
 25 26  0  0  0  0  0  0  0  0  2 V2000
  151.8178  141.7150  158.9990 C   0  0  0  0  0  0  0  0  0  0  0  0
  151.6037  141.0485  157.6830 C   0  0  0  0  0  0  0  0  0  0  0  0
  152.4809  140.1704  157.1996 N   0  0  0  0  0  0  0  0  0  0  0  0
  151.9150  139.8265  156.0237 N   0  0  0  0  0  0  0  0  0  0  0  0
  150.7706  140.4971  155.8706 C   0  0  0  0  0  0  0  0  0  0  0  0
  149.8998  140.3238  154.6663 C   0  0  1  0  0  0  0  0  0  0  0  0
  149.7309  138.8441  154.2705 C   0  0  0  0  0  0  0  0  0  0  0  0
  148.7857  138.7286  153.1428 N   0  3  0  0  0  0  0  0  0  0  0  0
  147.4961  139.3787  153.4499 C   0  0  0  0  0  0  0  0  0  0  0  0
  147.7270  140.8383  153.8796 C   0  0  0  0  0  0  0  0  0  0  0  0
  148.6254  140.8781  154.9837 O   0  0  0  0  0  0  0  0  0  0  0  0
  150.5099  141.2958  156.9015 N   0  0  0  0  0  0  0  0  0  0  0  0
  152.3306  139.1615  155.3870 H   0  0  0  0  0  0  0  0  0  0  0  0
  152.6503  141.2588  159.5360 H   0  0  0  0  0  0  0  0  0  0  0  0
  150.9230  141.6295  159.6159 H   0  0  0  0  0  0  0  0  0  0  0  0
  152.0388  142.7724  158.8527 H   0  0  0  0  0  0  0  0  0  0  0  0
  150.3382  140.8850  153.8386 H   0  0  0  0  0  0  0  0  0  0  0  0
  150.6891  138.4082  153.9866 H   0  0  0  0  0  0  0  0  0  0  0  0
  149.3498  138.2643  155.1126 H   0  0  0  0  0  0  0  0  0  0  0  0
  149.1899  139.1773  152.3331 H   0  0  0  0  0  0  0  0  0  0  0  0
  146.8493  139.3331  152.5736 H   0  0  0  0  0  0  0  0  0  0  0  0
  146.9972  138.8262  154.2472 H   0  0  0  0  0  0  0  0  0  0  0  0
  148.1234  141.4297  153.0528 H   0  0  0  0  0  0  0  0  0  0  0  0
  146.7830  141.2969  154.1748 H   0  0  0  0  0  0  0  0  0  0  0  0
  148.6289  137.7526  152.9345 H   0  0  0  0  0  0  0  0  0  0  0  0
  1  2  1  0  0  0  0
  1 14  1  0  0  0  0
  1 15  1  0  0  0  0
  1 16  1  0  0  0  0
  2 12  1  0  0  0  0
  2  3  2  0  0  0  0
  3  4  1  0  0  0  0
  4 13  1  0  0  0  0
  4  5  1  0  0  0  0
  5  6  1  0  0  0  0
  5 12  2  0  0  0  0
  6 11  1  0  0  0  0
  6  7  1  0  0  0  0
  6 17  1  0  0  0  0
  7  8  1  0  0  0  0
  7 18  1  0  0  0  0
  7 19  1  0  0  0  0
  8  9  1  0  0  0  0
  8 20  1  0  0  0  0
  8 25  1  0  0  0  0
  9 10  1  0  0  0  0
  9 21  1  0  0  0  0
  9 22  1  0  0  0  0
 10 11  1  0  0  0  0
 10 23  1  0  0  0  0
 10 24  1  0  0  0  0
M  CHG  1   8   1
M  END
> <s_m_source_file>
AV-unprocessed.smi

> <i_m_source_file_index>
2568

> <i_lp_mmshare_version>
43012

> <i_f3d_flags>
0

> <s_epik_input>
W0NIM11jMW5bbkhdYyhuMSlbQ0BASF0yW0NIMl1bTkhdW0NIMl1bQ0gyXU8y

> <s_epik_cmdline>
J2VwaWtfcHl0aG9uJywgJy1waCcsICc3LjAnLCAnLXRuJywgJzgnLCAnLW1hJywgJzIwMCcsICctbWV0YWxfYmluZGluZycsICctaW1hZScsICc8aW5maWxlLm1hZT4nLCAnLW9tYWUnLCAnPG91dGZpbGUubWFlPic=

> <r_epik_Ionization_Penalty>
0.166663

> <r_epik_Ionization_Penalty_Charging>
0.125708

> <r_epik_Ionization_Penalty_Neutral>
0.0409555

> <r_epik_State_Penalty>
1.3004

> <r_epik_Charging_Adjusted_Penalty>
1.42611

> <i_epik_Tot_Q>
1

> <i_epik_Tot_abs_Q>
1

> <r_epik_Metal_State_Penalty>
1.60166

> <b_epik_Metal_Only>
0

> <s_lp_Force_Field>
OPLS_2005

> <r_lp_Energy>
12.4533

> <b_lp_Chiralities_Consistent>
1

> <s_lp_Variant>
AV-unprocessed.smi:2568-6

> <Gold.Version>
5.8.1

> <Gold.Id.Protein>
6NUR|6NUR_protein|mol2

> <Gold.PLP.Fitness>
31.1415

> <Gold.PLP.PLP>
-19.9851

> <Gold.PLP.part.hbond>
-3.0000

> <Gold.PLP.part.metal>
0.0000

> <Gold.PLP.part.buried>
-2.4088

> <Gold.PLP.part.nonpolar>
-15.2993

> <Gold.PLP.part.repulsive>
0.3897

> <Gold.PLP.ligand.clash>
0.0000

> <Gold.PLP.ligand.torsion>
0.3863

> <Gold.PLP.Chemscore.Hbond>
3.9760

> <Gold.PLP.Chemscore.CHOScore>
0.0000

> <Gold.PLP.Chemscore.Metal>
0.0000

> <Gold.Chemscore.Hbonds>
donor molecule, donor type, donor heavy atom, donor atom, acceptor molecule, acceptor atom, score
      L1  H     8    20       P1  7957  0.93
      L1  H     8    25       P1  7948  1.95
      P1  H  7997  8010       L1     3  0.94

> <Gold.PLP.Chemscore.Internal.Correction>
0.0010

> <Gold.Rescore>
     Score         DG    S(hbond)    S(metal)    S(lipo)     H(rot)  DE(clash)    DE(int)     intcor
     15.83     -16.25       2.79        0.00      34.33       1.00       0.00       0.42       ----

> <Gold.Chemscore.Fitness>
15.8254

> <Gold.Chemscore.DG>
-16.2469

> <Gold.Chemscore.ZeroCoef>
-5.4800

> <Gold.Chemscore.Hbond>
2.7874

> <Gold.Chemscore.Metal>
0.0000

> <Gold.Chemscore.Lipo>
34.3342

> <Gold.Chemscore.Internal_Hbond>
0.0000

> <Gold.Chemscore.DEClash>
0.0000

> <Gold.Chemscore.DEInternal>
0.4214

> <Gold.Chemscore.Rot>
1.0000

> <Gold.Chemscore.Internal.Correction>
   9.000000E+99

> <Gold.Chemscore.Hbonds>
donor molecule, donor type, donor heavy atom, donor atom, acceptor molecule, acceptor atom, score
      L1  H     8    20       P1  7957  0.88
      L1  H     8    25       P1  7948  0.93
      P1  H  7997  8010       L1     3  0.39

> <Gold.Chemscore.Hbond.Weighted>
-9.3098

> <Gold.Chemscore.Metal.Weighted>
-0.0000

> <Gold.Chemscore.Lipo.Weighted>
-4.0171

> <Gold.Chemscore.Internal_Hbond.Weighted>
0.0000

> <Gold.Chemscore.DEClash.Weighted>
0.0000

> <Gold.Chemscore.DEInternal.Weighted>
0.4214

> <Gold.Chemscore.Rot.Weighted>
2.5600

> <Gold.Chemscore.Internal.Correction.Weighted>
   9.000000E+99

> <Gold.Protein.RotatedTorsions>
[ 6907 6896 6895 6894 ] final  -54.72 input  -60.11 | X-H torsion
[ 7974 7965 7964 7962 ] final  179.24 input  175.53 | X-H torsion
[ 8008 7997 7996 7995 ] final   47.49 input   59.86 | X-H torsion
[ 10167 10162 10161 10158 ] final  153.64 input  -65.29 | X-H torsion
[ 10718 10713 10712 10709 ] final  126.76 input   66.30 | X-H torsion
[ 10763 10752 10751 10750 ] final   41.42 input  -60.55 | X-H torsion
[ 11005 11000 10999 10996 ] final  149.17 input  -57.11 | X-H torsion

> <Gold.Protein.ActiveResidues>
 VAL166  LYS551  ARG553  GLY616  TRP617  ASP618  TYR619  PRO620  LYS621  CYS622 
 ASP623  PHE694  ASN695  SER759  ASP760  ASP761  ALA762  ILE779  LEU786  VAL792 
 PHE793  MET794  SER795  GLU796  ALA797  LYS798  CYS799  TRP800  GLU811  SER814 

> <Gold.Protein.RotatedAtoms>
  150.8313  134.7568  159.6855 H   0  0  0  0  0  0  0  0  0  0  0  0  # atno 6907 bound_to 6896
  152.4417  134.5573  159.9894 H   0  0  0  0  0  0  0  0  0  0  0  0  # atno 6908 bound_to 6896
  151.5734  133.3349  159.3030 H   0  0  0  0  0  0  0  0  0  0  0  0  # atno 6909 bound_to 6896
  144.7147  140.0518  143.6435 H   0  0  0  0  0  0  0  0  0  0  0  0  # atno 7974 bound_to 7965
  155.3699  140.3423  155.4243 H   0  0  0  0  0  0  0  0  0  0  0  0  # atno 8008 bound_to 7997
  156.1668  140.1618  156.8552 H   0  0  0  0  0  0  0  0  0  0  0  0  # atno 8009 bound_to 7997
  154.5193  140.0771  156.8123 H   0  0  0  0  0  0  0  0  0  0  0  0  # atno 8010 bound_to 7997
  139.4826  144.5256  151.7806 H   0  0  0  0  0  0  0  0  0  0  0  0  # atno 10167 bound_to 10162
  157.5391  131.1097  150.8888 H   0  0  0  0  0  0  0  0  0  0  0  0  # atno 10718 bound_to 10713
  152.9909  135.6162  154.2785 H   0  0  0  0  0  0  0  0  0  0  0  0  # atno 10763 bound_to 10752
  154.2515  135.2785  155.2816 H   0  0  0  0  0  0  0  0  0  0  0  0  # atno 10764 bound_to 10752
  154.5284  135.5795  153.6796 H   0  0  0  0  0  0  0  0  0  0  0  0  # atno 10765 bound_to 10752
  140.1022  134.8976  157.1812 H   0  0  0  0  0  0  0  0  0  0  0  0  # atno 11005 bound_to 11000
  145.9938  139.3036  143.0969 LP  0  0  0  0  0  0  0  0  0  0  0  0  # atno 17320 bound_to 7965
  145.8872  140.9326  143.0570 LP  0  0  0  0  0  0  0  0  0  0  0  0  # atno 17321 bound_to 7965
  140.4775  144.1497  150.5927 LP  0  0  0  0  0  0  0  0  0  0  0  0  # atno 17342 bound_to 10162
  140.4314  143.2566  151.9591 LP  0  0  0  0  0  0  0  0  0  0  0  0  # atno 17343 bound_to 10162
  156.9446  130.5397  149.5281 LP  0  0  0  0  0  0  0  0  0  0  0  0  # atno 17370 bound_to 10713
  156.0482  130.5555  150.8930 LP  0  0  0  0  0  0  0  0  0  0  0  0  # atno 17371 bound_to 10713
  140.3205  134.2922  155.7247 LP  0  0  0  0  0  0  0  0  0  0  0  0  # atno 17394 bound_to 11000
  141.2108  133.7707  156.9903 LP  0  0  0  0  0  0  0  0  0  0  0  0  # atno 17395 bound_to 11000

$$$$
