AV-unprocessed.smi:1757|AV-procd|sdf|7078|dock1
  -GOLD-   22720 8293D 1   1.00000     0.00000
 Structure written by MMmdl.
 39 40  0  0  0  0  0  0  0  0  3 V2000
  145.6131  136.6571  153.9734 C   0  0  0  0  0  0  0  0  0  0  0  0
  145.7881  138.0858  153.6343 N   0  3  2  0  0  0  0  0  0  0  0  0
  146.8434  138.2987  152.6126 C   0  0  0  0  0  0  0  0  0  0  0  0
  146.9163  139.7773  152.1877 C   0  0  0  0  0  0  0  0  0  0  0  0
  147.1154  140.7152  153.3918 C   0  0  2  0  0  0  0  0  0  0  0  0
  148.4701  140.5796  153.9256 N   0  0  0  0  0  0  0  0  0  0  0  0
  148.8794  141.0135  155.1266 C   0  0  0  0  0  0  0  0  0  0  0  0
  148.1345  141.5795  155.9260 O   0  0  0  0  0  0  0  0  0  0  0  0
  150.1781  140.7222  155.3209 N   0  0  0  0  0  0  0  0  0  0  0  0
  151.0008  140.9954  156.4273 C   0  0  0  0  0  0  0  0  0  0  0  0
  150.9420  142.1270  157.1828 C   0  0  0  0  0  0  0  0  0  0  0  0
  151.8322  142.3565  158.3141 C   0  0  0  0  0  0  0  0  0  0  0  0
  151.7291  143.5568  159.2382 C   0  0  0  0  0  0  0  0  0  0  0  0
  152.5398  143.4238  160.2882 F   0  0  0  0  0  0  0  0  0  0  0  0
  152.0756  144.6643  158.5839 F   0  0  0  0  0  0  0  0  0  0  0  0
  150.4828  143.7106  159.6859 F   0  0  0  0  0  0  0  0  0  0  0  0
  152.7073  141.3067  158.5144 C   0  0  0  0  0  0  0  0  0  0  0  0
  152.8493  140.1693  157.7991 N   0  5  0  0  0  0  0  0  0  0  0  0
  152.0113  139.9646  156.7440 C   0  0  0  0  0  0  0  0  0  0  0  0
  152.0794  138.9459  156.0548 O   0  0  0  0  0  0  0  0  0  0  0  0
  146.0440  140.4215  154.4623 C   0  0  0  0  0  0  0  0  0  0  0  0
  145.9987  138.9297  154.8366 C   0  0  0  0  0  0  0  0  0  0  0  0
  146.5156  136.2502  154.4315 H   0  0  0  0  0  0  0  0  0  0  0  0
  145.3892  136.0740  153.0794 H   0  0  0  0  0  0  0  0  0  0  0  0
  144.7855  136.5256  154.6713 H   0  0  0  0  0  0  0  0  0  0  0  0
  147.8061  137.9688  153.0068 H   0  0  0  0  0  0  0  0  0  0  0  0
  146.6332  137.6818  151.7380 H   0  0  0  0  0  0  0  0  0  0  0  0
  147.7161  139.9198  151.4597 H   0  0  0  0  0  0  0  0  0  0  0  0
  145.9908  140.0455  151.6757 H   0  0  0  0  0  0  0  0  0  0  0  0
  146.9946  141.7431  153.0444 H   0  0  0  0  0  0  0  0  0  0  0  0
  149.1519  140.1286  153.3331 H   0  0  0  0  0  0  0  0  0  0  0  0
  150.6361  140.1997  154.5885 H   0  0  0  0  0  0  0  0  0  0  0  0
  150.2382  142.9102  156.9552 H   0  0  0  0  0  0  0  0  0  0  0  0
  153.3934  141.3915  159.3840 H   0  0  0  0  0  0  0  0  0  0  0  0
  146.2129  141.0256  155.3544 H   0  0  0  0  0  0  0  0  0  0  0  0
  145.0677  140.7212  154.0795 H   0  0  0  0  0  0  0  0  0  0  0  0
  145.1895  138.7599  155.5480 H   0  0  0  0  0  0  0  0  0  0  0  0
  146.9236  138.6350  155.3353 H   0  0  0  0  0  0  0  0  0  0  0  0
  144.9190  138.3894  153.2183 H   0  0  0  0  0  0  0  0  0  0  0  0
  1  2  1  0  0  0  0
  1 23  1  0  0  0  0
  1 24  1  0  0  0  0
  1 25  1  0  0  0  0
  2 22  1  0  0  0  0
  2  3  1  0  0  0  0
  2 39  1  0  0  0  0
  3  4  1  0  0  0  0
  3 26  1  0  0  0  0
  3 27  1  0  0  0  0
  4  5  1  0  0  0  0
  4 28  1  0  0  0  0
  4 29  1  0  0  0  0
  5  6  1  0  0  0  0
  5 21  1  0  0  0  0
  5 30  1  0  0  0  0
  6  7  1  0  0  0  0
  6 31  1  0  0  0  0
  7  8  2  0  0  0  0
  7  9  1  0  0  0  0
  9 10  1  0  0  0  0
  9 32  1  0  0  0  0
 10 19  1  0  0  0  0
 10 11  2  0  0  0  0
 11 12  1  0  0  0  0
 11 33  1  0  0  0  0
 12 13  1  0  0  0  0
 12 17  2  0  0  0  0
 13 14  1  0  0  0  0
 13 15  1  0  0  0  0
 13 16  1  0  0  0  0
 17 18  1  0  0  0  0
 17 34  1  0  0  0  0
 18 19  1  0  0  0  0
 19 20  2  0  0  0  0
 21 22  1  0  0  0  0
 21 35  1  0  0  0  0
 21 36  1  0  0  0  0
 22 37  1  0  0  0  0
 22 38  1  0  0  0  0
M  CHG  1   2   1
M  CHG  1  18  -1
M  END
> <s_m_source_file>
AV-unprocessed.smi

> <i_m_source_file_index>
1757

> <i_lp_mmshare_version>
43012

> <i_f3d_flags>
0

> <s_epik_input>
W0NIM11OMVtDSDJdW0NIMl1bQ0hdKFtDSDJdW0NIMl0xKVtOSF1DKD1PKVtOSF1jMltjSF1jKEMoRikoRilGKVtjSF1bbkhdYzI9Tw==

> <s_epik_cmdline>
J2VwaWtfcHl0aG9uJywgJy1waCcsICc3LjAnLCAnLXRuJywgJzgnLCAnLW1hJywgJzIwMCcsICctbWV0YWxfYmluZGluZycsICctaW1hZScsICc8aW5maWxlLm1hZT4nLCAnLW9tYWUnLCAnPG91dGZpbGUubWFlPic=

> <r_lp_tautomer_probability>
1

> <r_epik_Ionization_Penalty>
3.04759

> <r_epik_Ionization_Penalty_Charging>
0.155898

> <r_epik_Ionization_Penalty_Neutral>
2.89169

> <r_epik_State_Penalty>
2.88714

> <r_epik_Charging_Adjusted_Penalty>
3.04304

> <i_epik_Tot_Q>
0

> <i_epik_Tot_abs_Q>
2

> <r_epik_Metal_State_Penalty>
0.445786

> <b_epik_Metal_Only>
1

> <s_lp_Force_Field>
OPLS_2005

> <r_lp_Energy>
26.2534

> <b_lp_Chiralities_Consistent>
1

> <s_lp_Variant>
AV-unprocessed.smi:1757-4

> <Gold.Version>
5.8.1

> <Gold.Id.Protein>
6NUR|6NUR_protein|mol2

> <Gold.PLP.Fitness>
49.4989

> <Gold.PLP.PLP>
-37.2296

> <Gold.PLP.part.hbond>
-3.0000

> <Gold.PLP.part.metal>
0.0000

> <Gold.PLP.part.buried>
-1.8266

> <Gold.PLP.part.nonpolar>
-33.9821

> <Gold.PLP.part.repulsive>
2.8051

> <Gold.PLP.ligand.clash>
0.0000

> <Gold.PLP.ligand.torsion>
0.6217

> <Gold.PLP.Chemscore.Hbond>
4.4805

> <Gold.PLP.Chemscore.CHOScore>
0.0000

> <Gold.PLP.Chemscore.Metal>
0.0000

> <Gold.Chemscore.Hbonds>
donor molecule, donor type, donor heavy atom, donor atom, acceptor molecule, acceptor atom, score
      L1  H     6    31       P1  7957  0.38
      P1  H  7997  8010       L1    18  1.92

> <Gold.PLP.Chemscore.Internal.Correction>
0.0713

> <Gold.Rescore>
     Score         DG    S(hbond)    S(metal)    S(lipo)     H(rot)  DE(clash)    DE(int)     intcor
     13.51     -18.89       2.05        0.00      77.97       1.00       2.75       2.63       ----

> <Gold.Chemscore.Fitness>
13.5101

> <Gold.Chemscore.DG>
-18.8871

> <Gold.Chemscore.ZeroCoef>
-5.4800

> <Gold.Chemscore.Hbond>
2.0495

> <Gold.Chemscore.Metal>
0.0000

> <Gold.Chemscore.Lipo>
77.9650

> <Gold.Chemscore.Internal_Hbond>
0.0000

> <Gold.Chemscore.DEClash>
2.7519

> <Gold.Chemscore.DEInternal>
2.6251

> <Gold.Chemscore.Rot>
1.0000

> <Gold.Chemscore.Internal.Correction>
   9.000000E+99

> <Gold.Chemscore.Hbonds>
donor molecule, donor type, donor heavy atom, donor atom, acceptor molecule, acceptor atom, score
      L1  H     2    39       P1 10175  0.01
      L1  H     6    31       P1  7957  0.38
      P1  H  7997  8010       L1    18  0.26

> <Gold.Chemscore.Hbond.Weighted>
-6.8452

> <Gold.Chemscore.Metal.Weighted>
-0.0000

> <Gold.Chemscore.Lipo.Weighted>
-9.1219

> <Gold.Chemscore.Internal_Hbond.Weighted>
0.0000

> <Gold.Chemscore.DEClash.Weighted>
2.7519

> <Gold.Chemscore.DEInternal.Weighted>
2.6251

> <Gold.Chemscore.Rot.Weighted>
2.5600

> <Gold.Chemscore.Internal.Correction.Weighted>
   9.000000E+99

> <Gold.Protein.RotatedTorsions>
[ 6907 6896 6895 6894 ] final  -51.14 input  -60.11 | X-H torsion
[ 7974 7965 7964 7962 ] final -177.71 input  175.53 | X-H torsion
[ 8008 7997 7996 7995 ] final   38.34 input   59.86 | X-H torsion
[ 10167 10162 10161 10158 ] final -134.71 input  -65.29 | X-H torsion
[ 10718 10713 10712 10709 ] final  -59.07 input   66.30 | X-H torsion
[ 10763 10752 10751 10750 ] final   -9.23 input  -60.55 | X-H torsion
[ 11005 11000 10999 10996 ] final  -75.66 input  -57.11 | X-H torsion

> <Gold.Protein.ActiveResidues>
 VAL166  LYS551  ARG553  GLY616  TRP617  ASP618  TYR619  PRO620  LYS621  CYS622 
 ASP623  PHE694  ASN695  SER759  ASP760  ASP761  ALA762  ILE779  LEU786  VAL792 
 PHE793  MET794  SER795  GLU796  ALA797  LYS798  CYS799  TRP800  GLU811  SER814 

> <Gold.Protein.RotatedAtoms>
  150.8640  134.7999  159.7104 H   0  0  0  0  0  0  0  0  0  0  0  0  # atno 6907 bound_to 6896
  152.4668  134.5054  159.9747 H   0  0  0  0  0  0  0  0  0  0  0  0  # atno 6908 bound_to 6896
  151.5153  133.3438  159.2927 H   0  0  0  0  0  0  0  0  0  0  0  0  # atno 6909 bound_to 6896
  144.7128  140.0978  143.6418 H   0  0  0  0  0  0  0  0  0  0  0  0  # atno 7974 bound_to 7965
  155.2185  140.3329  155.4319 H   0  0  0  0  0  0  0  0  0  0  0  0  # atno 8008 bound_to 7997
  156.2342  140.1865  156.7210 H   0  0  0  0  0  0  0  0  0  0  0  0  # atno 8009 bound_to 7997
  154.6031  140.0620  156.9380 H   0  0  0  0  0  0  0  0  0  0  0  0  # atno 8010 bound_to 7997
  139.8853  143.6789  152.2621 H   0  0  0  0  0  0  0  0  0  0  0  0  # atno 10167 bound_to 10162
  156.1089  130.4177  150.0664 H   0  0  0  0  0  0  0  0  0  0  0  0  # atno 10718 bound_to 10713
  153.4518  135.7015  153.6104 H   0  0  0  0  0  0  0  0  0  0  0  0  # atno 10763 bound_to 10752
  153.4436  135.3774  155.2243 H   0  0  0  0  0  0  0  0  0  0  0  0  # atno 10764 bound_to 10752
  154.8728  135.3980  154.3931 H   0  0  0  0  0  0  0  0  0  0  0  0  # atno 10765 bound_to 10752
  141.1647  133.6955  156.7550 H   0  0  0  0  0  0  0  0  0  0  0  0  # atno 11005 bound_to 11000
  145.9564  139.2770  143.1181 LP  0  0  0  0  0  0  0  0  0  0  0  0  # atno 17320 bound_to 7965
  145.9267  140.9077  143.0377 LP  0  0  0  0  0  0  0  0  0  0  0  0  # atno 17321 bound_to 7965
  139.7159  144.7612  151.1035 LP  0  0  0  0  0  0  0  0  0  0  0  0  # atno 17342 bound_to 10162
  140.7737  143.5270  150.9468 LP  0  0  0  0  0  0  0  0  0  0  0  0  # atno 17343 bound_to 10162
  156.8632  130.9499  151.3616 LP  0  0  0  0  0  0  0  0  0  0  0  0  # atno 17370 bound_to 10713
  157.6268  130.8698  149.9203 LP  0  0  0  0  0  0  0  0  0  0  0  0  # atno 17371 bound_to 10713
  140.2576  134.8492  157.3727 LP  0  0  0  0  0  0  0  0  0  0  0  0  # atno 17394 bound_to 11000
  140.1642  134.4689  155.7874 LP  0  0  0  0  0  0  0  0  0  0  0  0  # atno 17395 bound_to 11000

$$$$
