AV-unprocessed.smi:2205|AV-procd|sdf|8941|dock10
  -GOLD-   2272012163D 1   1.00000     0.00000
 Structure written by MMmdl.
 36 37  0  0  0  0  0  0  0  0  1 V2000
  149.3928  136.8082  158.8078 C   0  0  0  0  0  0  0  0  0  0  0  0
  150.0127  135.7340  158.1239 O   0  0  0  0  0  0  0  0  0  0  0  0
  150.1338  135.9726  156.7311 C   0  0  0  0  0  0  0  0  0  0  0  0
  151.0211  134.8868  156.1011 C   0  0  0  0  0  0  0  0  0  0  0  0
  150.2204  133.8249  155.4743 N   0  0  0  0  0  0  0  0  0  0  0  0
  149.4337  134.1888  154.3636 C   0  0  0  0  0  0  0  0  0  0  0  0
  148.6613  133.3011  153.6994 C   0  0  0  0  0  0  0  0  0  0  0  0
  147.8603  133.5874  152.5831 N   0  0  0  0  0  0  0  0  0  0  0  0
  146.9186  132.8330  151.9820 C   0  0  0  0  0  0  0  0  0  0  0  0
  146.5909  131.6969  152.3245 O   0  0  0  0  0  0  0  0  0  0  0  0
  146.2341  133.4897  150.7733 C   0  0  0  0  0  0  0  0  0  0  0  0
  145.3472  134.6971  151.1204 C   0  0  0  0  0  0  0  0  0  0  0  0
  144.0971  133.8577  150.8389 C   0  0  0  0  0  0  0  0  0  0  0  0
  144.9856  132.7502  150.2636 C   0  0  0  0  0  0  0  0  0  0  0  0
  148.6755  131.9364  154.1808 C   0  0  0  0  0  0  0  0  0  0  0  0
  149.4298  131.5758  155.2367 C   0  0  0  0  0  0  0  0  0  0  0  0
  150.2677  132.5442  155.9472 C   0  0  0  0  0  0  0  0  0  0  0  0
  150.9696  132.2217  156.9062 O   0  0  0  0  0  0  0  0  0  0  0  0
  149.3391  136.5815  159.8724 H   0  0  0  0  0  0  0  0  0  0  0  0
  148.3763  136.9700  158.4468 H   0  0  0  0  0  0  0  0  0  0  0  0
  149.9589  137.7328  158.6881 H   0  0  0  0  0  0  0  0  0  0  0  0
  149.1510  135.9883  156.2573 H   0  0  0  0  0  0  0  0  0  0  0  0
  150.5858  136.9522  156.5698 H   0  0  0  0  0  0  0  0  0  0  0  0
  151.6848  135.3407  155.3633 H   0  0  0  0  0  0  0  0  0  0  0  0
  151.6884  134.4719  156.8579 H   0  0  0  0  0  0  0  0  0  0  0  0
  149.5265  135.2310  154.1038 H   0  0  0  0  0  0  0  0  0  0  0  0
  148.0206  134.4963  152.1742 H   0  0  0  0  0  0  0  0  0  0  0  0
  146.9358  133.7126  149.9679 H   0  0  0  0  0  0  0  0  0  0  0  0
  145.4155  135.0434  152.1527 H   0  0  0  0  0  0  0  0  0  0  0  0
  145.4720  135.5237  150.4200 H   0  0  0  0  0  0  0  0  0  0  0  0
  143.5798  133.5537  151.7497 H   0  0  0  0  0  0  0  0  0  0  0  0
  143.4135  134.3031  150.1155 H   0  0  0  0  0  0  0  0  0  0  0  0
  144.9470  132.6958  149.1751 H   0  0  0  0  0  0  0  0  0  0  0  0
  144.8082  131.7715  150.7121 H   0  0  0  0  0  0  0  0  0  0  0  0
  148.0726  131.1882  153.6866 H   0  0  0  0  0  0  0  0  0  0  0  0
  149.4179  130.5481  155.5691 H   0  0  0  0  0  0  0  0  0  0  0  0
  1  2  1  0  0  0  0
  1 19  1  0  0  0  0
  1 20  1  0  0  0  0
  1 21  1  0  0  0  0
  2  3  1  0  0  0  0
  3  4  1  0  0  0  0
  3 22  1  0  0  0  0
  3 23  1  0  0  0  0
  4  5  1  0  0  0  0
  4 24  1  0  0  0  0
  4 25  1  0  0  0  0
  5 17  1  0  0  0  0
  5  6  1  0  0  0  0
  6  7  2  0  0  0  0
  6 26  1  0  0  0  0
  7  8  1  0  0  0  0
  7 15  1  0  0  0  0
  8  9  1  0  0  0  0
  8 27  1  0  0  0  0
  9 10  2  0  0  0  0
  9 11  1  0  0  0  0
 11 14  1  0  0  0  0
 11 12  1  0  0  0  0
 11 28  1  0  0  0  0
 12 13  1  0  0  0  0
 12 29  1  0  0  0  0
 12 30  1  0  0  0  0
 13 14  1  0  0  0  0
 13 31  1  0  0  0  0
 13 32  1  0  0  0  0
 14 33  1  0  0  0  0
 14 34  1  0  0  0  0
 15 16  2  0  0  0  0
 15 35  1  0  0  0  0
 16 17  1  0  0  0  0
 16 36  1  0  0  0  0
 17 18  2  0  0  0  0
M  END
> <s_m_source_file>
AV-unprocessed.smi

> <i_m_source_file_index>
2205

> <i_lp_mmshare_version>
43012

> <i_f3d_flags>
0

> <s_epik_input>
W0NIM11PW0NIMl1bQ0gyXW4xW2NIXWMoW2NIXVtjSF1jMT1PKVtOSF1DKD1PKVtDSF0yW0NIMl1bQ0gyXVtDSDJdMg==

> <s_epik_cmdline>
J2VwaWtfcHl0aG9uJywgJy1waCcsICc3LjAnLCAnLXRuJywgJzgnLCAnLW1hJywgJzIwMCcsICctbWV0YWxfYmluZGluZycsICctaW1hZScsICc8aW5maWxlLm1hZT4nLCAnLW9tYWUnLCAnPG91dGZpbGUubWFlPic=

> <r_lp_tautomer_probability>
1

> <r_epik_Ionization_Penalty>
2.40107e-06

> <r_epik_Ionization_Penalty_Charging>
2.27812e-06

> <r_epik_Ionization_Penalty_Neutral>
1.2295e-07

> <r_epik_State_Penalty>
-0

> <r_epik_Charging_Adjusted_Penalty>
2.27812e-06

> <i_epik_Tot_Q>
0

> <i_epik_Tot_abs_Q>
0

> <r_epik_Metal_State_Penalty>
-0

> <b_epik_Metal_Only>
0

> <s_lp_Force_Field>
OPLS_2005

> <r_lp_Energy>
28.3384

> <b_lp_Chiralities_Consistent>
1

> <s_lp_Variant>
AV-unprocessed.smi:2205-1

> <Gold.Version>
5.8.1

> <Gold.Id.Protein>
6NUR|6NUR_protein|mol2

> <Gold.PLP.Fitness>
39.9235

> <Gold.PLP.PLP>
-31.9424

> <Gold.PLP.part.hbond>
-2.0000

> <Gold.PLP.part.metal>
0.0000

> <Gold.PLP.part.buried>
-4.4844

> <Gold.PLP.part.nonpolar>
-26.2886

> <Gold.PLP.part.repulsive>
0.1357

> <Gold.PLP.ligand.clash>
0.0000

> <Gold.PLP.ligand.torsion>
0.5154

> <Gold.PLP.Chemscore.Hbond>
2.0000

> <Gold.PLP.Chemscore.CHOScore>
0.8824

> <Gold.PLP.Chemscore.Metal>
0.0000

> <Gold.Chemscore.Hbonds>
donor molecule, donor type, donor heavy atom, donor atom, acceptor molecule, acceptor atom, score
      L1  H     8    27       P1  7948  0.95
      P1  H  6896  6907       L1     2  0.94
      L1  C     6    26       P1  7948  0.87

> <Gold.PLP.Chemscore.Internal.Correction>
0.3646

> <Gold.Rescore>
     Score         DG    S(hbond)    S(metal)    S(lipo)     H(rot)  DE(clash)    DE(int)     intcor
     14.62     -16.60       2.62        0.00      54.45       1.56       0.00       1.99       ----

> <Gold.Chemscore.Fitness>
14.6160

> <Gold.Chemscore.DG>
-16.6035

> <Gold.Chemscore.ZeroCoef>
-5.4800

> <Gold.Chemscore.Hbond>
2.6181

> <Gold.Chemscore.Metal>
0.0000

> <Gold.Chemscore.Lipo>
54.4549

> <Gold.Chemscore.Internal_Hbond>
0.0000

> <Gold.Chemscore.DEClash>
0.0004

> <Gold.Chemscore.DEInternal>
1.9870

> <Gold.Chemscore.Rot>
1.5594

> <Gold.Chemscore.Internal.Correction>
   9.000000E+99

> <Gold.Chemscore.Hbonds>
donor molecule, donor type, donor heavy atom, donor atom, acceptor molecule, acceptor atom, score
      L1  H     8    27       P1  7948  0.21
      P1  H  6896  6907       L1     2  0.36

> <Gold.Chemscore.Hbond.Weighted>
-8.7443

> <Gold.Chemscore.Metal.Weighted>
-0.0000

> <Gold.Chemscore.Lipo.Weighted>
-6.3712

> <Gold.Chemscore.Internal_Hbond.Weighted>
0.0000

> <Gold.Chemscore.DEClash.Weighted>
0.0004

> <Gold.Chemscore.DEInternal.Weighted>
1.9870

> <Gold.Chemscore.Rot.Weighted>
3.9920

> <Gold.Chemscore.Internal.Correction.Weighted>
   9.000000E+99

> <Gold.Protein.RotatedTorsions>
[ 6907 6896 6895 6894 ] final  -65.13 input  -60.11 | X-H torsion
[ 7974 7965 7964 7962 ] final  -87.50 input  175.53 | X-H torsion
[ 8008 7997 7996 7995 ] final  -24.38 input   59.86 | X-H torsion
[ 10167 10162 10161 10158 ] final  105.59 input  -65.29 | X-H torsion
[ 10718 10713 10712 10709 ] final  -18.28 input   66.30 | X-H torsion
[ 10763 10752 10751 10750 ] final   71.25 input  -60.55 | X-H torsion
[ 11005 11000 10999 10996 ] final   76.07 input  -57.11 | X-H torsion

> <Gold.Protein.ActiveResidues>
 VAL166  LYS551  ARG553  GLY616  TRP617  ASP618  TYR619  PRO620  LYS621  CYS622 
 ASP623  PHE694  ASN695  SER759  ASP760  ASP761  ALA762  ILE779  LEU786  VAL792 
 PHE793  MET794  SER795  GLU796  ALA797  LYS798  CYS799  TRP800  GLU811  SER814 

> <Gold.Protein.RotatedAtoms>
  150.7542  134.6202  159.6131 H   0  0  0  0  0  0  0  0  0  0  0  0  # atno 6907 bound_to 6896
  152.3510  134.7002  160.0245 H   0  0  0  0  0  0  0  0  0  0  0  0  # atno 6908 bound_to 6896
  151.7423  133.3286  159.3405 H   0  0  0  0  0  0  0  0  0  0  0  0  # atno 6909 bound_to 6896
  145.4657  140.9560  143.1945 H   0  0  0  0  0  0  0  0  0  0  0  0  # atno 7974 bound_to 7965
  154.4532  140.1955  156.0456 H   0  0  0  0  0  0  0  0  0  0  0  0  # atno 8008 bound_to 7997
  156.0692  140.3286  155.7528 H   0  0  0  0  0  0  0  0  0  0  0  0  # atno 8009 bound_to 7997
  155.5290  140.0576  157.2883 H   0  0  0  0  0  0  0  0  0  0  0  0  # atno 8010 bound_to 7997
  139.7080  144.7083  151.1075 H   0  0  0  0  0  0  0  0  0  0  0  0  # atno 10167 bound_to 10162
  156.5617  130.4727  149.6403 H   0  0  0  0  0  0  0  0  0  0  0  0  # atno 10718 bound_to 10713
  153.0388  135.5144  154.7564 H   0  0  0  0  0  0  0  0  0  0  0  0  # atno 10763 bound_to 10752
  154.6518  135.2926  154.9979 H   0  0  0  0  0  0  0  0  0  0  0  0  # atno 10764 bound_to 10752
  154.0860  135.6657  153.4897 H   0  0  0  0  0  0  0  0  0  0  0  0  # atno 10765 bound_to 10752
  139.9315  134.7570  156.1350 H   0  0  0  0  0  0  0  0  0  0  0  0  # atno 11005 bound_to 11000
  144.7976  139.6204  143.7086 LP  0  0  0  0  0  0  0  0  0  0  0  0  # atno 17320 bound_to 7965
  146.2426  139.6032  142.9481 LP  0  0  0  0  0  0  0  0  0  0  0  0  # atno 17321 bound_to 7965
  140.7726  143.5332  150.9398 LP  0  0  0  0  0  0  0  0  0  0  0  0  # atno 17342 bound_to 10162
  139.9016  143.6828  152.3130 LP  0  0  0  0  0  0  0  0  0  0  0  0  # atno 17343 bound_to 10162
  156.2793  130.7061  151.1881 LP  0  0  0  0  0  0  0  0  0  0  0  0  # atno 17370 bound_to 10713
  157.7367  131.0559  150.5398 LP  0  0  0  0  0  0  0  0  0  0  0  0  # atno 17371 bound_to 10713
  141.0905  133.6716  156.2531 LP  0  0  0  0  0  0  0  0  0  0  0  0  # atno 17394 bound_to 11000
  140.6190  134.5380  157.5545 LP  0  0  0  0  0  0  0  0  0  0  0  0  # atno 17395 bound_to 11000

$$$$
