AV-unprocessed.smi:2527|AV-procd|sdf|9943|dock4
  -GOLD-   2272013583D 1   1.00000     0.00000
 Structure written by MMmdl.
 35 37  0  0  0  0  0  0  0  0  2 V2000
  149.6765  141.1009  155.0475 C   0  0  0  0  0  0  0  0  0  0  0  0
  150.7194  140.2050  154.7081 O   0  0  0  0  0  0  0  0  0  0  0  0
  151.7537  140.1820  155.6792 C   0  0  0  0  0  0  0  0  0  0  0  0
  151.2069  139.6322  157.0043 C   0  0  0  0  0  0  0  0  0  0  0  0
  151.7495  140.3397  158.1548 N   0  0  0  0  0  0  0  0  0  0  0  0
  152.4077  139.8164  159.2194 C   0  0  0  0  0  0  0  0  0  0  0  0
  152.7151  138.0781  159.3430 S   0  0  0  0  0  0  0  0  0  0  0  0
  153.7313  138.0347  160.8490 C   0  0  0  0  0  0  0  0  0  0  0  0
  154.4929  136.7532  161.0271 C   0  0  0  0  0  0  0  0  0  0  0  0
  153.9012  135.5777  160.6846 N   0  5  0  0  0  0  0  0  0  0  0  0
  154.8393  134.6551  160.9632 C   0  0  0  0  0  0  0  0  0  0  0  0
  154.8009  133.4334  160.8329 O   0  0  0  0  0  0  0  0  0  0  0  0
  155.8985  135.3136  161.4393 N   0  0  0  0  0  0  0  0  0  0  0  0
  155.6847  136.6393  161.4820 N   0  0  0  0  0  0  0  0  0  0  0  0
  152.8055  140.7019  160.1357 N   0  0  0  0  0  0  0  0  0  0  0  0
  152.3636  141.9034  159.6192 C   0  0  0  0  0  0  0  0  0  0  0  0
  152.4772  143.2178  160.1255 C   0  0  0  0  0  0  0  0  0  0  0  0
  151.9423  144.3079  159.4078 C   0  0  0  0  0  0  0  0  0  0  0  0
  152.0898  145.9064  160.0397 Cl  0  0  0  0  0  0  0  0  0  0  0  0
  151.2887  144.0982  158.1757 C   0  0  0  0  0  0  0  0  0  0  0  0
  151.1646  142.7960  157.6543 C   0  0  0  0  0  0  0  0  0  0  0  0
  151.6988  141.7121  158.3765 C   0  0  0  0  0  0  0  0  0  0  0  0
  156.7797  134.9303  161.7485 H   0  0  0  0  0  0  0  0  0  0  0  0
  148.9108  141.0813  154.2722 H   0  0  0  0  0  0  0  0  0  0  0  0
  150.0465  142.1237  155.1300 H   0  0  0  0  0  0  0  0  0  0  0  0
  149.2072  140.8203  155.9912 H   0  0  0  0  0  0  0  0  0  0  0  0
  152.5769  139.5564  155.3318 H   0  0  0  0  0  0  0  0  0  0  0  0
  152.1496  141.1878  155.8278 H   0  0  0  0  0  0  0  0  0  0  0  0
  150.1201  139.7179  157.0226 H   0  0  0  0  0  0  0  0  0  0  0  0
  151.4279  138.5689  157.0981 H   0  0  0  0  0  0  0  0  0  0  0  0
  154.4320  138.8697  160.8204 H   0  0  0  0  0  0  0  0  0  0  0  0
  153.0850  138.2010  161.7120 H   0  0  0  0  0  0  0  0  0  0  0  0
  152.9779  143.3859  161.0676 H   0  0  0  0  0  0  0  0  0  0  0  0
  150.8827  144.9368  157.6292 H   0  0  0  0  0  0  0  0  0  0  0  0
  150.6673  142.6328  156.7099 H   0  0  0  0  0  0  0  0  0  0  0  0
  1  2  1  0  0  0  0
  1 24  1  0  0  0  0
  1 25  1  0  0  0  0
  1 26  1  0  0  0  0
  2  3  1  0  0  0  0
  3  4  1  0  0  0  0
  3 27  1  0  0  0  0
  3 28  1  0  0  0  0
  4  5  1  0  0  0  0
  4 29  1  0  0  0  0
  4 30  1  0  0  0  0
  5 22  1  0  0  0  0
  5  6  1  0  0  0  0
  6  7  1  0  0  0  0
  6 15  2  0  0  0  0
  7  8  1  0  0  0  0
  8 31  1  0  0  0  0
  8 32  1  0  0  0  0
  8  9  1  0  0  0  0
  9 14  2  0  0  0  0
  9 10  1  0  0  0  0
 10 11  1  0  0  0  0
 11 13  1  0  0  0  0
 11 12  2  0  0  0  0
 13 14  1  0  0  0  0
 13 23  1  0  0  0  0
 15 16  1  0  0  0  0
 16 22  2  0  0  0  0
 16 17  1  0  0  0  0
 17 18  2  0  0  0  0
 17 33  1  0  0  0  0
 18 19  1  0  0  0  0
 18 20  1  0  0  0  0
 20 21  2  0  0  0  0
 20 34  1  0  0  0  0
 21 22  1  0  0  0  0
 21 35  1  0  0  0  0
M  CHG  1  10  -1
M  END
> <s_m_source_file>
AV-unprocessed.smi

> <i_m_source_file_index>
2527

> <i_lp_mmshare_version>
43012

> <i_f3d_flags>
0

> <s_epik_input>
W2NIXTFjKENsKVtjSF1bY0hdYyhjMTIpbihbQ0gyXVtDSDJdT1tDSDNdKWMobjIpU1tDSDJdYzNuYyg9TylbbkhdW25IXTM=

> <s_epik_cmdline>
J2VwaWtfcHl0aG9uJywgJy1waCcsICc3LjAnLCAnLXRuJywgJzgnLCAnLW1hJywgJzIwMCcsICctbWV0YWxfYmluZGluZycsICctaW1hZScsICc8aW5maWxlLm1hZT4nLCAnLW9tYWUnLCAnPG91dGZpbGUubWFlPic=

> <r_lp_tautomer_probability>
0.992605

> <r_epik_Ionization_Penalty>
1.73518

> <r_epik_Ionization_Penalty_Charging>
3.40377e-05

> <r_epik_Ionization_Penalty_Neutral>
1.73514

> <r_epik_State_Penalty>
1.84086

> <r_epik_Charging_Adjusted_Penalty>
1.8409

> <i_epik_Tot_Q>
-1

> <i_epik_Tot_abs_Q>
1

> <r_epik_Metal_State_Penalty>
0.488407

> <b_epik_Metal_Only>
0

> <s_lp_Force_Field>
OPLS_2005

> <r_lp_Energy>
20.2593

> <b_lp_Chiralities_Consistent>
1

> <s_lp_Variant>
AV-unprocessed.smi:2527-2

> <Gold.Version>
5.8.1

> <Gold.Id.Protein>
6NUR|6NUR_protein|mol2

> <Gold.PLP.Fitness>
48.9356

> <Gold.PLP.PLP>
-41.3094

> <Gold.PLP.part.hbond>
-2.0000

> <Gold.PLP.part.metal>
0.0000

> <Gold.PLP.part.buried>
-3.1559

> <Gold.PLP.part.nonpolar>
-35.0576

> <Gold.PLP.part.repulsive>
0.0820

> <Gold.PLP.ligand.clash>
0.0000

> <Gold.PLP.ligand.torsion>
0.6948

> <Gold.PLP.Chemscore.Hbond>
3.0000

> <Gold.PLP.Chemscore.CHOScore>
0.0000

> <Gold.PLP.Chemscore.Metal>
0.0000

> <Gold.Chemscore.Hbonds>
donor molecule, donor type, donor heavy atom, donor atom, acceptor molecule, acceptor atom, score
      P1  H  6896  6909       L1    10  2.00
      P1  H  7989  7998       L1     2  0.80

> <Gold.PLP.Chemscore.Internal.Correction>
0.0158

> <Gold.Rescore>
     Score         DG    S(hbond)    S(metal)    S(lipo)     H(rot)  DE(clash)    DE(int)     intcor
     14.55     -15.20       1.45        0.00     103.04       2.81       0.01       0.65       ----

> <Gold.Chemscore.Fitness>
14.5485

> <Gold.Chemscore.DG>
-15.2030

> <Gold.Chemscore.ZeroCoef>
-5.4800

> <Gold.Chemscore.Hbond>
1.4548

> <Gold.Chemscore.Metal>
0.0000

> <Gold.Chemscore.Lipo>
103.0395

> <Gold.Chemscore.Internal_Hbond>
0.0000

> <Gold.Chemscore.DEClash>
0.0059

> <Gold.Chemscore.DEInternal>
0.6486

> <Gold.Chemscore.Rot>
2.8092

> <Gold.Chemscore.Internal.Correction>
   9.000000E+99

> <Gold.Chemscore.Hbonds>
donor molecule, donor type, donor heavy atom, donor atom, acceptor molecule, acceptor atom, score
      P1  H  6896  6909       L1    10  0.78
      P1  H  7989  7998       L1     2  0.08

> <Gold.Chemscore.Hbond.Weighted>
-4.8590

> <Gold.Chemscore.Metal.Weighted>
-0.0000

> <Gold.Chemscore.Lipo.Weighted>
-12.0556

> <Gold.Chemscore.Internal_Hbond.Weighted>
0.0000

> <Gold.Chemscore.DEClash.Weighted>
0.0059

> <Gold.Chemscore.DEInternal.Weighted>
0.6486

> <Gold.Chemscore.Rot.Weighted>
7.1916

> <Gold.Chemscore.Internal.Correction.Weighted>
   9.000000E+99

> <Gold.Protein.RotatedTorsions>
[ 6907 6896 6895 6894 ] final  170.53 input  -60.11 | X-H torsion
[ 7974 7965 7964 7962 ] final   29.13 input  175.53 | X-H torsion
[ 8008 7997 7996 7995 ] final  130.38 input   59.86 | X-H torsion
[ 10167 10162 10161 10158 ] final   96.42 input  -65.29 | X-H torsion
[ 10718 10713 10712 10709 ] final  160.84 input   66.30 | X-H torsion
[ 10763 10752 10751 10750 ] final   54.46 input  -60.55 | X-H torsion
[ 11005 11000 10999 10996 ] final -148.53 input  -57.11 | X-H torsion

> <Gold.Protein.ActiveResidues>
 VAL166  LYS551  ARG553  GLY616  TRP617  ASP618  TYR619  PRO620  LYS621  CYS622 
 ASP623  PHE694  ASN695  SER759  ASP760  ASP761  ALA762  ILE779  LEU786  VAL792 
 PHE793  MET794  SER795  GLU796  ALA797  LYS798  CYS799  TRP800  GLU811  SER814 

> <Gold.Protein.RotatedAtoms>
  151.8147  133.3386  159.3565 H   0  0  0  0  0  0  0  0  0  0  0  0  # atno 6907 bound_to 6896
  150.7314  134.5631  159.5861 H   0  0  0  0  0  0  0  0  0  0  0  0  # atno 6908 bound_to 6896
  152.3050  134.7567  160.0400 H   0  0  0  0  0  0  0  0  0  0  0  0  # atno 6909 bound_to 6896
  146.1689  139.6962  142.8981 H   0  0  0  0  0  0  0  0  0  0  0  0  # atno 7974 bound_to 7965
  156.2953  140.2597  156.2752 H   0  0  0  0  0  0  0  0  0  0  0  0  # atno 8008 bound_to 7997
  154.9656  140.0392  157.2229 H   0  0  0  0  0  0  0  0  0  0  0  0  # atno 8009 bound_to 7997
  154.7906  140.2811  155.5999 H   0  0  0  0  0  0  0  0  0  0  0  0  # atno 8010 bound_to 7997
  139.7895  144.6857  150.9911 H   0  0  0  0  0  0  0  0  0  0  0  0  # atno 10167 bound_to 10162
  157.1448  131.0549  151.2309 H   0  0  0  0  0  0  0  0  0  0  0  0  # atno 10718 bound_to 10713
  152.9805  135.5744  154.4908 H   0  0  0  0  0  0  0  0  0  0  0  0  # atno 10763 bound_to 10752
  154.4443  135.2776  155.1828 H   0  0  0  0  0  0  0  0  0  0  0  0  # atno 10764 bound_to 10752
  154.3483  135.6215  153.5683 H   0  0  0  0  0  0  0  0  0  0  0  0  # atno 10765 bound_to 10752
  140.7603  134.3306  157.5103 H   0  0  0  0  0  0  0  0  0  0  0  0  # atno 11005 bound_to 11000
  145.4394  141.0421  143.2866 LP  0  0  0  0  0  0  0  0  0  0  0  0  # atno 17320 bound_to 7965
  144.8133  139.5922  143.7019 LP  0  0  0  0  0  0  0  0  0  0  0  0  # atno 17321 bound_to 7965
  140.7820  143.4395  151.0572 LP  0  0  0  0  0  0  0  0  0  0  0  0  # atno 17342 bound_to 10162
  139.8073  143.8000  152.3168 LP  0  0  0  0  0  0  0  0  0  0  0  0  # atno 17343 bound_to 10162
  157.4274  130.7471  149.6962 LP  0  0  0  0  0  0  0  0  0  0  0  0  # atno 17370 bound_to 10713
  155.9781  130.4055  150.3667 LP  0  0  0  0  0  0  0  0  0  0  0  0  # atno 17371 bound_to 10713
  139.8772  134.9197  156.3234 LP  0  0  0  0  0  0  0  0  0  0  0  0  # atno 17394 bound_to 11000
  140.9669  133.7352  156.0480 LP  0  0  0  0  0  0  0  0  0  0  0  0  # atno 17395 bound_to 11000

$$$$
