AV-unprocessed.smi:287|AV-procd|sdf|2194|dock10
  -GOLD-   2262021593D 1   1.00000     0.00000
 Structure written by MMmdl.
 55 58  0  0  0  0  0  0  0  0  1 V2000
  147.3441  136.8463  163.1461 C   0  0  0  0  0  0  0  0  0  0  0  0
  147.7094  136.2547  161.8279 C   0  0  0  0  0  0  0  0  0  0  0  0
  147.5349  135.0247  161.2640 C   0  0  0  0  0  0  0  0  0  0  0  0
  148.1049  135.0700  159.9568 C   0  0  0  0  0  0  0  0  0  0  0  0
  148.1398  133.9200  158.9598 C   0  0  2  0  0  0  0  0  0  0  0  0
  146.7053  133.4954  158.6046 C   0  0  0  0  0  0  0  0  0  0  0  0
  148.7561  132.7574  159.4794 O   0  0  0  0  0  0  0  0  0  0  0  0
  148.9201  134.2846  157.6767 C   0  0  0  0  0  0  0  0  0  0  0  0
  149.0483  133.1631  156.7544 N   0  0  0  0  0  0  0  0  0  0  0  0
  148.3669  133.1365  155.5900 C   0  0  0  0  0  0  0  0  0  0  0  0
  148.9355  132.4093  154.5984 N   0  0  0  0  0  0  0  0  0  0  0  0
  148.3435  132.3212  153.4038 C   0  0  0  0  0  0  0  0  0  0  0  0
  147.1991  132.8739  152.9969 N   0  0  0  0  0  0  0  0  0  0  0  0
  146.6214  133.6081  153.9906 C   0  0  0  0  0  0  0  0  0  0  0  0
  147.1297  133.7890  155.3090 C   0  0  0  0  0  0  0  0  0  0  0  0
  146.2511  134.5923  156.0299 N   0  0  0  0  0  0  0  0  0  0  0  0
  145.2924  134.8660  155.1873 C   0  0  0  0  0  0  0  0  0  0  0  0
  145.4407  134.3131  153.9351 N   0  0  0  0  0  0  0  0  0  0  0  0
  144.5364  134.4161  152.7500 C   0  0  2  0  0  0  0  0  0  0  0  0
  144.4054  133.1516  152.1928 O   0  0  0  0  0  0  0  0  0  0  0  0
  144.0115  133.3168  150.8414 C   0  0  2  0  0  0  0  0  0  0  0  0
  144.2807  132.0165  150.0681 C   0  0  0  0  0  0  0  0  0  0  0  0
  143.4055  131.9074  148.9659 O   0  0  0  0  0  0  0  0  0  0  0  0
  144.8280  134.5304  150.3668 C   0  0  1  0  0  0  0  0  0  0  0  0
  144.0707  135.2959  149.4507 O   0  0  0  0  0  0  0  0  0  0  0  0
  145.0929  135.3333  151.6425 C   0  0  2  0  0  0  0  0  0  0  0  0
  146.4735  135.6233  151.7754 O   0  0  0  0  0  0  0  0  0  0  0  0
  148.5993  136.3465  159.8340 C   0  0  0  0  0  0  0  0  0  0  0  0
  149.3229  137.0805  158.7536 C   0  0  0  0  0  0  0  0  0  0  0  0
  148.3606  137.0714  160.9625 O   0  0  0  0  0  0  0  0  0  0  0  0
  143.5746  134.7513  153.1427 H   0  0  0  0  0  0  0  0  0  0  0  0
  142.9430  133.5447  150.8433 H   0  0  0  0  0  0  0  0  0  0  0  0
  145.7628  134.2104  149.9032 H   0  0  0  0  0  0  0  0  0  0  0  0
  144.5357  136.2708  151.6714 H   0  0  0  0  0  0  0  0  0  0  0  0
  146.6120  136.2245  163.6617 H   0  0  0  0  0  0  0  0  0  0  0  0
  146.9131  137.8397  163.0199 H   0  0  0  0  0  0  0  0  0  0  0  0
  148.2225  136.9355  163.7853 H   0  0  0  0  0  0  0  0  0  0  0  0
  147.0471  134.1840  161.7345 H   0  0  0  0  0  0  0  0  0  0  0  0
  146.1492  134.3180  158.1536 H   0  0  0  0  0  0  0  0  0  0  0  0
  146.1554  133.1760  159.4911 H   0  0  0  0  0  0  0  0  0  0  0  0
  146.6971  132.6680  157.8941 H   0  0  0  0  0  0  0  0  0  0  0  0
  149.2298  132.3316  158.7815 H   0  0  0  0  0  0  0  0  0  0  0  0
  148.4651  135.1391  157.1737 H   0  0  0  0  0  0  0  0  0  0  0  0
  149.9285  134.5845  157.9644 H   0  0  0  0  0  0  0  0  0  0  0  0
  149.7066  132.4475  157.0274 H   0  0  0  0  0  0  0  0  0  0  0  0
  148.8619  131.7235  152.6687 H   0  0  0  0  0  0  0  0  0  0  0  0
  144.4449  135.4780  155.4601 H   0  0  0  0  0  0  0  0  0  0  0  0
  145.3145  131.9709  149.7245 H   0  0  0  0  0  0  0  0  0  0  0  0
  144.1190  131.1551  150.7169 H   0  0  0  0  0  0  0  0  0  0  0  0
  143.1590  132.7774  148.6906 H   0  0  0  0  0  0  0  0  0  0  0  0
  144.5712  135.3894  148.6540 H   0  0  0  0  0  0  0  0  0  0  0  0
  146.6846  136.3372  151.1926 H   0  0  0  0  0  0  0  0  0  0  0  0
  150.2083  136.5286  158.4374 H   0  0  0  0  0  0  0  0  0  0  0  0
  149.6464  138.0648  159.0932 H   0  0  0  0  0  0  0  0  0  0  0  0
  148.6797  137.2193  157.8846 H   0  0  0  0  0  0  0  0  0  0  0  0
  1  2  1  0  0  0  0
  1 35  1  0  0  0  0
  1 36  1  0  0  0  0
  1 37  1  0  0  0  0
  2 30  1  0  0  0  0
  2  3  2  0  0  0  0
  3  4  1  0  0  0  0
  3 38  1  0  0  0  0
  4  5  1  0  0  0  0
  4 28  2  0  0  0  0
  5  6  1  0  0  0  0
  5  7  1  0  0  0  0
  5  8  1  0  0  0  0
  6 39  1  0  0  0  0
  6 40  1  0  0  0  0
  6 41  1  0  0  0  0
  7 42  1  0  0  0  0
  8  9  1  0  0  0  0
  8 43  1  0  0  0  0
  8 44  1  0  0  0  0
  9 10  1  0  0  0  0
  9 45  1  0  0  0  0
 10 15  1  0  0  0  0
 10 11  2  0  0  0  0
 11 12  1  0  0  0  0
 12 13  2  0  0  0  0
 12 46  1  0  0  0  0
 13 14  1  0  0  0  0
 14 18  1  0  0  0  0
 14 15  2  0  0  0  0
 15 16  1  0  0  0  0
 16 17  2  0  0  0  0
 17 18  1  0  0  0  0
 17 47  1  0  0  0  0
 18 19  1  0  0  0  0
 19 31  1  0  0  0  0
 19 26  1  0  0  0  0
 19 20  1  0  0  0  0
 20 21  1  0  0  0  0
 21 32  1  0  0  0  0
 21 22  1  0  0  0  0
 21 24  1  0  0  0  0
 22 23  1  0  0  0  0
 22 48  1  0  0  0  0
 22 49  1  0  0  0  0
 23 50  1  0  0  0  0
 24 33  1  0  0  0  0
 24 25  1  0  0  0  0
 24 26  1  0  0  0  0
 25 51  1  0  0  0  0
 26 34  1  0  0  0  0
 26 27  1  0  0  0  0
 27 52  1  0  0  0  0
 28 29  1  0  0  0  0
 28 30  1  0  0  0  0
 29 53  1  0  0  0  0
 29 54  1  0  0  0  0
 29 55  1  0  0  0  0
M  END
> <s_m_source_file>
AV-unprocessed.smi

> <i_m_source_file_index>
287

> <i_lp_mmshare_version>
43012

> <i_f3d_flags>
0

> <s_epik_input>
W0NIM11jMVtjSF1jKGMobzEpW0NIM10pW0NAQF0oW0NIM10pKFtPSF0pW0NIMl1bTkhdYyhuW2NIXW4yKWMoYzIzKW5bY0hdbjNbQ0BASF00T1tDQEhdKFtDSDJdW09IXSlbQ0BASF0oW09IXSlbQ0BIXTRbT0hd

> <s_epik_cmdline>
J2VwaWtfcHl0aG9uJywgJy1waCcsICc3LjAnLCAnLXRuJywgJzgnLCAnLW1hJywgJzIwMCcsICctbWV0YWxfYmluZGluZycsICctaW1hZScsICc8aW5maWxlLm1hZT4nLCAnLW9tYWUnLCAnPG91dGZpbGUubWFlPic=

> <r_lp_tautomer_probability>
1

> <r_epik_Ionization_Penalty>
0.000992612

> <r_epik_Ionization_Penalty_Charging>
0

> <r_epik_Ionization_Penalty_Neutral>
0.000992612

> <r_epik_State_Penalty>
-0

> <r_epik_Charging_Adjusted_Penalty>
0

> <i_epik_Tot_Q>
0

> <i_epik_Tot_abs_Q>
0

> <r_epik_Metal_State_Penalty>
-0

> <b_epik_Metal_Only>
0

> <s_epik_Chemistry_Notes>
This compound contains an acetal/aminal-like group ( X-CH(R)-Y where X, Y are N, S, or O) that may be acid/base labile, releasing an aldehyde.

> <s_lp_Force_Field>
OPLS_2005

> <r_lp_Energy>
43.2107

> <b_lp_Chiralities_Consistent>
1

> <s_lp_Variant>
AV-unprocessed.smi:287-18

> <Gold.Version>
5.8.1

> <Gold.Id.Protein>
6NUR|6NUR_protein|mol2

> <Gold.PLP.Fitness>
51.0061

> <Gold.PLP.PLP>
-40.3886

> <Gold.PLP.part.hbond>
-7.3136

> <Gold.PLP.part.metal>
0.0000

> <Gold.PLP.part.buried>
-4.5663

> <Gold.PLP.part.nonpolar>
-29.5013

> <Gold.PLP.part.repulsive>
0.3400

> <Gold.PLP.ligand.clash>
0.0547

> <Gold.PLP.ligand.torsion>
0.9575

> <Gold.PLP.Chemscore.Hbond>
3.1653

> <Gold.PLP.Chemscore.CHOScore>
1.0000

> <Gold.PLP.Chemscore.Metal>
0.0000

> <Gold.Chemscore.Hbonds>
donor molecule, donor type, donor heavy atom, donor atom, acceptor molecule, acceptor atom, score
      L1  H    25    51       P1  7921  0.96
      P1  H  6931  6943       L1    30  1.00
      P1  H  6934  6947       L1    30  0.25
      P1  H 10785 10796       L1    23  0.93
      L1  C    12    46       P1 10747  1.00

> <Gold.PLP.Chemscore.Internal.Correction>
0.0914

> <Gold.Rescore>
     Score         DG    S(hbond)    S(metal)    S(lipo)     H(rot)  DE(clash)    DE(int)     intcor
      4.99     -11.65       3.15        0.00      78.15       5.27       1.39       5.27       ----

> <Gold.Chemscore.Fitness>
4.9868

> <Gold.Chemscore.DG>
-11.6462

> <Gold.Chemscore.ZeroCoef>
-5.4800

> <Gold.Chemscore.Hbond>
3.1456

> <Gold.Chemscore.Metal>
0.0000

> <Gold.Chemscore.Lipo>
78.1509

> <Gold.Chemscore.Internal_Hbond>
0.0000

> <Gold.Chemscore.DEClash>
1.3939

> <Gold.Chemscore.DEInternal>
5.2655

> <Gold.Chemscore.Rot>
5.2672

> <Gold.Chemscore.Internal.Correction>
   9.000000E+99

> <Gold.Chemscore.Hbonds>
donor molecule, donor type, donor heavy atom, donor atom, acceptor molecule, acceptor atom, score
      L1  H    25    51       P1  7921  0.91
      P1  H  6931  6943       L1    30  0.52
      P1  H  6934  6947       L1    30  0.14
      P1  H 10785 10796       L1    23  0.45

> <Gold.Chemscore.Hbond.Weighted>
-10.5065

> <Gold.Chemscore.Metal.Weighted>
-0.0000

> <Gold.Chemscore.Lipo.Weighted>
-9.1437

> <Gold.Chemscore.Internal_Hbond.Weighted>
0.0000

> <Gold.Chemscore.DEClash.Weighted>
1.3939

> <Gold.Chemscore.DEInternal.Weighted>
5.2655

> <Gold.Chemscore.Rot.Weighted>
13.4839

> <Gold.Chemscore.Internal.Correction.Weighted>
   9.000000E+99

> <Gold.Protein.RotatedTorsions>
[ 6907 6896 6895 6894 ] final  163.95 input  -60.11 | X-H torsion
[ 7974 7965 7964 7962 ] final  -10.29 input  175.53 | X-H torsion
[ 8008 7997 7996 7995 ] final -148.14 input   59.86 | X-H torsion
[ 10167 10162 10161 10158 ] final -129.97 input  -65.29 | X-H torsion
[ 10718 10713 10712 10709 ] final -171.67 input   66.30 | X-H torsion
[ 10763 10752 10751 10750 ] final -114.67 input  -60.55 | X-H torsion
[ 11005 11000 10999 10996 ] final -172.83 input  -57.11 | X-H torsion

> <Gold.Protein.ActiveResidues>
 VAL166  LYS551  ARG553  GLY616  TRP617  ASP618  TYR619  PRO620  LYS621  CYS622 
 ASP623  PHE694  ASN695  SER759  ASP760  ASP761  ALA762  ILE779  LEU786  VAL792 
 PHE793  MET794  SER795  GLU796  ALA797  LYS798  CYS799  TRP800  GLU811  SER814 

> <Gold.Protein.RotatedAtoms>
  151.9174  133.3576  159.3884 H   0  0  0  0  0  0  0  0  0  0  0  0  # atno 6907 bound_to 6896
  150.7044  134.4670  159.5416 H   0  0  0  0  0  0  0  0  0  0  0  0  # atno 6908 bound_to 6896
  152.2287  134.8343  160.0527 H   0  0  0  0  0  0  0  0  0  0  0  0  # atno 6909 bound_to 6896
  146.2225  140.2741  142.8358 H   0  0  0  0  0  0  0  0  0  0  0  0  # atno 7974 bound_to 7965
  155.5869  140.0649  157.2769 H   0  0  0  0  0  0  0  0  0  0  0  0  # atno 8008 bound_to 7997
  154.4316  140.1842  156.1081 H   0  0  0  0  0  0  0  0  0  0  0  0  # atno 8009 bound_to 7997
  156.0262  140.3311  155.7095 H   0  0  0  0  0  0  0  0  0  0  0  0  # atno 8010 bound_to 7997
  139.9342  143.6237  152.2521 H   0  0  0  0  0  0  0  0  0  0  0  0  # atno 10167 bound_to 10162
  156.7442  130.9354  151.3111 H   0  0  0  0  0  0  0  0  0  0  0  0  # atno 10718 bound_to 10713
  154.8450  135.4409  154.1542 H   0  0  0  0  0  0  0  0  0  0  0  0  # atno 10763 bound_to 10752
  153.2695  135.6944  153.7501 H   0  0  0  0  0  0  0  0  0  0  0  0  # atno 10764 bound_to 10752
  153.6747  135.3413  155.3138 H   0  0  0  0  0  0  0  0  0  0  0  0  # atno 10765 bound_to 10752
  140.4926  134.5970  157.4960 H   0  0  0  0  0  0  0  0  0  0  0  0  # atno 11005 bound_to 11000
  144.9245  140.7906  143.5727 LP  0  0  0  0  0  0  0  0  0  0  0  0  # atno 17320 bound_to 7965
  145.2680  139.1965  143.4856 LP  0  0  0  0  0  0  0  0  0  0  0  0  # atno 17321 bound_to 7965
  139.6757  144.7658  151.1700 LP  0  0  0  0  0  0  0  0  0  0  0  0  # atno 17342 bound_to 10162
  140.7629  143.5798  150.8907 LP  0  0  0  0  0  0  0  0  0  0  0  0  # atno 17343 bound_to 10162
  157.6805  130.9135  150.0255 LP  0  0  0  0  0  0  0  0  0  0  0  0  # atno 17370 bound_to 10713
  156.1444  130.3642  149.9533 LP  0  0  0  0  0  0  0  0  0  0  0  0  # atno 17371 bound_to 10713
  139.9760  134.7214  155.9949 LP  0  0  0  0  0  0  0  0  0  0  0  0  # atno 17394 bound_to 11000
  141.1476  133.6553  156.3916 LP  0  0  0  0  0  0  0  0  0  0  0  0  # atno 17395 bound_to 11000

$$$$
