#       Name:                AV-unprocessed.smi:1545
#       Creating user name   scv26
#       Creation time:       Fri Mar 27 06:38:38 2020


#       File generated by GOLD software.
#

@<TRIPOS>MOLECULE
AV-unprocessed.smi:1545
    46    48     1
SMALL
NO_CHARGES


@<TRIPOS>ATOM
      1 ****        -3.9047   1.3427  -0.6976 O.3            1 S1                 0.0000
      2 ****        -3.6329   1.6503   0.6524 C.3            1 S1                 0.0000
      3 ****        -2.1317   1.9036   0.8416 C.3            1 S1                 0.0000
      4 ****        -1.4000   0.6654   1.0544 N.pl3          1 S1                 0.0000
      5 ****        -0.0064   0.7103   1.1656 C.cat          1 S1                 0.0000
      6 ****         0.7492   1.8348   1.2822 N.pl3          1 S1                 1.0000
      7 ****         2.0929   1.4563   1.3540 C.ar           1 S1                 0.0000
      8 ****         3.2471   2.2238   1.4748 C.ar           1 S1                 0.0000
      9 ****         4.4714   1.5247   1.5159 C.ar           1 S1                 0.0000
     10 ****         4.5181   0.1174   1.4385 C.ar           1 S1                 0.0000
     11 ****         3.3431  -0.6531   1.3171 C.ar           1 S1                 0.0000
     12 ****         2.1360   0.0433   1.2776 C.ar           1 S1                 0.0000
     13 ****         0.8058  -0.3788   1.1629 N.pl3          1 S1                 0.0000
     14 ****         0.5022  -1.8131   1.0463 C.3            1 S1                 0.0000
     15 ****         0.6713  -2.3349  -0.3943 C.3            1 S1                 0.0000
     16 ****         0.5051  -3.7373  -0.3768 O.3            1 S1                 0.0000
     17 ****        -0.2785  -1.6501  -1.3671 C.ar           1 S1                 0.0000
     18 ****        -1.6392  -2.0239  -1.4314 C.ar           1 S1                 0.0000
     19 ****        -2.5145  -1.3652  -2.3162 C.ar           1 S1                 0.0000
     20 ****        -2.0368  -0.3259  -3.1373 C.ar           1 S1                 0.0000
     21 ****        -0.6829   0.0542  -3.0739 C.ar           1 S1                 0.0000
     22 ****        -0.2239   1.0590  -3.8568 F              1 S1                 0.0000
     23 ****         0.1942  -0.6077  -2.1933 C.ar           1 S1                 0.0000
     24 ****        -4.8364   1.2169  -0.7956 H              1 S1                 0.0000
     25 ****        -4.1900   2.5544   0.8988 H              1 S1                 0.0000
     26 ****        -3.9983   0.8592   1.3086 H              1 S1                 0.0000
     27 ****        -1.7204   2.4546  -0.0055 H              1 S1                 0.0000
     28 ****        -1.9882   2.5254   1.7260 H              1 S1                 0.0000
     29 ****        -1.8675  -0.2165   0.8981 H              1 S1                 0.0000
     30 ****         3.2157   3.3020   1.5335 H              1 S1                 0.0000
     31 ****         5.3938   2.0795   1.6082 H              1 S1                 0.0000
     32 ****         5.4755  -0.3820   1.4730 H              1 S1                 0.0000
     33 ****         3.3900  -1.7305   1.2578 H              1 S1                 0.0000
     34 ****         1.1502  -2.3540   1.7370 H              1 S1                 0.0000
     35 ****        -0.5186  -1.9717   1.3967 H              1 S1                 0.0000
     36 ****         1.6949  -2.1523  -0.7235 H              1 S1                 0.0000
     37 ****         0.6874  -4.0722  -1.2417 H              1 S1                 0.0000
     38 ****        -2.0181  -2.8123  -0.7976 H              1 S1                 0.0000
     39 ****        -3.5548  -1.6520  -2.3603 H              1 S1                 0.0000
     40 ****        -2.7099   0.1828  -3.8114 H              1 S1                 0.0000
     41 ****         1.2299  -0.3042  -2.1456 H              1 S1                 0.0000
     42 ****         0.3783   2.7757   1.3064 H              1 S1                 0.0000
     43 ****        -3.4224   0.5058  -0.9564 LP             1 S1                 0.0000
     44 ****        -3.6028   2.0957  -1.2824 LP             1 S1                 0.0000
     45 ****        -0.4345  -3.9623  -0.1193 LP             1 S1                 0.0000
     46 ****         1.1379  -4.1436   0.2824 LP             1 S1                 0.0000
@<TRIPOS>BOND
    1    1    2 1     
    2    1   24 1     
    3    2    3 1     
    4    2   25 1     
    5    2   26 1     
    6    3    4 1     
    7    3   27 1     
    8    3   28 1     
    9    4    5 ar    
   10    4   29 1     
   11    5   13 ar    
   12    5    6 ar    
   13    6    7 1     
   14    6   42 1     
   15    7   12 ar    
   16    7    8 ar    
   17    8    9 ar    
   18    8   30 1     
   19    9   10 ar    
   20    9   31 1     
   21   10   11 ar    
   22   10   32 1     
   23   11   12 ar    
   24   11   33 1     
   25   12   13 1     
   26   13   14 1     
   27   14   15 1     
   28   14   34 1     
   29   14   35 1     
   30   15   16 1     
   31   15   17 1     
   32   15   36 1     
   33   16   37 1     
   34   17   23 ar    
   35   17   18 ar    
   36   18   19 ar    
   37   18   38 1     
   38   19   20 ar    
   39   19   39 1     
   40   20   21 ar    
   41   20   40 1     
   42   21   22 1     
   43   21   23 ar    
   44   23   41 1     
   45    1   43 1     
   46    1   44 1     
   47   16   45 1     
   48   16   46 1     
@<TRIPOS>SUBSTRUCTURE
      1 S1             1
@<TRIPOS>SET
LONE_PAIRS      STATIC     ATOMS    <user>   **** ""
4 43 44 45 46
DONOR_HYDROGENS      STATIC     ATOMS    <user>   **** ""
4 24 29 42 37
ATOM$BLUE        STATIC     ATOMS    COLORGROUP SYSTEM
4 43 44 45 46
ATOM$RED        STATIC     ATOMS    COLORGROUP SYSTEM
4 24 29 42 37
