AV-unprocessed.smi:2171|AV-procd|sdf|8833|dock2
  -GOLD-   2272012 23D 1   1.00000     0.00000
 Structure written by MMmdl.
 39 41  0  0  0  0  0  0  0  0  2 V2000
  147.4413  131.7949  153.5265 O   0  0  0  0  0  0  0  0  0  0  0  0
  148.0974  132.8294  153.4095 C   0  0  0  0  0  0  0  0  0  0  0  0
  149.5159  132.9048  153.9762 C   0  0  0  0  0  0  0  0  0  0  0  0
  149.6615  134.0329  154.8788 N   0  0  0  0  0  0  0  0  0  0  0  0
  150.4852  135.1318  154.7498 C   0  0  0  0  0  0  0  0  0  0  0  0
  150.2856  135.9199  155.8468 C   0  0  0  0  0  0  0  0  0  0  0  0
  149.3084  135.2109  156.5996 C   0  0  0  0  0  0  0  0  0  0  0  0
  148.9378  134.0810  156.0191 N   0  0  0  0  0  0  0  0  0  0  0  0
  147.6400  133.9310  152.7938 N   0  0  0  0  0  0  0  0  0  0  0  0
  146.3115  134.0844  152.2092 C   0  0  1  0  0  0  0  0  0  0  0  0
  145.8568  135.5494  152.1410 C   0  0  0  0  0  0  0  0  0  0  0  0
  145.1069  135.6839  150.8007 C   0  0  0  0  0  0  0  0  0  0  0  0
  145.0614  134.3307  150.2009 N   0  3  2  0  0  0  0  0  0  0  0  0
  143.7685  133.6431  150.4719 C   0  0  0  0  0  0  0  0  0  0  0  0
  143.8014  132.1641  150.0653 C   0  0  0  0  0  0  0  0  0  0  0  0
  144.9360  131.4397  150.7941 C   0  0  0  0  0  0  0  0  0  0  0  0
  146.2679  132.1198  150.4618 C   0  0  0  0  0  0  0  0  0  0  0  0
  146.2575  133.6399  150.7414 C   0  0  2  0  0  0  0  0  0  0  0  0
  149.7513  131.9890  154.5200 H   0  0  0  0  0  0  0  0  0  0  0  0
  150.2386  132.9904  153.1632 H   0  0  0  0  0  0  0  0  0  0  0  0
  151.1381  135.2580  153.8988 H   0  0  0  0  0  0  0  0  0  0  0  0
  150.7647  136.8600  156.0764 H   0  0  0  0  0  0  0  0  0  0  0  0
  148.8613  135.4812  157.5448 H   0  0  0  0  0  0  0  0  0  0  0  0
  148.2540  134.7321  152.7517 H   0  0  0  0  0  0  0  0  0  0  0  0
  145.5753  133.5281  152.7919 H   0  0  0  0  0  0  0  0  0  0  0  0
  145.2173  135.7986  152.9886 H   0  0  0  0  0  0  0  0  0  0  0  0
  146.7055  136.2350  152.1603 H   0  0  0  0  0  0  0  0  0  0  0  0
  144.1152  136.1229  150.9197 H   0  0  0  0  0  0  0  0  0  0  0  0
  145.6693  136.3359  150.1313 H   0  0  0  0  0  0  0  0  0  0  0  0
  143.5209  133.7196  151.5319 H   0  0  0  0  0  0  0  0  0  0  0  0
  142.9737  134.1571  149.9301 H   0  0  0  0  0  0  0  0  0  0  0  0
  142.8470  131.6923  150.3016 H   0  0  0  0  0  0  0  0  0  0  0  0
  143.9335  132.0762  148.9861 H   0  0  0  0  0  0  0  0  0  0  0  0
  144.7627  131.4531  151.8707 H   0  0  0  0  0  0  0  0  0  0  0  0
  144.9665  130.3911  150.4966 H   0  0  0  0  0  0  0  0  0  0  0  0
  147.0829  131.6362  151.0001 H   0  0  0  0  0  0  0  0  0  0  0  0
  146.4795  131.9627  149.4034 H   0  0  0  0  0  0  0  0  0  0  0  0
  147.1223  134.0706  150.2321 H   0  0  0  0  0  0  0  0  0  0  0  0
  145.1563  134.4051  149.1980 H   0  0  0  0  0  0  0  0  0  0  0  0
  1  2  2  0  0  0  0
  2  3  1  0  0  0  0
  2  9  1  0  0  0  0
  3  4  1  0  0  0  0
  3 19  1  0  0  0  0
  3 20  1  0  0  0  0
  4  8  1  0  0  0  0
  4  5  1  0  0  0  0
  5  6  2  0  0  0  0
  5 21  1  0  0  0  0
  6  7  1  0  0  0  0
  6 22  1  0  0  0  0
  7  8  2  0  0  0  0
  7 23  1  0  0  0  0
  9 10  1  0  0  0  0
  9 24  1  0  0  0  0
 10 18  1  0  0  0  0
 10 11  1  0  0  0  0
 10 25  1  0  0  0  0
 11 12  1  0  0  0  0
 11 26  1  0  0  0  0
 11 27  1  0  0  0  0
 12 13  1  0  0  0  0
 12 28  1  0  0  0  0
 12 29  1  0  0  0  0
 13 18  1  0  0  0  0
 13 14  1  0  0  0  0
 13 39  1  0  0  0  0
 14 15  1  0  0  0  0
 14 30  1  0  0  0  0
 14 31  1  0  0  0  0
 15 16  1  0  0  0  0
 15 32  1  0  0  0  0
 15 33  1  0  0  0  0
 16 17  1  0  0  0  0
 16 34  1  0  0  0  0
 16 35  1  0  0  0  0
 17 18  1  0  0  0  0
 17 36  1  0  0  0  0
 17 37  1  0  0  0  0
 18 38  1  0  0  0  0
M  CHG  1  13   1
M  END
> <s_m_source_file>
AV-unprocessed.smi

> <i_m_source_file_index>
2171

> <i_lp_mmshare_version>
43012

> <i_f3d_flags>
0

> <s_epik_input>
bjFbY0hdW2NIXVtjSF1uMVtDSDJdQyg9TylbTkhdW0NASF0oW0NIMl1bQ0gyXTIpW0NAQEhdKE4yMylbQ0gyXVtDSDJdW0NIMl1bQ0gyXTM=

> <s_epik_cmdline>
J2VwaWtfcHl0aG9uJywgJy1waCcsICc3LjAnLCAnLXRuJywgJzgnLCAnLW1hJywgJzIwMCcsICctbWV0YWxfYmluZGluZycsICctaW1hZScsICc8aW5maWxlLm1hZT4nLCAnLW9tYWUnLCAnPG91dGZpbGUubWFlPic=

> <r_lp_tautomer_probability>
1

> <r_epik_Ionization_Penalty>
0.00204179

> <r_epik_Ionization_Penalty_Charging>
0.00203239

> <r_epik_Ionization_Penalty_Neutral>
9.40205e-06

> <r_epik_State_Penalty>
0.00138983

> <r_epik_Charging_Adjusted_Penalty>
0.00342221

> <i_epik_Tot_Q>
1

> <i_epik_Tot_abs_Q>
1

> <r_epik_Metal_State_Penalty>
-0

> <b_epik_Metal_Only>
0

> <s_lp_Force_Field>
OPLS_2005

> <r_lp_Energy>
36.6444

> <b_lp_Chiralities_Consistent>
1

> <s_lp_Variant>
AV-unprocessed.smi:2171-8

> <Gold.Version>
5.8.1

> <Gold.Id.Protein>
6NUR|6NUR_protein|mol2

> <Gold.PLP.Fitness>
40.4508

> <Gold.PLP.PLP>
-32.4647

> <Gold.PLP.part.hbond>
-2.0000

> <Gold.PLP.part.metal>
0.0000

> <Gold.PLP.part.buried>
-1.5608

> <Gold.PLP.part.nonpolar>
-29.2586

> <Gold.PLP.part.repulsive>
0.1501

> <Gold.PLP.ligand.clash>
0.0000

> <Gold.PLP.ligand.torsion>
0.3993

> <Gold.PLP.Chemscore.Hbond>
2.0000

> <Gold.PLP.Chemscore.CHOScore>
0.9234

> <Gold.PLP.Chemscore.Metal>
0.0000

> <Gold.Chemscore.Hbonds>
donor molecule, donor type, donor heavy atom, donor atom, acceptor molecule, acceptor atom, score
      L1  H     9    24       P1  7948  1.00
      L1  H    13    39       P1  7921  1.00
      L1  C     5    21       P1  7949  0.94

> <Gold.PLP.Chemscore.Internal.Correction>
0.0146

> <Gold.Rescore>
     Score         DG    S(hbond)    S(metal)    S(lipo)     H(rot)  DE(clash)    DE(int)     intcor
     15.84     -16.95       1.75        0.00      79.52       1.44       0.73       0.38       ----

> <Gold.Chemscore.Fitness>
15.8392

> <Gold.Chemscore.DG>
-16.9495

> <Gold.Chemscore.ZeroCoef>
-5.4800

> <Gold.Chemscore.Hbond>
1.7528

> <Gold.Chemscore.Metal>
0.0000

> <Gold.Chemscore.Lipo>
79.5209

> <Gold.Chemscore.Internal_Hbond>
0.0000

> <Gold.Chemscore.DEClash>
0.7346

> <Gold.Chemscore.DEInternal>
0.3757

> <Gold.Chemscore.Rot>
1.4410

> <Gold.Chemscore.Internal.Correction>
   9.000000E+99

> <Gold.Chemscore.Hbonds>
donor molecule, donor type, donor heavy atom, donor atom, acceptor molecule, acceptor atom, score
      L1  H     9    24       P1  7948  0.53
      L1  H    13    39       P1  7921  0.97

> <Gold.Chemscore.Hbond.Weighted>
-5.8545

> <Gold.Chemscore.Metal.Weighted>
-0.0000

> <Gold.Chemscore.Lipo.Weighted>
-9.3039

> <Gold.Chemscore.Internal_Hbond.Weighted>
0.0000

> <Gold.Chemscore.DEClash.Weighted>
0.7346

> <Gold.Chemscore.DEInternal.Weighted>
0.3757

> <Gold.Chemscore.Rot.Weighted>
3.6889

> <Gold.Chemscore.Internal.Correction.Weighted>
   9.000000E+99

> <Gold.Protein.RotatedTorsions>
[ 6907 6896 6895 6894 ] final -163.45 input  -60.11 | X-H torsion
[ 7974 7965 7964 7962 ] final  -20.46 input  175.53 | X-H torsion
[ 8008 7997 7996 7995 ] final  -29.95 input   59.86 | X-H torsion
[ 10167 10162 10161 10158 ] final -141.16 input  -65.29 | X-H torsion
[ 10718 10713 10712 10709 ] final  -59.12 input   66.30 | X-H torsion
[ 10763 10752 10751 10750 ] final    7.11 input  -60.55 | X-H torsion
[ 11005 11000 10999 10996 ] final -162.67 input  -57.11 | X-H torsion

> <Gold.Protein.ActiveResidues>
 VAL166  LYS551  ARG553  GLY616  TRP617  ASP618  TYR619  PRO620  LYS621  CYS622 
 ASP623  PHE694  ASN695  SER759  ASP760  ASP761  ALA762  ILE779  LEU786  VAL792 
 PHE793  MET794  SER795  GLU796  ALA797  LYS798  CYS799  TRP800  GLU811  SER814 

> <Gold.Protein.RotatedAtoms>
  151.3962  133.3772  159.2726 H   0  0  0  0  0  0  0  0  0  0  0  0  # atno 6907 bound_to 6896
  150.9468  134.8873  159.7657 H   0  0  0  0  0  0  0  0  0  0  0  0  # atno 6908 bound_to 6896
  152.5095  134.3915  159.9438 H   0  0  0  0  0  0  0  0  0  0  0  0  # atno 6909 bound_to 6896
  146.1787  140.4205  142.8503 H   0  0  0  0  0  0  0  0  0  0  0  0  # atno 7974 bound_to 7965
  154.4269  140.1804  156.1329 H   0  0  0  0  0  0  0  0  0  0  0  0  # atno 8008 bound_to 7997
  156.0053  140.3356  155.6861 H   0  0  0  0  0  0  0  0  0  0  0  0  # atno 8009 bound_to 7997
  155.6186  140.0657  157.2675 H   0  0  0  0  0  0  0  0  0  0  0  0  # atno 8010 bound_to 7997
  139.8211  143.7572  152.2666 H   0  0  0  0  0  0  0  0  0  0  0  0  # atno 10167 bound_to 10162
  156.1085  130.4177  150.0671 H   0  0  0  0  0  0  0  0  0  0  0  0  # atno 10718 bound_to 10713
  153.2400  135.6902  153.7793 H   0  0  0  0  0  0  0  0  0  0  0  0  # atno 10763 bound_to 10752
  153.6926  135.3310  155.3206 H   0  0  0  0  0  0  0  0  0  0  0  0  # atno 10764 bound_to 10752
  154.8351  135.4549  154.1319 H   0  0  0  0  0  0  0  0  0  0  0  0  # atno 10765 bound_to 10752
  140.6067  134.4892  157.5211 H   0  0  0  0  0  0  0  0  0  0  0  0  # atno 11005 bound_to 11000
  144.8278  140.6657  143.6311 LP  0  0  0  0  0  0  0  0  0  0  0  0  # atno 17320 bound_to 7965
  145.4139  139.1575  143.4111 LP  0  0  0  0  0  0  0  0  0  0  0  0  # atno 17321 bound_to 7965
  139.7751  144.7464  151.0169 LP  0  0  0  0  0  0  0  0  0  0  0  0  # atno 17342 bound_to 10162
  140.7813  143.4603  151.0287 LP  0  0  0  0  0  0  0  0  0  0  0  0  # atno 17343 bound_to 10162
  156.8640  130.9501  151.3615 LP  0  0  0  0  0  0  0  0  0  0  0  0  # atno 17370 bound_to 10713
  157.6264  130.8695  149.9197 LP  0  0  0  0  0  0  0  0  0  0  0  0  # atno 17371 bound_to 10713
  139.9209  134.8150  156.1214 LP  0  0  0  0  0  0  0  0  0  0  0  0  # atno 17394 bound_to 11000
  141.0836  133.6744  156.2388 LP  0  0  0  0  0  0  0  0  0  0  0  0  # atno 17395 bound_to 11000

$$$$
