AV-unprocessed.smi:72|AV-procd|sdf|726|dock1
  -GOLD-   2262017 53D 1   1.00000     0.00000
 Structure written by MMmdl.
 28 29  0  0  0  0  0  0  0  0  2 V2000
  151.2680  134.7429  156.6418 N   0  0  0  0  0  0  0  0  0  0  0  0
  151.2176  135.9895  156.4619 C   0  0  0  0  0  0  0  0  0  0  0  0
  149.9529  136.6863  156.5542 N   0  0  0  0  0  0  0  0  0  0  0  0
  149.9517  137.9666  156.3436 C   0  0  0  0  0  0  0  0  0  0  0  0
  151.1702  138.6917  156.0102 N   0  0  0  0  0  0  0  0  0  0  0  0
  151.1607  140.1888  155.7860 C   0  0  1  0  0  0  0  0  0  0  0  0
  150.4511  140.4791  154.6153 O   0  0  0  0  0  0  0  0  0  0  0  0
  149.5229  141.5329  154.8539 C   0  0  1  0  0  0  0  0  0  0  0  0
  148.3404  141.4157  153.8797 C   0  0  0  0  0  0  0  0  0  0  0  0
  148.3309  140.1404  153.2744 O   0  0  0  0  0  0  0  0  0  0  0  0
  149.1361  141.3069  156.3156 C   0  0  2  0  0  0  0  0  0  0  0  0
  148.5491  142.4427  156.9225 O   0  0  0  0  0  0  0  0  0  0  0  0
  150.4581  140.8978  156.9546 C   0  0  2  0  0  0  0  0  0  0  0  0
  151.2182  142.0048  157.4030 O   0  0  0  0  0  0  0  0  0  0  0  0
  152.4027  137.9884  155.9613 C   0  0  0  0  0  0  0  0  0  0  0  0
  153.4289  138.6285  155.7302 O   0  0  0  0  0  0  0  0  0  0  0  0
  152.3972  136.6439  156.1831 N   0  5  0  0  0  0  0  0  0  0  0  0
  152.2020  140.4839  155.6446 H   0  0  0  0  0  0  0  0  0  0  0  0
  150.0315  142.4939  154.7524 H   0  0  0  0  0  0  0  0  0  0  0  0
  148.4377  140.4710  156.3823 H   0  0  0  0  0  0  0  0  0  0  0  0
  150.3062  140.2210  157.7970 H   0  0  0  0  0  0  0  0  0  0  0  0
  150.3604  134.3474  156.8400 H   0  0  0  0  0  0  0  0  0  0  0  0
  149.0480  138.5737  156.4082 H   0  0  0  0  0  0  0  0  0  0  0  0
  147.3918  141.6050  154.3830 H   0  0  0  0  0  0  0  0  0  0  0  0
  148.4365  142.1535  153.0827 H   0  0  0  0  0  0  0  0  0  0  0  0
  148.9798  140.1290  152.5877 H   0  0  0  0  0  0  0  0  0  0  0  0
  148.7007  143.1901  156.3648 H   0  0  0  0  0  0  0  0  0  0  0  0
  150.6329  142.6154  157.8250 H   0  0  0  0  0  0  0  0  0  0  0  0
  1  2  2  0  0  0  0
  1 22  1  0  0  0  0
  2 17  1  0  0  0  0
  2  3  1  0  0  0  0
  3  4  2  0  0  0  0
  4  5  1  0  0  0  0
  4 23  1  0  0  0  0
  5  6  1  0  0  0  0
  5 15  1  0  0  0  0
  6 18  1  0  0  0  0
  6 13  1  0  0  0  0
  6  7  1  0  0  0  0
  7  8  1  0  0  0  0
  8 19  1  0  0  0  0
  8  9  1  0  0  0  0
  8 11  1  0  0  0  0
  9 10  1  0  0  0  0
  9 24  1  0  0  0  0
  9 25  1  0  0  0  0
 10 26  1  0  0  0  0
 11 20  1  0  0  0  0
 11 12  1  0  0  0  0
 11 13  1  0  0  0  0
 12 27  1  0  0  0  0
 13 21  1  0  0  0  0
 13 14  1  0  0  0  0
 14 28  1  0  0  0  0
 15 16  2  0  0  0  0
 15 17  1  0  0  0  0
M  CHG  1  17  -1
M  END
> <s_m_source_file>
AV-unprocessed.smi

> <i_m_source_file_index>
72

> <i_lp_mmshare_version>
43012

> <i_f3d_flags>
0

> <s_epik_input>
W05IMl1jMW5bY0hdbihjKD1PKW4xKVtDQEBIXTJPW0NASF0oW0NIMl1bT0hdKVtDQEBIXShbT0hdKVtDQEhdMltPSF0=

> <s_epik_cmdline>
J2VwaWtfcHl0aG9uJywgJy1waCcsICc3LjAnLCAnLXRuJywgJzgnLCAnLW1hJywgJzIwMCcsICctbWV0YWxfYmluZGluZycsICctaW1hZScsICc8aW5maWxlLm1hZT4nLCAnLW9tYWUnLCAnPG91dGZpbGUubWFlPic=

> <r_lp_tautomer_probability>
7.17554e-07

> <r_epik_Ionization_Penalty>
12.8705

> <r_epik_Ionization_Penalty_Charging>
5.64144

> <r_epik_Ionization_Penalty_Neutral>
7.22905

> <r_epik_State_Penalty>
3.30104

> <r_epik_Charging_Adjusted_Penalty>
8.94249

> <i_epik_Tot_Q>
-1

> <i_epik_Tot_abs_Q>
1

> <r_epik_Metal_State_Penalty>
0.529074

> <b_epik_Metal_Only>
1

> <s_epik_Chemistry_Notes>
This compound contains an acetal/aminal-like group ( X-CH(R)-Y where X, Y are N, S, or O) that may be acid/base labile, releasing an aldehyde.

> <s_lp_Force_Field>
OPLS_2005

> <r_lp_Energy>
36.315

> <b_lp_Chiralities_Consistent>
1

> <s_lp_Variant>
AV-unprocessed.smi:72-64

> <Gold.Version>
5.8.1

> <Gold.Id.Protein>
6NUR|6NUR_protein|mol2

> <Gold.PLP.Fitness>
40.5221

> <Gold.PLP.PLP>
-24.1994

> <Gold.PLP.part.hbond>
-5.5254

> <Gold.PLP.part.metal>
0.0000

> <Gold.PLP.part.buried>
-4.3524

> <Gold.PLP.part.nonpolar>
-15.0214

> <Gold.PLP.part.repulsive>
0.0991

> <Gold.PLP.ligand.clash>
0.0000

> <Gold.PLP.ligand.torsion>
0.6936

> <Gold.PLP.Chemscore.Hbond>
5.8960

> <Gold.PLP.Chemscore.CHOScore>
0.0000

> <Gold.PLP.Chemscore.Metal>
0.0000

> <Gold.Chemscore.Hbonds>
donor molecule, donor type, donor heavy atom, donor atom, acceptor molecule, acceptor atom, score
      L1  H    10    26       P1  7957  1.00
      L1  H    12    27       P1  8028  1.00
      P1  H  7989  7998       L1     7  1.00
      P1  H  7997  8008       L1    16  0.88
      P1  H 10752 10764       L1    17  2.00

> <Gold.PLP.Chemscore.Internal.Correction>
0.0219

> <Gold.Rescore>
     Score         DG    S(hbond)    S(metal)    S(lipo)     H(rot)  DE(clash)    DE(int)     intcor
     10.98     -11.75       4.06        0.00      26.26       4.04       0.03       0.74       ----

> <Gold.Chemscore.Fitness>
10.9850

> <Gold.Chemscore.DG>
-11.7529

> <Gold.Chemscore.ZeroCoef>
-5.4800

> <Gold.Chemscore.Hbond>
4.0551

> <Gold.Chemscore.Metal>
0.0000

> <Gold.Chemscore.Lipo>
26.2572

> <Gold.Chemscore.Internal_Hbond>
0.0000

> <Gold.Chemscore.DEClash>
0.0255

> <Gold.Chemscore.DEInternal>
0.7425

> <Gold.Chemscore.Rot>
4.0403

> <Gold.Chemscore.Internal.Correction>
   9.000000E+99

> <Gold.Chemscore.Hbonds>
donor molecule, donor type, donor heavy atom, donor atom, acceptor molecule, acceptor atom, score
      L1  H    10    26       P1  7957  0.96
      L1  H    12    27       P1  8028  0.94
      P1  H  7989  7998       L1     7  0.41
      P1  H  7997  8008       L1    16  0.87
      P1  H 10752 10764       L1    17  0.34

> <Gold.Chemscore.Hbond.Weighted>
-13.5439

> <Gold.Chemscore.Metal.Weighted>
-0.0000

> <Gold.Chemscore.Lipo.Weighted>
-3.0721

> <Gold.Chemscore.Internal_Hbond.Weighted>
0.0000

> <Gold.Chemscore.DEClash.Weighted>
0.0255

> <Gold.Chemscore.DEInternal.Weighted>
0.7425

> <Gold.Chemscore.Rot.Weighted>
10.3431

> <Gold.Chemscore.Internal.Correction.Weighted>
   9.000000E+99

> <Gold.Protein.RotatedTorsions>
[ 6907 6896 6895 6894 ] final   86.54 input  -60.11 | X-H torsion
[ 7974 7965 7964 7962 ] final -139.15 input  175.53 | X-H torsion
[ 8008 7997 7996 7995 ] final  -27.84 input   59.86 | X-H torsion
[ 10167 10162 10161 10158 ] final   93.84 input  -65.29 | X-H torsion
[ 10718 10713 10712 10709 ] final   -2.59 input   66.30 | X-H torsion
[ 10763 10752 10751 10750 ] final  -25.24 input  -60.55 | X-H torsion
[ 11005 11000 10999 10996 ] final   43.90 input  -57.11 | X-H torsion

> <Gold.Protein.ActiveResidues>
 VAL166  LYS551  ARG553  GLY616  TRP617  ASP618  TYR619  PRO620  LYS621  CYS622 
 ASP623  PHE694  ASN695  SER759  ASP760  ASP761  ALA762  ILE779  LEU786  VAL792 
 PHE793  MET794  SER795  GLU796  ALA797  LYS798  CYS799  TRP800  GLU811  SER814 

> <Gold.Protein.RotatedAtoms>
  152.5396  134.2415  159.8863 H   0  0  0  0  0  0  0  0  0  0  0  0  # atno 6907 bound_to 6896
  151.2383  133.4407  159.2614 H   0  0  0  0  0  0  0  0  0  0  0  0  # atno 6908 bound_to 6896
  151.0651  134.9776  159.8336 H   0  0  0  0  0  0  0  0  0  0  0  0  # atno 6909 bound_to 6896
  144.8700  140.6352  143.5273 H   0  0  0  0  0  0  0  0  0  0  0  0  # atno 7974 bound_to 7965
  154.4359  140.1861  156.0995 H   0  0  0  0  0  0  0  0  0  0  0  0  # atno 8008 bound_to 7997
  156.0303  140.3331  155.7107 H   0  0  0  0  0  0  0  0  0  0  0  0  # atno 8009 bound_to 7997
  155.5849  140.0625  157.2764 H   0  0  0  0  0  0  0  0  0  0  0  0  # atno 8010 bound_to 7997
  139.8141  144.6760  150.9602 H   0  0  0  0  0  0  0  0  0  0  0  0  # atno 10167 bound_to 10162
  156.7886  130.5354  149.5739 H   0  0  0  0  0  0  0  0  0  0  0  0  # atno 10718 bound_to 10713
  153.6966  135.6958  153.5075 H   0  0  0  0  0  0  0  0  0  0  0  0  # atno 10763 bound_to 10752
  153.2373  135.4317  155.0659 H   0  0  0  0  0  0  0  0  0  0  0  0  # atno 10764 bound_to 10752
  154.8357  135.3499  154.6507 H   0  0  0  0  0  0  0  0  0  0  0  0  # atno 10765 bound_to 10752
  140.1602  134.4351  155.8323 H   0  0  0  0  0  0  0  0  0  0  0  0  # atno 11005 bound_to 11000
  145.4149  139.1574  143.4106 LP  0  0  0  0  0  0  0  0  0  0  0  0  # atno 17320 bound_to 7965
  146.2923  140.4255  142.8735 LP  0  0  0  0  0  0  0  0  0  0  0  0  # atno 17321 bound_to 7965
  140.7816  143.4156  151.0923 LP  0  0  0  0  0  0  0  0  0  0  0  0  # atno 17342 bound_to 10162
  139.7820  143.8341  152.3139 LP  0  0  0  0  0  0  0  0  0  0  0  0  # atno 17343 bound_to 10162
  156.1173  130.6084  151.0140 LP  0  0  0  0  0  0  0  0  0  0  0  0  # atno 17370 bound_to 10713
  157.6611  131.0880  150.7835 LP  0  0  0  0  0  0  0  0  0  0  0  0  # atno 17371 bound_to 10713
  141.2208  133.6910  156.7580 LP  0  0  0  0  0  0  0  0  0  0  0  0  # atno 17394 bound_to 11000
  140.2499  134.8548  157.3657 LP  0  0  0  0  0  0  0  0  0  0  0  0  # atno 17395 bound_to 11000

$$$$
