AV-unprocessed.smi:1644|AV-procd|sdf|6585|dock7
  -GOLD-   22720 7273D 1   1.00000     0.00000
 Structure written by MMmdl.
 49 51  0  0  0  0  0  0  0  0  1 V2000
  149.5823  132.5182  154.0873 C   0  0  0  0  0  0  0  0  0  0  0  0
  149.7758  133.9983  154.4347 C   0  0  0  0  0  0  0  0  0  0  0  0
  149.7401  134.2551  155.9511 C   0  0  0  0  0  0  0  0  0  0  0  0
  150.1493  135.6855  156.3637 C   0  0  1  0  0  0  0  0  0  0  0  0
  151.4449  136.0394  155.8191 N   0  0  0  0  0  0  0  0  0  0  0  0
  151.3951  137.1050  155.0101 C   0  0  0  0  0  0  0  0  0  0  0  0
  152.3558  137.5852  154.4107 O   0  0  0  0  0  0  0  0  0  0  0  0
  150.1252  137.5438  154.9670 N   0  0  0  0  0  0  0  0  0  0  0  0
  149.6681  138.6763  154.1560 C   0  0  0  0  0  0  0  0  0  0  0  0
  149.8973  140.0192  154.8800 C   0  0  2  0  0  0  0  0  0  0  0  0
  149.8392  141.0652  153.9294 O   0  0  0  0  0  0  0  0  0  0  0  0
  151.2716  140.0732  155.5733 C   0  0  0  0  0  0  0  0  0  0  0  0
  151.3268  141.0995  156.5979 N   0  0  0  0  0  0  0  0  0  0  0  0
  150.7625  142.3220  156.5629 C   0  0  0  0  0  0  0  0  0  0  0  0
  150.9414  143.1050  157.6235 N   0  0  0  0  0  0  0  0  0  0  0  0
  151.7106  142.2948  158.4417 C   0  0  0  0  0  0  0  0  0  0  0  0
  152.2434  142.5310  159.7279 C   0  0  0  0  0  0  0  0  0  0  0  0
  153.0116  141.5443  160.3866 C   0  0  0  0  0  0  0  0  0  0  0  0
  153.5651  141.8408  161.7692 C   0  0  0  0  0  0  0  0  0  0  0  0
  153.2576  140.2972  159.7577 C   0  0  0  0  0  0  0  0  0  0  0  0
  154.0795  139.2219  160.4461 C   0  0  0  0  0  0  0  0  0  0  0  0
  152.7331  140.0450  158.4728 C   0  0  0  0  0  0  0  0  0  0  0  0
  151.9703  141.0347  157.8282 C   0  0  0  0  0  0  0  0  0  0  0  0
  149.3179  136.7823  155.7174 C   0  0  0  0  0  0  0  0  0  0  0  0
  148.1048  136.9199  155.8739 O   0  0  0  0  0  0  0  0  0  0  0  0
  149.6042  132.3670  153.0077 H   0  0  0  0  0  0  0  0  0  0  0  0
  148.6253  132.1478  154.4557 H   0  0  0  0  0  0  0  0  0  0  0  0
  150.3711  131.9050  154.5245 H   0  0  0  0  0  0  0  0  0  0  0  0
  150.7240  134.3327  154.0149 H   0  0  0  0  0  0  0  0  0  0  0  0
  148.9977  134.5865  153.9469 H   0  0  0  0  0  0  0  0  0  0  0  0
  148.7294  134.0620  156.3139 H   0  0  0  0  0  0  0  0  0  0  0  0
  150.3808  133.5282  156.4534 H   0  0  0  0  0  0  0  0  0  0  0  0
  150.1613  135.8039  157.4479 H   0  0  0  0  0  0  0  0  0  0  0  0
  152.2856  135.5187  156.0236 H   0  0  0  0  0  0  0  0  0  0  0  0
  150.2293  138.6641  153.2200 H   0  0  0  0  0  0  0  0  0  0  0  0
  148.6233  138.5615  153.8605 H   0  0  0  0  0  0  0  0  0  0  0  0
  149.1201  140.1822  155.6280 H   0  0  0  0  0  0  0  0  0  0  0  0
  149.8534  140.6867  153.0635 H   0  0  0  0  0  0  0  0  0  0  0  0
  151.4912  139.1164  156.0488 H   0  0  0  0  0  0  0  0  0  0  0  0
  152.0659  140.2515  154.8467 H   0  0  0  0  0  0  0  0  0  0  0  0
  150.1853  142.6542  155.7125 H   0  0  0  0  0  0  0  0  0  0  0  0
  152.0560  143.4808  160.2067 H   0  0  0  0  0  0  0  0  0  0  0  0
  154.6549  141.8143  161.7571 H   0  0  0  0  0  0  0  0  0  0  0  0
  153.2085  141.1050  162.4904 H   0  0  0  0  0  0  0  0  0  0  0  0
  153.2580  142.8268  162.1187 H   0  0  0  0  0  0  0  0  0  0  0  0
  154.1836  138.3373  159.8172 H   0  0  0  0  0  0  0  0  0  0  0  0
  153.6039  138.9159  161.3780 H   0  0  0  0  0  0  0  0  0  0  0  0
  155.0797  139.5914  160.6724 H   0  0  0  0  0  0  0  0  0  0  0  0
  152.9107  139.0994  157.9817 H   0  0  0  0  0  0  0  0  0  0  0  0
  1  2  1  0  0  0  0
  1 26  1  0  0  0  0
  1 27  1  0  0  0  0
  1 28  1  0  0  0  0
  2  3  1  0  0  0  0
  2 29  1  0  0  0  0
  2 30  1  0  0  0  0
  3  4  1  0  0  0  0
  3 31  1  0  0  0  0
  3 32  1  0  0  0  0
  4 24  1  0  0  0  0
  4  5  1  0  0  0  0
  4 33  1  0  0  0  0
  5  6  1  0  0  0  0
  5 34  1  0  0  0  0
  6  7  2  0  0  0  0
  6  8  1  0  0  0  0
  8  9  1  0  0  0  0
  8 24  1  0  0  0  0
  9 10  1  0  0  0  0
  9 35  1  0  0  0  0
  9 36  1  0  0  0  0
 10 11  1  0  0  0  0
 10 12  1  0  0  0  0
 10 37  1  0  0  0  0
 11 38  1  0  0  0  0
 12 13  1  0  0  0  0
 12 39  1  0  0  0  0
 12 40  1  0  0  0  0
 13 23  1  0  0  0  0
 13 14  1  0  0  0  0
 14 15  2  0  0  0  0
 14 41  1  0  0  0  0
 15 16  1  0  0  0  0
 16 23  2  0  0  0  0
 16 17  1  0  0  0  0
 17 18  2  0  0  0  0
 17 42  1  0  0  0  0
 18 19  1  0  0  0  0
 18 20  1  0  0  0  0
 19 43  1  0  0  0  0
 19 44  1  0  0  0  0
 19 45  1  0  0  0  0
 20 21  1  0  0  0  0
 20 22  2  0  0  0  0
 21 46  1  0  0  0  0
 21 47  1  0  0  0  0
 21 48  1  0  0  0  0
 22 23  1  0  0  0  0
 22 49  1  0  0  0  0
 24 25  2  0  0  0  0
M  END
> <s_m_source_file>
AV-unprocessed.smi

> <i_m_source_file_index>
1644

> <i_lp_mmshare_version>
43012

> <i_f3d_flags>
0

> <s_epik_input>
W0NIM11bQ0gyXVtDSDJdW0NAQEhdMVtOSF1DKD1PKU4oQzE9TylbQ0gyXVtDQEhdKFtPSF0pW0NIMl1uKFtjSF1uMiljKGMyMylbY0hdYyhbQ0gzXSljKFtjSF0zKVtDSDNd

> <s_epik_cmdline>
J2VwaWtfcHl0aG9uJywgJy1waCcsICc3LjAnLCAnLXRuJywgJzgnLCAnLW1hJywgJzIwMCcsICctbWV0YWxfYmluZGluZycsICctaW1hZScsICc8aW5maWxlLm1hZT4nLCAnLW9tYWUnLCAnPG91dGZpbGUubWFlPic=

> <r_lp_tautomer_probability>
1

> <r_epik_Ionization_Penalty>
0.10693

> <r_epik_Ionization_Penalty_Charging>
0

> <r_epik_Ionization_Penalty_Neutral>
0.10693

> <r_epik_State_Penalty>
0.096713

> <r_epik_Charging_Adjusted_Penalty>
0.096713

> <i_epik_Tot_Q>
0

> <i_epik_Tot_abs_Q>
0

> <r_epik_Metal_State_Penalty>
0.102757

> <b_epik_Metal_Only>
0

> <s_lp_Force_Field>
OPLS_2005

> <r_lp_Energy>
21.5813

> <b_lp_Chiralities_Consistent>
1

> <s_lp_Variant>
AV-unprocessed.smi:1644-2

> <Gold.Version>
5.8.1

> <Gold.Id.Protein>
6NUR|6NUR_protein|mol2

> <Gold.PLP.Fitness>
52.0781

> <Gold.PLP.PLP>
-46.8504

> <Gold.PLP.part.hbond>
-3.9408

> <Gold.PLP.part.metal>
0.0000

> <Gold.PLP.part.buried>
-4.0445

> <Gold.PLP.part.nonpolar>
-40.1776

> <Gold.PLP.part.repulsive>
0.6451

> <Gold.PLP.ligand.clash>
0.0000

> <Gold.PLP.ligand.torsion>
0.9927

> <Gold.PLP.Chemscore.Hbond>
1.4996

> <Gold.PLP.Chemscore.CHOScore>
0.8584

> <Gold.PLP.Chemscore.Metal>
0.0000

> <Gold.Chemscore.Hbonds>
donor molecule, donor type, donor heavy atom, donor atom, acceptor molecule, acceptor atom, score
      L1  H    11    38       P1  7957  1.00
      P1  H 10752 10765       L1     7  0.27
      L1  C    14    41       P1  8028  0.89

> <Gold.PLP.Chemscore.Internal.Correction>
0.1391

> <Gold.Rescore>
     Score         DG    S(hbond)    S(metal)    S(lipo)     H(rot)  DE(clash)    DE(int)     intcor
     15.48     -16.58       1.90        0.00     100.20       2.72       0.03       1.06       ----

> <Gold.Chemscore.Fitness>
15.4828

> <Gold.Chemscore.DG>
-16.5769

> <Gold.Chemscore.ZeroCoef>
-5.4800

> <Gold.Chemscore.Hbond>
1.8983

> <Gold.Chemscore.Metal>
0.0000

> <Gold.Chemscore.Lipo>
100.1953

> <Gold.Chemscore.Internal_Hbond>
0.0000

> <Gold.Chemscore.DEClash>
0.0293

> <Gold.Chemscore.DEInternal>
1.0648

> <Gold.Chemscore.Rot>
2.7212

> <Gold.Chemscore.Internal.Correction>
   9.000000E+99

> <Gold.Chemscore.Hbonds>
donor molecule, donor type, donor heavy atom, donor atom, acceptor molecule, acceptor atom, score
      L1  H    11    38       P1  7957  0.94
      P1  H 10752 10765       L1     7  0.01

> <Gold.Chemscore.Hbond.Weighted>
-6.3403

> <Gold.Chemscore.Metal.Weighted>
-0.0000

> <Gold.Chemscore.Lipo.Weighted>
-11.7229

> <Gold.Chemscore.Internal_Hbond.Weighted>
0.0000

> <Gold.Chemscore.DEClash.Weighted>
0.0293

> <Gold.Chemscore.DEInternal.Weighted>
1.0648

> <Gold.Chemscore.Rot.Weighted>
6.9663

> <Gold.Chemscore.Internal.Correction.Weighted>
   9.000000E+99

> <Gold.Protein.RotatedTorsions>
[ 6907 6896 6895 6894 ] final  152.26 input  -60.11 | X-H torsion
[ 7974 7965 7964 7962 ] final -178.77 input  175.53 | X-H torsion
[ 8008 7997 7996 7995 ] final  100.85 input   59.86 | X-H torsion
[ 10167 10162 10161 10158 ] final  -61.09 input  -65.29 | X-H torsion
[ 10718 10713 10712 10709 ] final   33.72 input   66.30 | X-H torsion
[ 10763 10752 10751 10750 ] final  149.67 input  -60.55 | X-H torsion
[ 11005 11000 10999 10996 ] final -155.54 input  -57.11 | X-H torsion

> <Gold.Protein.ActiveResidues>
 VAL166  LYS551  ARG553  GLY616  TRP617  ASP618  TYR619  PRO620  LYS621  CYS622 
 ASP623  PHE694  ASN695  SER759  ASP760  ASP761  ALA762  ILE779  LEU786  VAL792 
 PHE793  MET794  SER795  GLU796  ALA797  LYS798  CYS799  TRP800  GLU811  SER814 

> <Gold.Protein.RotatedAtoms>
  152.0893  133.4192  159.4536 H   0  0  0  0  0  0  0  0  0  0  0  0  # atno 6907 bound_to 6896
  150.6862  134.2891  159.4668 H   0  0  0  0  0  0  0  0  0  0  0  0  # atno 6908 bound_to 6896
  152.0740  134.9514  160.0625 H   0  0  0  0  0  0  0  0  0  0  0  0  # atno 6909 bound_to 6896
  144.7132  140.0818  143.6425 H   0  0  0  0  0  0  0  0  0  0  0  0  # atno 7974 bound_to 7965
  156.1243  140.3207  155.8255 H   0  0  0  0  0  0  0  0  0  0  0  0  # atno 8008 bound_to 7997
  155.4447  140.0528  157.3024 H   0  0  0  0  0  0  0  0  0  0  0  0  # atno 8009 bound_to 7997
  154.4851  140.2069  155.9688 H   0  0  0  0  0  0  0  0  0  0  0  0  # atno 8010 bound_to 7997
  140.6029  143.2366  151.5888 H   0  0  0  0  0  0  0  0  0  0  0  0  # atno 10167 bound_to 10162
  157.3014  130.7353  149.6669 H   0  0  0  0  0  0  0  0  0  0  0  0  # atno 10718 bound_to 10713
  154.0749  135.2864  155.3301 H   0  0  0  0  0  0  0  0  0  0  0  0  # atno 10763 bound_to 10752
  154.6722  135.5295  153.8156 H   0  0  0  0  0  0  0  0  0  0  0  0  # atno 10764 bound_to 10752
  153.0471  135.6560  154.0928 H   0  0  0  0  0  0  0  0  0  0  0  0  # atno 10765 bound_to 10752
  140.6853  134.4100  157.5223 H   0  0  0  0  0  0  0  0  0  0  0  0  # atno 11005 bound_to 11000
  145.9696  139.2859  143.1107 LP  0  0  0  0  0  0  0  0  0  0  0  0  # atno 17320 bound_to 7965
  145.9131  140.9166  143.0443 LP  0  0  0  0  0  0  0  0  0  0  0  0  # atno 17321 bound_to 7965
  139.5304  144.2934  152.1133 LP  0  0  0  0  0  0  0  0  0  0  0  0  # atno 17342 bound_to 10162
  140.2118  144.4555  150.6382 LP  0  0  0  0  0  0  0  0  0  0  0  0  # atno 17343 bound_to 10162
  155.9672  130.4279  150.4763 LP  0  0  0  0  0  0  0  0  0  0  0  0  # atno 17370 bound_to 10713
  157.2744  131.0594  151.2239 LP  0  0  0  0  0  0  0  0  0  0  0  0  # atno 17371 bound_to 10713
  139.8939  134.8719  156.2200 LP  0  0  0  0  0  0  0  0  0  0  0  0  # atno 17394 bound_to 11000
  141.0285  133.7002  156.1389 LP  0  0  0  0  0  0  0  0  0  0  0  0  # atno 17395 bound_to 11000

$$$$
