#       Name:                AV-unprocessed.smi:3279
#       Creating user name   scv26
#       Creation time:       Fri Mar 27 18:46:25 2020


#       File generated by GOLD software.
#

@<TRIPOS>MOLECULE
AV-unprocessed.smi:3279
    43    43     1
SMALL
NO_CHARGES


@<TRIPOS>ATOM
      1 ****        -4.7190   1.2835  -0.2496 C.3            1 S1                 0.0000
      2 ****        -3.1835   1.2324  -0.2582 C.3            1 S1                 0.0000
      3 ****        -2.6371  -0.2097  -0.3582 C.3            1 S1                 0.0000
      4 ****        -1.1783  -0.2525  -0.3504 N.am           1 S1                 0.0000
      5 ****        -0.3928  -0.0238  -1.4136 C.2            1 S1                 0.0000
      6 ****        -0.8263   0.1929  -2.5451 O.2            1 S1                 0.0000
      7 ****         1.1114  -0.0076  -1.1536 C.3            1 S1                 0.0000
      8 ****         1.4648  -1.1881  -0.4375 O.3            1 S1                 0.0000
      9 ****         2.8116  -1.3160   0.0253 C.3            1 S1                 0.0000
     10 ****         3.8222  -1.2013  -1.1337 C.3            1 S1                 0.0000
     11 ****         2.8783  -2.7294   0.6253 C.3            1 S1                 0.0000
     12 ****         3.1036  -0.2759   1.1249 C.3            1 S1                 0.0000
     13 ****        -2.5960   1.9914   0.8999 C.2            1 S1                 0.0000
     14 ****        -1.8117   3.0690   0.7438 N.2            1 S1                 0.0000
     15 ****        -1.4962   3.4121   1.9999 N.2            1 S1                 0.0000
     16 ****        -2.0760   2.5658   2.8594 N.2            1 S1                 0.0000
     17 ****        -2.7832   1.6496   2.1850 N.pl3          1 S1                -1.0000
     18 ****        -5.0753   2.3139  -0.2690 H              1 S1                 0.0000
     19 ****        -5.1285   0.8050   0.6405 H              1 S1                 0.0000
     20 ****        -5.1329   0.7746  -1.1203 H              1 S1                 0.0000
     21 ****        -2.8901   1.7229  -1.1880 H              1 S1                 0.0000
     22 ****        -2.9848  -0.7945   0.4941 H              1 S1                 0.0000
     23 ****        -3.0252  -0.7073  -1.2484 H              1 S1                 0.0000
     24 ****        -0.7319  -0.4119   0.5416 H              1 S1                 0.0000
     25 ****         1.6371   0.0432  -2.1074 H              1 S1                 0.0000
     26 ****         1.3453   0.8954  -0.5909 H              1 S1                 0.0000
     27 ****         4.8321  -1.4363  -0.7961 H              1 S1                 0.0000
     28 ****         3.8530  -0.1946  -1.5507 H              1 S1                 0.0000
     29 ****         3.5755  -1.8909  -1.9416 H              1 S1                 0.0000
     30 ****         2.6521  -3.4876  -0.1254 H              1 S1                 0.0000
     31 ****         2.1612  -2.8479   1.4384 H              1 S1                 0.0000
     32 ****         3.8697  -2.9459   1.0250 H              1 S1                 0.0000
     33 ****         4.0715  -0.4617   1.5916 H              1 S1                 0.0000
     34 ****         2.3473  -0.3097   1.9100 H              1 S1                 0.0000
     35 ****         3.1313   0.7408   0.7339 H              1 S1                 0.0000
     36 ****        -1.8127   0.2048  -2.7089 LP             1 S1                 0.0000
     37 ****        -0.1920   0.3570  -3.3006 LP             1 S1                 0.0000
     38 ****         1.2820  -1.9661  -1.0385 LP             1 S1                 0.0000
     39 ****         0.8691  -1.2389   0.3641 LP             1 S1                 0.0000
     40 ****        -1.5297   3.5110  -0.1078 LP             1 S1                 0.0000
     41 ****        -0.9150   4.1843   2.2566 LP             1 S1                 0.0000
     42 ****        -1.9937   2.6107   3.8550 LP             1 S1                 0.0000
     43 ****        -3.3224   0.8913   2.5514 LP             1 S1                 0.0000
@<TRIPOS>BOND
    1    1    2 1     
    2    1   18 1     
    3    1   19 1     
    4    1   20 1     
    5    2    3 1     
    6    2   13 1     
    7    2   21 1     
    8    3    4 1     
    9    3   22 1     
   10    3   23 1     
   11    4    5 am    
   12    4   24 1     
   13    5    6 2     
   14    5    7 1     
   15    7    8 1     
   16    7   25 1     
   17    7   26 1     
   18    8    9 1     
   19    9   10 1     
   20    9   11 1     
   21    9   12 1     
   22   10   27 1     
   23   10   28 1     
   24   10   29 1     
   25   11   30 1     
   26   11   31 1     
   27   11   32 1     
   28   12   33 1     
   29   12   34 1     
   30   12   35 1     
   31   13   17 1     
   32   13   14 2     
   33   14   15 1     
   34   15   16 2     
   35   16   17 1     
   36    6   36 1     
   37    6   37 1     
   38    8   38 1     
   39    8   39 1     
   40   14   40 1     
   41   15   41 1     
   42   16   42 1     
   43   17   43 1     
@<TRIPOS>SUBSTRUCTURE
      1 S1             1
@<TRIPOS>SET
LONE_PAIRS      STATIC     ATOMS    <user>   **** ""
8 36 37 38 39 40 41 42 43
DONOR_HYDROGENS      STATIC     ATOMS    <user>   **** ""
1 24
ATOM$BLUE        STATIC     ATOMS    COLORGROUP SYSTEM
8 36 37 38 39 40 41 42 43
ATOM$RED        STATIC     ATOMS    COLORGROUP SYSTEM
1 24
