AV-unprocessed.smi:663|AV-procd|sdf|3248|dock2
  -GOLD-   22720 0193D 1   1.00000     0.00000
 Structure written by MMmdl.
 30 31  0  0  0  0  0  0  0  0  1 V2000
  142.9621  134.4779  155.4893 N   0  0  0  0  0  0  0  0  0  0  0  0
  143.6687  135.5006  155.0020 C   0  0  0  0  0  0  0  0  0  0  0  0
  143.4547  136.6626  155.3424 O   0  0  0  0  0  0  0  0  0  0  0  0
  144.7659  135.1615  153.9831 C   0  0  0  0  0  0  0  0  0  0  0  0
  144.9825  136.2321  152.8877 C   0  0  1  0  0  0  0  0  0  0  0  0
  146.3175  136.8169  153.0150 N   0  0  0  0  0  0  0  0  0  0  0  0
  146.5967  138.0047  153.5708 C   0  0  0  0  0  0  0  0  0  0  0  0
  145.7404  138.7568  154.0354 O   0  0  0  0  0  0  0  0  0  0  0  0
  147.9165  138.2508  153.5483 N   0  0  0  0  0  0  0  0  0  0  0  0
  148.5991  139.3911  154.0407 C   0  0  0  0  0  0  0  0  0  0  0  0
  149.9225  139.3023  154.2195 N   0  0  0  0  0  0  0  0  0  0  0  0
  150.4629  140.4874  154.7043 N   0  0  0  0  0  0  0  0  0  0  0  0
  149.5246  141.4244  154.8722 C   0  0  0  0  0  0  0  0  0  0  0  0
  147.8868  140.9535  154.4540 S   0  0  0  0  0  0  0  0  0  0  0  0
  144.7258  135.6429  151.5106 C   0  0  0  0  0  0  0  0  0  0  0  0
  144.0575  134.2988  151.3407 C   0  0  0  0  0  0  0  0  0  0  0  0
  145.5232  134.4618  151.0100 C   0  0  0  0  0  0  0  0  0  0  0  0
  142.2272  134.6530  156.1593 H   0  0  0  0  0  0  0  0  0  0  0  0
  143.1599  133.5355  155.1857 H   0  0  0  0  0  0  0  0  0  0  0  0
  145.7048  134.9856  154.5107 H   0  0  0  0  0  0  0  0  0  0  0  0
  144.4951  134.2128  153.5183 H   0  0  0  0  0  0  0  0  0  0  0  0
  144.2428  137.0199  153.0464 H   0  0  0  0  0  0  0  0  0  0  0  0
  147.0870  136.2681  152.6602 H   0  0  0  0  0  0  0  0  0  0  0  0
  148.5020  137.5406  153.1340 H   0  0  0  0  0  0  0  0  0  0  0  0
  149.7993  142.4000  155.2449 H   0  0  0  0  0  0  0  0  0  0  0  0
  144.4820  136.3913  150.7586 H   0  0  0  0  0  0  0  0  0  0  0  0
  143.8072  133.7365  152.2381 H   0  0  0  0  0  0  0  0  0  0  0  0
  143.3627  134.1858  150.5109 H   0  0  0  0  0  0  0  0  0  0  0  0
  145.8064  134.4568  149.9595 H   0  0  0  0  0  0  0  0  0  0  0  0
  146.2428  134.0097  151.6896 H   0  0  0  0  0  0  0  0  0  0  0  0
  1  2  1  0  0  0  0
  1 18  1  0  0  0  0
  1 19  1  0  0  0  0
  2  3  2  0  0  0  0
  2  4  1  0  0  0  0
  4  5  1  0  0  0  0
  4 20  1  0  0  0  0
  4 21  1  0  0  0  0
  5  6  1  0  0  0  0
  5 15  1  0  0  0  0
  5 22  1  0  0  0  0
  6  7  1  0  0  0  0
  6 23  1  0  0  0  0
  7  8  2  0  0  0  0
  7  9  1  0  0  0  0
  9 10  1  0  0  0  0
  9 24  1  0  0  0  0
 10 14  1  0  0  0  0
 10 11  2  0  0  0  0
 11 12  1  0  0  0  0
 12 13  2  0  0  0  0
 13 14  1  0  0  0  0
 13 25  1  0  0  0  0
 15 17  1  0  0  0  0
 15 16  1  0  0  0  0
 15 26  1  0  0  0  0
 16 17  1  0  0  0  0
 16 27  1  0  0  0  0
 16 28  1  0  0  0  0
 17 29  1  0  0  0  0
 17 30  1  0  0  0  0
M  END
> <s_m_source_file>
AV-unprocessed.smi

> <i_m_source_file_index>
663

> <i_lp_mmshare_version>
43012

> <i_f3d_flags>
0

> <s_epik_input>
W05IMl1DKD1PKVtDSDJdW0NAQEhdKFtDSF0xW0NIMl1bQ0gyXTEpW05IXUMoPU8pW05IXWMybm5bY0hdczI=

> <s_epik_cmdline>
J2VwaWtfcHl0aG9uJywgJy1waCcsICc3LjAnLCAnLXRuJywgJzgnLCAnLW1hJywgJzIwMCcsICctbWV0YWxfYmluZGluZycsICctaW1hZScsICc8aW5maWxlLm1hZT4nLCAnLW9tYWUnLCAnPG91dGZpbGUubWFlPic=

> <r_lp_tautomer_probability>
1

> <r_epik_Ionization_Penalty>
0.000388224

> <r_epik_Ionization_Penalty_Charging>
0

> <r_epik_Ionization_Penalty_Neutral>
0.000388224

> <r_epik_State_Penalty>
-0

> <r_epik_Charging_Adjusted_Penalty>
0

> <i_epik_Tot_Q>
0

> <i_epik_Tot_abs_Q>
0

> <r_epik_Metal_State_Penalty>
0.191941

> <b_epik_Metal_Only>
0

> <s_lp_Force_Field>
OPLS_2005

> <r_lp_Energy>
6.566

> <b_lp_Chiralities_Consistent>
1

> <s_lp_Variant>
AV-unprocessed.smi:663-2

> <Gold.Version>
5.8.1

> <Gold.Id.Protein>
6NUR|6NUR_protein|mol2

> <Gold.PLP.Fitness>
37.0497

> <Gold.PLP.PLP>
-22.6725

> <Gold.PLP.part.hbond>
-5.0000

> <Gold.PLP.part.metal>
0.0000

> <Gold.PLP.part.buried>
-4.4434

> <Gold.PLP.part.nonpolar>
-14.4172

> <Gold.PLP.part.repulsive>
0.6796

> <Gold.PLP.ligand.clash>
0.0000

> <Gold.PLP.ligand.torsion>
2.0401

> <Gold.PLP.Chemscore.Hbond>
4.7860

> <Gold.PLP.Chemscore.CHOScore>
1.0000

> <Gold.PLP.Chemscore.Metal>
0.0000

> <Gold.Chemscore.Hbonds>
donor molecule, donor type, donor heavy atom, donor atom, acceptor molecule, acceptor atom, score
      L1  H     1    18       P1 11000  0.65
      L1  H     1    19       P1 10957  1.00
      L1  H     6    23       P1  7948  0.98
      L1  H     9    24       P1  7948  1.00
      P1  H  7989  7998       L1    12  1.00
      L1  C    13    25       P1  8028  1.00

> <Gold.PLP.Chemscore.Internal.Correction>
1.0994

> <Gold.Rescore>
     Score         DG    S(hbond)    S(metal)    S(lipo)     H(rot)  DE(clash)    DE(int)     intcor
     12.01     -14.26       3.29        0.00      36.42       2.52       0.28       1.97       ----

> <Gold.Chemscore.Fitness>
12.0099

> <Gold.Chemscore.DG>
-14.2605

> <Gold.Chemscore.ZeroCoef>
-5.4800

> <Gold.Chemscore.Hbond>
3.2862

> <Gold.Chemscore.Metal>
0.0000

> <Gold.Chemscore.Lipo>
36.4155

> <Gold.Chemscore.Internal_Hbond>
0.0000

> <Gold.Chemscore.DEClash>
0.2761

> <Gold.Chemscore.DEInternal>
1.9745

> <Gold.Chemscore.Rot>
2.5218

> <Gold.Chemscore.Internal.Correction>
   9.000000E+99

> <Gold.Chemscore.Hbonds>
donor molecule, donor type, donor heavy atom, donor atom, acceptor molecule, acceptor atom, score
      L1  H     1    18       P1 11000  0.08
      L1  H     1    19       P1 10957  0.96
      L1  H     6    23       P1  7948  0.87
      L1  H     9    24       P1  7948  0.98
      P1  H  7989  7998       L1    12  0.28

> <Gold.Chemscore.Hbond.Weighted>
-10.9758

> <Gold.Chemscore.Metal.Weighted>
-0.0000

> <Gold.Chemscore.Lipo.Weighted>
-4.2606

> <Gold.Chemscore.Internal_Hbond.Weighted>
0.0000

> <Gold.Chemscore.DEClash.Weighted>
0.2761

> <Gold.Chemscore.DEInternal.Weighted>
1.9745

> <Gold.Chemscore.Rot.Weighted>
6.4559

> <Gold.Chemscore.Internal.Correction.Weighted>
   9.000000E+99

> <Gold.Protein.RotatedTorsions>
[ 6907 6896 6895 6894 ] final  176.23 input  -60.11 | X-H torsion
[ 7974 7965 7964 7962 ] final  144.46 input  175.53 | X-H torsion
[ 8008 7997 7996 7995 ] final   87.84 input   59.86 | X-H torsion
[ 10167 10162 10161 10158 ] final   35.57 input  -65.29 | X-H torsion
[ 10718 10713 10712 10709 ] final  108.78 input   66.30 | X-H torsion
[ 10763 10752 10751 10750 ] final  171.54 input  -60.55 | X-H torsion
[ 11005 11000 10999 10996 ] final   86.87 input  -57.11 | X-H torsion

> <Gold.Protein.ActiveResidues>
 VAL166  LYS551  ARG553  GLY616  TRP617  ASP618  TYR619  PRO620  LYS621  CYS622 
 ASP623  PHE694  ASN695  SER759  ASP760  ASP761  ALA762  ILE779  LEU786  VAL792 
 PHE793  MET794  SER795  GLU796  ALA797  LYS798  CYS799  TRP800  GLU811  SER814 

> <Gold.Protein.RotatedAtoms>
  151.7235  133.3315  159.3321 H   0  0  0  0  0  0  0  0  0  0  0  0  # atno 6907 bound_to 6896
  150.7643  134.6427  159.6255 H   0  0  0  0  0  0  0  0  0  0  0  0  # atno 6908 bound_to 6896
  152.3637  134.6837  160.0250 H   0  0  0  0  0  0  0  0  0  0  0  0  # atno 6909 bound_to 6896
  144.8834  139.5665  143.5832 H   0  0  0  0  0  0  0  0  0  0  0  0  # atno 7974 bound_to 7965
  155.9803  140.3378  155.6657 H   0  0  0  0  0  0  0  0  0  0  0  0  # atno 8008 bound_to 7997
  155.6557  140.0710  157.2589 H   0  0  0  0  0  0  0  0  0  0  0  0  # atno 8009 bound_to 7997
  154.4190  140.1717  156.1710 H   0  0  0  0  0  0  0  0  0  0  0  0  # atno 8010 bound_to 7997
  140.4210  144.1460  150.6148 H   0  0  0  0  0  0  0  0  0  0  0  0  # atno 10167 bound_to 10162
  157.6571  131.0900  150.6357 H   0  0  0  0  0  0  0  0  0  0  0  0  # atno 10718 bound_to 10713
  154.4134  135.2756  155.2022 H   0  0  0  0  0  0  0  0  0  0  0  0  # atno 10763 bound_to 10752
  154.3998  135.6047  153.5894 H   0  0  0  0  0  0  0  0  0  0  0  0  # atno 10764 bound_to 10752
  152.9831  135.5923  154.4419 H   0  0  0  0  0  0  0  0  0  0  0  0  # atno 10765 bound_to 10752
  139.8933  134.8384  156.2781 H   0  0  0  0  0  0  0  0  0  0  0  0  # atno 11005 bound_to 11000
  146.3009  139.7423  142.9092 LP  0  0  0  0  0  0  0  0  0  0  0  0  # atno 17320 bound_to 7965
  145.3913  141.0373  143.3122 LP  0  0  0  0  0  0  0  0  0  0  0  0  # atno 17321 bound_to 7965
  140.4534  143.2477  151.9317 LP  0  0  0  0  0  0  0  0  0  0  0  0  # atno 17342 bound_to 10162
  139.4782  144.5539  151.8343 LP  0  0  0  0  0  0  0  0  0  0  0  0  # atno 17343 bound_to 10162
  156.6662  130.4526  149.5671 LP  0  0  0  0  0  0  0  0  0  0  0  0  # atno 17370 bound_to 10713
  156.2031  130.6632  151.1188 LP  0  0  0  0  0  0  0  0  0  0  0  0  # atno 17371 bound_to 10713
  141.0057  133.7125  156.1031 LP  0  0  0  0  0  0  0  0  0  0  0  0  # atno 17394 bound_to 11000
  140.7437  134.4122  157.5551 LP  0  0  0  0  0  0  0  0  0  0  0  0  # atno 17395 bound_to 11000

$$$$
