AV-unprocessed.smi:1107|AV-procd|sdf|4781|dock9
  -GOLD-   22720 3323D 1   1.00000     0.00000
 Structure written by MMmdl.
 49 50  0  0  0  0  0  0  0  0  2 V2000
  151.4757  143.1185  157.4330 C   0  0  0  0  0  0  0  0  0  0  0  0
  151.0066  141.9248  156.6287 C   0  0  0  0  0  0  0  0  0  0  0  0
  151.4493  140.7223  156.7978 N   0  0  0  0  0  0  0  0  0  0  0  0
  150.9356  139.6946  155.9943 C   0  0  0  0  0  0  0  0  0  0  0  0
  151.5031  138.3109  156.2610 C   0  0  0  0  0  0  0  0  0  0  0  0
  149.9834  139.9373  155.0461 C   0  0  0  0  0  0  0  0  0  0  0  0
  149.3945  138.8503  154.1497 C   0  0  0  0  0  0  0  0  0  0  0  0
  148.3663  137.9338  154.8159 C   0  0  0  0  0  0  0  0  0  0  0  0
  147.7077  138.3339  155.7753 O   0  0  0  0  0  0  0  0  0  0  0  0
  148.2359  136.7042  154.2932 N   0  0  0  0  0  0  0  0  0  0  0  0
  147.3455  135.6510  154.7823 C   0  0  2  0  0  0  0  0  0  0  0  0
  147.5896  135.4473  156.2836 C   0  0  0  0  0  0  0  0  0  0  0  0
  147.5468  134.3348  153.9968 C   0  0  0  0  0  0  0  0  0  0  0  0
  146.9100  134.3527  152.6546 N   0  3  0  0  0  0  0  0  0  0  0  0
  146.8986  133.0173  152.0042 C   0  0  0  0  0  0  0  0  0  0  0  0
  146.3840  133.1136  150.5579 C   0  0  0  0  0  0  0  0  0  0  0  0
  144.9931  133.7599  150.5092 C   0  0  0  0  0  0  0  0  0  0  0  0
  145.0201  135.1180  151.2229 C   0  0  0  0  0  0  0  0  0  0  0  0
  145.5590  134.9739  152.6555 C   0  0  0  0  0  0  0  0  0  0  0  0
  149.4920  141.3153  154.8553 C   0  0  0  0  0  0  0  0  0  0  0  0
  148.6509  141.6431  154.0197 O   0  0  0  0  0  0  0  0  0  0  0  0
  150.0400  142.2398  155.6751 N   0  0  0  0  0  0  0  0  0  0  0  0
  149.7354  143.1982  155.5847 H   0  0  0  0  0  0  0  0  0  0  0  0
  151.3008  142.9468  158.4953 H   0  0  0  0  0  0  0  0  0  0  0  0
  150.9512  144.0306  157.1447 H   0  0  0  0  0  0  0  0  0  0  0  0
  152.5438  143.2764  157.2824 H   0  0  0  0  0  0  0  0  0  0  0  0
  151.9048  137.8726  155.3480 H   0  0  0  0  0  0  0  0  0  0  0  0
  150.7288  137.6510  156.6527 H   0  0  0  0  0  0  0  0  0  0  0  0
  152.3104  138.3490  156.9929 H   0  0  0  0  0  0  0  0  0  0  0  0
  148.9110  139.3088  153.2877 H   0  0  0  0  0  0  0  0  0  0  0  0
  150.2032  138.2534  153.7243 H   0  0  0  0  0  0  0  0  0  0  0  0
  148.8274  136.4660  153.5096 H   0  0  0  0  0  0  0  0  0  0  0  0
  146.3104  135.9784  154.6755 H   0  0  0  0  0  0  0  0  0  0  0  0
  146.9155  134.6937  156.6916 H   0  0  0  0  0  0  0  0  0  0  0  0
  147.4221  136.3715  156.8380 H   0  0  0  0  0  0  0  0  0  0  0  0
  148.6114  135.1214  156.4812 H   0  0  0  0  0  0  0  0  0  0  0  0
  148.6201  134.1750  153.8820 H   0  0  0  0  0  0  0  0  0  0  0  0
  147.1750  133.4825  154.5674 H   0  0  0  0  0  0  0  0  0  0  0  0
  147.9071  132.6021  151.9950 H   0  0  0  0  0  0  0  0  0  0  0  0
  146.2770  132.3331  152.5842 H   0  0  0  0  0  0  0  0  0  0  0  0
  147.0816  133.7026  149.9606 H   0  0  0  0  0  0  0  0  0  0  0  0
  146.3506  132.1217  150.1062 H   0  0  0  0  0  0  0  0  0  0  0  0
  144.6694  133.8832  149.4753 H   0  0  0  0  0  0  0  0  0  0  0  0
  144.2649  133.1050  150.9894 H   0  0  0  0  0  0  0  0  0  0  0  0
  145.6471  135.8149  150.6643 H   0  0  0  0  0  0  0  0  0  0  0  0
  144.0189  135.5494  151.2418 H   0  0  0  0  0  0  0  0  0  0  0  0
  144.8775  134.3672  153.2539 H   0  0  0  0  0  0  0  0  0  0  0  0
  145.5952  135.9580  153.1219 H   0  0  0  0  0  0  0  0  0  0  0  0
  147.4973  134.9380  152.0770 H   0  0  0  0  0  0  0  0  0  0  0  0
  1  2  1  0  0  0  0
  1 24  1  0  0  0  0
  1 25  1  0  0  0  0
  1 26  1  0  0  0  0
  2 22  1  0  0  0  0
  2  3  2  0  0  0  0
  3  4  1  0  0  0  0
  4  5  1  0  0  0  0
  4  6  2  0  0  0  0
  5 27  1  0  0  0  0
  5 28  1  0  0  0  0
  5 29  1  0  0  0  0
  6  7  1  0  0  0  0
  6 20  1  0  0  0  0
  7  8  1  0  0  0  0
  7 30  1  0  0  0  0
  7 31  1  0  0  0  0
  8  9  2  0  0  0  0
  8 10  1  0  0  0  0
 10 11  1  0  0  0  0
 10 32  1  0  0  0  0
 11 12  1  0  0  0  0
 11 13  1  0  0  0  0
 11 33  1  0  0  0  0
 12 34  1  0  0  0  0
 12 35  1  0  0  0  0
 12 36  1  0  0  0  0
 13 14  1  0  0  0  0
 13 37  1  0  0  0  0
 13 38  1  0  0  0  0
 14 19  1  0  0  0  0
 14 15  1  0  0  0  0
 14 49  1  0  0  0  0
 15 16  1  0  0  0  0
 15 39  1  0  0  0  0
 15 40  1  0  0  0  0
 16 17  1  0  0  0  0
 16 41  1  0  0  0  0
 16 42  1  0  0  0  0
 17 18  1  0  0  0  0
 17 43  1  0  0  0  0
 17 44  1  0  0  0  0
 18 19  1  0  0  0  0
 18 45  1  0  0  0  0
 18 46  1  0  0  0  0
 19 47  1  0  0  0  0
 19 48  1  0  0  0  0
 20 21  2  0  0  0  0
 20 22  1  0  0  0  0
 22 23  1  0  0  0  0
M  CHG  1  14   1
M  END
> <s_m_source_file>
AV-unprocessed.smi

> <i_m_source_file_index>
1107

> <i_lp_mmshare_version>
43012

> <i_f3d_flags>
0

> <s_epik_input>
W0NIM11jMW5jKFtDSDNdKWMoYyg9TylbbkhdMSlbQ0gyXUMoPU8pW05IXVtDQEhdKFtDSDNdKVtDSDJdTjJbQ0gyXVtDSDJdW0NIMl1bQ0gyXVtDSDJdMg==

> <s_epik_cmdline>
J2VwaWtfcHl0aG9uJywgJy1waCcsICc3LjAnLCAnLXRuJywgJzgnLCAnLW1hJywgJzIwMCcsICctbWV0YWxfYmluZGluZycsICctaW1hZScsICc8aW5maWxlLm1hZT4nLCAnLW9tYWUnLCAnPG91dGZpbGUubWFlPic=

> <r_lp_tautomer_probability>
0.839158

> <r_epik_Ionization_Penalty>
0.00280224

> <r_epik_Ionization_Penalty_Charging>
0.00277925

> <r_epik_Ionization_Penalty_Neutral>
2.29856e-05

> <r_epik_State_Penalty>
0.09125

> <r_epik_Charging_Adjusted_Penalty>
0.0940293

> <i_epik_Tot_Q>
1

> <i_epik_Tot_abs_Q>
1

> <r_epik_Metal_State_Penalty>
0.283823

> <b_epik_Metal_Only>
0

> <s_lp_Force_Field>
OPLS_2005

> <r_lp_Energy>
24.1286

> <b_lp_Chiralities_Consistent>
1

> <s_lp_Variant>
AV-unprocessed.smi:1107-1

> <Gold.Version>
5.8.1

> <Gold.Id.Protein>
6NUR|6NUR_protein|mol2

> <Gold.PLP.Fitness>
45.1772

> <Gold.PLP.PLP>
-33.3010

> <Gold.PLP.part.hbond>
-4.0000

> <Gold.PLP.part.metal>
0.0000

> <Gold.PLP.part.buried>
-1.9663

> <Gold.PLP.part.nonpolar>
-26.9616

> <Gold.PLP.part.repulsive>
0.4022

> <Gold.PLP.ligand.clash>
0.0000

> <Gold.PLP.ligand.torsion>
0.8667

> <Gold.PLP.Chemscore.Hbond>
4.5200

> <Gold.PLP.Chemscore.CHOScore>
0.0000

> <Gold.PLP.Chemscore.Metal>
0.0000

> <Gold.Chemscore.Hbonds>
donor molecule, donor type, donor heavy atom, donor atom, acceptor molecule, acceptor atom, score
      L1  H    10    32       P1  7948  0.98
      L1  H    14    49       P1  7948  2.00
      L1  H    22    23       P1  8028  1.00
      P1  H  8011  8017       L1    21  0.38

> <Gold.PLP.Chemscore.Internal.Correction>
0.0496

> <Gold.Rescore>
     Score         DG    S(hbond)    S(metal)    S(lipo)     H(rot)  DE(clash)    DE(int)     intcor
     17.39     -19.39       3.38        0.00      65.84       1.98       0.03       1.97       ----

> <Gold.Chemscore.Fitness>
17.3886

> <Gold.Chemscore.DG>
-19.3855

> <Gold.Chemscore.ZeroCoef>
-5.4800

> <Gold.Chemscore.Hbond>
3.3773

> <Gold.Chemscore.Metal>
0.0000

> <Gold.Chemscore.Lipo>
65.8441

> <Gold.Chemscore.Internal_Hbond>
0.0000

> <Gold.Chemscore.DEClash>
0.0284

> <Gold.Chemscore.DEInternal>
1.9685

> <Gold.Chemscore.Rot>
1.9837

> <Gold.Chemscore.Internal.Correction>
   9.000000E+99

> <Gold.Chemscore.Hbonds>
donor molecule, donor type, donor heavy atom, donor atom, acceptor molecule, acceptor atom, score
      L1  H    10    32       P1  7948  0.93
      L1  H    14    49       P1  7948  0.88
      L1  H    22    23       P1  8028  1.00
      P1  H  8011  8017       L1    21  0.19

> <Gold.Chemscore.Hbond.Weighted>
-11.2800

> <Gold.Chemscore.Metal.Weighted>
-0.0000

> <Gold.Chemscore.Lipo.Weighted>
-7.7038

> <Gold.Chemscore.Internal_Hbond.Weighted>
0.0000

> <Gold.Chemscore.DEClash.Weighted>
0.0284

> <Gold.Chemscore.DEInternal.Weighted>
1.9685

> <Gold.Chemscore.Rot.Weighted>
5.0783

> <Gold.Chemscore.Internal.Correction.Weighted>
   9.000000E+99

> <Gold.Protein.RotatedTorsions>
[ 6907 6896 6895 6894 ] final  169.86 input  -60.11 | X-H torsion
[ 7974 7965 7964 7962 ] final  -22.28 input  175.53 | X-H torsion
[ 8008 7997 7996 7995 ] final    1.17 input   59.86 | X-H torsion
[ 10167 10162 10161 10158 ] final  106.71 input  -65.29 | X-H torsion
[ 10718 10713 10712 10709 ] final  143.72 input   66.30 | X-H torsion
[ 10763 10752 10751 10750 ] final  -91.63 input  -60.55 | X-H torsion
[ 11005 11000 10999 10996 ] final   39.77 input  -57.11 | X-H torsion

> <Gold.Protein.ActiveResidues>
 VAL166  LYS551  ARG553  GLY616  TRP617  ASP618  TYR619  PRO620  LYS621  CYS622 
 ASP623  PHE694  ASN695  SER759  ASP760  ASP761  ALA762  ILE779  LEU786  VAL792 
 PHE793  MET794  SER795  GLU796  ALA797  LYS798  CYS799  TRP800  GLU811  SER814 

> <Gold.Protein.RotatedAtoms>
  151.8252  133.3400  159.3596 H   0  0  0  0  0  0  0  0  0  0  0  0  # atno 6907 bound_to 6896
  150.7282  134.5536  159.5816 H   0  0  0  0  0  0  0  0  0  0  0  0  # atno 6908 bound_to 6896
  152.2977  134.7649  160.0416 H   0  0  0  0  0  0  0  0  0  0  0  0  # atno 6909 bound_to 6896
  146.1685  140.4457  142.8542 H   0  0  0  0  0  0  0  0  0  0  0  0  # atno 7974 bound_to 7965
  154.6767  140.2623  155.6951 H   0  0  0  0  0  0  0  0  0  0  0  0  # atno 8008 bound_to 7997
  156.2680  140.2818  156.1218 H   0  0  0  0  0  0  0  0  0  0  0  0  # atno 8009 bound_to 7997
  155.1091  140.0375  157.2709 H   0  0  0  0  0  0  0  0  0  0  0  0  # atno 8010 bound_to 7997
  139.6987  144.7097  151.1223 H   0  0  0  0  0  0  0  0  0  0  0  0  # atno 10167 bound_to 10162
  157.3657  131.0971  151.0875 H   0  0  0  0  0  0  0  0  0  0  0  0  # atno 10718 bound_to 10713
  154.6779  135.5261  153.8224 H   0  0  0  0  0  0  0  0  0  0  0  0  # atno 10763 bound_to 10752
  153.0545  135.6545  154.0621 H   0  0  0  0  0  0  0  0  0  0  0  0  # atno 10764 bound_to 10752
  154.0512  135.2969  155.3320 H   0  0  0  0  0  0  0  0  0  0  0  0  # atno 10765 bound_to 10752
  140.1995  134.3888  155.8103 H   0  0  0  0  0  0  0  0  0  0  0  0  # atno 11005 bound_to 11000
  144.8127  140.6415  143.6404 LP  0  0  0  0  0  0  0  0  0  0  0  0  # atno 17320 bound_to 7965
  145.4404  139.1536  143.3973 LP  0  0  0  0  0  0  0  0  0  0  0  0  # atno 17321 bound_to 7965
  140.7703  143.5455  150.9264 LP  0  0  0  0  0  0  0  0  0  0  0  0  # atno 17342 bound_to 10162
  139.9136  143.6691  152.3110 LP  0  0  0  0  0  0  0  0  0  0  0  0  # atno 17343 bound_to 10162
  157.1998  130.6389  149.5734 LP  0  0  0  0  0  0  0  0  0  0  0  0  # atno 17370 bound_to 10713
  155.9745  130.4695  150.6396 LP  0  0  0  0  0  0  0  0  0  0  0  0  # atno 17371 bound_to 10713
  141.2227  133.7087  156.8233 LP  0  0  0  0  0  0  0  0  0  0  0  0  # atno 17394 bound_to 11000
  140.2070  134.8855  157.3232 LP  0  0  0  0  0  0  0  0  0  0  0  0  # atno 17395 bound_to 11000

$$$$
