AV-unprocessed.smi:149|AV-procd|sdf|1240|dock10
  -GOLD-   2262018453D 1   1.00000     0.00000
 Structure written by MMmdl.
 59 63  0  0  0  0  0  0  0  0  1 V2000
  143.0829  135.1641  160.6727 C   0  0  0  0  0  0  0  0  0  0  0  0
  143.4559  135.8319  159.3377 C   0  0  2  0  0  0  0  0  0  0  0  0
  143.5705  134.8973  158.1376 C   0  0  0  0  0  0  0  0  0  0  0  0
  144.2785  135.6824  157.1367 N   0  0  0  0  0  0  0  0  0  0  0  0
  144.6487  135.1192  155.9560 C   0  0  0  0  0  0  0  0  0  0  0  0
  145.9057  134.6137  155.8380 N   0  0  0  0  0  0  0  0  0  0  0  0
  146.3086  134.0491  154.6968 C   0  0  0  0  0  0  0  0  0  0  0  0
  145.6270  133.8840  153.5630 N   0  0  0  0  0  0  0  0  0  0  0  0
  144.3620  134.3804  153.6707 C   0  0  0  0  0  0  0  0  0  0  0  0
  143.7925  135.0012  154.8202 C   0  0  0  0  0  0  0  0  0  0  0  0
  142.4716  135.3475  154.5540 N   0  0  0  0  0  0  0  0  0  0  0  0
  142.2757  134.9595  153.3241 C   0  0  0  0  0  0  0  0  0  0  0  0
  143.3685  134.3955  152.7075 N   0  0  0  0  0  0  0  0  0  0  0  0
  143.4211  133.8502  151.3830 C   0  0  0  0  0  0  0  0  0  0  0  0
  143.8874  132.4134  151.1380 C   0  0  0  0  0  0  0  0  0  0  0  0
  144.4801  132.8448  149.7788 C   0  0  0  0  0  0  0  0  0  0  0  0
  145.8489  132.2324  149.4378 C   0  0  0  0  0  0  0  0  0  0  0  0
  146.7486  132.3517  150.5210 O   0  0  0  0  0  0  0  0  0  0  0  0
  143.5355  132.6803  148.5710 C   0  0  0  0  0  0  0  0  0  0  0  0
  143.9317  133.5000  147.4901 O   0  0  0  0  0  0  0  0  0  0  0  0
  144.5180  134.2606  150.3977 C   0  0  0  0  0  0  0  0  0  0  0  0
  145.1652  136.6326  157.7977 C   0  0  0  0  0  0  0  0  0  0  0  0
  144.7527  136.6672  159.2868 C   0  0  2  0  0  0  0  0  0  0  0  0
  145.8129  136.3272  160.2508 N   0  0  0  0  0  0  0  0  0  0  0  0
  147.1731  136.6656  159.8245 C   0  0  0  0  0  0  0  0  0  0  0  0
  148.2166  136.1946  160.8507 C   0  0  0  0  0  0  0  0  0  0  0  0
  147.9259  136.7691  162.1212 O   0  0  0  0  0  0  0  0  0  0  0  0
  146.6246  136.4338  162.5933 C   0  0  0  0  0  0  0  0  0  0  0  0
  145.5672  136.8926  161.5738 C   0  0  0  0  0  0  0  0  0  0  0  0
  143.7829  134.3828  160.9630 H   0  0  0  0  0  0  0  0  0  0  0  0
  142.0965  134.7045  160.6091 H   0  0  0  0  0  0  0  0  0  0  0  0
  143.0509  135.8987  161.4776 H   0  0  0  0  0  0  0  0  0  0  0  0
  142.6440  136.5232  159.1049 H   0  0  0  0  0  0  0  0  0  0  0  0
  144.1458  134.0048  158.3857 H   0  0  0  0  0  0  0  0  0  0  0  0
  142.5879  134.5858  157.7810 H   0  0  0  0  0  0  0  0  0  0  0  0
  147.3225  133.6775  154.6912 H   0  0  0  0  0  0  0  0  0  0  0  0
  141.3228  135.0803  152.8297 H   0  0  0  0  0  0  0  0  0  0  0  0
  142.4327  134.0150  150.9511 H   0  0  0  0  0  0  0  0  0  0  0  0
  144.6484  132.0951  151.8534 H   0  0  0  0  0  0  0  0  0  0  0  0
  143.0819  131.6810  151.0753 H   0  0  0  0  0  0  0  0  0  0  0  0
  145.7623  131.1812  149.1622 H   0  0  0  0  0  0  0  0  0  0  0  0
  146.2950  132.7366  148.5798 H   0  0  0  0  0  0  0  0  0  0  0  0
  147.4817  131.7757  150.3670 H   0  0  0  0  0  0  0  0  0  0  0  0
  143.4972  131.6451  148.2314 H   0  0  0  0  0  0  0  0  0  0  0  0
  142.5118  132.9488  148.8322 H   0  0  0  0  0  0  0  0  0  0  0  0
  144.6765  134.0145  147.7615 H   0  0  0  0  0  0  0  0  0  0  0  0
  144.2352  135.0697  149.7235 H   0  0  0  0  0  0  0  0  0  0  0  0
  145.4643  134.4820  150.8950 H   0  0  0  0  0  0  0  0  0  0  0  0
  146.2105  136.3630  157.6510 H   0  0  0  0  0  0  0  0  0  0  0  0
  145.0197  137.6175  157.3531 H   0  0  0  0  0  0  0  0  0  0  0  0
  144.4475  137.6898  159.5146 H   0  0  0  0  0  0  0  0  0  0  0  0
  147.4009  136.2227  158.8576 H   0  0  0  0  0  0  0  0  0  0  0  0
  147.2773  137.7428  159.6985 H   0  0  0  0  0  0  0  0  0  0  0  0
  148.2201  135.1061  160.9263 H   0  0  0  0  0  0  0  0  0  0  0  0
  149.2165  136.4991  160.5417 H   0  0  0  0  0  0  0  0  0  0  0  0
  146.5586  135.3575  162.7593 H   0  0  0  0  0  0  0  0  0  0  0  0
  146.4585  136.9168  163.5562 H   0  0  0  0  0  0  0  0  0  0  0  0
  145.5682  137.9820  161.5211 H   0  0  0  0  0  0  0  0  0  0  0  0
  144.5786  136.5976  161.9269 H   0  0  0  0  0  0  0  0  0  0  0  0
  1  2  1  0  0  0  0
  1 30  1  0  0  0  0
  1 31  1  0  0  0  0
  1 32  1  0  0  0  0
  2 23  1  0  0  0  0
  2  3  1  0  0  0  0
  2 33  1  0  0  0  0
  3  4  1  0  0  0  0
  3 34  1  0  0  0  0
  3 35  1  0  0  0  0
  4  5  1  0  0  0  0
  4 22  1  0  0  0  0
  5 10  1  0  0  0  0
  5  6  2  0  0  0  0
  6  7  1  0  0  0  0
  7  8  2  0  0  0  0
  7 36  1  0  0  0  0
  8  9  1  0  0  0  0
  9 13  1  0  0  0  0
  9 10  2  0  0  0  0
 10 11  1  0  0  0  0
 11 12  2  0  0  0  0
 12 13  1  0  0  0  0
 12 37  1  0  0  0  0
 13 14  1  0  0  0  0
 14 21  1  0  0  0  0
 14 15  1  0  0  0  0
 14 38  1  0  0  0  0
 15 16  1  0  0  0  0
 15 39  1  0  0  0  0
 15 40  1  0  0  0  0
 16 17  1  0  0  0  0
 16 19  1  0  0  0  0
 16 21  1  0  0  0  0
 17 18  1  0  0  0  0
 17 41  1  0  0  0  0
 17 42  1  0  0  0  0
 18 43  1  0  0  0  0
 19 20  1  0  0  0  0
 19 44  1  0  0  0  0
 19 45  1  0  0  0  0
 20 46  1  0  0  0  0
 21 47  1  0  0  0  0
 21 48  1  0  0  0  0
 22 23  1  0  0  0  0
 22 49  1  0  0  0  0
 22 50  1  0  0  0  0
 23 24  1  0  0  0  0
 23 51  1  0  0  0  0
 24 29  1  0  0  0  0
 24 25  1  0  0  0  0
 25 26  1  0  0  0  0
 25 52  1  0  0  0  0
 25 53  1  0  0  0  0
 26 27  1  0  0  0  0
 26 54  1  0  0  0  0
 26 55  1  0  0  0  0
 27 28  1  0  0  0  0
 28 29  1  0  0  0  0
 28 56  1  0  0  0  0
 28 57  1  0  0  0  0
 29 58  1  0  0  0  0
 29 59  1  0  0  0  0
M  END
> <s_m_source_file>
AV-unprocessed.smi

> <i_m_source_file_index>
149

> <i_lp_mmshare_version>
43012

> <i_f3d_flags>
0

> <s_epik_input>
W0NIMl0xW0NIMl1PW0NIMl1bQ0gyXU4xW0NAQEhdMltDSDJdTihbQ0gyXVtDQEhdMltDSDNdKWMobltjSF1uMyljKGMzNCluW2NIXW40W0NIXShbQ0gyXTUpW0NIMl1DNShbQ0gyXVtPSF0pW0NIMl1bT0hd

> <s_epik_cmdline>
J2VwaWtfcHl0aG9uJywgJy1waCcsICc3LjAnLCAnLXRuJywgJzgnLCAnLW1hJywgJzIwMCcsICctbWV0YWxfYmluZGluZycsICctaW1hZScsICc8aW5maWxlLm1hZT4nLCAnLW9tYWUnLCAnPG91dGZpbGUubWFlPic=

> <r_lp_tautomer_probability>
1

> <r_epik_Ionization_Penalty>
0.41918

> <r_epik_Ionization_Penalty_Charging>
0

> <r_epik_Ionization_Penalty_Neutral>
0.41918

> <r_epik_State_Penalty>
0.654916

> <r_epik_Charging_Adjusted_Penalty>
0.654916

> <i_epik_Tot_Q>
0

> <i_epik_Tot_abs_Q>
0

> <r_epik_Metal_State_Penalty>
0.653217

> <b_epik_Metal_Only>
0

> <s_lp_Force_Field>
OPLS_2005

> <r_lp_Energy>
80.6686

> <b_lp_Chiralities_Consistent>
1

> <s_lp_Variant>
AV-unprocessed.smi:149-7

> <Gold.Version>
5.8.1

> <Gold.Id.Protein>
6NUR|6NUR_protein|mol2

> <Gold.PLP.Fitness>
47.9071

> <Gold.PLP.PLP>
-40.6961

> <Gold.PLP.part.hbond>
-5.2654

> <Gold.PLP.part.metal>
0.0000

> <Gold.PLP.part.buried>
-5.9184

> <Gold.PLP.part.nonpolar>
-29.4405

> <Gold.PLP.part.repulsive>
0.1738

> <Gold.PLP.ligand.clash>
0.0000

> <Gold.PLP.ligand.torsion>
1.3760

> <Gold.PLP.Chemscore.Hbond>
3.0000

> <Gold.PLP.Chemscore.CHOScore>
0.0000

> <Gold.PLP.Chemscore.Metal>
0.0000

> <Gold.Chemscore.Hbonds>
donor molecule, donor type, donor heavy atom, donor atom, acceptor molecule, acceptor atom, score
      L1  H    18    43       P1 10747  1.00
      L1  H    20    46       P1  7921  1.00
      P1  H  6931  6943       L1    27  0.80

> <Gold.PLP.Chemscore.Internal.Correction>
0.9629

> <Gold.Rescore>
     Score         DG    S(hbond)    S(metal)    S(lipo)     H(rot)  DE(clash)    DE(int)     intcor
     14.68     -16.55       2.81        0.00      87.52       3.34       0.07       1.79       ----

> <Gold.Chemscore.Fitness>
14.6824

> <Gold.Chemscore.DG>
-16.5487

> <Gold.Chemscore.ZeroCoef>
-5.4800

> <Gold.Chemscore.Hbond>
2.8095

> <Gold.Chemscore.Metal>
0.0000

> <Gold.Chemscore.Lipo>
87.5174

> <Gold.Chemscore.Internal_Hbond>
0.0000

> <Gold.Chemscore.DEClash>
0.0727

> <Gold.Chemscore.DEInternal>
1.7936

> <Gold.Chemscore.Rot>
3.3416

> <Gold.Chemscore.Internal.Correction>
   9.000000E+99

> <Gold.Chemscore.Hbonds>
donor molecule, donor type, donor heavy atom, donor atom, acceptor molecule, acceptor atom, score
      L1  H    18    43       P1 10747  1.00
      L1  H    20    46       P1  7921  0.98
      P1  H  6931  6943       L1    27  0.12

> <Gold.Chemscore.Hbond.Weighted>
-9.3836

> <Gold.Chemscore.Metal.Weighted>
-0.0000

> <Gold.Chemscore.Lipo.Weighted>
-10.2395

> <Gold.Chemscore.Internal_Hbond.Weighted>
0.0000

> <Gold.Chemscore.DEClash.Weighted>
0.0727

> <Gold.Chemscore.DEInternal.Weighted>
1.7936

> <Gold.Chemscore.Rot.Weighted>
8.5545

> <Gold.Chemscore.Internal.Correction.Weighted>
   9.000000E+99

> <Gold.Protein.RotatedTorsions>
[ 6907 6896 6895 6894 ] final  -30.80 input  -60.11 | X-H torsion
[ 7974 7965 7964 7962 ] final -150.58 input  175.53 | X-H torsion
[ 8008 7997 7996 7995 ] final -149.57 input   59.86 | X-H torsion
[ 10167 10162 10161 10158 ] final -177.66 input  -65.29 | X-H torsion
[ 10718 10713 10712 10709 ] final  -77.81 input   66.30 | X-H torsion
[ 10763 10752 10751 10750 ] final   83.82 input  -60.55 | X-H torsion
[ 11005 11000 10999 10996 ] final   45.32 input  -57.11 | X-H torsion

> <Gold.Protein.ActiveResidues>
 VAL166  LYS551  ARG553  GLY616  TRP617  ASP618  TYR619  PRO620  LYS621  CYS622 
 ASP623  PHE694  ASN695  SER759  ASP760  ASP761  ALA762  ILE779  LEU786  VAL792 
 PHE793  MET794  SER795  GLU796  ALA797  LYS798  CYS799  TRP800  GLU811  SER814 

> <Gold.Protein.RotatedAtoms>
  151.1006  134.9970  159.8446 H   0  0  0  0  0  0  0  0  0  0  0  0  # atno 6907 bound_to 6896
  152.5436  134.1954  159.8701 H   0  0  0  0  0  0  0  0  0  0  0  0  # atno 6908 bound_to 6896
  151.1997  133.4574  159.2629 H   0  0  0  0  0  0  0  0  0  0  0  0  # atno 6909 bound_to 6896
  144.7899  140.4913  143.5780 H   0  0  0  0  0  0  0  0  0  0  0  0  # atno 7974 bound_to 7965
  155.6097  140.0670  157.2709 H   0  0  0  0  0  0  0  0  0  0  0  0  # atno 8008 bound_to 7997
  154.4257  140.1803  156.1307 H   0  0  0  0  0  0  0  0  0  0  0  0  # atno 8009 bound_to 7997
  156.0095  140.3328  155.6929 H   0  0  0  0  0  0  0  0  0  0  0  0  # atno 8010 bound_to 7997
  139.5469  144.2210  152.1006 H   0  0  0  0  0  0  0  0  0  0  0  0  # atno 10167 bound_to 10162
  156.0134  130.4501  150.3402 H   0  0  0  0  0  0  0  0  0  0  0  0  # atno 10718 bound_to 10713
  153.1326  135.4677  154.9372 H   0  0  0  0  0  0  0  0  0  0  0  0  # atno 10763 bound_to 10752
  154.7677  135.3149  154.8255 H   0  0  0  0  0  0  0  0  0  0  0  0  # atno 10764 bound_to 10752
  153.8794  135.6896  153.4822 H   0  0  0  0  0  0  0  0  0  0  0  0  # atno 10765 bound_to 10752
  140.1470  134.4510  155.8408 H   0  0  0  0  0  0  0  0  0  0  0  0  # atno 11005 bound_to 11000
  145.5821  139.1489  143.3229 LP  0  0  0  0  0  0  0  0  0  0  0  0  # atno 17320 bound_to 7965
  146.2147  140.5951  142.9044 LP  0  0  0  0  0  0  0  0  0  0  0  0  # atno 17321 bound_to 7965
  140.1699  144.4946  150.6585 LP  0  0  0  0  0  0  0  0  0  0  0  0  # atno 17342 bound_to 10162
  140.6721  143.2290  151.5600 LP  0  0  0  0  0  0  0  0  0  0  0  0  # atno 17343 bound_to 10162
  157.1497  131.0318  151.2890 LP  0  0  0  0  0  0  0  0  0  0  0  0  # atno 17370 bound_to 10713
  157.4402  130.7540  149.7063 LP  0  0  0  0  0  0  0  0  0  0  0  0  # atno 17371 bound_to 10713
  141.2194  133.6856  156.7352 LP  0  0  0  0  0  0  0  0  0  0  0  0  # atno 17394 bound_to 11000
  140.2651  134.8436  157.3795 LP  0  0  0  0  0  0  0  0  0  0  0  0  # atno 17395 bound_to 11000

$$$$
