#       Name:                AV-unprocessed.smi:745
#       Creating user name   scv26
#       Creation time:       Fri Mar 27 00:56:51 2020


#       File generated by GOLD software.
#

@<TRIPOS>MOLECULE
AV-unprocessed.smi:745
    45    46     1
SMALL
NO_CHARGES


@<TRIPOS>ATOM
      1 ****        -1.2623  -1.9968  -2.1835 C.3            1 S1                 0.0000
      2 ****        -0.9032  -1.1311  -0.9635 C.3            1 S1                 0.0000
      3 ****         0.5549  -1.0139  -0.9156 N.am           1 S1                 0.0000
      4 ****         1.2531   0.1324  -0.8953 C.2            1 S1                 0.0000
      5 ****         0.7305   1.2474  -0.8765 O.2            1 S1                 0.0000
      6 ****         2.5766  -0.1047  -0.8943 N.am           1 S1                 0.0000
      7 ****         3.6373   0.8403  -0.8823 C.ar           1 S1                 0.0000
      8 ****         4.9356   0.2841  -0.9302 C.ar           1 S1                 0.0000
      9 ****         6.0558   1.1379  -0.9242 C.ar           1 S1                 0.0000
     10 ****         5.8485   2.5278  -0.8696 C.ar           1 S1                 0.0000
     11 ****         4.5235   2.9991  -0.8223 C.ar           1 S1                 0.0000
     12 ****         3.4486   2.1827  -0.8276 N.ar           1 S1                 0.0000
     13 ****        -1.4596  -1.6974   0.3765 C.3            1 S1                 0.0000
     14 ****        -3.0018  -1.7832   0.4240 C.3            1 S1                 0.0000
     15 ****        -3.6594  -0.3949   0.5388 C.3            1 S1                 0.0000
     16 ****        -3.1540   0.3404   1.7250 N.4            1 S1                 1.0000
     17 ****        -3.8274   1.6440   1.9093 C.3            1 S1                 0.0000
     18 ****        -1.6757   0.4657   1.7241 C.3            1 S1                 0.0000
     19 ****        -1.0047  -0.9162   1.6310 C.3            1 S1                 0.0000
     20 ****        -2.3350  -2.0104  -2.3723 H              1 S1                 0.0000
     21 ****        -0.9300  -3.0274  -2.0535 H              1 S1                 0.0000
     22 ****        -0.7906  -1.6096  -3.0876 H              1 S1                 0.0000
     23 ****        -1.3360  -0.1462  -1.1391 H              1 S1                 0.0000
     24 ****         1.0745  -1.8796  -0.9229 H              1 S1                 0.0000
     25 ****         2.8599  -1.0732  -0.9155 H              1 S1                 0.0000
     26 ****         5.0771  -0.7861  -0.9730 H              1 S1                 0.0000
     27 ****         7.0562   0.7325  -0.9616 H              1 S1                 0.0000
     28 ****         6.6821   3.2144  -0.8637 H              1 S1                 0.0000
     29 ****         4.3209   4.0590  -0.7786 H              1 S1                 0.0000
     30 ****        -1.0731  -2.7132   0.4735 H              1 S1                 0.0000
     31 ****        -3.3982  -2.3174  -0.4383 H              1 S1                 0.0000
     32 ****        -3.2951  -2.3793   1.2893 H              1 S1                 0.0000
     33 ****        -3.4818   0.1914  -0.3635 H              1 S1                 0.0000
     34 ****        -4.7403  -0.5142   0.6239 H              1 S1                 0.0000
     35 ****        -3.6119   2.3167   1.0780 H              1 S1                 0.0000
     36 ****        -3.4942   2.1216   2.8312 H              1 S1                 0.0000
     37 ****        -4.9081   1.5143   1.9743 H              1 S1                 0.0000
     38 ****        -1.3615   1.1028   0.8968 H              1 S1                 0.0000
     39 ****        -1.3542   0.9624   2.6403 H              1 S1                 0.0000
     40 ****        -1.2646  -1.4918   2.5205 H              1 S1                 0.0000
     41 ****         0.0793  -0.8107   1.6654 H              1 S1                 0.0000
     42 ****        -3.3920  -0.2205   2.5306 H              1 S1                 0.0000
     43 ****        -0.2659   1.3327  -0.8758 LP             1 S1                 0.0000
     44 ****         1.3025   2.0675  -0.8619 LP             1 S1                 0.0000
     45 ****         2.5243   2.5628  -0.7916 LP             1 S1                 0.0000
@<TRIPOS>BOND
    1    1    2 1     
    2    1   20 1     
    3    1   21 1     
    4    1   22 1     
    5    2    3 1     
    6    2   13 1     
    7    2   23 1     
    8    3    4 am    
    9    3   24 1     
   10    4    5 2     
   11    4    6 am    
   12    6    7 1     
   13    6   25 1     
   14    7   12 ar    
   15    7    8 ar    
   16    8    9 ar    
   17    8   26 1     
   18    9   10 ar    
   19    9   27 1     
   20   10   11 ar    
   21   10   28 1     
   22   11   12 ar    
   23   11   29 1     
   24   13   19 1     
   25   13   14 1     
   26   13   30 1     
   27   14   15 1     
   28   14   31 1     
   29   14   32 1     
   30   15   16 1     
   31   15   33 1     
   32   15   34 1     
   33   16   17 1     
   34   16   18 1     
   35   16   42 1     
   36   17   35 1     
   37   17   36 1     
   38   17   37 1     
   39   18   19 1     
   40   18   38 1     
   41   18   39 1     
   42   19   40 1     
   43   19   41 1     
   44    5   43 1     
   45    5   44 1     
   46   12   45 1     
@<TRIPOS>SUBSTRUCTURE
      1 S1             1
@<TRIPOS>SET
LONE_PAIRS      STATIC     ATOMS    <user>   **** ""
3 43 44 45
DONOR_HYDROGENS      STATIC     ATOMS    <user>   **** ""
3 24 25 42
ATOM$BLUE        STATIC     ATOMS    COLORGROUP SYSTEM
3 43 44 45
ATOM$RED        STATIC     ATOMS    COLORGROUP SYSTEM
3 24 25 42
