#       Name:                AV-unprocessed.smi:282
#       Creating user name   scv26
#       Creation time:       Thu Mar 26 21:41:51 2020


#       File generated by GOLD software.
#

@<TRIPOS>MOLECULE
AV-unprocessed.smi:282
    73    77     1
SMALL
NO_CHARGES


@<TRIPOS>ATOM
      1 ****        -2.5268   1.0334   4.2460 C.3            1 S1                 0.0000
      2 ****        -1.8498   0.6476   2.9236 C.3            1 S1                 0.0000
      3 ****        -2.6104   1.1174   1.6546 C.3            1 S1                 0.0000
      4 ****        -4.0209   0.4851   1.5943 C.3            1 S1                 0.0000
      5 ****        -4.7459   0.8366   0.3456 N.4            1 S1                 1.0000
      6 ****        -6.1305   0.2982   0.2902 C.3            1 S1                 0.0000
      7 ****        -6.1555  -1.2133  -0.0105 C.3            1 S1                 0.0000
      8 ****        -5.3691  -1.5366  -1.2889 C.3            1 S1                 0.0000
      9 ****        -3.9454  -0.9674  -1.2027 C.3            1 S1                 0.0000
     10 ****        -3.9749   0.5457  -0.8942 C.3            1 S1                 0.0000
     11 ****        -2.5716   1.1692  -0.8194 C.3            1 S1                 0.0000
     12 ****        -1.8807   0.8114   0.4163 N.3            1 S1                 0.0000
     13 ****        -0.5898   1.2119   0.3811 C.ar           1 S1                 0.0000
     14 ****        -0.2857   2.5361   0.4130 N.ar           1 S1                 0.0000
     15 ****         0.9937   2.9238   0.3906 C.ar           1 S1                 0.0000
     16 ****         2.0946   2.1694   0.3393 N.ar           1 S1                 0.0000
     17 ****         1.7866   0.8405   0.3085 C.ar           1 S1                 0.0000
     18 ****         0.4793   0.2816   0.3276 C.ar           1 S1                 0.0000
     19 ****         0.5481  -1.1042   0.2981 N.2            1 S1                 0.0000
     20 ****         1.8290  -1.3529   0.2685 C.2            1 S1                 0.0000
     21 ****         2.6464  -0.2436   0.2549 N.pl3          1 S1                 0.0000
     22 ****         4.1023  -0.2329   0.2314 C.3            1 S1                 0.0000
     23 ****         4.7446  -0.2889  -1.1909 C.3            1 S1                 0.0000
     24 ****         4.2851   0.9631  -1.9892 C.3            1 S1                 0.0000
     25 ****         4.8761   1.0606  -3.2703 O.3            1 S1                 0.0000
     26 ****         6.2884  -0.2955  -1.0454 C.3            1 S1                 0.0000
     27 ****         6.8284  -1.6294  -0.4931 C.3            1 S1                 0.0000
     28 ****         6.3880  -2.7124  -1.3036 O.3            1 S1                 0.0000
     29 ****         4.9720  -2.8412  -1.3406 C.3            1 S1                 0.0000
     30 ****         4.3494  -1.5769  -1.9592 C.3            1 S1                 0.0000
     31 ****        -1.8887   0.7757   5.0915 H              1 S1                 0.0000
     32 ****        -3.4727   0.5111   4.3867 H              1 S1                 0.0000
     33 ****        -2.7193   2.1056   4.2918 H              1 S1                 0.0000
     34 ****        -0.8504   1.0824   2.9473 H              1 S1                 0.0000
     35 ****        -1.7065  -0.4333   2.8906 H              1 S1                 0.0000
     36 ****        -2.7261   2.2012   1.7052 H              1 S1                 0.0000
     37 ****        -3.9383  -0.5982   1.6848 H              1 S1                 0.0000
     38 ****        -4.6206   0.8247   2.4385 H              1 S1                 0.0000
     39 ****        -6.6524   0.5111   1.2236 H              1 S1                 0.0000
     40 ****        -6.6735   0.8312  -0.4912 H              1 S1                 0.0000
     41 ****        -5.7393  -1.7716   0.8285 H              1 S1                 0.0000
     42 ****        -7.1868  -1.5515  -0.1163 H              1 S1                 0.0000
     43 ****        -5.3352  -2.6148  -1.4478 H              1 S1                 0.0000
     44 ****        -5.8825  -1.1108  -2.1520 H              1 S1                 0.0000
     45 ****        -3.3806  -1.5026  -0.4386 H              1 S1                 0.0000
     46 ****        -3.4249  -1.1449  -2.1444 H              1 S1                 0.0000
     47 ****        -4.4981   1.0333  -1.7184 H              1 S1                 0.0000
     48 ****        -1.9810   0.8619  -1.6843 H              1 S1                 0.0000
     49 ****        -2.6610   2.2554  -0.8719 H              1 S1                 0.0000
     50 ****         1.1594   3.9907   0.4202 H              1 S1                 0.0000
     51 ****         2.2156  -2.3615   0.2513 H              1 S1                 0.0000
     52 ****         4.4377   0.6662   0.7505 H              1 S1                 0.0000
     53 ****         4.4365  -1.0618   0.8529 H              1 S1                 0.0000
     54 ****         3.2049   0.9556  -2.1335 H              1 S1                 0.0000
     55 ****         4.5237   1.8732  -1.4380 H              1 S1                 0.0000
     56 ****         4.5525   1.8420  -3.6923 H              1 S1                 0.0000
     57 ****         6.7589  -0.1332  -2.0154 H              1 S1                 0.0000
     58 ****         6.6158   0.5301  -0.4127 H              1 S1                 0.0000
     59 ****         7.9184  -1.6155  -0.4991 H              1 S1                 0.0000
     60 ****         6.5297  -1.7907   0.5427 H              1 S1                 0.0000
     61 ****         4.7190  -3.7115  -1.9462 H              1 S1                 0.0000
     62 ****         4.5842  -3.0347  -0.3403 H              1 S1                 0.0000
     63 ****         3.2674  -1.6802  -2.0290 H              1 S1                 0.0000
     64 ****         4.6999  -1.5140  -2.9899 H              1 S1                 0.0000
     65 ****        -4.8423   1.8417   0.3768 H              1 S1                 0.0000
     66 ****        -1.8608  -0.1876   0.4558 LP             1 S1                 0.0000
     67 ****        -1.0161   3.2180   0.4531 LP             1 S1                 0.0000
     68 ****         3.0263   2.5324   0.3253 LP             1 S1                 0.0000
     69 ****        -0.2074  -1.7593   0.2993 LP             1 S1                 0.0000
     70 ****         4.6335   0.2581  -3.8153 LP             1 S1                 0.0000
     71 ****         5.8706   1.1137  -3.1795 LP             1 S1                 0.0000
     72 ****         6.7754  -3.5598  -0.9405 LP             1 S1                 0.0000
     73 ****         6.7190  -2.5673  -2.2360 LP             1 S1                 0.0000
@<TRIPOS>BOND
    1    1    2 1     
    2    1   31 1     
    3    1   32 1     
    4    1   33 1     
    5    2    3 1     
    6    2   34 1     
    7    2   35 1     
    8    3   12 1     
    9    3    4 1     
   10    3   36 1     
   11    4    5 1     
   12    4   37 1     
   13    4   38 1     
   14    5   10 1     
   15    5    6 1     
   16    5   65 1     
   17    6    7 1     
   18    6   39 1     
   19    6   40 1     
   20    7    8 1     
   21    7   41 1     
   22    7   42 1     
   23    8    9 1     
   24    8   43 1     
   25    8   44 1     
   26    9   10 1     
   27    9   45 1     
   28    9   46 1     
   29   10   11 1     
   30   10   47 1     
   31   11   12 1     
   32   11   48 1     
   33   11   49 1     
   34   12   13 1     
   35   13   18 ar    
   36   13   14 ar    
   37   14   15 ar    
   38   15   16 ar    
   39   15   50 1     
   40   16   17 ar    
   41   17   21 1     
   42   17   18 ar    
   43   18   19 1     
   44   19   20 2     
   45   20   21 1     
   46   20   51 1     
   47   21   22 1     
   48   22   23 1     
   49   22   52 1     
   50   22   53 1     
   51   23   30 1     
   52   23   24 1     
   53   23   26 1     
   54   24   25 1     
   55   24   54 1     
   56   24   55 1     
   57   25   56 1     
   58   26   27 1     
   59   26   57 1     
   60   26   58 1     
   61   27   28 1     
   62   27   59 1     
   63   27   60 1     
   64   28   29 1     
   65   29   30 1     
   66   29   61 1     
   67   29   62 1     
   68   30   63 1     
   69   30   64 1     
   70   12   66 1     
   71   14   67 1     
   72   16   68 1     
   73   19   69 1     
   74   25   70 1     
   75   25   71 1     
   76   28   72 1     
   77   28   73 1     
@<TRIPOS>SUBSTRUCTURE
      1 S1             1
@<TRIPOS>SET
LONE_PAIRS      STATIC     ATOMS    <user>   **** ""
8 66 67 68 69 70 71 72 73
DONOR_HYDROGENS      STATIC     ATOMS    <user>   **** ""
2 65 56
ATOM$BLUE        STATIC     ATOMS    COLORGROUP SYSTEM
8 66 67 68 69 70 71 72 73
ATOM$RED        STATIC     ATOMS    COLORGROUP SYSTEM
2 65 56
