AV-unprocessed.smi:50|AV-procd|sdf|494|dock6
  -GOLD-   2262016363D 1   1.00000     0.00000
 Structure written by MMmdl.
 43 44  0  0  0  0  0  0  0  0  1 V2000
  152.7386  143.1203  159.4605 C   0  0  0  0  0  0  0  0  0  0  0  0
  152.0336  143.2394  158.0933 C   0  0  0  0  0  0  0  0  0  0  0  0
  151.5097  144.6789  157.9286 C   0  0  0  0  0  0  0  0  0  0  0  0
  150.9052  142.1897  157.8678 C   0  0  1  0  0  0  0  0  0  0  0  0
  150.4385  142.2298  156.4820 N   0  0  0  0  0  0  0  0  0  0  0  0
  151.3349  140.7627  158.2527 C   0  0  0  0  0  0  0  0  0  0  0  0
  152.4344  140.4729  158.7286 O   0  0  0  0  0  0  0  0  0  0  0  0
  150.3399  139.8906  158.0207 O   0  0  0  0  0  0  0  0  0  0  0  0
  150.4933  138.5336  158.4017 C   0  0  0  0  0  0  0  0  0  0  0  0
  149.5347  137.6589  157.5881 C   0  0  0  0  0  0  0  0  0  0  0  0
  150.2685  136.9446  156.6002 O   0  0  0  0  0  0  0  0  0  0  0  0
  149.5109  136.1283  155.7654 C   0  0  0  0  0  0  0  0  0  0  0  0
  149.9040  134.7441  155.9735 N   0  0  0  0  0  0  0  0  0  0  0  0
  150.7365  134.2373  156.9395 C   0  0  0  0  0  0  0  0  0  0  0  0
  150.8904  132.9440  156.8822 N   0  0  0  0  0  0  0  0  0  0  0  0
  150.1066  132.5561  155.7994 C   0  0  0  0  0  0  0  0  0  0  0  0
  149.8743  131.2517  155.2480 C   0  0  0  0  0  0  0  0  0  0  0  0
  150.3235  130.1729  155.6290 O   0  0  0  0  0  0  0  0  0  0  0  0
  149.0229  131.2925  154.1366 N   0  0  0  0  0  0  0  0  0  0  0  0
  148.4594  132.4594  153.6259 C   0  0  0  0  0  0  0  0  0  0  0  0
  147.6695  132.3283  152.5521 N   0  0  0  0  0  0  0  0  0  0  0  0
  148.6673  133.6588  154.1401 N   0  0  0  0  0  0  0  0  0  0  0  0
  149.4996  133.6572  155.2273 C   0  0  0  0  0  0  0  0  0  0  0  0
  150.0611  142.4657  158.4985 H   0  0  0  0  0  0  0  0  0  0  0  0
  148.8152  130.4121  153.6883 H   0  0  0  0  0  0  0  0  0  0  0  0
  152.0209  143.1697  160.2790 H   0  0  0  0  0  0  0  0  0  0  0  0
  153.4581  143.9270  159.6039 H   0  0  0  0  0  0  0  0  0  0  0  0
  153.2937  142.1871  159.5560 H   0  0  0  0  0  0  0  0  0  0  0  0
  152.7958  143.0842  157.3281 H   0  0  0  0  0  0  0  0  0  0  0  0
  150.7353  144.9044  158.6606 H   0  0  0  0  0  0  0  0  0  0  0  0
  151.0887  144.8490  156.9379 H   0  0  0  0  0  0  0  0  0  0  0  0
  152.3105  145.4066  158.0620 H   0  0  0  0  0  0  0  0  0  0  0  0
  150.1406  143.1575  156.2165 H   0  0  0  0  0  0  0  0  0  0  0  0
  151.1670  141.9609  155.8363 H   0  0  0  0  0  0  0  0  0  0  0  0
  151.5242  138.2010  158.2709 H   0  0  0  0  0  0  0  0  0  0  0  0
  150.2529  138.4456  159.4621 H   0  0  0  0  0  0  0  0  0  0  0  0
  149.0820  136.9167  158.2456 H   0  0  0  0  0  0  0  0  0  0  0  0
  148.7134  138.2544  157.1858 H   0  0  0  0  0  0  0  0  0  0  0  0
  148.4639  136.2237  156.0545 H   0  0  0  0  0  0  0  0  0  0  0  0
  149.6006  136.4109  154.7150 H   0  0  0  0  0  0  0  0  0  0  0  0
  151.2212  134.8527  157.6833 H   0  0  0  0  0  0  0  0  0  0  0  0
  147.5107  131.4129  152.1561 H   0  0  0  0  0  0  0  0  0  0  0  0
  147.2341  133.1395  152.1372 H   0  0  0  0  0  0  0  0  0  0  0  0
  1  2  1  0  0  0  0
  1 26  1  0  0  0  0
  1 27  1  0  0  0  0
  1 28  1  0  0  0  0
  2  3  1  0  0  0  0
  2  4  1  0  0  0  0
  2 29  1  0  0  0  0
  3 30  1  0  0  0  0
  3 31  1  0  0  0  0
  3 32  1  0  0  0  0
  4 24  1  0  0  0  0
  4  5  1  0  0  0  0
  4  6  1  0  0  0  0
  5 33  1  0  0  0  0
  5 34  1  0  0  0  0
  6  7  2  0  0  0  0
  6  8  1  0  0  0  0
  8  9  1  0  0  0  0
  9 10  1  0  0  0  0
  9 35  1  0  0  0  0
  9 36  1  0  0  0  0
 10 11  1  0  0  0  0
 10 37  1  0  0  0  0
 10 38  1  0  0  0  0
 11 12  1  0  0  0  0
 12 13  1  0  0  0  0
 12 39  1  0  0  0  0
 12 40  1  0  0  0  0
 13 23  1  0  0  0  0
 13 14  1  0  0  0  0
 14 15  2  0  0  0  0
 14 41  1  0  0  0  0
 15 16  1  0  0  0  0
 16 23  2  0  0  0  0
 16 17  1  0  0  0  0
 17 18  2  0  0  0  0
 17 19  1  0  0  0  0
 19 25  1  0  0  0  0
 19 20  1  0  0  0  0
 20 21  1  0  0  0  0
 20 22  2  0  0  0  0
 21 42  1  0  0  0  0
 21 43  1  0  0  0  0
 22 23  1  0  0  0  0
M  END
> <s_m_source_file>
AV-unprocessed.smi

> <i_m_source_file_index>
50

> <i_lp_mmshare_version>
43012

> <i_f3d_flags>
0

> <s_epik_input>
W0NIM11bQ0hdKFtDSDNdKVtDQEhdKFtOSDJdKUMoPU8pT1tDSDJdW0NIMl1PW0NIMl1uKFtjSF1uMSljKGMxMiluYyhbTkgyXSlbbkhdYzI9Tw==

> <s_epik_cmdline>
J2VwaWtfcHl0aG9uJywgJy1waCcsICc3LjAnLCAnLXRuJywgJzgnLCAnLW1hJywgJzIwMCcsICctbWV0YWxfYmluZGluZycsICctaW1hZScsICc8aW5maWxlLm1hZT4nLCAnLW9tYWUnLCAnPG91dGZpbGUubWFlPic=

> <r_lp_tautomer_probability>
0.99994

> <r_epik_Ionization_Penalty>
0.704142

> <r_epik_Ionization_Penalty_Charging>
0.00148332

> <r_epik_Ionization_Penalty_Neutral>
0.702658

> <r_epik_State_Penalty>
0.725442

> <r_epik_Charging_Adjusted_Penalty>
0.726926

> <i_epik_Tot_Q>
0

> <i_epik_Tot_abs_Q>
0

> <r_epik_Metal_State_Penalty>
1.04557

> <b_epik_Metal_Only>
0

> <s_epik_Chemistry_Notes>
This compound has an ester and may undergo hydrolysis at high or low pH. This compound contains an acetal/aminal-like group ( X-CH(R)-Y where X, Y are N, S, or O) that may be acid/base labile, releasing an aldehyde.

> <s_lp_Force_Field>
OPLS_2005

> <r_lp_Energy>
2.75991

> <b_lp_Chiralities_Consistent>
1

> <s_lp_Variant>
AV-unprocessed.smi:50-4

> <Gold.Version>
5.8.1

> <Gold.Id.Protein>
6NUR|6NUR_protein|mol2

> <Gold.PLP.Fitness>
37.9577

> <Gold.PLP.PLP>
-35.3307

> <Gold.PLP.part.hbond>
-2.0000

> <Gold.PLP.part.metal>
0.0000

> <Gold.PLP.part.buried>
-7.1805

> <Gold.PLP.part.nonpolar>
-26.6475

> <Gold.PLP.part.repulsive>
1.4272

> <Gold.PLP.ligand.clash>
0.0000

> <Gold.PLP.ligand.torsion>
1.0225

> <Gold.PLP.Chemscore.Hbond>
1.5148

> <Gold.PLP.Chemscore.CHOScore>
0.0000

> <Gold.PLP.Chemscore.Metal>
0.0000

> <Gold.Chemscore.Hbonds>
donor molecule, donor type, donor heavy atom, donor atom, acceptor molecule, acceptor atom, score
      L1  H     5    33       P1  8028  0.88

> <Gold.PLP.Chemscore.Internal.Correction>
0.1276

> <Gold.Rescore>
     Score         DG    S(hbond)    S(metal)    S(lipo)     H(rot)  DE(clash)    DE(int)     intcor
      2.28      -4.73       1.66        0.00      50.21       4.75       0.01       2.43       ----

> <Gold.Chemscore.Fitness>
2.2815

> <Gold.Chemscore.DG>
-4.7298

> <Gold.Chemscore.ZeroCoef>
-5.4800

> <Gold.Chemscore.Hbond>
1.6573

> <Gold.Chemscore.Metal>
0.0000

> <Gold.Chemscore.Lipo>
50.2116

> <Gold.Chemscore.Internal_Hbond>
0.0000

> <Gold.Chemscore.DEClash>
0.0149

> <Gold.Chemscore.DEInternal>
2.4334

> <Gold.Chemscore.Rot>
4.7501

> <Gold.Chemscore.Internal.Correction>
   9.000000E+99

> <Gold.Chemscore.Hbonds>
donor molecule, donor type, donor heavy atom, donor atom, acceptor molecule, acceptor atom, score
      L1  H     5    33       P1  8028  0.85
      L1  H    21    42       P1 10747  0.02

> <Gold.Chemscore.Hbond.Weighted>
-5.5353

> <Gold.Chemscore.Metal.Weighted>
-0.0000

> <Gold.Chemscore.Lipo.Weighted>
-5.8748

> <Gold.Chemscore.Internal_Hbond.Weighted>
0.0000

> <Gold.Chemscore.DEClash.Weighted>
0.0149

> <Gold.Chemscore.DEInternal.Weighted>
2.4334

> <Gold.Chemscore.Rot.Weighted>
12.1603

> <Gold.Chemscore.Internal.Correction.Weighted>
   9.000000E+99

> <Gold.Protein.RotatedTorsions>
[ 6907 6896 6895 6894 ] final  144.15 input  -60.11 | X-H torsion
[ 7974 7965 7964 7962 ] final  143.82 input  175.53 | X-H torsion
[ 8008 7997 7996 7995 ] final   45.19 input   59.86 | X-H torsion
[ 10167 10162 10161 10158 ] final  -97.53 input  -65.29 | X-H torsion
[ 10718 10713 10712 10709 ] final -129.17 input   66.30 | X-H torsion
[ 10763 10752 10751 10750 ] final -174.28 input  -60.55 | X-H torsion
[ 11005 11000 10999 10996 ] final  146.05 input  -57.11 | X-H torsion

> <Gold.Protein.ActiveResidues>
 VAL166  LYS551  ARG553  GLY616  TRP617  ASP618  TYR619  PRO620  LYS621  CYS622 
 ASP623  PHE694  ASN695  SER759  ASP760  ASP761  ALA762  ILE779  LEU786  VAL792 
 PHE793  MET794  SER795  GLU796  ALA797  LYS798  CYS799  TRP800  GLU811  SER814 

> <Gold.Protein.RotatedAtoms>
  152.1973  133.4816  159.5039 H   0  0  0  0  0  0  0  0  0  0  0  0  # atno 6907 bound_to 6896
  150.6962  134.1635  159.4194 H   0  0  0  0  0  0  0  0  0  0  0  0  # atno 6908 bound_to 6896
  151.9552  135.0150  160.0595 H   0  0  0  0  0  0  0  0  0  0  0  0  # atno 6909 bound_to 6896
  144.8888  139.5589  143.5808 H   0  0  0  0  0  0  0  0  0  0  0  0  # atno 7974 bound_to 7965
  155.3318  140.3403  155.4239 H   0  0  0  0  0  0  0  0  0  0  0  0  # atno 8008 bound_to 7997
  156.1858  140.1680  156.8225 H   0  0  0  0  0  0  0  0  0  0  0  0  # atno 8009 bound_to 7997
  154.5384  140.0730  156.8451 H   0  0  0  0  0  0  0  0  0  0  0  0  # atno 8010 bound_to 7997
  140.2824  143.3273  152.0427 H   0  0  0  0  0  0  0  0  0  0  0  0  # atno 10167 bound_to 10162
  156.2021  130.6864  151.0551 H   0  0  0  0  0  0  0  0  0  0  0  0  # atno 10718 bound_to 10713
  154.5980  135.2851  155.0565 H   0  0  0  0  0  0  0  0  0  0  0  0  # atno 10763 bound_to 10752
  154.1841  135.6452  153.5046 H   0  0  0  0  0  0  0  0  0  0  0  0  # atno 10764 bound_to 10752
  153.0146  135.5430  154.6689 H   0  0  0  0  0  0  0  0  0  0  0  0  # atno 10765 bound_to 10752
  140.0761  134.9124  157.1425 H   0  0  0  0  0  0  0  0  0  0  0  0  # atno 11005 bound_to 11000
  146.3041  139.7522  142.9069 LP  0  0  0  0  0  0  0  0  0  0  0  0  # atno 17320 bound_to 7965
  145.3820  141.0360  143.3172 LP  0  0  0  0  0  0  0  0  0  0  0  0  # atno 17321 bound_to 7965
  139.4959  144.6582  151.6524 LP  0  0  0  0  0  0  0  0  0  0  0  0  # atno 17342 bound_to 10162
  140.5800  143.9962  150.6263 LP  0  0  0  0  0  0  0  0  0  0  0  0  # atno 17343 bound_to 10162
  157.6991  131.0782  150.6875 LP  0  0  0  0  0  0  0  0  0  0  0  0  # atno 17370 bound_to 10713
  156.6933  130.4601  149.5593 LP  0  0  0  0  0  0  0  0  0  0  0  0  # atno 17371 bound_to 10713
  140.3555  134.2551  155.7193 LP  0  0  0  0  0  0  0  0  0  0  0  0  # atno 17394 bound_to 11000
  141.2030  133.7923  157.0362 LP  0  0  0  0  0  0  0  0  0  0  0  0  # atno 17395 bound_to 11000

$$$$
