AV-unprocessed.smi:39|AV-procd|sdf|360|dock1
  -GOLD-   2262016203D 1   1.00000     0.00000
 Structure written by MMmdl.
 31 32  0  0  0  0  0  0  0  0  4 V2000
  146.1336  137.4930  159.4479 C   0  0  0  0  0  0  0  0  0  0  0  0
  147.4875  137.1177  158.8709 C   0  0  0  0  0  0  0  0  0  0  0  0
  147.7513  137.1857  157.5468 C   0  0  0  0  0  0  0  0  0  0  0  0
  148.9884  136.8441  157.0253 N   0  0  0  0  0  0  0  0  0  0  0  0
  149.2820  136.9252  155.5401 C   0  0  2  0  0  0  0  0  0  0  0  0
  150.4072  137.9367  155.2667 C   0  0  0  0  0  0  0  0  0  0  0  0
  149.8119  138.8067  154.1714 C   0  0  2  0  0  0  0  0  0  0  0  0
  150.3409  140.1726  154.1754 N   0  0  0  0  0  0  0  0  0  0  0  0
  149.5087  141.0859  154.0989 N   0  3  0  0  0  0  0  0  0  0  0  0
  148.7640  141.9241  153.9043 N   0  5  0  0  0  0  0  0  0  0  0  0
  148.3229  138.7551  154.5141 C   0  0  1  0  0  0  0  0  0  0  0  0
  147.4038  139.1157  153.3377 C   0  0  0  0  0  0  0  0  0  0  0  0
  147.8087  138.4165  152.1806 O   0  0  0  0  0  0  0  0  0  0  0  0
  148.1528  137.3828  154.8526 O   0  0  0  0  0  0  0  0  0  0  0  0
  150.0149  136.3957  157.8976 C   0  0  0  0  0  0  0  0  0  0  0  0
  151.1008  136.0913  157.4030 O   0  0  0  0  0  0  0  0  0  0  0  0
  149.7581  136.3241  159.2344 N   0  5  0  0  0  0  0  0  0  0  0  0
  148.5521  136.6632  159.7733 C   0  0  0  0  0  0  0  0  0  0  0  0
  148.3352  136.5982  160.9828 O   0  0  0  0  0  0  0  0  0  0  0  0
  149.5076  135.9049  155.2254 H   0  0  0  0  0  0  0  0  0  0  0  0
  149.9710  138.3252  153.2041 H   0  0  0  0  0  0  0  0  0  0  0  0
  148.1216  139.3875  155.3812 H   0  0  0  0  0  0  0  0  0  0  0  0
  145.4451  137.8164  158.6669 H   0  0  0  0  0  0  0  0  0  0  0  0
  146.2380  138.3079  160.1648 H   0  0  0  0  0  0  0  0  0  0  0  0
  145.6875  136.6395  159.9592 H   0  0  0  0  0  0  0  0  0  0  0  0
  146.9628  137.5179  156.8897 H   0  0  0  0  0  0  0  0  0  0  0  0
  150.6094  138.5223  156.1656 H   0  0  0  0  0  0  0  0  0  0  0  0
  151.3230  137.4289  154.9630 H   0  0  0  0  0  0  0  0  0  0  0  0
  146.3772  138.8206  153.5567 H   0  0  0  0  0  0  0  0  0  0  0  0
  147.3999  140.1899  153.1512 H   0  0  0  0  0  0  0  0  0  0  0  0
  148.5621  138.8561  151.8163 H   0  0  0  0  0  0  0  0  0  0  0  0
  1  2  1  0  0  0  0
  1 23  1  0  0  0  0
  1 24  1  0  0  0  0
  1 25  1  0  0  0  0
  2 18  1  0  0  0  0
  2  3  2  0  0  0  0
  3  4  1  0  0  0  0
  3 26  1  0  0  0  0
  4  5  1  0  0  0  0
  4 15  1  0  0  0  0
  5 20  1  0  0  0  0
  5 14  1  0  0  0  0
  5  6  1  0  0  0  0
  6  7  1  0  0  0  0
  6 27  1  0  0  0  0
  6 28  1  0  0  0  0
  7 21  1  0  0  0  0
  7  8  1  0  0  0  0
  7 11  1  0  0  0  0
  8  9  2  0  0  0  0
  9 10  2  0  0  0  0
 11 22  1  0  0  0  0
 11 12  1  0  0  0  0
 11 14  1  0  0  0  0
 12 13  1  0  0  0  0
 12 29  1  0  0  0  0
 12 30  1  0  0  0  0
 13 31  1  0  0  0  0
 15 16  2  0  0  0  0
 15 17  1  0  0  0  0
 17 18  1  0  0  0  0
 18 19  2  0  0  0  0
M  CHG  1   9   1
M  CHG  1  10  -1
M  CHG  1  17  -1
M  END
> <s_m_source_file>
AV-unprocessed.smi

> <i_m_source_file_index>
39

> <i_lp_mmshare_version>
43012

> <i_f3d_flags>
0

> <s_epik_input>
Tz1jMVtuSF1jKD1PKW4oW2NIXWMxW0NIM10pW0NASF0yW0NIMl1bQ0BIXShOPVtOK109W04tXSlbQ0BIXShPMilbQ0gyXVtPSF0=

> <s_epik_cmdline>
J2VwaWtfcHl0aG9uJywgJy1waCcsICc3LjAnLCAnLXRuJywgJzgnLCAnLW1hJywgJzIwMCcsICctbWV0YWxfYmluZGluZycsICctaW1hZScsICc8aW5maWxlLm1hZT4nLCAnLW9tYWUnLCAnPG91dGZpbGUubWFlPic=

> <r_lp_tautomer_probability>
0.999537

> <r_epik_Ionization_Penalty>
3.6393

> <r_epik_Ionization_Penalty_Charging>
9.76484e-08

> <r_epik_Ionization_Penalty_Neutral>
3.6393

> <r_epik_State_Penalty>
3.63887

> <r_epik_Charging_Adjusted_Penalty>
3.63887

> <i_epik_Tot_Q>
-1

> <i_epik_Tot_abs_Q>
3

> <r_epik_Metal_State_Penalty>
0.225911

> <b_epik_Metal_Only>
1

> <s_epik_Chemistry_Notes>
This compound contains an acetal/aminal-like group ( X-CH(R)-Y where X, Y are N, S, or O) that may be acid/base labile, releasing an aldehyde.

> <s_lp_Force_Field>
OPLS_2005

> <r_lp_Energy>
32.3737

> <b_lp_Chiralities_Consistent>
1

> <s_lp_Variant>
AV-unprocessed.smi:39-10

> <Gold.Version>
5.8.1

> <Gold.Id.Protein>
6NUR|6NUR_protein|mol2

> <Gold.PLP.Fitness>
37.3669

> <Gold.PLP.PLP>
-22.0986

> <Gold.PLP.part.hbond>
-8.2271

> <Gold.PLP.part.metal>
0.0000

> <Gold.PLP.part.buried>
-4.9529

> <Gold.PLP.part.nonpolar>
-9.8081

> <Gold.PLP.part.repulsive>
0.9078

> <Gold.PLP.ligand.clash>
0.0000

> <Gold.PLP.ligand.torsion>
0.2483

> <Gold.PLP.Chemscore.Hbond>
5.2400

> <Gold.PLP.Chemscore.CHOScore>
0.0000

> <Gold.PLP.Chemscore.Metal>
0.0000

> <Gold.Chemscore.Hbonds>
donor molecule, donor type, donor heavy atom, donor atom, acceptor molecule, acceptor atom, score
      L1  H    13    31       P1  7957  1.00
      P1  H  6896  6909       L1    17  2.00
      P1  H  6931  6943       L1    19  1.00
      P1  H  7989  7998       L1     8  1.00
      P1  H  8011  8017       L1    10  0.24

> <Gold.PLP.Chemscore.Internal.Correction>
0.0450

> <Gold.Rescore>
     Score         DG    S(hbond)    S(metal)    S(lipo)     H(rot)  DE(clash)    DE(int)     intcor
     10.02     -12.83       3.33        0.00      27.21       2.72       0.54       2.27       ----

> <Gold.Chemscore.Fitness>
10.0176

> <Gold.Chemscore.DG>
-12.8348

> <Gold.Chemscore.ZeroCoef>
-5.4800

> <Gold.Chemscore.Hbond>
3.3300

> <Gold.Chemscore.Metal>
0.0000

> <Gold.Chemscore.Lipo>
27.2115

> <Gold.Chemscore.Internal_Hbond>
0.0000

> <Gold.Chemscore.DEClash>
0.5447

> <Gold.Chemscore.DEInternal>
2.2724

> <Gold.Chemscore.Rot>
2.7153

> <Gold.Chemscore.Internal.Correction>
   9.000000E+99

> <Gold.Chemscore.Hbonds>
donor molecule, donor type, donor heavy atom, donor atom, acceptor molecule, acceptor atom, score
      L1  H    13    31       P1  7957  0.78
      P1  H  6896  6909       L1    17  0.34
      P1  H  6931  6943       L1    19  0.70
      P1  H  7989  7998       L1     8  0.24
      P1  H  8011  8017       L1    10  0.01

> <Gold.Chemscore.Hbond.Weighted>
-11.1223

> <Gold.Chemscore.Metal.Weighted>
-0.0000

> <Gold.Chemscore.Lipo.Weighted>
-3.1837

> <Gold.Chemscore.Internal_Hbond.Weighted>
0.0000

> <Gold.Chemscore.DEClash.Weighted>
0.5447

> <Gold.Chemscore.DEInternal.Weighted>
2.2724

> <Gold.Chemscore.Rot.Weighted>
6.9512

> <Gold.Chemscore.Internal.Correction.Weighted>
   9.000000E+99

> <Gold.Protein.RotatedTorsions>
[ 6907 6896 6895 6894 ] final   89.24 input  -60.11 | X-H torsion
[ 7974 7965 7964 7962 ] final  -21.30 input  175.53 | X-H torsion
[ 8008 7997 7996 7995 ] final -128.41 input   59.86 | X-H torsion
[ 10167 10162 10161 10158 ] final  -87.88 input  -65.29 | X-H torsion
[ 10718 10713 10712 10709 ] final   -5.11 input   66.30 | X-H torsion
[ 10763 10752 10751 10750 ] final -107.18 input  -60.55 | X-H torsion
[ 11005 11000 10999 10996 ] final   96.21 input  -57.11 | X-H torsion

> <Gold.Protein.ActiveResidues>
 VAL166  LYS551  ARG553  GLY616  TRP617  ASP618  TYR619  PRO620  LYS621  CYS622 
 ASP623  PHE694  ASN695  SER759  ASP760  ASP761  ALA762  ILE779  LEU786  VAL792 
 PHE793  MET794  SER795  GLU796  ALA797  LYS798  CYS799  TRP800  GLU811  SER814 

> <Gold.Protein.RotatedAtoms>
  152.5434  134.1997  159.8706 H   0  0  0  0  0  0  0  0  0  0  0  0  # atno 6907 bound_to 6896
  151.1987  133.4617  159.2603 H   0  0  0  0  0  0  0  0  0  0  0  0  # atno 6908 bound_to 6896
  151.1011  134.9985  159.8505 H   0  0  0  0  0  0  0  0  0  0  0  0  # atno 6909 bound_to 6896
  146.1741  140.4322  142.8521 H   0  0  0  0  0  0  0  0  0  0  0  0  # atno 7974 bound_to 7965
  155.2622  140.0436  157.2998 H   0  0  0  0  0  0  0  0  0  0  0  0  # atno 8008 bound_to 7997
  154.5704  140.2372  155.8169 H   0  0  0  0  0  0  0  0  0  0  0  0  # atno 8009 bound_to 7997
  156.2118  140.2996  155.9757 H   0  0  0  0  0  0  0  0  0  0  0  0  # atno 8010 bound_to 7997
  140.3802  143.2752  151.9394 H   0  0  0  0  0  0  0  0  0  0  0  0  # atno 10167 bound_to 10162
  156.7514  130.5241  149.5803 H   0  0  0  0  0  0  0  0  0  0  0  0  # atno 10718 bound_to 10713
  154.8059  135.4684  154.0392 H   0  0  0  0  0  0  0  0  0  0  0  0  # atno 10763 bound_to 10752
  153.1861  135.6848  153.8421 H   0  0  0  0  0  0  0  0  0  0  0  0  # atno 10764 bound_to 10752
  153.7954  135.3237  155.3361 H   0  0  0  0  0  0  0  0  0  0  0  0  # atno 10765 bound_to 10752
  139.8783  134.8939  156.4126 H   0  0  0  0  0  0  0  0  0  0  0  0  # atno 11005 bound_to 11000
  144.8208  140.6546  143.6354 LP  0  0  0  0  0  0  0  0  0  0  0  0  # atno 17320 bound_to 7965
  145.4261  139.1556  143.4047 LP  0  0  0  0  0  0  0  0  0  0  0  0  # atno 17321 bound_to 7965
  139.4796  144.5826  151.7907 LP  0  0  0  0  0  0  0  0  0  0  0  0  # atno 17342 bound_to 10162
  140.4946  144.1260  150.5957 LP  0  0  0  0  0  0  0  0  0  0  0  0  # atno 17343 bound_to 10162
  156.1399  130.6237  151.0452 LP  0  0  0  0  0  0  0  0  0  0  0  0  # atno 17370 bound_to 10713
  157.6775  131.0846  150.7456 LP  0  0  0  0  0  0  0  0  0  0  0  0  # atno 17371 bound_to 10713
  140.9190  133.7658  155.9883 LP  0  0  0  0  0  0  0  0  0  0  0  0  # atno 17394 bound_to 11000
  140.8461  134.3009  157.5294 LP  0  0  0  0  0  0  0  0  0  0  0  0  # atno 17395 bound_to 11000

$$$$
