AV-unprocessed.smi:2820|AV-procd|sdf|10855|dock10
  -GOLD-   2272015303D 1   1.00000     0.00000
 Structure written by MMmdl.
 30 31  0  0  0  0  0  0  0  0  2 V2000
  150.3420  137.8810  154.1746 C   0  0  0  0  0  0  0  0  0  0  0  0
  150.0950  139.3068  154.0364 N   0  0  0  0  0  0  0  0  0  0  0  0
  150.3741  140.1877  155.0900 C   0  0  0  0  0  0  0  0  0  0  0  0
  151.2925  139.7909  156.0862 C   0  0  0  0  0  0  0  0  0  0  0  0
  151.5865  140.6626  157.1547 C   0  0  0  0  0  0  0  0  0  0  0  0
  150.9544  141.9258  157.2119 C   0  0  0  0  0  0  0  0  0  0  0  0
  151.1801  142.8583  158.2329 N   0  0  0  0  0  0  0  0  0  0  0  0
  151.9649  142.3198  159.3366 C   0  0  0  0  0  0  0  0  0  0  0  0
  152.0790  143.3643  160.4605 C   0  0  0  0  0  0  0  0  0  0  0  0
  152.6316  144.5681  159.9363 O   0  0  0  0  0  0  0  0  0  0  0  0
  151.8171  145.1295  158.9113 C   0  0  0  0  0  0  0  0  0  0  0  0
  151.6973  144.1313  157.7468 C   0  0  0  0  0  0  0  0  0  0  0  0
  150.0813  142.2698  156.2403 N   0  3  0  0  0  0  0  0  0  0  0  0
  149.7729  141.4640  155.2009 C   0  0  0  0  0  0  0  0  0  0  0  0
  150.0627  137.3654  153.2556 H   0  0  0  0  0  0  0  0  0  0  0  0
  149.7528  137.4619  154.9908 H   0  0  0  0  0  0  0  0  0  0  0  0
  151.3980  137.6863  154.3647 H   0  0  0  0  0  0  0  0  0  0  0  0
  149.7161  139.6552  153.1672 H   0  0  0  0  0  0  0  0  0  0  0  0
  151.7711  138.8236  156.0353 H   0  0  0  0  0  0  0  0  0  0  0  0
  152.2884  140.3599  157.9181 H   0  0  0  0  0  0  0  0  0  0  0  0
  151.4949  141.4117  159.7166 H   0  0  0  0  0  0  0  0  0  0  0  0
  152.9605  142.0464  158.9845 H   0  0  0  0  0  0  0  0  0  0  0  0
  151.1039  143.5636  160.9079 H   0  0  0  0  0  0  0  0  0  0  0  0
  152.7249  142.9929  161.2560 H   0  0  0  0  0  0  0  0  0  0  0  0
  150.8337  145.3827  159.3108 H   0  0  0  0  0  0  0  0  0  0  0  0
  152.2699  146.0590  158.5659 H   0  0  0  0  0  0  0  0  0  0  0  0
  152.6750  143.9833  157.2862 H   0  0  0  0  0  0  0  0  0  0  0  0
  151.0341  144.5309  156.9784 H   0  0  0  0  0  0  0  0  0  0  0  0
  149.0587  141.8712  154.5004 H   0  0  0  0  0  0  0  0  0  0  0  0
  149.6318  143.1843  156.2936 H   0  0  0  0  0  0  0  0  0  0  0  0
  1  2  1  0  0  0  0
  1 15  1  0  0  0  0
  1 16  1  0  0  0  0
  1 17  1  0  0  0  0
  2  3  1  0  0  0  0
  2 18  1  0  0  0  0
  3 14  1  0  0  0  0
  3  4  2  0  0  0  0
  4  5  1  0  0  0  0
  4 19  1  0  0  0  0
  5  6  2  0  0  0  0
  5 20  1  0  0  0  0
  6  7  1  0  0  0  0
  6 13  1  0  0  0  0
  7 12  1  0  0  0  0
  7  8  1  0  0  0  0
  8  9  1  0  0  0  0
  8 21  1  0  0  0  0
  8 22  1  0  0  0  0
  9 10  1  0  0  0  0
  9 23  1  0  0  0  0
  9 24  1  0  0  0  0
 10 11  1  0  0  0  0
 11 12  1  0  0  0  0
 11 25  1  0  0  0  0
 11 26  1  0  0  0  0
 12 27  1  0  0  0  0
 12 28  1  0  0  0  0
 13 14  2  0  0  0  0
 13 30  1  0  0  0  0
 14 29  1  0  0  0  0
M  CHG  1  13   1
M  END
> <s_m_source_file>
AV-unprocessed.smi

> <i_m_source_file_index>
2820

> <i_lp_mmshare_version>
43012

> <i_f3d_flags>
0

> <s_epik_input>
W0NIM11bTkhdYzFbY0hdW2NIXWMobltjSF0xKU4yW0NIMl1bQ0gyXU9bQ0gyXVtDSDJdMg==

> <s_epik_cmdline>
J2VwaWtfcHl0aG9uJywgJy1waCcsICc3LjAnLCAnLXRuJywgJzgnLCAnLW1hJywgJzIwMCcsICctbWV0YWxfYmluZGluZycsICctaW1hZScsICc8aW5maWxlLm1hZT4nLCAnLW9tYWUnLCAnPG91dGZpbGUubWFlPic=

> <r_lp_tautomer_probability>
0.999846

> <r_epik_Ionization_Penalty>
1.60145

> <r_epik_Ionization_Penalty_Charging>
1.60145

> <r_epik_Ionization_Penalty_Neutral>
8.44735e-08

> <r_epik_State_Penalty>
1.69965

> <r_epik_Charging_Adjusted_Penalty>
3.3011

> <i_epik_Tot_Q>
1

> <i_epik_Tot_abs_Q>
1

> <r_epik_Metal_State_Penalty>
5.75781

> <b_epik_Metal_Only>
0

> <s_lp_Force_Field>
OPLS_2005

> <r_lp_Energy>
26.3697

> <b_lp_Chiralities_Consistent>
1

> <s_lp_Variant>
AV-unprocessed.smi:2820-2

> <Gold.Version>
5.8.1

> <Gold.Id.Protein>
6NUR|6NUR_protein|mol2

> <Gold.PLP.Fitness>
39.0245

> <Gold.PLP.PLP>
-30.3160

> <Gold.PLP.part.hbond>
-2.0000

> <Gold.PLP.part.metal>
0.0000

> <Gold.PLP.part.buried>
-0.8856

> <Gold.PLP.part.nonpolar>
-28.7606

> <Gold.PLP.part.repulsive>
0.5329

> <Gold.PLP.ligand.clash>
0.0000

> <Gold.PLP.ligand.torsion>
0.1800

> <Gold.PLP.Chemscore.Hbond>
2.9913

> <Gold.PLP.Chemscore.CHOScore>
0.0000

> <Gold.PLP.Chemscore.Metal>
0.0000

> <Gold.Chemscore.Hbonds>
donor molecule, donor type, donor heavy atom, donor atom, acceptor molecule, acceptor atom, score
      L1  H     2    18       P1  7957  0.98
      L1  H    13    30       P1  8028  2.00

> <Gold.PLP.Chemscore.Internal.Correction>
0.0946

> <Gold.Rescore>
     Score         DG    S(hbond)    S(metal)    S(lipo)     H(rot)  DE(clash)    DE(int)     intcor
     18.52     -18.90       1.98        0.00      79.96       1.00       0.24       0.13       ----

> <Gold.Chemscore.Fitness>
18.5227

> <Gold.Chemscore.DG>
-18.8983

> <Gold.Chemscore.ZeroCoef>
-5.4800

> <Gold.Chemscore.Hbond>
1.9828

> <Gold.Chemscore.Metal>
0.0000

> <Gold.Chemscore.Lipo>
79.9625

> <Gold.Chemscore.Internal_Hbond>
0.0000

> <Gold.Chemscore.DEClash>
0.2438

> <Gold.Chemscore.DEInternal>
0.1319

> <Gold.Chemscore.Rot>
1.0000

> <Gold.Chemscore.Internal.Correction>
   9.000000E+99

> <Gold.Chemscore.Hbonds>
donor molecule, donor type, donor heavy atom, donor atom, acceptor molecule, acceptor atom, score
      L1  H     2    18       P1  7957  0.90
      L1  H    13    30       P1  8028  0.99

> <Gold.Chemscore.Hbond.Weighted>
-6.6227

> <Gold.Chemscore.Metal.Weighted>
-0.0000

> <Gold.Chemscore.Lipo.Weighted>
-9.3556

> <Gold.Chemscore.Internal_Hbond.Weighted>
0.0000

> <Gold.Chemscore.DEClash.Weighted>
0.2438

> <Gold.Chemscore.DEInternal.Weighted>
0.1319

> <Gold.Chemscore.Rot.Weighted>
2.5600

> <Gold.Chemscore.Internal.Correction.Weighted>
   9.000000E+99

> <Gold.Protein.RotatedTorsions>
[ 6907 6896 6895 6894 ] final  139.40 input  -60.11 | X-H torsion
[ 7974 7965 7964 7962 ] final  -23.72 input  175.53 | X-H torsion
[ 8008 7997 7996 7995 ] final   30.42 input   59.86 | X-H torsion
[ 10167 10162 10161 10158 ] final -151.58 input  -65.29 | X-H torsion
[ 10718 10713 10712 10709 ] final  -77.34 input   66.30 | X-H torsion
[ 10763 10752 10751 10750 ] final   67.82 input  -60.55 | X-H torsion
[ 11005 11000 10999 10996 ] final  -19.66 input  -57.11 | X-H torsion

> <Gold.Protein.ActiveResidues>
 VAL166  LYS551  ARG553  GLY616  TRP617  ASP618  TYR619  PRO620  LYS621  CYS622 
 ASP623  PHE694  ASN695  SER759  ASP760  ASP761  ALA762  ILE779  LEU786  VAL792 
 PHE793  MET794  SER795  GLU796  ALA797  LYS798  CYS799  TRP800  GLU811  SER814 

> <Gold.Protein.RotatedAtoms>
  152.2554  133.5251  159.5349 H   0  0  0  0  0  0  0  0  0  0  0  0  # atno 6907 bound_to 6896
  150.7107  134.0903  159.3938 H   0  0  0  0  0  0  0  0  0  0  0  0  # atno 6908 bound_to 6896
  151.8822  135.0449  160.0540 H   0  0  0  0  0  0  0  0  0  0  0  0  # atno 6909 bound_to 6896
  146.1599  140.4654  142.8576 H   0  0  0  0  0  0  0  0  0  0  0  0  # atno 7974 bound_to 7965
  155.0902  140.3219  155.4576 H   0  0  0  0  0  0  0  0  0  0  0  0  # atno 8008 bound_to 7997
  156.2745  140.2079  156.5975 H   0  0  0  0  0  0  0  0  0  0  0  0  # atno 8009 bound_to 7997
  154.6910  140.0516  157.0350 H   0  0  0  0  0  0  0  0  0  0  0  0  # atno 8010 bound_to 7997
  139.7255  143.8890  152.2518 H   0  0  0  0  0  0  0  0  0  0  0  0  # atno 10167 bound_to 10162
  156.0148  130.4489  150.3330 H   0  0  0  0  0  0  0  0  0  0  0  0  # atno 10718 bound_to 10713
  153.0205  135.5270  154.7038 H   0  0  0  0  0  0  0  0  0  0  0  0  # atno 10763 bound_to 10752
  154.6140  135.2881  155.0403 H   0  0  0  0  0  0  0  0  0  0  0  0  # atno 10764 bound_to 10752
  154.1414  135.6577  153.4995 H   0  0  0  0  0  0  0  0  0  0  0  0  # atno 10765 bound_to 10752
  140.8388  133.7942  155.9838 H   0  0  0  0  0  0  0  0  0  0  0  0  # atno 11005 bound_to 11000
  144.8013  140.6217  143.6476 LP  0  0  0  0  0  0  0  0  0  0  0  0  # atno 17320 bound_to 7965
  145.4615  139.1512  143.3864 LP  0  0  0  0  0  0  0  0  0  0  0  0  # atno 17321 bound_to 7965
  139.8798  144.7024  150.8891 LP  0  0  0  0  0  0  0  0  0  0  0  0  # atno 17342 bound_to 10162
  140.7762  143.3670  151.1720 LP  0  0  0  0  0  0  0  0  0  0  0  0  # atno 17343 bound_to 10162
  157.1428  131.0301  151.2920 LP  0  0  0  0  0  0  0  0  0  0  0  0  # atno 17370 bound_to 10713
  157.4458  130.7570  149.7108 LP  0  0  0  0  0  0  0  0  0  0  0  0  # atno 17371 bound_to 10713
  140.8918  134.2486  157.5090 LP  0  0  0  0  0  0  0  0  0  0  0  0  # atno 17394 bound_to 11000
  139.8703  134.9665  156.4564 LP  0  0  0  0  0  0  0  0  0  0  0  0  # atno 17395 bound_to 11000

$$$$
