AV-unprocessed.smi:1807|AV-procd|sdf|7301|dock5
  -GOLD-   22720 8553D 1   1.00000     0.00000
 Structure written by MMmdl.
 44 45  0  0  0  0  0  0  0  0  1 V2000
  152.1995  144.9288  157.6989 C   0  0  0  0  0  0  0  0  0  0  0  0
  151.9291  144.2262  159.0412 C   0  0  2  0  0  0  0  0  0  0  0  0
  152.4626  145.0731  160.2145 C   0  0  0  0  0  0  0  0  0  0  0  0
  152.1922  144.4058  161.5715 C   0  0  0  0  0  0  0  0  0  0  0  0
  152.7888  142.9928  161.6201 C   0  0  0  0  0  0  0  0  0  0  0  0
  152.2589  142.1345  160.4635 C   0  0  0  0  0  0  0  0  0  0  0  0
  152.5187  142.7947  159.0926 C   0  0  1  0  0  0  0  0  0  0  0  0
  151.9369  141.9640  158.0418 N   0  0  0  0  0  0  0  0  0  0  0  0
  150.6317  141.8897  157.7423 C   0  0  0  0  0  0  0  0  0  0  0  0
  149.7530  142.4683  158.3829 O   0  0  0  0  0  0  0  0  0  0  0  0
  150.2696  141.0312  156.5248 C   0  0  0  0  0  0  0  0  0  0  0  0
  149.8563  141.8388  155.3817 N   0  0  0  0  0  0  0  0  0  0  0  0
  149.1254  141.2468  154.3423 C   0  0  0  0  0  0  0  0  0  0  0  0
  148.7111  141.9781  153.1961 C   0  0  0  0  0  0  0  0  0  0  0  0
  148.0793  141.0350  152.4356 C   0  0  0  0  0  0  0  0  0  0  0  0
  148.1371  139.8383  153.1232 N   0  0  0  0  0  0  0  0  0  0  0  0
  147.6281  138.5387  152.7214 C   0  0  0  0  0  0  0  0  0  0  0  0
  147.1952  138.5302  151.2522 C   0  0  0  0  0  0  0  0  0  0  0  0
  145.8850  138.4676  150.9981 N   0  0  0  0  0  0  0  0  0  0  0  0
  148.0351  138.5685  150.3559 O   0  0  0  0  0  0  0  0  0  0  0  0
  148.7668  139.9719  154.3105 N   0  0  0  0  0  0  0  0  0  0  0  0
  153.2690  145.0083  157.5030 H   0  0  0  0  0  0  0  0  0  0  0  0
  151.7855  145.9375  157.6948 H   0  0  0  0  0  0  0  0  0  0  0  0
  151.7475  144.3923  156.8644 H   0  0  0  0  0  0  0  0  0  0  0  0
  150.8468  144.1498  159.1573 H   0  0  0  0  0  0  0  0  0  0  0  0
  153.5356  145.2309  160.0963 H   0  0  0  0  0  0  0  0  0  0  0  0
  152.0036  146.0623  160.1998 H   0  0  0  0  0  0  0  0  0  0  0  0
  152.6096  145.0133  162.3749 H   0  0  0  0  0  0  0  0  0  0  0  0
  151.1169  144.3554  161.7472 H   0  0  0  0  0  0  0  0  0  0  0  0
  153.8768  143.0503  161.5657 H   0  0  0  0  0  0  0  0  0  0  0  0
  152.5497  142.5198  162.5730 H   0  0  0  0  0  0  0  0  0  0  0  0
  152.7193  141.1466  160.5025 H   0  0  0  0  0  0  0  0  0  0  0  0
  151.1876  141.9783  160.5959 H   0  0  0  0  0  0  0  0  0  0  0  0
  153.5973  142.8669  158.9381 H   0  0  0  0  0  0  0  0  0  0  0  0
  152.5826  141.4466  157.4631 H   0  0  0  0  0  0  0  0  0  0  0  0
  151.1029  140.3856  156.2420 H   0  0  0  0  0  0  0  0  0  0  0  0
  149.4447  140.3734  156.7986 H   0  0  0  0  0  0  0  0  0  0  0  0
  150.3329  142.7126  155.2126 H   0  0  0  0  0  0  0  0  0  0  0  0
  148.8632  143.0214  152.9619 H   0  0  0  0  0  0  0  0  0  0  0  0
  147.6050  141.1127  151.4685 H   0  0  0  0  0  0  0  0  0  0  0  0
  148.4013  137.7873  152.8893 H   0  0  0  0  0  0  0  0  0  0  0  0
  146.7814  138.2756  153.3565 H   0  0  0  0  0  0  0  0  0  0  0  0
  145.5549  138.4537  150.0443 H   0  0  0  0  0  0  0  0  0  0  0  0
  145.2285  138.4283  151.7643 H   0  0  0  0  0  0  0  0  0  0  0  0
  1  2  1  0  0  0  0
  1 22  1  0  0  0  0
  1 23  1  0  0  0  0
  1 24  1  0  0  0  0
  2  7  1  0  0  0  0
  2  3  1  0  0  0  0
  2 25  1  0  0  0  0
  3  4  1  0  0  0  0
  3 26  1  0  0  0  0
  3 27  1  0  0  0  0
  4  5  1  0  0  0  0
  4 28  1  0  0  0  0
  4 29  1  0  0  0  0
  5  6  1  0  0  0  0
  5 30  1  0  0  0  0
  5 31  1  0  0  0  0
  6  7  1  0  0  0  0
  6 32  1  0  0  0  0
  6 33  1  0  0  0  0
  7  8  1  0  0  0  0
  7 34  1  0  0  0  0
  8  9  1  0  0  0  0
  8 35  1  0  0  0  0
  9 10  2  0  0  0  0
  9 11  1  0  0  0  0
 11 12  1  0  0  0  0
 11 36  1  0  0  0  0
 11 37  1  0  0  0  0
 12 13  1  0  0  0  0
 12 38  1  0  0  0  0
 13 21  2  0  0  0  0
 13 14  1  0  0  0  0
 14 15  2  0  0  0  0
 14 39  1  0  0  0  0
 15 16  1  0  0  0  0
 15 40  1  0  0  0  0
 16 17  1  0  0  0  0
 16 21  1  0  0  0  0
 17 18  1  0  0  0  0
 17 41  1  0  0  0  0
 17 42  1  0  0  0  0
 18 19  1  0  0  0  0
 18 20  2  0  0  0  0
 19 43  1  0  0  0  0
 19 44  1  0  0  0  0
M  END
> <s_m_source_file>
AV-unprocessed.smi

> <i_m_source_file_index>
1807

> <i_lp_mmshare_version>
43012

> <i_f3d_flags>
0

> <s_epik_input>
W0NIM11bQ0BASF0xW0NIMl1bQ0gyXVtDSDJdW0NIMl1bQ0BIXTFbTkhdQyg9TylbQ0gyXVtOSF1jMltjSF1bY0hdbihuMilbQ0gyXUMoPU8pW05IMl0=

> <s_epik_cmdline>
J2VwaWtfcHl0aG9uJywgJy1waCcsICc3LjAnLCAnLXRuJywgJzgnLCAnLW1hJywgJzIwMCcsICctbWV0YWxfYmluZGluZycsICctaW1hZScsICc8aW5maWxlLm1hZT4nLCAnLW9tYWUnLCAnPG91dGZpbGUubWFlPic=

> <r_lp_tautomer_probability>
1

> <r_epik_Ionization_Penalty>
0.000167642

> <r_epik_Ionization_Penalty_Charging>
0

> <r_epik_Ionization_Penalty_Neutral>
0.000167642

> <r_epik_State_Penalty>
-0

> <r_epik_Charging_Adjusted_Penalty>
0

> <i_epik_Tot_Q>
0

> <i_epik_Tot_abs_Q>
0

> <r_epik_Metal_State_Penalty>
-0

> <b_epik_Metal_Only>
0

> <s_lp_Force_Field>
OPLS_2005

> <r_lp_Energy>
5.76299

> <b_lp_Chiralities_Consistent>
1

> <s_lp_Variant>
AV-unprocessed.smi:1807-1

> <Gold.Version>
5.8.1

> <Gold.Id.Protein>
6NUR|6NUR_protein|mol2

> <Gold.PLP.Fitness>
52.8209

> <Gold.PLP.PLP>
-43.0094

> <Gold.PLP.part.hbond>
-5.0000

> <Gold.PLP.part.metal>
0.0000

> <Gold.PLP.part.buried>
-5.6760

> <Gold.PLP.part.nonpolar>
-34.1588

> <Gold.PLP.part.repulsive>
1.5081

> <Gold.PLP.ligand.clash>
0.0000

> <Gold.PLP.ligand.torsion>
0.6752

> <Gold.PLP.Chemscore.Hbond>
2.8228

> <Gold.PLP.Chemscore.CHOScore>
0.8829

> <Gold.PLP.Chemscore.Metal>
0.0000

> <Gold.Chemscore.Hbonds>
donor molecule, donor type, donor heavy atom, donor atom, acceptor molecule, acceptor atom, score
      L1  H    19    43       P1 10171  0.37

> <Gold.PLP.Chemscore.Internal.Correction>
0.0448

> <Gold.Rescore>
     Score         DG    S(hbond)    S(metal)    S(lipo)     H(rot)  DE(clash)    DE(int)     intcor
     16.36     -21.48       2.86        0.00     112.80       2.64       3.25       1.86       ----

> <Gold.Chemscore.Fitness>
16.3606

> <Gold.Chemscore.DG>
-21.4752

> <Gold.Chemscore.ZeroCoef>
-5.4800

> <Gold.Chemscore.Hbond>
2.8586

> <Gold.Chemscore.Metal>
0.0000

> <Gold.Chemscore.Lipo>
112.8021

> <Gold.Chemscore.Internal_Hbond>
0.0000

> <Gold.Chemscore.DEClash>
3.2526

> <Gold.Chemscore.DEInternal>
1.8620

> <Gold.Chemscore.Rot>
2.6369

> <Gold.Chemscore.Internal.Correction>
   9.000000E+99

> <Gold.Chemscore.Hbonds>
donor molecule, donor type, donor heavy atom, donor atom, acceptor molecule, acceptor atom, score
      L1  H    19    43       P1 10171  0.36

> <Gold.Chemscore.Hbond.Weighted>
-9.5478

> <Gold.Chemscore.Metal.Weighted>
-0.0000

> <Gold.Chemscore.Lipo.Weighted>
-13.1978

> <Gold.Chemscore.Internal_Hbond.Weighted>
0.0000

> <Gold.Chemscore.DEClash.Weighted>
3.2526

> <Gold.Chemscore.DEInternal.Weighted>
1.8620

> <Gold.Chemscore.Rot.Weighted>
6.7504

> <Gold.Chemscore.Internal.Correction.Weighted>
   9.000000E+99

> <Gold.Protein.RotatedTorsions>
[ 6907 6896 6895 6894 ] final -139.98 input  -60.11 | X-H torsion
[ 7974 7965 7964 7962 ] final  -53.07 input  175.53 | X-H torsion
[ 8008 7997 7996 7995 ] final  -65.63 input   59.86 | X-H torsion
[ 10167 10162 10161 10158 ] final -137.45 input  -65.29 | X-H torsion
[ 10718 10713 10712 10709 ] final   -9.14 input   66.30 | X-H torsion
[ 10763 10752 10751 10750 ] final -175.57 input  -60.55 | X-H torsion
[ 11005 11000 10999 10996 ] final -149.64 input  -57.11 | X-H torsion

> <Gold.Protein.ActiveResidues>
 VAL166  LYS551  ARG553  GLY616  TRP617  ASP618  TYR619  PRO620  LYS621  CYS622 
 ASP623  PHE694  ASN695  SER759  ASP760  ASP761  ALA762  ILE779  LEU786  VAL792 
 PHE793  MET794  SER795  GLU796  ALA797  LYS798  CYS799  TRP800  GLU811  SER814 

> <Gold.Protein.RotatedAtoms>
  151.0548  133.5593  159.2638 H   0  0  0  0  0  0  0  0  0  0  0  0  # atno 6907 bound_to 6896
  151.2591  135.0647  159.9101 H   0  0  0  0  0  0  0  0  0  0  0  0  # atno 6908 bound_to 6896
  152.5388  134.0296  159.8073 H   0  0  0  0  0  0  0  0  0  0  0  0  # atno 6909 bound_to 6896
  145.9009  140.7995  142.9744 H   0  0  0  0  0  0  0  0  0  0  0  0  # atno 7974 bound_to 7965
  154.4683  140.0929  156.7079 H   0  0  0  0  0  0  0  0  0  0  0  0  # atno 8008 bound_to 7997
  155.4794  140.3467  155.4319 H   0  0  0  0  0  0  0  0  0  0  0  0  # atno 8009 bound_to 7997
  156.0996  140.1418  156.9474 H   0  0  0  0  0  0  0  0  0  0  0  0  # atno 8010 bound_to 7997
  139.8576  143.7118  152.2653 H   0  0  0  0  0  0  0  0  0  0  0  0  # atno 10167 bound_to 10162
  156.6924  130.5069  149.5940 H   0  0  0  0  0  0  0  0  0  0  0  0  # atno 10718 bound_to 10713
  154.5828  135.2838  155.0715 H   0  0  0  0  0  0  0  0  0  0  0  0  # atno 10763 bound_to 10752
  154.2045  135.6419  153.5100 H   0  0  0  0  0  0  0  0  0  0  0  0  # atno 10764 bound_to 10752
  153.0094  135.5477  154.6488 H   0  0  0  0  0  0  0  0  0  0  0  0  # atno 10765 bound_to 10752
  140.7486  134.3433  157.5131 H   0  0  0  0  0  0  0  0  0  0  0  0  # atno 11005 bound_to 11000
  144.6736  140.1675  143.7417 LP  0  0  0  0  0  0  0  0  0  0  0  0  # atno 17320 bound_to 7965
  145.8792  139.2314  143.1615 LP  0  0  0  0  0  0  0  0  0  0  0  0  # atno 17321 bound_to 7965
  139.7405  144.7560  151.0660 LP  0  0  0  0  0  0  0  0  0  0  0  0  # atno 17342 bound_to 10162
  140.7779  143.4978  150.9810 LP  0  0  0  0  0  0  0  0  0  0  0  0  # atno 17343 bound_to 10162
  156.1788  130.6485  151.0926 LP  0  0  0  0  0  0  0  0  0  0  0  0  # atno 17370 bound_to 10713
  157.7004  131.0778  150.6839 LP  0  0  0  0  0  0  0  0  0  0  0  0  # atno 17371 bound_to 10713
  139.8792  134.9127  156.3067 LP  0  0  0  0  0  0  0  0  0  0  0  0  # atno 17394 bound_to 11000
  140.9772  133.7290  156.0619 LP  0  0  0  0  0  0  0  0  0  0  0  0  # atno 17395 bound_to 11000

$$$$
