#       Name:                AV-unprocessed.smi:322
#       Creating user name   scv26
#       Creation time:       Thu Mar 26 22:24:55 2020


#       File generated by GOLD software.
#

@<TRIPOS>MOLECULE
AV-unprocessed.smi:322
    50    52     1
SMALL
NO_CHARGES


@<TRIPOS>ATOM
      1 ****        -1.2210   3.2174  -3.4818 O.3            1 S1                 0.0000
      2 ****        -1.0242   2.1702  -2.5550 C.3            1 S1                 0.0000
      3 ****        -1.1017   2.6203  -1.1308 C.2            1 S1                 0.0000
      4 ****        -1.5653   3.8236  -0.6864 N.pl3          1 S1                 1.0000
      5 ****        -1.4910   3.8761   0.7056 C.ar           1 S1                 0.0000
      6 ****        -1.8428   4.8830   1.5992 C.ar           1 S1                 0.0000
      7 ****        -1.6361   4.6145   2.9682 C.ar           1 S1                 0.0000
      8 ****        -1.0989   3.3851   3.4022 C.ar           1 S1                 0.0000
      9 ****        -0.7469   2.3716   2.4865 C.ar           1 S1                 0.0000
     10 ****        -0.9555   2.6443   1.1343 C.ar           1 S1                 0.0000
     11 ****        -0.7312   1.9021  -0.0320 N.pl3          1 S1                 0.0000
     12 ****        -0.1742   0.5435   0.0659 C.3            1 S1                 0.0000
     13 ****         1.3619   0.5126  -0.0739 C.3            1 S1                 0.0000
     14 ****         1.9984   1.3127   0.9017 O.3            1 S1                 0.0000
     15 ****         1.9498  -0.9064  -0.0279 C.3            1 S1                 0.0000
     16 ****         1.4306  -1.6112   1.0922 O.3            1 S1                 0.0000
     17 ****         1.8398  -2.9698   1.1564 C.3            1 S1                 0.0000
     18 ****         1.1410  -3.8495   0.1342 C.ar           1 S1                 0.0000
     19 ****        -0.2494  -3.7262  -0.0725 C.ar           1 S1                 0.0000
     20 ****        -0.9003  -4.5446  -1.0159 C.ar           1 S1                 0.0000
     21 ****        -0.1644  -5.4943  -1.7513 C.ar           1 S1                 0.0000
     22 ****        -0.9603  -6.4959  -2.9088 Cl             1 S1                 0.0000
     23 ****         1.2219  -5.6268  -1.5401 C.ar           1 S1                 0.0000
     24 ****         1.8732  -4.8080  -0.5971 C.ar           1 S1                 0.0000
     25 ****        -1.1574   2.8620  -4.3555 H              1 S1                 0.0000
     26 ****        -1.7758   1.3994  -2.7254 H              1 S1                 0.0000
     27 ****        -0.0490   1.7189  -2.7383 H              1 S1                 0.0000
     28 ****        -2.2536   5.8258   1.2686 H              1 S1                 0.0000
     29 ****        -1.8937   5.3667   3.6998 H              1 S1                 0.0000
     30 ****        -0.9529   3.2154   4.4592 H              1 S1                 0.0000
     31 ****        -0.3317   1.4358   2.8310 H              1 S1                 0.0000
     32 ****        -0.5007   0.0935   1.0035 H              1 S1                 0.0000
     33 ****        -0.6288  -0.0527  -0.7263 H              1 S1                 0.0000
     34 ****         1.6297   0.9489  -1.0368 H              1 S1                 0.0000
     35 ****         1.6946   2.2019   0.8040 H              1 S1                 0.0000
     36 ****         1.6753  -1.4263  -0.9466 H              1 S1                 0.0000
     37 ****         3.0400  -0.8757   0.0070 H              1 S1                 0.0000
     38 ****         2.9242  -3.0450   1.0596 H              1 S1                 0.0000
     39 ****         1.5902  -3.3487   2.1475 H              1 S1                 0.0000
     40 ****        -0.8192  -3.0005   0.4895 H              1 S1                 0.0000
     41 ****        -1.9640  -4.4428  -1.1739 H              1 S1                 0.0000
     42 ****         1.7874  -6.3565  -2.1005 H              1 S1                 0.0000
     43 ****         2.9364  -4.9168  -0.4406 H              1 S1                 0.0000
     44 ****        -1.9064   4.5531  -1.2992 H              1 S1                 0.0000
     45 ****        -0.5203   3.9189  -3.3515 LP             1 S1                 0.0000
     46 ****        -2.1259   3.6210  -3.3471 LP             1 S1                 0.0000
     47 ****         2.9894   1.2785   0.7721 LP             1 S1                 0.0000
     48 ****         1.7700   0.9765   1.8154 LP             1 S1                 0.0000
     49 ****         0.4321  -1.5848   1.0457 LP             1 S1                 0.0000
     50 ****         1.7379  -1.1500   1.9246 LP             1 S1                 0.0000
@<TRIPOS>BOND
    1    1    2 1     
    2    1   25 1     
    3    2    3 1     
    4    2   26 1     
    5    2   27 1     
    6    3   11 1     
    7    3    4 2     
    8    4    5 1     
    9    4   44 1     
   10    5   10 ar    
   11    5    6 ar    
   12    6    7 ar    
   13    6   28 1     
   14    7    8 ar    
   15    7   29 1     
   16    8    9 ar    
   17    8   30 1     
   18    9   10 ar    
   19    9   31 1     
   20   10   11 1     
   21   11   12 1     
   22   12   13 1     
   23   12   32 1     
   24   12   33 1     
   25   13   14 1     
   26   13   15 1     
   27   13   34 1     
   28   14   35 1     
   29   15   16 1     
   30   15   36 1     
   31   15   37 1     
   32   16   17 1     
   33   17   18 1     
   34   17   38 1     
   35   17   39 1     
   36   18   24 ar    
   37   18   19 ar    
   38   19   20 ar    
   39   19   40 1     
   40   20   21 ar    
   41   20   41 1     
   42   21   22 1     
   43   21   23 ar    
   44   23   24 ar    
   45   23   42 1     
   46   24   43 1     
   47    1   45 1     
   48    1   46 1     
   49   14   47 1     
   50   14   48 1     
   51   16   49 1     
   52   16   50 1     
@<TRIPOS>SUBSTRUCTURE
      1 S1             1
@<TRIPOS>SET
LONE_PAIRS      STATIC     ATOMS    <user>   **** ""
6 45 46 47 48 49 50
DONOR_HYDROGENS      STATIC     ATOMS    <user>   **** ""
3 25 44 35
ATOM$BLUE        STATIC     ATOMS    COLORGROUP SYSTEM
6 45 46 47 48 49 50
ATOM$RED        STATIC     ATOMS    COLORGROUP SYSTEM
3 25 44 35
