#       Name:                AV-unprocessed.smi:1188
#       Creating user name   scv26
#       Creation time:       Fri Mar 27 03:57:13 2020


#       File generated by GOLD software.
#

@<TRIPOS>MOLECULE
AV-unprocessed.smi:1188
    54    55     1
SMALL
NO_CHARGES


@<TRIPOS>ATOM
      1 ****        -1.4091  -7.1724  -1.7486 C.1            1 S1                 0.0000
      2 ****        -2.2616  -6.4516  -2.2434 C.1            1 S1                 0.0000
      3 ****        -3.2859  -5.5726  -2.8266 C.3            1 S1                 0.0000
      4 ****        -2.8446  -4.1867  -2.8697 N.am           1 S1                 0.0000
      5 ****        -3.6044  -3.1520  -3.2687 C.2            1 S1                 0.0000
      6 ****        -4.7673  -3.3120  -3.6419 O.2            1 S1                 0.0000
      7 ****        -2.9284  -1.8526  -3.2132 C.2            1 S1                 0.0000
      8 ****        -3.6649  -0.6566  -3.5735 C.2            1 S1                 0.0000
      9 ****        -3.0801   0.5560  -3.5211 C.2            1 S1                 0.0000
     10 ****        -1.6844   0.7204  -3.1058 C.2            1 S1                 0.0000
     11 ****        -1.1453   1.8262  -3.0494 O.2            1 S1                 0.0000
     12 ****        -1.0198  -0.4316  -2.7869 N.am           1 S1                 0.0000
     13 ****         0.3893  -0.3914  -2.3608 C.3            1 S1                 0.0000
     14 ****         0.5609  -0.0523  -0.8733 C.2            1 S1                 0.0000
     15 ****        -0.3301  -0.3073  -0.0620 O.2            1 S1                 0.0000
     16 ****         1.7298   0.5087  -0.5289 N.am           1 S1                 0.0000
     17 ****         2.1028   0.9079   0.8230 C.3            1 S1                 0.0000
     18 ****         1.4570   2.2486   1.2166 C.3            1 S1                 0.0000
     19 ****         1.9179   2.7468   2.5765 C.2            1 S1                 0.0000
     20 ****         2.6289   3.8828   2.7165 C.2            1 S1                 0.0000
     21 ****         3.1285   4.4188   4.0469 C.3            1 S1                 0.0000
     22 ****         3.0431   3.3710   5.1696 C.3            1 S1                 0.0000
     23 ****         1.7104   2.6136   5.1189 C.3            1 S1                 0.0000
     24 ****         1.5298   1.8866   3.7742 C.3            1 S1                 0.0000
     25 ****        -1.6398  -1.6963  -2.8364 C.2            1 S1                 0.0000
     26 ****        -0.6664  -7.8028  -1.3133 H              1 S1                 0.0000
     27 ****        -3.5100  -5.9267  -3.8336 H              1 S1                 0.0000
     28 ****        -4.1931  -5.6635  -2.2276 H              1 S1                 0.0000
     29 ****        -1.8989  -3.9969  -2.5718 H              1 S1                 0.0000
     30 ****        -4.6970  -0.7233  -3.8865 H              1 S1                 0.0000
     31 ****        -3.6530   1.4306  -3.7923 H              1 S1                 0.0000
     32 ****         0.8751  -1.3500  -2.5478 H              1 S1                 0.0000
     33 ****         0.9432   0.3293  -2.9658 H              1 S1                 0.0000
     34 ****         2.4085   0.6764  -1.2574 H              1 S1                 0.0000
     35 ****         1.8306   0.1208   1.5279 H              1 S1                 0.0000
     36 ****         3.1891   0.9962   0.8586 H              1 S1                 0.0000
     37 ****         1.6899   2.9995   0.4599 H              1 S1                 0.0000
     38 ****         0.3702   2.1573   1.2325 H              1 S1                 0.0000
     39 ****         2.8686   4.4779   1.8473 H              1 S1                 0.0000
     40 ****         4.1582   4.7589   3.9340 H              1 S1                 0.0000
     41 ****         2.5309   5.2943   4.3026 H              1 S1                 0.0000
     42 ****         3.8634   2.6593   5.0668 H              1 S1                 0.0000
     43 ****         3.1715   3.8519   6.1397 H              1 S1                 0.0000
     44 ****         1.6488   1.8982   5.9396 H              1 S1                 0.0000
     45 ****         0.8918   3.3198   5.2636 H              1 S1                 0.0000
     46 ****         0.4931   1.5635   3.6716 H              1 S1                 0.0000
     47 ****         2.1442   0.9859   3.7604 H              1 S1                 0.0000
     48 ****        -0.9926  -2.5092  -2.5396 H              1 S1                 0.0000
     49 ****        -5.1672  -4.2284  -3.6529 LP             1 S1                 0.0000
     50 ****        -5.3114  -2.5254  -3.9339 LP             1 S1                 0.0000
     51 ****        -1.6622   2.6474  -3.2912 LP             1 S1                 0.0000
     52 ****        -0.1906   1.9030  -2.7618 LP             1 S1                 0.0000
     53 ****        -1.1774  -0.7402  -0.3696 LP             1 S1                 0.0000
     54 ****        -0.2061  -0.0814   0.9042 LP             1 S1                 0.0000
@<TRIPOS>BOND
    1    1    2 3     
    2    1   26 1     
    3    2    3 1     
    4    3    4 1     
    5    3   27 1     
    6    3   28 1     
    7    4    5 am    
    8    4   29 1     
    9    5    6 2     
   10    5    7 1     
   11    7   25 2     
   12    7    8 1     
   13    8    9 2     
   14    8   30 1     
   15    9   10 1     
   16    9   31 1     
   17   10   11 2     
   18   10   12 am    
   19   12   13 1     
   20   12   25 1     
   21   13   14 1     
   22   13   32 1     
   23   13   33 1     
   24   14   15 2     
   25   14   16 am    
   26   16   17 1     
   27   16   34 1     
   28   17   18 1     
   29   17   35 1     
   30   17   36 1     
   31   18   19 1     
   32   18   37 1     
   33   18   38 1     
   34   19   24 1     
   35   19   20 2     
   36   20   21 1     
   37   20   39 1     
   38   21   22 1     
   39   21   40 1     
   40   21   41 1     
   41   22   23 1     
   42   22   42 1     
   43   22   43 1     
   44   23   24 1     
   45   23   44 1     
   46   23   45 1     
   47   24   46 1     
   48   24   47 1     
   49   25   48 1     
   50    6   49 1     
   51    6   50 1     
   52   11   51 1     
   53   11   52 1     
   54   15   53 1     
   55   15   54 1     
@<TRIPOS>SUBSTRUCTURE
      1 S1             1
@<TRIPOS>SET
LONE_PAIRS      STATIC     ATOMS    <user>   **** ""
6 49 50 51 52 53 54
DONOR_HYDROGENS      STATIC     ATOMS    <user>   **** ""
2 29 34
ATOM$BLUE        STATIC     ATOMS    COLORGROUP SYSTEM
6 49 50 51 52 53 54
ATOM$RED        STATIC     ATOMS    COLORGROUP SYSTEM
2 29 34
