AV-unprocessed.smi:3212|AV-procd|sdf|12278|dock5
  -GOLD-   2272018113D 1   1.00000     0.00000
 Structure written by MMmdl.
 40 40  0  0  0  0  0  0  0  0  2 V2000
  146.6318  138.2140  150.5108 C   0  0  0  0  0  0  0  0  0  0  0  0
  146.4496  138.3948  152.0254 C   0  0  2  0  0  0  0  0  0  0  0  0
  147.7678  138.6184  152.6619 N   0  3  0  0  0  0  0  0  0  0  0  0
  147.7228  139.1078  154.0578 C   0  0  0  0  0  0  0  0  0  0  0  0
  148.8562  140.1062  154.3433 C   0  0  0  0  0  0  0  0  0  0  0  0
  150.1171  139.4431  154.6247 N   0  0  0  0  0  0  0  0  0  0  0  0
  150.4116  138.0976  154.5533 C   0  0  0  0  0  0  0  0  0  0  0  0
  151.7202  137.9484  154.9134 C   0  0  0  0  0  0  0  0  0  0  0  0
  152.1488  139.2766  155.1898 C   0  0  0  0  0  0  0  0  0  0  0  0
  151.1866  140.1689  155.0171 N   0  0  0  0  0  0  0  0  0  0  0  0
  145.7236  137.1780  152.6162 C   0  0  0  0  0  0  0  0  0  0  0  0
  144.6433  137.3222  153.1892 O   0  0  0  0  0  0  0  0  0  0  0  0
  146.3447  135.9936  152.4729 N   0  0  0  0  0  0  0  0  0  0  0  0
  145.9029  134.6699  152.9281 C   0  0  0  0  0  0  0  0  0  0  0  0
  146.9428  133.6545  152.4224 C   0  0  0  0  0  0  0  0  0  0  0  0
  144.5254  134.3177  152.3281 C   0  0  0  0  0  0  0  0  0  0  0  0
  145.8545  134.6127  154.4693 C   0  0  0  0  0  0  0  0  0  0  0  0
  145.6738  138.0749  150.0078 H   0  0  0  0  0  0  0  0  0  0  0  0
  147.2558  137.3489  150.2826 H   0  0  0  0  0  0  0  0  0  0  0  0
  147.1067  139.0901  150.0679 H   0  0  0  0  0  0  0  0  0  0  0  0
  145.8391  139.2849  152.1876 H   0  0  0  0  0  0  0  0  0  0  0  0
  148.2920  137.7555  152.6300 H   0  0  0  0  0  0  0  0  0  0  0  0
  146.7576  139.5756  154.2564 H   0  0  0  0  0  0  0  0  0  0  0  0
  147.8108  138.2597  154.7374 H   0  0  0  0  0  0  0  0  0  0  0  0
  149.0011  140.7538  153.4776 H   0  0  0  0  0  0  0  0  0  0  0  0
  148.5997  140.7584  155.1794 H   0  0  0  0  0  0  0  0  0  0  0  0
  149.6743  137.3660  154.2563 H   0  0  0  0  0  0  0  0  0  0  0  0
  152.2859  137.0302  154.9700 H   0  0  0  0  0  0  0  0  0  0  0  0
  153.1229  139.6161  155.5098 H   0  0  0  0  0  0  0  0  0  0  0  0
  147.2331  136.0069  151.9930 H   0  0  0  0  0  0  0  0  0  0  0  0
  146.6838  132.6380  152.7212 H   0  0  0  0  0  0  0  0  0  0  0  0
  147.9356  133.8690  152.8203 H   0  0  0  0  0  0  0  0  0  0  0  0
  147.0151  133.6664  151.3342 H   0  0  0  0  0  0  0  0  0  0  0  0
  144.5334  134.3954  151.2403 H   0  0  0  0  0  0  0  0  0  0  0  0
  143.7358  134.9704  152.6998 H   0  0  0  0  0  0  0  0  0  0  0  0
  144.2383  133.2963  152.5805 H   0  0  0  0  0  0  0  0  0  0  0  0
  145.6191  133.6061  154.8165 H   0  0  0  0  0  0  0  0  0  0  0  0
  145.0950  135.2769  154.8817 H   0  0  0  0  0  0  0  0  0  0  0  0
  146.8126  134.8942  154.9080 H   0  0  0  0  0  0  0  0  0  0  0  0
  148.2612  139.3120  152.1176 H   0  0  0  0  0  0  0  0  0  0  0  0
  1  2  1  0  0  0  0
  1 18  1  0  0  0  0
  1 19  1  0  0  0  0
  1 20  1  0  0  0  0
  2  3  1  0  0  0  0
  2 11  1  0  0  0  0
  2 21  1  0  0  0  0
  3  4  1  0  0  0  0
  3 22  1  0  0  0  0
  3 40  1  0  0  0  0
  4  5  1  0  0  0  0
  4 23  1  0  0  0  0
  4 24  1  0  0  0  0
  5  6  1  0  0  0  0
  5 25  1  0  0  0  0
  5 26  1  0  0  0  0
  6 10  1  0  0  0  0
  6  7  1  0  0  0  0
  7  8  2  0  0  0  0
  7 27  1  0  0  0  0
  8  9  1  0  0  0  0
  8 28  1  0  0  0  0
  9 10  2  0  0  0  0
  9 29  1  0  0  0  0
 11 12  2  0  0  0  0
 11 13  1  0  0  0  0
 13 14  1  0  0  0  0
 13 30  1  0  0  0  0
 14 15  1  0  0  0  0
 14 16  1  0  0  0  0
 14 17  1  0  0  0  0
 15 31  1  0  0  0  0
 15 32  1  0  0  0  0
 15 33  1  0  0  0  0
 16 34  1  0  0  0  0
 16 35  1  0  0  0  0
 16 36  1  0  0  0  0
 17 37  1  0  0  0  0
 17 38  1  0  0  0  0
 17 39  1  0  0  0  0
M  CHG  1   3   1
M  END
> <s_m_source_file>
AV-unprocessed.smi

> <i_m_source_file_index>
3212

> <i_lp_mmshare_version>
43012

> <i_f3d_flags>
0

> <s_epik_input>
W0NIM11DKFtDSDNdKShbQ0gzXSlbTkhdQyg9TylbQ0BIXShbQ0gzXSlbTkhdW0NIMl1bQ0gyXW4xW2NIXVtjSF1bY0hdbjE=

> <s_epik_cmdline>
J2VwaWtfcHl0aG9uJywgJy1waCcsICc3LjAnLCAnLXRuJywgJzgnLCAnLW1hJywgJzIwMCcsICctbWV0YWxfYmluZGluZycsICctaW1hZScsICc8aW5maWxlLm1hZT4nLCAnLW9tYWUnLCAnPG91dGZpbGUubWFlPic=

> <r_lp_tautomer_probability>
1

> <r_epik_Ionization_Penalty>
0.198377

> <r_epik_Ionization_Penalty_Charging>
0.198374

> <r_epik_Ionization_Penalty_Neutral>
3.0924e-06

> <r_epik_State_Penalty>
0.188176

> <r_epik_Charging_Adjusted_Penalty>
0.38655

> <i_epik_Tot_Q>
1

> <i_epik_Tot_abs_Q>
1

> <r_epik_Metal_State_Penalty>
0.188456

> <b_epik_Metal_Only>
0

> <s_lp_Force_Field>
OPLS_2005

> <r_lp_Energy>
6.00749

> <b_lp_Chiralities_Consistent>
1

> <s_lp_Variant>
AV-unprocessed.smi:3212-1

> <Gold.Version>
5.8.1

> <Gold.Id.Protein>
6NUR|6NUR_protein|mol2

> <Gold.PLP.Fitness>
46.0996

> <Gold.PLP.PLP>
-29.0085

> <Gold.PLP.part.hbond>
-4.0000

> <Gold.PLP.part.metal>
0.0000

> <Gold.PLP.part.buried>
1.9311

> <Gold.PLP.part.nonpolar>
-29.1050

> <Gold.PLP.part.repulsive>
0.3132

> <Gold.PLP.ligand.clash>
0.0000

> <Gold.PLP.ligand.torsion>
0.4856

> <Gold.PLP.Chemscore.Hbond>
4.9920

> <Gold.PLP.Chemscore.CHOScore>
1.0000

> <Gold.PLP.Chemscore.Metal>
0.0000

> <Gold.Chemscore.Hbonds>
donor molecule, donor type, donor heavy atom, donor atom, acceptor molecule, acceptor atom, score
      L1  H     3    22       P1  7948  2.00
      L1  H     3    40       P1  7957  1.00
      L1  H    13    30       P1  7948  1.00
      P1  H  7989  7998       L1    10  1.00
      L1  C     7    27       P1  7948  0.53

> <Gold.PLP.Chemscore.Internal.Correction>
0.0863

> <Gold.Rescore>
     Score         DG    S(hbond)    S(metal)    S(lipo)     H(rot)  DE(clash)    DE(int)     intcor
     18.03     -21.55       3.88        0.00      71.77       2.07       3.04       0.48       ----

> <Gold.Chemscore.Fitness>
18.0310

> <Gold.Chemscore.DG>
-21.5518

> <Gold.Chemscore.ZeroCoef>
-5.4800

> <Gold.Chemscore.Hbond>
3.8813

> <Gold.Chemscore.Metal>
0.0000

> <Gold.Chemscore.Lipo>
71.7685

> <Gold.Chemscore.Internal_Hbond>
0.0000

> <Gold.Chemscore.DEClash>
3.0404

> <Gold.Chemscore.DEInternal>
0.4805

> <Gold.Chemscore.Rot>
2.0659

> <Gold.Chemscore.Internal.Correction>
   9.000000E+99

> <Gold.Chemscore.Hbonds>
donor molecule, donor type, donor heavy atom, donor atom, acceptor molecule, acceptor atom, score
      L1  H     3    22       P1  7948  0.98
      L1  H     3    40       P1  7957  0.99
      L1  H    13    30       P1  7948  0.99
      P1  H  7989  7998       L1    10  0.08

> <Gold.Chemscore.Hbond.Weighted>
-12.9635

> <Gold.Chemscore.Metal.Weighted>
-0.0000

> <Gold.Chemscore.Lipo.Weighted>
-8.3969

> <Gold.Chemscore.Internal_Hbond.Weighted>
0.0000

> <Gold.Chemscore.DEClash.Weighted>
3.0404

> <Gold.Chemscore.DEInternal.Weighted>
0.4805

> <Gold.Chemscore.Rot.Weighted>
5.2886

> <Gold.Chemscore.Internal.Correction.Weighted>
   9.000000E+99

> <Gold.Protein.RotatedTorsions>
[ 6907 6896 6895 6894 ] final -126.44 input  -60.11 | X-H torsion
[ 7974 7965 7964 7962 ] final   31.78 input  175.53 | X-H torsion
[ 8008 7997 7996 7995 ] final  -66.25 input   59.86 | X-H torsion
[ 10167 10162 10161 10158 ] final  143.01 input  -65.29 | X-H torsion
[ 10718 10713 10712 10709 ] final  147.22 input   66.30 | X-H torsion
[ 10763 10752 10751 10750 ] final   -1.86 input  -60.55 | X-H torsion
[ 11005 11000 10999 10996 ] final -165.79 input  -57.11 | X-H torsion

> <Gold.Protein.ActiveResidues>
 VAL166  LYS551  ARG553  GLY616  TRP617  ASP618  TYR619  PRO620  LYS621  CYS622 
 ASP623  PHE694  ASN695  SER759  ASP760  ASP761  ALA762  ILE779  LEU786  VAL792 
 PHE793  MET794  SER795  GLU796  ALA797  LYS798  CYS799  TRP800  GLU811  SER814 

> <Gold.Protein.RotatedAtoms>
  150.8969  133.7169  159.2889 H   0  0  0  0  0  0  0  0  0  0  0  0  # atno 6907 bound_to 6896
  151.4701  135.1043  159.9758 H   0  0  0  0  0  0  0  0  0  0  0  0  # atno 6908 bound_to 6896
  152.4854  133.8311  159.7159 H   0  0  0  0  0  0  0  0  0  0  0  0  # atno 6909 bound_to 6896
  146.1529  139.6612  142.9087 H   0  0  0  0  0  0  0  0  0  0  0  0  # atno 7974 bound_to 7965
  154.4722  140.0916  156.7174 H   0  0  0  0  0  0  0  0  0  0  0  0  # atno 8008 bound_to 7997
  155.4692  140.3464  155.4305 H   0  0  0  0  0  0  0  0  0  0  0  0  # atno 8009 bound_to 7997
  156.1058  140.1434  156.9394 H   0  0  0  0  0  0  0  0  0  0  0  0  # atno 8010 bound_to 7997
  139.4980  144.6069  151.6358 H   0  0  0  0  0  0  0  0  0  0  0  0  # atno 10167 bound_to 10162
  157.3236  131.0908  151.1220 H   0  0  0  0  0  0  0  0  0  0  0  0  # atno 10718 bound_to 10713
  153.3504  135.6985  153.6794 H   0  0  0  0  0  0  0  0  0  0  0  0  # atno 10763 bound_to 10752
  153.5523  135.3551  155.2765 H   0  0  0  0  0  0  0  0  0  0  0  0  # atno 10764 bound_to 10752
  154.8652  135.4229  154.2737 H   0  0  0  0  0  0  0  0  0  0  0  0  # atno 10765 bound_to 10752
  140.5718  134.5230  157.5163 H   0  0  0  0  0  0  0  0  0  0  0  0  # atno 11005 bound_to 11000
  145.4780  141.0437  143.2661 LP  0  0  0  0  0  0  0  0  0  0  0  0  # atno 17320 bound_to 7965
  144.7926  139.6298  143.7106 LP  0  0  0  0  0  0  0  0  0  0  0  0  # atno 17321 bound_to 7965
  140.5733  144.0071  150.6228 LP  0  0  0  0  0  0  0  0  0  0  0  0  # atno 17342 bound_to 10162
  140.3196  143.3146  152.0798 LP  0  0  0  0  0  0  0  0  0  0  0  0  # atno 17343 bound_to 10162
  157.2496  130.6607  149.5925 LP  0  0  0  0  0  0  0  0  0  0  0  0  # atno 17370 bound_to 10713
  155.9688  130.4543  150.5843 LP  0  0  0  0  0  0  0  0  0  0  0  0  # atno 17371 bound_to 10713
  139.9358  134.7878  156.0807 LP  0  0  0  0  0  0  0  0  0  0  0  0  # atno 17394 bound_to 11000
  141.1051  133.6663  156.2845 LP  0  0  0  0  0  0  0  0  0  0  0  0  # atno 17395 bound_to 11000

$$$$
