#       Name:                AV-unprocessed.smi:1942
#       Creating user name   scv26
#       Creation time:       Fri Mar 27 09:59:27 2020


#       File generated by GOLD software.
#

@<TRIPOS>MOLECULE
AV-unprocessed.smi:1942
    40    42     1
SMALL
NO_CHARGES


@<TRIPOS>ATOM
      1 ****         0.2203   2.1510  -1.8992 O.2            1 S1                 0.0000
      2 ****        -0.3343   2.7585  -0.9833 C.2            1 S1                 0.0000
      3 ****        -1.2839   3.8489  -1.2348 C.2            1 S1                 0.0000
      4 ****        -1.8909   4.5047  -0.2258 C.2            1 S1                 0.0000
      5 ****        -1.6179   4.1457   1.1458 C.2            1 S1                 0.0000
      6 ****        -0.7477   3.1507   1.3802 C.2            1 S1                 0.0000
      7 ****        -0.1074   2.4589   0.3328 N.am           1 S1                 0.0000
      8 ****         0.8286   1.3869   0.7106 C.3            1 S1                 0.0000
      9 ****         0.1874   0.0258   0.5786 C.2            1 S1                 0.0000
     10 ****        -1.1320  -0.1703   0.6671 N.2            1 S1                 0.0000
     11 ****        -1.2561  -1.5335   0.4930 C.ar           1 S1                 0.0000
     12 ****        -2.4049  -2.3558   0.4721 C.ar           1 S1                 0.0000
     13 ****        -2.2834  -3.7476   0.2783 C.ar           1 S1                 0.0000
     14 ****        -3.6965  -4.7369   0.2546 Cl             1 S1                 0.0000
     15 ****        -1.0129  -4.3347   0.1048 C.ar           1 S1                 0.0000
     16 ****         0.1445  -3.5326   0.1233 C.ar           1 S1                 0.0000
     17 ****         0.0163  -2.1438   0.3152 C.ar           1 S1                 0.0000
     18 ****         0.9292  -1.0962   0.3857 N.pl3          1 S1                 0.0000
     19 ****         2.3768  -1.2250   0.2776 C.3            1 S1                 0.0000
     20 ****         2.8506  -1.3575  -1.1794 C.3            1 S1                 0.0000
     21 ****         2.5090  -0.2145  -1.9345 O.3            1 S1                 0.0000
     22 ****        -1.5008   4.1310  -2.2546 H              1 S1                 0.0000
     23 ****        -2.5857   5.3022  -0.4442 H              1 S1                 0.0000
     24 ****        -2.1027   4.6619   1.9613 H              1 S1                 0.0000
     25 ****        -0.4934   2.8174   2.3759 H              1 S1                 0.0000
     26 ****         1.7196   1.4498   0.0857 H              1 S1                 0.0000
     27 ****         1.1766   1.5081   1.7372 H              1 S1                 0.0000
     28 ****        -3.3812  -1.9136   0.6052 H              1 S1                 0.0000
     29 ****        -0.9259  -5.4013  -0.0425 H              1 S1                 0.0000
     30 ****         1.1184  -3.9794  -0.0096 H              1 S1                 0.0000
     31 ****         2.8635  -0.3822   0.7679 H              1 S1                 0.0000
     32 ****         2.6791  -2.1093   0.8395 H              1 S1                 0.0000
     33 ****         3.9323  -1.4894  -1.2120 H              1 S1                 0.0000
     34 ****         2.4064  -2.2359  -1.6483 H              1 S1                 0.0000
     35 ****         2.7994  -0.3428  -2.8248 H              1 S1                 0.0000
     36 ****         0.8608   1.4113  -1.6928 LP             1 S1                 0.0000
     37 ****         0.0303   2.3973  -2.8496 LP             1 S1                 0.0000
     38 ****        -1.8527   0.5056   0.8217 LP             1 S1                 0.0000
     39 ****         2.9568   0.5913  -1.5470 LP             1 S1                 0.0000
     40 ****         1.5176  -0.0846  -1.9190 LP             1 S1                 0.0000
@<TRIPOS>BOND
    1    1    2 2     
    2    2    7 am    
    3    2    3 1     
    4    3    4 2     
    5    3   22 1     
    6    4    5 1     
    7    4   23 1     
    8    5    6 2     
    9    5   24 1     
   10    6    7 1     
   11    6   25 1     
   12    7    8 1     
   13    8    9 1     
   14    8   26 1     
   15    8   27 1     
   16    9   18 1     
   17    9   10 2     
   18   10   11 1     
   19   11   17 ar    
   20   11   12 ar    
   21   12   13 ar    
   22   12   28 1     
   23   13   14 1     
   24   13   15 ar    
   25   15   16 ar    
   26   15   29 1     
   27   16   17 ar    
   28   16   30 1     
   29   17   18 1     
   30   18   19 1     
   31   19   20 1     
   32   19   31 1     
   33   19   32 1     
   34   20   21 1     
   35   20   33 1     
   36   20   34 1     
   37   21   35 1     
   38    1   36 1     
   39    1   37 1     
   40   10   38 1     
   41   21   39 1     
   42   21   40 1     
@<TRIPOS>SUBSTRUCTURE
      1 S1             1
@<TRIPOS>SET
LONE_PAIRS      STATIC     ATOMS    <user>   **** ""
5 36 37 38 39 40
DONOR_HYDROGENS      STATIC     ATOMS    <user>   **** ""
1 35
ATOM$BLUE        STATIC     ATOMS    COLORGROUP SYSTEM
5 36 37 38 39 40
ATOM$RED        STATIC     ATOMS    COLORGROUP SYSTEM
1 35
