AV-unprocessed.smi:1916|AV-procd|sdf|7766|dock5
  -GOLD-   22720 9513D 1   1.00000     0.00000
 Structure written by MMmdl.
 46 48  0  0  0  0  0  0  0  0  2 V2000
  151.6535  135.9817  155.8138 O   0  0  0  0  0  0  0  0  0  0  0  0
  151.0434  136.3241  154.8009 C   0  0  0  0  0  0  0  0  0  0  0  0
  150.0339  135.6162  154.2729 N   0  0  0  0  0  0  0  0  0  0  0  0
  149.5163  134.3572  154.8016 C   0  0  0  0  0  0  0  0  0  0  0  0
  149.8048  133.1725  153.8623 C   0  0  0  0  0  0  0  0  0  0  0  0
  148.6128  132.7574  153.0173 C   0  0  0  0  0  0  0  0  0  0  0  0
  148.1009  131.4419  153.0438 C   0  0  0  0  0  0  0  0  0  0  0  0
  146.9813  131.1213  152.2479 C   0  0  0  0  0  0  0  0  0  0  0  0
  146.3969  132.1219  151.4440 C   0  0  0  0  0  0  0  0  0  0  0  0
  146.9477  133.4195  151.4560 C   0  0  0  0  0  0  0  0  0  0  0  0
  148.0205  133.6876  152.2328 N   0  3  0  0  0  0  0  0  0  0  0  0
  151.4228  137.6226  154.0708 C   0  0  2  0  0  0  0  0  0  0  0  0
  152.5735  138.3522  154.7853 C   0  0  0  0  0  0  0  0  0  0  0  0
  151.9183  139.5970  155.3585 C   0  0  0  0  0  0  0  0  0  0  0  0
  152.5035  140.3469  156.1384 O   0  0  0  0  0  0  0  0  0  0  0  0
  150.6569  139.7341  154.9253 N   0  0  0  0  0  0  0  0  0  0  0  0
  149.7167  140.7715  155.3849 C   0  0  0  0  0  0  0  0  0  0  0  0
  149.3792  140.7325  156.8881 C   0  0  0  0  0  0  0  0  0  0  0  0
  147.9965  141.3697  156.9857 C   0  0  0  0  0  0  0  0  0  0  0  0
  147.2689  140.8532  155.7471 C   0  0  0  0  0  0  0  0  0  0  0  0
  148.3485  140.7155  154.6661 C   0  0  0  0  0  0  0  0  0  0  0  0
  150.2657  138.6438  154.0374 C   0  0  0  0  0  0  0  0  0  0  0  0
  149.5847  135.9832  153.4467 H   0  0  0  0  0  0  0  0  0  0  0  0
  149.9315  134.1391  155.7869 H   0  0  0  0  0  0  0  0  0  0  0  0
  148.4395  134.4666  154.9356 H   0  0  0  0  0  0  0  0  0  0  0  0
  150.6352  133.4245  153.2010 H   0  0  0  0  0  0  0  0  0  0  0  0
  150.1375  132.3146  154.4479 H   0  0  0  0  0  0  0  0  0  0  0  0
  148.5576  130.6875  153.6682 H   0  0  0  0  0  0  0  0  0  0  0  0
  146.5748  130.1204  152.2555 H   0  0  0  0  0  0  0  0  0  0  0  0
  145.5389  131.8971  150.8275 H   0  0  0  0  0  0  0  0  0  0  0  0
  146.5655  134.2445  150.8728 H   0  0  0  0  0  0  0  0  0  0  0  0
  151.7207  137.3814  153.0489 H   0  0  0  0  0  0  0  0  0  0  0  0
  153.0409  137.7659  155.5785 H   0  0  0  0  0  0  0  0  0  0  0  0
  153.3517  138.6451  154.0800 H   0  0  0  0  0  0  0  0  0  0  0  0
  150.1681  141.7428  155.1750 H   0  0  0  0  0  0  0  0  0  0  0  0
  149.2992  139.7080  157.2524 H   0  0  0  0  0  0  0  0  0  0  0  0
  150.1218  141.2470  157.4988 H   0  0  0  0  0  0  0  0  0  0  0  0
  147.4805  141.1169  157.9124 H   0  0  0  0  0  0  0  0  0  0  0  0
  148.0862  142.4557  156.9376 H   0  0  0  0  0  0  0  0  0  0  0  0
  146.8396  139.8734  155.9602 H   0  0  0  0  0  0  0  0  0  0  0  0
  146.4536  141.5096  155.4410 H   0  0  0  0  0  0  0  0  0  0  0  0
  148.2756  141.5269  153.9409 H   0  0  0  0  0  0  0  0  0  0  0  0
  148.2034  139.7831  154.1188 H   0  0  0  0  0  0  0  0  0  0  0  0
  150.1346  139.0320  153.0266 H   0  0  0  0  0  0  0  0  0  0  0  0
  149.3158  138.2068  154.3500 H   0  0  0  0  0  0  0  0  0  0  0  0
  148.4027  134.6336  152.2253 H   0  0  0  0  0  0  0  0  0  0  0  0
  1  2  2  0  0  0  0
  2  3  1  0  0  0  0
  2 12  1  0  0  0  0
  3  4  1  0  0  0  0
  3 23  1  0  0  0  0
  4  5  1  0  0  0  0
  4 24  1  0  0  0  0
  4 25  1  0  0  0  0
  5  6  1  0  0  0  0
  5 26  1  0  0  0  0
  5 27  1  0  0  0  0
  6 11  1  0  0  0  0
  6  7  2  0  0  0  0
  7  8  1  0  0  0  0
  7 28  1  0  0  0  0
  8  9  2  0  0  0  0
  8 29  1  0  0  0  0
  9 10  1  0  0  0  0
  9 30  1  0  0  0  0
 10 11  2  0  0  0  0
 10 31  1  0  0  0  0
 11 46  1  0  0  0  0
 12 22  1  0  0  0  0
 12 13  1  0  0  0  0
 12 32  1  0  0  0  0
 13 14  1  0  0  0  0
 13 33  1  0  0  0  0
 13 34  1  0  0  0  0
 14 15  2  0  0  0  0
 14 16  1  0  0  0  0
 16 17  1  0  0  0  0
 16 22  1  0  0  0  0
 17 21  1  0  0  0  0
 17 18  1  0  0  0  0
 17 35  1  0  0  0  0
 18 19  1  0  0  0  0
 18 36  1  0  0  0  0
 18 37  1  0  0  0  0
 19 20  1  0  0  0  0
 19 38  1  0  0  0  0
 19 39  1  0  0  0  0
 20 21  1  0  0  0  0
 20 40  1  0  0  0  0
 20 41  1  0  0  0  0
 21 42  1  0  0  0  0
 21 43  1  0  0  0  0
 22 44  1  0  0  0  0
 22 45  1  0  0  0  0
M  CHG  1  11   1
M  END
> <s_m_source_file>
AV-unprocessed.smi

> <i_m_source_file_index>
1916

> <i_lp_mmshare_version>
43012

> <i_f3d_flags>
0

> <s_epik_input>
W0NIMl0xW0NIMl1bQ0gyXVtDSDJdW0NIXTFOKFtDSDJdMilDKD1PKVtDSDJdW0NASF0yQyg9TylbTkhdW0NIMl1bQ0gyXWMzW2NIXVtjSF1bY0hdW2NIXW4z

> <s_epik_cmdline>
J2VwaWtfcHl0aG9uJywgJy1waCcsICc3LjAnLCAnLXRuJywgJzgnLCAnLW1hJywgJzIwMCcsICctbWV0YWxfYmluZGluZycsICctaW1hZScsICc8aW5maWxlLm1hZT4nLCAnLW9tYWUnLCAnPG91dGZpbGUubWFlPic=

> <r_epik_Ionization_Penalty>
1.88249

> <r_epik_Ionization_Penalty_Charging>
1.88249

> <r_epik_Ionization_Penalty_Neutral>
3.64574e-08

> <r_epik_State_Penalty>
2.00238

> <r_epik_Charging_Adjusted_Penalty>
3.88487

> <i_epik_Tot_Q>
1

> <i_epik_Tot_abs_Q>
1

> <r_epik_Metal_State_Penalty>
2.02676

> <b_epik_Metal_Only>
0

> <s_lp_Force_Field>
OPLS_2005

> <r_lp_Energy>
42.8241

> <b_lp_Chiralities_Consistent>
1

> <s_lp_Variant>
AV-unprocessed.smi:1916-3

> <Gold.Version>
5.8.1

> <Gold.Id.Protein>
6NUR|6NUR_protein|mol2

> <Gold.PLP.Fitness>
54.4722

> <Gold.PLP.PLP>
-40.2026

> <Gold.PLP.part.hbond>
-4.4237

> <Gold.PLP.part.metal>
0.0000

> <Gold.PLP.part.buried>
3.0483

> <Gold.PLP.part.nonpolar>
-37.5793

> <Gold.PLP.part.repulsive>
0.1091

> <Gold.PLP.ligand.clash>
0.0000

> <Gold.PLP.ligand.torsion>
0.4087

> <Gold.PLP.Chemscore.Hbond>
5.0000

> <Gold.PLP.Chemscore.CHOScore>
0.0000

> <Gold.PLP.Chemscore.Metal>
0.0000

> <Gold.Chemscore.Hbonds>
donor molecule, donor type, donor heavy atom, donor atom, acceptor molecule, acceptor atom, score
      L1  H     3    23       P1  7948  1.00
      L1  H    11    46       P1  7948  1.30
      P1  H  7997  8009       L1    15  1.00
      P1  H 10752 10765       L1     1  0.95

> <Gold.PLP.Chemscore.Internal.Correction>
0.0870

> <Gold.Rescore>
     Score         DG    S(hbond)    S(metal)    S(lipo)     H(rot)  DE(clash)    DE(int)     intcor
     20.95     -21.71       3.41        0.00      78.80       1.72       0.46       0.31       ----

> <Gold.Chemscore.Fitness>
20.9512

> <Gold.Chemscore.DG>
-21.7126

> <Gold.Chemscore.ZeroCoef>
-5.4800

> <Gold.Chemscore.Hbond>
3.4149

> <Gold.Chemscore.Metal>
0.0000

> <Gold.Chemscore.Lipo>
78.7970

> <Gold.Chemscore.Internal_Hbond>
0.0000

> <Gold.Chemscore.DEClash>
0.4551

> <Gold.Chemscore.DEInternal>
0.3063

> <Gold.Chemscore.Rot>
1.7158

> <Gold.Chemscore.Internal.Correction>
   9.000000E+99

> <Gold.Chemscore.Hbonds>
donor molecule, donor type, donor heavy atom, donor atom, acceptor molecule, acceptor atom, score
      L1  H     3    23       P1  7948  0.26
      L1  H    11    46       P1  7948  0.06
      P1  H  7997  8009       L1    15  0.88
      P1  H 10752 10765       L1     1  0.21

> <Gold.Chemscore.Hbond.Weighted>
-11.4057

> <Gold.Chemscore.Metal.Weighted>
-0.0000

> <Gold.Chemscore.Lipo.Weighted>
-9.2192

> <Gold.Chemscore.Internal_Hbond.Weighted>
0.0000

> <Gold.Chemscore.DEClash.Weighted>
0.4551

> <Gold.Chemscore.DEInternal.Weighted>
0.3063

> <Gold.Chemscore.Rot.Weighted>
4.3924

> <Gold.Chemscore.Internal.Correction.Weighted>
   9.000000E+99

> <Gold.Protein.RotatedTorsions>
[ 6907 6896 6895 6894 ] final  -71.32 input  -60.11 | X-H torsion
[ 7974 7965 7964 7962 ] final -119.20 input  175.53 | X-H torsion
[ 8008 7997 7996 7995 ] final -153.23 input   59.86 | X-H torsion
[ 10167 10162 10161 10158 ] final -132.20 input  -65.29 | X-H torsion
[ 10718 10713 10712 10709 ] final   18.22 input   66.30 | X-H torsion
[ 10763 10752 10751 10750 ] final -147.29 input  -60.55 | X-H torsion
[ 11005 11000 10999 10996 ] final   13.34 input  -57.11 | X-H torsion

> <Gold.Protein.ActiveResidues>
 VAL166  LYS551  ARG553  GLY616  TRP617  ASP618  TYR619  PRO620  LYS621  CYS622 
 ASP623  PHE694  ASN695  SER759  ASP760  ASP761  ALA762  ILE779  LEU786  VAL792 
 PHE793  MET794  SER795  GLU796  ALA797  LYS798  CYS799  TRP800  GLU811  SER814 

> <Gold.Protein.RotatedAtoms>
  150.7218  134.5326  159.5707 H   0  0  0  0  0  0  0  0  0  0  0  0  # atno 6907 bound_to 6896
  152.2855  134.7777  160.0397 H   0  0  0  0  0  0  0  0  0  0  0  0  # atno 6908 bound_to 6896
  151.8409  133.3388  159.3679 H   0  0  0  0  0  0  0  0  0  0  0  0  # atno 6909 bound_to 6896
  145.0652  140.8319  143.4128 H   0  0  0  0  0  0  0  0  0  0  0  0  # atno 7974 bound_to 7965
  155.6675  140.0729  157.2532 H   0  0  0  0  0  0  0  0  0  0  0  0  # atno 8008 bound_to 7997
  154.4130  140.1705  156.1894 H   0  0  0  0  0  0  0  0  0  0  0  0  # atno 8009 bound_to 7997
  155.9645  140.3367  155.6523 H   0  0  0  0  0  0  0  0  0  0  0  0  # atno 8010 bound_to 7997
  139.9110  143.6494  152.2575 H   0  0  0  0  0  0  0  0  0  0  0  0  # atno 10167 bound_to 10162
  157.0932  130.6436  149.5854 H   0  0  0  0  0  0  0  0  0  0  0  0  # atno 10718 bound_to 10713
  154.8293  135.3364  154.6795 H   0  0  0  0  0  0  0  0  0  0  0  0  # atno 10763 bound_to 10752
  153.7417  135.6945  153.4970 H   0  0  0  0  0  0  0  0  0  0  0  0  # atno 10764 bound_to 10752
  153.2239  135.4439  155.0472 H   0  0  0  0  0  0  0  0  0  0  0  0  # atno 10765 bound_to 10752
  140.4818  134.0927  155.7752 H   0  0  0  0  0  0  0  0  0  0  0  0  # atno 11005 bound_to 11000
  145.1359  139.2602  143.5515 LP  0  0  0  0  0  0  0  0  0  0  0  0  # atno 17320 bound_to 7965
  146.3526  140.1023  142.8607 LP  0  0  0  0  0  0  0  0  0  0  0  0  # atno 17321 bound_to 7965
  139.6942  144.7643  151.1385 LP  0  0  0  0  0  0  0  0  0  0  0  0  # atno 17342 bound_to 10162
  140.7685  143.5546  150.9166 LP  0  0  0  0  0  0  0  0  0  0  0  0  # atno 17343 bound_to 10162
  155.9892  130.4939  150.7206 LP  0  0  0  0  0  0  0  0  0  0  0  0  # atno 17370 bound_to 10713
  157.4704  131.0892  151.0649 LP  0  0  0  0  0  0  0  0  0  0  0  0  # atno 17371 bound_to 10713
  141.1527  133.8939  157.2056 LP  0  0  0  0  0  0  0  0  0  0  0  0  # atno 17394 bound_to 11000
  139.9822  135.0094  156.9776 LP  0  0  0  0  0  0  0  0  0  0  0  0  # atno 17395 bound_to 11000

$$$$
