AV-unprocessed.smi:287|AV-procd|sdf|2180|dock10
  -GOLD-   2262021553D 1   1.00000     0.00000
 Structure written by MMmdl.
 55 58  0  0  0  0  0  0  0  0  1 V2000
  151.9072  142.2417  158.6040 C   0  0  0  0  0  0  0  0  0  0  0  0
  151.5790  141.2456  157.5453 C   0  0  0  0  0  0  0  0  0  0  0  0
  150.5394  141.1024  156.6736 C   0  0  0  0  0  0  0  0  0  0  0  0
  150.7950  139.9360  155.8926 C   0  0  0  0  0  0  0  0  0  0  0  0
  149.8989  139.3834  154.7922 C   0  0  2  0  0  0  0  0  0  0  0  0
  150.5936  138.1972  154.1034 C   0  0  0  0  0  0  0  0  0  0  0  0
  149.6502  140.3210  153.7625 O   0  0  0  0  0  0  0  0  0  0  0  0
  148.5113  138.9532  155.3205 C   0  0  0  0  0  0  0  0  0  0  0  0
  147.6385  138.4374  154.2709 N   0  0  0  0  0  0  0  0  0  0  0  0
  147.2775  137.1372  154.2662 C   0  0  0  0  0  0  0  0  0  0  0  0
  147.6535  136.3019  155.2701 N   0  0  0  0  0  0  0  0  0  0  0  0
  147.2813  135.0181  155.2449 C   0  0  0  0  0  0  0  0  0  0  0  0
  146.5474  134.3787  154.3306 N   0  0  0  0  0  0  0  0  0  0  0  0
  146.1707  135.2162  153.3214 C   0  0  0  0  0  0  0  0  0  0  0  0
  146.4924  136.5970  153.2156 C   0  0  0  0  0  0  0  0  0  0  0  0
  145.9363  137.1213  152.0558 N   0  0  0  0  0  0  0  0  0  0  0  0
  145.3230  136.1043  151.5110 C   0  0  0  0  0  0  0  0  0  0  0  0
  145.4198  134.9165  152.2064 N   0  0  0  0  0  0  0  0  0  0  0  0
  144.8461  133.5699  151.8813 C   0  0  1  0  0  0  0  0  0  0  0  0
  144.0690  133.6909  150.7268 O   0  0  0  0  0  0  0  0  0  0  0  0
  144.7878  133.1850  149.6072 C   0  0  2  0  0  0  0  0  0  0  0  0
  143.8112  132.8278  148.4767 C   0  0  0  0  0  0  0  0  0  0  0  0
  143.5097  133.9808  147.7202 O   0  0  0  0  0  0  0  0  0  0  0  0
  145.4854  131.9752  150.2281 C   0  0  1  0  0  0  0  0  0  0  0  0
  146.5474  131.4821  149.4323 O   0  0  0  0  0  0  0  0  0  0  0  0
  145.9371  132.5117  151.5848 C   0  0  1  0  0  0  0  0  0  0  0  0
  147.2561  133.0373  151.5420 O   0  0  0  0  0  0  0  0  0  0  0  0
  151.9891  139.4502  156.3691 C   0  0  0  0  0  0  0  0  0  0  0  0
  152.8392  138.2702  156.0297 C   0  0  0  0  0  0  0  0  0  0  0  0
  152.4721  140.2400  157.3687 O   0  0  0  0  0  0  0  0  0  0  0  0
  144.2149  133.3255  152.7366 H   0  0  0  0  0  0  0  0  0  0  0  0
  145.5321  133.9113  149.2741 H   0  0  0  0  0  0  0  0  0  0  0  0
  144.7589  131.1762  150.3837 H   0  0  0  0  0  0  0  0  0  0  0  0
  145.9026  131.7321  152.3465 H   0  0  0  0  0  0  0  0  0  0  0  0
  151.2168  143.0847  158.5723 H   0  0  0  0  0  0  0  0  0  0  0  0
  152.9181  142.6283  158.4727 H   0  0  0  0  0  0  0  0  0  0  0  0
  151.8428  141.7888  159.5934 H   0  0  0  0  0  0  0  0  0  0  0  0
  149.6888  141.7638  156.5999 H   0  0  0  0  0  0  0  0  0  0  0  0
  150.7979  137.3933  154.8119 H   0  0  0  0  0  0  0  0  0  0  0  0
  151.5466  138.4962  153.6643 H   0  0  0  0  0  0  0  0  0  0  0  0
  149.9781  137.7799  153.3054 H   0  0  0  0  0  0  0  0  0  0  0  0
  148.9970  139.9616  153.1820 H   0  0  0  0  0  0  0  0  0  0  0  0
  148.6107  138.2245  156.1268 H   0  0  0  0  0  0  0  0  0  0  0  0
  148.0157  139.8259  155.7485 H   0  0  0  0  0  0  0  0  0  0  0  0
  147.3050  139.1124  153.5972 H   0  0  0  0  0  0  0  0  0  0  0  0
  147.6206  134.4172  156.0755 H   0  0  0  0  0  0  0  0  0  0  0  0
  144.7800  136.2012  150.5823 H   0  0  0  0  0  0  0  0  0  0  0  0
  144.2673  132.1039  147.8008 H   0  0  0  0  0  0  0  0  0  0  0  0
  142.8976  132.3775  148.8661 H   0  0  0  0  0  0  0  0  0  0  0  0
  144.3127  134.3192  147.3546 H   0  0  0  0  0  0  0  0  0  0  0  0
  147.2992  131.3447  149.9883 H   0  0  0  0  0  0  0  0  0  0  0  0
  147.8245  132.3849  151.1617 H   0  0  0  0  0  0  0  0  0  0  0  0
  152.2677  137.3458  156.1131 H   0  0  0  0  0  0  0  0  0  0  0  0
  153.6970  138.1951  156.6983 H   0  0  0  0  0  0  0  0  0  0  0  0
  153.2149  138.3460  155.0095 H   0  0  0  0  0  0  0  0  0  0  0  0
  1  2  1  0  0  0  0
  1 35  1  0  0  0  0
  1 36  1  0  0  0  0
  1 37  1  0  0  0  0
  2 30  1  0  0  0  0
  2  3  2  0  0  0  0
  3  4  1  0  0  0  0
  3 38  1  0  0  0  0
  4  5  1  0  0  0  0
  4 28  2  0  0  0  0
  5  6  1  0  0  0  0
  5  7  1  0  0  0  0
  5  8  1  0  0  0  0
  6 39  1  0  0  0  0
  6 40  1  0  0  0  0
  6 41  1  0  0  0  0
  7 42  1  0  0  0  0
  8  9  1  0  0  0  0
  8 43  1  0  0  0  0
  8 44  1  0  0  0  0
  9 10  1  0  0  0  0
  9 45  1  0  0  0  0
 10 15  1  0  0  0  0
 10 11  2  0  0  0  0
 11 12  1  0  0  0  0
 12 13  2  0  0  0  0
 12 46  1  0  0  0  0
 13 14  1  0  0  0  0
 14 18  1  0  0  0  0
 14 15  2  0  0  0  0
 15 16  1  0  0  0  0
 16 17  2  0  0  0  0
 17 18  1  0  0  0  0
 17 47  1  0  0  0  0
 18 19  1  0  0  0  0
 19 31  1  0  0  0  0
 19 26  1  0  0  0  0
 19 20  1  0  0  0  0
 20 21  1  0  0  0  0
 21 32  1  0  0  0  0
 21 22  1  0  0  0  0
 21 24  1  0  0  0  0
 22 23  1  0  0  0  0
 22 48  1  0  0  0  0
 22 49  1  0  0  0  0
 23 50  1  0  0  0  0
 24 33  1  0  0  0  0
 24 25  1  0  0  0  0
 24 26  1  0  0  0  0
 25 51  1  0  0  0  0
 26 34  1  0  0  0  0
 26 27  1  0  0  0  0
 27 52  1  0  0  0  0
 28 29  1  0  0  0  0
 28 30  1  0  0  0  0
 29 53  1  0  0  0  0
 29 54  1  0  0  0  0
 29 55  1  0  0  0  0
M  END
> <s_m_source_file>
AV-unprocessed.smi

> <i_m_source_file_index>
287

> <i_lp_mmshare_version>
43012

> <i_f3d_flags>
0

> <s_epik_input>
W0NIM11jMVtjSF1jKGMobzEpW0NIM10pW0NAQF0oW0NIM10pKFtPSF0pW0NIMl1bTkhdYyhuW2NIXW4yKWMoYzIzKW5bY0hdbjNbQ0BASF00T1tDQEhdKFtDSDJdW09IXSlbQ0BASF0oW09IXSlbQ0BIXTRbT0hd

> <s_epik_cmdline>
J2VwaWtfcHl0aG9uJywgJy1waCcsICc3LjAnLCAnLXRuJywgJzgnLCAnLW1hJywgJzIwMCcsICctbWV0YWxfYmluZGluZycsICctaW1hZScsICc8aW5maWxlLm1hZT4nLCAnLW9tYWUnLCAnPG91dGZpbGUubWFlPic=

> <r_lp_tautomer_probability>
1

> <r_epik_Ionization_Penalty>
0.000992612

> <r_epik_Ionization_Penalty_Charging>
0

> <r_epik_Ionization_Penalty_Neutral>
0.000992612

> <r_epik_State_Penalty>
-0

> <r_epik_Charging_Adjusted_Penalty>
0

> <i_epik_Tot_Q>
0

> <i_epik_Tot_abs_Q>
0

> <r_epik_Metal_State_Penalty>
-0

> <b_epik_Metal_Only>
0

> <s_epik_Chemistry_Notes>
This compound contains an acetal/aminal-like group ( X-CH(R)-Y where X, Y are N, S, or O) that may be acid/base labile, releasing an aldehyde.

> <s_lp_Force_Field>
OPLS_2005

> <r_lp_Energy>
46.7929

> <b_lp_Chiralities_Consistent>
1

> <s_lp_Variant>
AV-unprocessed.smi:287-4

> <Gold.Version>
5.8.1

> <Gold.Id.Protein>
6NUR|6NUR_protein|mol2

> <Gold.PLP.Fitness>
61.2081

> <Gold.PLP.PLP>
-43.8607

> <Gold.PLP.part.hbond>
-8.8051

> <Gold.PLP.part.metal>
0.0000

> <Gold.PLP.part.buried>
-2.0980

> <Gold.PLP.part.nonpolar>
-34.0108

> <Gold.PLP.part.repulsive>
0.9750

> <Gold.PLP.ligand.clash>
1.3441

> <Gold.PLP.ligand.torsion>
0.3296

> <Gold.PLP.Chemscore.Hbond>
5.8308

> <Gold.PLP.Chemscore.CHOScore>
0.5587

> <Gold.PLP.Chemscore.Metal>
0.0000

> <Gold.Chemscore.Hbonds>
donor molecule, donor type, donor heavy atom, donor atom, acceptor molecule, acceptor atom, score
      L1  H     7    42       P1  7957  0.19
      L1  H    23    50       P1  7921  0.99
      L1  H    25    51       P1 10747  1.00
      L1  H    27    52       P1 10747  0.81
      P1  H  7989  7998       L1     7  0.50
      P1  H  7997  8010       L1    30  0.67
      P1  H 10192 10197       L1    23  1.00
      L1  C    17    47       P1 10171  0.56

> <Gold.PLP.Chemscore.Internal.Correction>
0.1819

> <Gold.Rescore>
     Score         DG    S(hbond)    S(metal)    S(lipo)     H(rot)  DE(clash)    DE(int)     intcor
     15.11     -19.53       4.78        0.00      98.91       5.27       1.79       2.62       ----

> <Gold.Chemscore.Fitness>
15.1130

> <Gold.Chemscore.DG>
-19.5250

> <Gold.Chemscore.ZeroCoef>
-5.4800

> <Gold.Chemscore.Hbond>
4.7774

> <Gold.Chemscore.Metal>
0.0000

> <Gold.Chemscore.Lipo>
98.9098

> <Gold.Chemscore.Internal_Hbond>
0.0000

> <Gold.Chemscore.DEClash>
1.7896

> <Gold.Chemscore.DEInternal>
2.6225

> <Gold.Chemscore.Rot>
5.2672

> <Gold.Chemscore.Internal.Correction>
   9.000000E+99

> <Gold.Chemscore.Hbonds>
donor molecule, donor type, donor heavy atom, donor atom, acceptor molecule, acceptor atom, score
      L1  H     7    42       P1  7957  0.19
      L1  H    23    50       P1  7921  0.94
      L1  H    25    51       P1 10747  0.95
      L1  H    27    52       P1 10747  0.80
      P1  H  7989  7998       L1     7  0.08
      P1  H  7997  8010       L1    30  0.11
      P1  H 10192 10197       L1    23  0.64

> <Gold.Chemscore.Hbond.Weighted>
-15.9565

> <Gold.Chemscore.Metal.Weighted>
-0.0000

> <Gold.Chemscore.Lipo.Weighted>
-11.5724

> <Gold.Chemscore.Internal_Hbond.Weighted>
0.0000

> <Gold.Chemscore.DEClash.Weighted>
1.7896

> <Gold.Chemscore.DEInternal.Weighted>
2.6225

> <Gold.Chemscore.Rot.Weighted>
13.4839

> <Gold.Chemscore.Internal.Correction.Weighted>
   9.000000E+99

> <Gold.Protein.RotatedTorsions>
[ 6907 6896 6895 6894 ] final  -59.38 input  -60.11 | X-H torsion
[ 7974 7965 7964 7962 ] final -104.36 input  175.53 | X-H torsion
[ 8008 7997 7996 7995 ] final   43.20 input   59.86 | X-H torsion
[ 10167 10162 10161 10158 ] final -167.68 input  -65.29 | X-H torsion
[ 10718 10713 10712 10709 ] final  -93.31 input   66.30 | X-H torsion
[ 10763 10752 10751 10750 ] final -177.49 input  -60.55 | X-H torsion
[ 11005 11000 10999 10996 ] final  170.02 input  -57.11 | X-H torsion

> <Gold.Protein.ActiveResidues>
 VAL166  LYS551  ARG553  GLY616  TRP617  ASP618  TYR619  PRO620  LYS621  CYS622 
 ASP623  PHE694  ASN695  SER759  ASP760  ASP761  ALA762  ILE779  LEU786  VAL792 
 PHE793  MET794  SER795  GLU796  ALA797  LYS798  CYS799  TRP800  GLU811  SER814 

> <Gold.Protein.RotatedAtoms>
  150.7934  134.6975  159.6531 H   0  0  0  0  0  0  0  0  0  0  0  0  # atno 6907 bound_to 6896
  152.4043  134.6230  160.0065 H   0  0  0  0  0  0  0  0  0  0  0  0  # atno 6908 bound_to 6896
  151.6492  133.3285  159.3184 H   0  0  0  0  0  0  0  0  0  0  0  0  # atno 6909 bound_to 6896
  145.2441  140.9215  143.3133 H   0  0  0  0  0  0  0  0  0  0  0  0  # atno 7974 bound_to 7965
  155.2988  140.3383  155.4248 H   0  0  0  0  0  0  0  0  0  0  0  0  # atno 8008 bound_to 7997
  156.2011  140.1733  156.7936 H   0  0  0  0  0  0  0  0  0  0  0  0  # atno 8009 bound_to 7997
  154.5561  140.0696  156.8729 H   0  0  0  0  0  0  0  0  0  0  0  0  # atno 8010 bound_to 7997
  139.6033  144.0964  152.1767 H   0  0  0  0  0  0  0  0  0  0  0  0  # atno 10167 bound_to 10162
  156.0012  130.5022  150.5757 H   0  0  0  0  0  0  0  0  0  0  0  0  # atno 10718 bound_to 10713
  154.5595  135.2819  155.0933 H   0  0  0  0  0  0  0  0  0  0  0  0  # atno 10763 bound_to 10752
  154.2347  135.6367  153.5191 H   0  0  0  0  0  0  0  0  0  0  0  0  # atno 10764 bound_to 10752
  153.0025  135.5545  154.6184 H   0  0  0  0  0  0  0  0  0  0  0  0  # atno 10765 bound_to 10752
  140.3039  134.7573  157.3938 H   0  0  0  0  0  0  0  0  0  0  0  0  # atno 11005 bound_to 11000
  144.9562  139.4029  143.6378 LP  0  0  0  0  0  0  0  0  0  0  0  0  # atno 17320 bound_to 7965
  146.3320  139.8594  142.8859 LP  0  0  0  0  0  0  0  0  0  0  0  0  # atno 17321 bound_to 7965
  140.0566  144.5890  150.7295 LP  0  0  0  0  0  0  0  0  0  0  0  0  # atno 17342 bound_to 10162
  140.7266  143.2643  151.4098 LP  0  0  0  0  0  0  0  0  0  0  0  0  # atno 17343 bound_to 10162
  157.3645  131.0755  151.1609 LP  0  0  0  0  0  0  0  0  0  0  0  0  # atno 17370 bound_to 10713
  157.2383  130.6557  149.5879 LP  0  0  0  0  0  0  0  0  0  0  0  0  # atno 17371 bound_to 10713
  140.1085  134.5378  155.8288 LP  0  0  0  0  0  0  0  0  0  0  0  0  # atno 17394 bound_to 11000
  141.2122  133.6717  156.6644 LP  0  0  0  0  0  0  0  0  0  0  0  0  # atno 17395 bound_to 11000

$$$$
