AV-unprocessed.smi:193|AV-procd|sdf|1512|dock4
  -GOLD-   2262019343D 1   1.00000     0.00000
 Structure written by MMmdl.
 61 65  0  0  0  0  0  0  0  0  1 V2000
  147.5325  141.8671  154.1687 C   0  0  0  0  0  0  0  0  0  0  0  0
  148.3178  140.7774  154.9157 C   0  0  2  0  0  0  0  0  0  0  0  0
  147.3884  139.5772  155.1988 C   0  0  0  0  0  0  0  0  0  0  0  0
  148.0878  138.3270  155.5049 N   0  0  0  0  0  0  0  0  0  0  0  0
  147.5999  137.1819  154.9562 C   0  0  0  0  0  0  0  0  0  0  0  0
  148.2522  136.0098  155.1814 N   0  0  0  0  0  0  0  0  0  0  0  0
  147.8065  134.8699  154.6463 C   0  0  0  0  0  0  0  0  0  0  0  0
  146.7413  134.6753  153.8681 N   0  0  0  0  0  0  0  0  0  0  0  0
  146.0733  135.8421  153.6432 C   0  0  0  0  0  0  0  0  0  0  0  0
  146.4298  137.1281  154.1419 C   0  0  0  0  0  0  0  0  0  0  0  0
  145.5048  138.0707  153.7058 N   0  0  0  0  0  0  0  0  0  0  0  0
  144.6625  137.3859  152.9825 C   0  0  0  0  0  0  0  0  0  0  0  0
  144.9210  136.0365  152.9010 N   0  0  0  0  0  0  0  0  0  0  0  0
  144.1467  135.0449  152.1683 C   0  0  0  0  0  0  0  0  0  0  0  0
  144.7362  134.6757  150.7793 C   0  0  0  0  0  0  0  0  0  0  0  0
  144.6395  135.8219  149.9540 O   0  0  0  0  0  0  0  0  0  0  0  0
  146.2300  134.3061  150.8734 C   0  0  0  0  0  0  0  0  0  0  0  0
  146.4317  132.9042  151.4768 C   0  0  0  0  0  0  0  0  0  0  0  0
  145.7105  131.9386  150.7193 O   0  0  0  0  0  0  0  0  0  0  0  0
  144.3055  132.1664  150.7182 C   0  0  0  0  0  0  0  0  0  0  0  0
  143.9953  133.5249  150.0649 C   0  0  0  0  0  0  0  0  0  0  0  0
  149.4449  138.3264  156.0515 C   0  0  0  0  0  0  0  0  0  0  0  0
  149.6174  139.3024  157.2235 C   0  0  0  0  0  0  0  0  0  0  0  0
  150.0420  140.6140  156.7436 N   0  0  0  0  0  0  0  0  0  0  0  0
  150.5887  141.3578  157.8684 C   0  0  2  0  0  0  0  0  0  0  0  0
  151.2969  142.6592  157.5666 C   0  0  0  0  0  0  0  0  0  0  0  0
  152.0957  141.4472  157.9838 C   0  0  1  0  0  0  0  0  0  0  0  0
  152.7704  141.4006  159.3375 C   0  0  0  0  0  0  0  0  0  0  0  0
  148.9104  141.3722  156.2125 C   0  0  0  0  0  0  0  0  0  0  0  0
  146.6936  142.2294  154.7638 H   0  0  0  0  0  0  0  0  0  0  0  0
  147.1344  141.4909  153.2260 H   0  0  0  0  0  0  0  0  0  0  0  0
  148.1679  142.7215  153.9338 H   0  0  0  0  0  0  0  0  0  0  0  0
  149.1257  140.4673  154.2509 H   0  0  0  0  0  0  0  0  0  0  0  0
  146.7026  139.8123  156.0133 H   0  0  0  0  0  0  0  0  0  0  0  0
  146.7704  139.4208  154.3138 H   0  0  0  0  0  0  0  0  0  0  0  0
  148.3877  133.9882  154.8738 H   0  0  0  0  0  0  0  0  0  0  0  0
  143.8196  137.8489  152.4899 H   0  0  0  0  0  0  0  0  0  0  0  0
  144.0740  134.1522  152.7910 H   0  0  0  0  0  0  0  0  0  0  0  0
  143.1282  135.4197  152.0701 H   0  0  0  0  0  0  0  0  0  0  0  0
  145.1599  135.6768  149.1787 H   0  0  0  0  0  0  0  0  0  0  0  0
  146.6732  134.3143  149.8762 H   0  0  0  0  0  0  0  0  0  0  0  0
  146.7759  135.0498  151.4552 H   0  0  0  0  0  0  0  0  0  0  0  0
  147.4894  132.6413  151.4585 H   0  0  0  0  0  0  0  0  0  0  0  0
  146.1198  132.8711  152.5213 H   0  0  0  0  0  0  0  0  0  0  0  0
  143.8218  131.3659  150.1582 H   0  0  0  0  0  0  0  0  0  0  0  0
  143.9189  132.1146  151.7360 H   0  0  0  0  0  0  0  0  0  0  0  0
  142.9196  133.6981  150.0382 H   0  0  0  0  0  0  0  0  0  0  0  0
  144.3147  133.4786  149.0225 H   0  0  0  0  0  0  0  0  0  0  0  0
  149.6644  137.3294  156.4357 H   0  0  0  0  0  0  0  0  0  0  0  0
  150.1736  138.5171  155.2624 H   0  0  0  0  0  0  0  0  0  0  0  0
  148.7262  139.3601  157.8509 H   0  0  0  0  0  0  0  0  0  0  0  0
  150.4134  138.9049  157.8548 H   0  0  0  0  0  0  0  0  0  0  0  0
  150.0485  141.3353  158.8138 H   0  0  0  0  0  0  0  0  0  0  0  0
  151.3699  142.9722  156.5267 H   0  0  0  0  0  0  0  0  0  0  0  0
  151.1838  143.4667  158.2871 H   0  0  0  0  0  0  0  0  0  0  0  0
  152.6703  140.9641  157.1954 H   0  0  0  0  0  0  0  0  0  0  0  0
  152.1604  141.8977  160.0923 H   0  0  0  0  0  0  0  0  0  0  0  0
  153.7392  141.8980  159.2900 H   0  0  0  0  0  0  0  0  0  0  0  0
  152.9249  140.3654  159.6420 H   0  0  0  0  0  0  0  0  0  0  0  0
  149.2720  142.3775  155.9918 H   0  0  0  0  0  0  0  0  0  0  0  0
  148.1352  141.4878  156.9718 H   0  0  0  0  0  0  0  0  0  0  0  0
  1  2  1  0  0  0  0
  1 30  1  0  0  0  0
  1 31  1  0  0  0  0
  1 32  1  0  0  0  0
  2 29  1  0  0  0  0
  2  3  1  0  0  0  0
  2 33  1  0  0  0  0
  3  4  1  0  0  0  0
  3 34  1  0  0  0  0
  3 35  1  0  0  0  0
  4  5  1  0  0  0  0
  4 22  1  0  0  0  0
  5 10  1  0  0  0  0
  5  6  2  0  0  0  0
  6  7  1  0  0  0  0
  7  8  2  0  0  0  0
  7 36  1  0  0  0  0
  8  9  1  0  0  0  0
  9 13  1  0  0  0  0
  9 10  2  0  0  0  0
 10 11  1  0  0  0  0
 11 12  2  0  0  0  0
 12 13  1  0  0  0  0
 12 37  1  0  0  0  0
 13 14  1  0  0  0  0
 14 15  1  0  0  0  0
 14 38  1  0  0  0  0
 14 39  1  0  0  0  0
 15 21  1  0  0  0  0
 15 16  1  0  0  0  0
 15 17  1  0  0  0  0
 16 40  1  0  0  0  0
 17 18  1  0  0  0  0
 17 41  1  0  0  0  0
 17 42  1  0  0  0  0
 18 19  1  0  0  0  0
 18 43  1  0  0  0  0
 18 44  1  0  0  0  0
 19 20  1  0  0  0  0
 20 21  1  0  0  0  0
 20 45  1  0  0  0  0
 20 46  1  0  0  0  0
 21 47  1  0  0  0  0
 21 48  1  0  0  0  0
 22 23  1  0  0  0  0
 22 49  1  0  0  0  0
 22 50  1  0  0  0  0
 23 24  1  0  0  0  0
 23 51  1  0  0  0  0
 23 52  1  0  0  0  0
 24 25  1  0  0  0  0
 24 29  1  0  0  0  0
 25 27  1  0  0  0  0
 25 26  1  0  0  0  0
 25 53  1  0  0  0  0
 26 27  1  0  0  0  0
 26 54  1  0  0  0  0
 26 55  1  0  0  0  0
 27 28  1  0  0  0  0
 27 56  1  0  0  0  0
 28 57  1  0  0  0  0
 28 58  1  0  0  0  0
 28 59  1  0  0  0  0
 29 60  1  0  0  0  0
 29 61  1  0  0  0  0
M  END
> <s_m_source_file>
AV-unprocessed.smi

> <i_m_source_file_index>
193

> <i_lp_mmshare_version>
43012

> <i_f3d_flags>
0

> <s_epik_input>
W0NIM11bQ0BASF0xW0NIMl1bQ0BIXTFOKFtDSDJdMilbQ0gyXVtDSDJdTihbQ0gyXVtDQEhdMltDSDNdKWMobltjSF1uMyljKGMzNCluW2NIXW40W0NIMl1DNShbT0hdKVtDSDJdW0NIMl1PW0NIMl1bQ0gyXTU=

> <s_epik_cmdline>
J2VwaWtfcHl0aG9uJywgJy1waCcsICc3LjAnLCAnLXRuJywgJzgnLCAnLW1hJywgJzIwMCcsICctbWV0YWxfYmluZGluZycsICctaW1hZScsICc8aW5maWxlLm1hZT4nLCAnLW9tYWUnLCAnPG91dGZpbGUubWFlPic=

> <r_lp_tautomer_probability>
1

> <r_epik_Ionization_Penalty>
1.45227

> <r_epik_Ionization_Penalty_Charging>
0

> <r_epik_Ionization_Penalty_Neutral>
1.45227

> <r_epik_State_Penalty>
2.02377

> <r_epik_Charging_Adjusted_Penalty>
2.02377

> <i_epik_Tot_Q>
0

> <i_epik_Tot_abs_Q>
0

> <r_epik_Metal_State_Penalty>
2.01937

> <b_epik_Metal_Only>
0

> <s_lp_Force_Field>
OPLS_2005

> <r_lp_Energy>
48.8748

> <b_lp_Chiralities_Consistent>
1

> <s_lp_Variant>
AV-unprocessed.smi:193-17

> <Gold.Version>
5.8.1

> <Gold.Id.Protein>
6NUR|6NUR_protein|mol2

> <Gold.PLP.Fitness>
44.2302

> <Gold.PLP.PLP>
-36.6185

> <Gold.PLP.part.hbond>
-2.0000

> <Gold.PLP.part.metal>
0.0000

> <Gold.PLP.part.buried>
-8.0699

> <Gold.PLP.part.nonpolar>
-28.3358

> <Gold.PLP.part.repulsive>
0.4661

> <Gold.PLP.ligand.clash>
0.0000

> <Gold.PLP.ligand.torsion>
1.0185

> <Gold.PLP.Chemscore.Hbond>
1.0000

> <Gold.PLP.Chemscore.CHOScore>
1.7951

> <Gold.PLP.Chemscore.Metal>
0.0000

> <Gold.Chemscore.Hbonds>
donor molecule, donor type, donor heavy atom, donor atom, acceptor molecule, acceptor atom, score
      L1  H    16    40       P1  7921  1.00
      L1  C    12    37       P1 10171  0.35
      L1  C    12    37       P1 10175  0.67

> <Gold.PLP.Chemscore.Internal.Correction>
1.2634

> <Gold.Rescore>
     Score         DG    S(hbond)    S(metal)    S(lipo)     H(rot)  DE(clash)    DE(int)     intcor
     13.17     -15.66       1.00        0.00     100.19       1.91       0.08       2.41       ----

> <Gold.Chemscore.Fitness>
13.1672

> <Gold.Chemscore.DG>
-15.6551

> <Gold.Chemscore.ZeroCoef>
-5.4800

> <Gold.Chemscore.Hbond>
0.9983

> <Gold.Chemscore.Metal>
0.0000

> <Gold.Chemscore.Lipo>
100.1902

> <Gold.Chemscore.Internal_Hbond>
0.0000

> <Gold.Chemscore.DEClash>
0.0791

> <Gold.Chemscore.DEInternal>
2.4088

> <Gold.Chemscore.Rot>
1.9068

> <Gold.Chemscore.Internal.Correction>
   9.000000E+99

> <Gold.Chemscore.Hbonds>
donor molecule, donor type, donor heavy atom, donor atom, acceptor molecule, acceptor atom, score
      L1  H    16    40       P1  7921  0.95

> <Gold.Chemscore.Hbond.Weighted>
-3.3342

> <Gold.Chemscore.Metal.Weighted>
-0.0000

> <Gold.Chemscore.Lipo.Weighted>
-11.7222

> <Gold.Chemscore.Internal_Hbond.Weighted>
0.0000

> <Gold.Chemscore.DEClash.Weighted>
0.0791

> <Gold.Chemscore.DEInternal.Weighted>
2.4088

> <Gold.Chemscore.Rot.Weighted>
4.8814

> <Gold.Chemscore.Internal.Correction.Weighted>
   9.000000E+99

> <Gold.Protein.RotatedTorsions>
[ 6907 6896 6895 6894 ] final   46.09 input  -60.11 | X-H torsion
[ 7974 7965 7964 7962 ] final  -35.56 input  175.53 | X-H torsion
[ 8008 7997 7996 7995 ] final   64.93 input   59.86 | X-H torsion
[ 10167 10162 10161 10158 ] final  -76.02 input  -65.29 | X-H torsion
[ 10718 10713 10712 10709 ] final  -11.32 input   66.30 | X-H torsion
[ 10763 10752 10751 10750 ] final    3.43 input  -60.55 | X-H torsion
[ 11005 11000 10999 10996 ] final  171.94 input  -57.11 | X-H torsion

> <Gold.Protein.ActiveResidues>
 VAL166  LYS551  ARG553  GLY616  TRP617  ASP618  TYR619  PRO620  LYS621  CYS622 
 ASP623  PHE694  ASN695  SER759  ASP760  ASP761  ALA762  ILE779  LEU786  VAL792 
 PHE793  MET794  SER795  GLU796  ALA797  LYS798  CYS799  TRP800  GLU811  SER814 

> <Gold.Protein.RotatedAtoms>
  152.2522  134.8120  160.0443 H   0  0  0  0  0  0  0  0  0  0  0  0  # atno 6907 bound_to 6896
  151.8796  133.3487  159.3770 H   0  0  0  0  0  0  0  0  0  0  0  0  # atno 6908 bound_to 6896
  150.7088  134.4958  159.5582 H   0  0  0  0  0  0  0  0  0  0  0  0  # atno 6909 bound_to 6896
  146.0736  140.6174  142.8941 H   0  0  0  0  0  0  0  0  0  0  0  0  # atno 7974 bound_to 7965
  155.6537  140.3497  155.4757 H   0  0  0  0  0  0  0  0  0  0  0  0  # atno 8008 bound_to 7997
  155.9826  140.1177  157.0735 H   0  0  0  0  0  0  0  0  0  0  0  0  # atno 8009 bound_to 7997
  154.4196  140.1135  156.5442 H   0  0  0  0  0  0  0  0  0  0  0  0  # atno 8010 bound_to 7997
  140.4893  143.2384  151.7933 H   0  0  0  0  0  0  0  0  0  0  0  0  # atno 10167 bound_to 10162
  156.6608  130.4981  149.6031 H   0  0  0  0  0  0  0  0  0  0  0  0  # atno 10718 bound_to 10713
  153.2835  135.6942  153.7362 H   0  0  0  0  0  0  0  0  0  0  0  0  # atno 10763 bound_to 10752
  153.6341  135.3405  155.3052 H   0  0  0  0  0  0  0  0  0  0  0  0  # atno 10764 bound_to 10752
  154.8502  135.4416  154.1895 H   0  0  0  0  0  0  0  0  0  0  0  0  # atno 10765 bound_to 10752
  140.3244  134.7410  157.4088 H   0  0  0  0  0  0  0  0  0  0  0  0  # atno 11005 bound_to 11000
  144.7247  140.4487  143.6982 LP  0  0  0  0  0  0  0  0  0  0  0  0  # atno 17320 bound_to 7965
  145.6347  139.1541  143.2949 LP  0  0  0  0  0  0  0  0  0  0  0  0  # atno 17321 bound_to 7965
  139.4848  144.4670  151.9471 LP  0  0  0  0  0  0  0  0  0  0  0  0  # atno 17342 bound_to 10162
  140.3757  144.2800  150.5914 LP  0  0  0  0  0  0  0  0  0  0  0  0  # atno 17343 bound_to 10162
  156.2012  130.6621  151.1170 LP  0  0  0  0  0  0  0  0  0  0  0  0  # atno 17370 bound_to 10713
  157.7110  131.0734  150.6500 LP  0  0  0  0  0  0  0  0  0  0  0  0  # atno 17371 bound_to 10713
  140.0914  134.5596  155.8441 LP  0  0  0  0  0  0  0  0  0  0  0  0  # atno 17394 bound_to 11000
  141.2079  133.6668  156.6334 LP  0  0  0  0  0  0  0  0  0  0  0  0  # atno 17395 bound_to 11000

$$$$
