AV-unprocessed.smi:648|AV-procd|sdf|3175|dock9
  -GOLD-   22720 0103D 1   1.00000     0.00000
 Structure written by MMmdl.
 45 46  0  0  0  0  0  0  0  0  1 V2000
  152.5751  139.2718  154.7276 C   0  0  0  0  0  0  0  0  0  0  0  0
  151.0676  139.3454  155.0125 C   0  0  1  0  0  0  0  0  0  0  0  0
  150.6039  138.1367  155.8478 C   0  0  0  0  0  0  0  0  0  0  0  0
  149.0885  138.1381  156.1575 C   0  0  0  0  0  0  0  0  0  0  0  0
  148.2765  137.6999  154.9165 C   0  0  0  0  0  0  0  0  0  0  0  0
  148.8148  137.0805  157.2498 C   0  0  0  0  0  0  0  0  0  0  0  0
  148.6495  139.5264  156.7182 C   0  0  0  0  0  0  0  0  0  0  0  0
  149.1828  140.8118  156.0085 C   0  0  1  0  0  0  0  0  0  0  0  0
  148.3971  141.0812  154.6956 C   0  0  0  0  0  0  0  0  0  0  0  0
  148.6180  142.3879  154.1986 O   0  0  0  0  0  0  0  0  0  0  0  0
  148.9101  141.9894  156.8646 N   0  0  0  0  0  0  0  0  0  0  0  0
  149.5778  142.1170  158.1658 C   0  0  0  0  0  0  0  0  0  0  0  0
  150.9247  142.8351  158.0087 C   0  0  0  0  0  0  0  0  0  0  0  0
  151.1440  143.8003  159.0677 N   0  0  0  0  0  0  0  0  0  0  0  0
  150.6029  145.0026  159.2711 C   0  0  0  0  0  0  0  0  0  0  0  0
  151.0463  145.6116  160.3622 N   0  0  0  0  0  0  0  0  0  0  0  0
  151.9182  144.6614  160.8149 C   0  0  0  0  0  0  0  0  0  0  0  0
  152.0132  143.5555  160.0763 N   0  0  0  0  0  0  0  0  0  0  0  0
  150.7067  140.6515  155.7423 C   0  0  0  0  0  0  0  0  0  0  0  0
  153.1554  139.2881  155.6507 H   0  0  0  0  0  0  0  0  0  0  0  0
  152.9005  140.1132  154.1154 H   0  0  0  0  0  0  0  0  0  0  0  0
  152.8293  138.3574  154.1908 H   0  0  0  0  0  0  0  0  0  0  0  0
  150.5662  139.3281  154.0459 H   0  0  0  0  0  0  0  0  0  0  0  0
  150.8751  137.2095  155.3409 H   0  0  0  0  0  0  0  0  0  0  0  0
  151.1622  138.1351  156.7853 H   0  0  0  0  0  0  0  0  0  0  0  0
  147.2109  137.8907  155.0474 H   0  0  0  0  0  0  0  0  0  0  0  0
  148.3905  136.6307  154.7333 H   0  0  0  0  0  0  0  0  0  0  0  0
  148.5956  138.1824  153.9973 H   0  0  0  0  0  0  0  0  0  0  0  0
  147.7539  137.0328  157.4983 H   0  0  0  0  0  0  0  0  0  0  0  0
  149.3558  137.2993  158.1713 H   0  0  0  0  0  0  0  0  0  0  0  0
  149.1212  136.0842  156.9289 H   0  0  0  0  0  0  0  0  0  0  0  0
  147.5617  139.5693  156.7884 H   0  0  0  0  0  0  0  0  0  0  0  0
  148.9906  139.5468  157.7511 H   0  0  0  0  0  0  0  0  0  0  0  0
  148.6767  140.4061  153.8962 H   0  0  0  0  0  0  0  0  0  0  0  0
  147.3262  140.9451  154.8526 H   0  0  0  0  0  0  0  0  0  0  0  0
  148.8354  142.9519  154.9251 H   0  0  0  0  0  0  0  0  0  0  0  0
  149.0554  142.8355  156.3225 H   0  0  0  0  0  0  0  0  0  0  0  0
  148.9646  142.6659  158.8780 H   0  0  0  0  0  0  0  0  0  0  0  0
  149.7663  141.1339  158.5956 H   0  0  0  0  0  0  0  0  0  0  0  0
  151.7442  142.1150  158.0241 H   0  0  0  0  0  0  0  0  0  0  0  0
  150.9738  143.3537  157.0502 H   0  0  0  0  0  0  0  0  0  0  0  0
  149.8713  145.4410  158.6082 H   0  0  0  0  0  0  0  0  0  0  0  0
  152.4994  144.7884  161.7163 H   0  0  0  0  0  0  0  0  0  0  0  0
  151.2549  140.6404  156.6837 H   0  0  0  0  0  0  0  0  0  0  0  0
  151.0910  141.5088  155.1886 H   0  0  0  0  0  0  0  0  0  0  0  0
  1  2  1  0  0  0  0
  1 20  1  0  0  0  0
  1 21  1  0  0  0  0
  1 22  1  0  0  0  0
  2 19  1  0  0  0  0
  2  3  1  0  0  0  0
  2 23  1  0  0  0  0
  3  4  1  0  0  0  0
  3 24  1  0  0  0  0
  3 25  1  0  0  0  0
  4  5  1  0  0  0  0
  4  6  1  0  0  0  0
  4  7  1  0  0  0  0
  5 26  1  0  0  0  0
  5 27  1  0  0  0  0
  5 28  1  0  0  0  0
  6 29  1  0  0  0  0
  6 30  1  0  0  0  0
  6 31  1  0  0  0  0
  7  8  1  0  0  0  0
  7 32  1  0  0  0  0
  7 33  1  0  0  0  0
  8  9  1  0  0  0  0
  8 11  1  0  0  0  0
  8 19  1  0  0  0  0
  9 10  1  0  0  0  0
  9 34  1  0  0  0  0
  9 35  1  0  0  0  0
 10 36  1  0  0  0  0
 11 12  1  0  0  0  0
 11 37  1  0  0  0  0
 12 13  1  0  0  0  0
 12 38  1  0  0  0  0
 12 39  1  0  0  0  0
 13 14  1  0  0  0  0
 13 40  1  0  0  0  0
 13 41  1  0  0  0  0
 14 18  1  0  0  0  0
 14 15  1  0  0  0  0
 15 16  2  0  0  0  0
 15 42  1  0  0  0  0
 16 17  1  0  0  0  0
 17 18  2  0  0  0  0
 17 43  1  0  0  0  0
 19 44  1  0  0  0  0
 19 45  1  0  0  0  0
M  END
> <s_m_source_file>
AV-unprocessed.smi

> <i_m_source_file_index>
648

> <i_lp_mmshare_version>
43012

> <i_f3d_flags>
0

> <s_epik_input>
W0NIM11DMShbQ0gzXSlbQ0gyXVtDQEBIXShbQ0gzXSlbQ0gyXVtDQF0oW0NIMl0xKShbQ0gyXVtPSF0pW05IXVtDSDJdW0NIMl1uMltjSF1uW2NIXW4y

> <s_epik_cmdline>
J2VwaWtfcHl0aG9uJywgJy1waCcsICc3LjAnLCAnLXRuJywgJzgnLCAnLW1hJywgJzIwMCcsICctbWV0YWxfYmluZGluZycsICctaW1hZScsICc8aW5maWxlLm1hZT4nLCAnLW9tYWUnLCAnPG91dGZpbGUubWFlPic=

> <r_lp_tautomer_probability>
1

> <r_epik_Ionization_Penalty>
2.45849

> <r_epik_Ionization_Penalty_Charging>
0

> <r_epik_Ionization_Penalty_Neutral>
2.45849

> <r_epik_State_Penalty>
2.62037

> <r_epik_Charging_Adjusted_Penalty>
2.62037

> <i_epik_Tot_Q>
0

> <i_epik_Tot_abs_Q>
0

> <r_epik_Metal_State_Penalty>
2.62024

> <b_epik_Metal_Only>
0

> <s_lp_Force_Field>
OPLS_2005

> <r_lp_Energy>
36.0578

> <b_lp_Chiralities_Consistent>
1

> <s_lp_Variant>
AV-unprocessed.smi:648-6

> <Gold.Version>
5.8.1

> <Gold.Id.Protein>
6NUR|6NUR_protein|mol2

> <Gold.PLP.Fitness>
41.9611

> <Gold.PLP.PLP>
-33.7533

> <Gold.PLP.part.hbond>
-4.8390

> <Gold.PLP.part.metal>
0.0000

> <Gold.PLP.part.buried>
-5.2404

> <Gold.PLP.part.nonpolar>
-24.4351

> <Gold.PLP.part.repulsive>
0.2250

> <Gold.PLP.ligand.clash>
0.0000

> <Gold.PLP.ligand.torsion>
0.7962

> <Gold.PLP.Chemscore.Hbond>
2.2560

> <Gold.PLP.Chemscore.CHOScore>
1.0000

> <Gold.PLP.Chemscore.Metal>
0.0000

> <Gold.Chemscore.Hbonds>
donor molecule, donor type, donor heavy atom, donor atom, acceptor molecule, acceptor atom, score
      L1  H    10    36       P1  8028  0.94
      L1  H    11    37       P1  8028  1.00
      P1  H  8011  8017       L1    10  0.12
      L1  C    15    42       P1  8029  1.00

> <Gold.PLP.Chemscore.Internal.Correction>
0.0323

> <Gold.Rescore>
     Score         DG    S(hbond)    S(metal)    S(lipo)     H(rot)  DE(clash)    DE(int)     intcor
     10.37     -11.06       2.06        0.00      57.22       3.12       0.05       0.64       ----

> <Gold.Chemscore.Fitness>
10.3701

> <Gold.Chemscore.DG>
-11.0592

> <Gold.Chemscore.ZeroCoef>
-5.4800

> <Gold.Chemscore.Hbond>
2.0561

> <Gold.Chemscore.Metal>
0.0000

> <Gold.Chemscore.Lipo>
57.2194

> <Gold.Chemscore.Internal_Hbond>
0.0000

> <Gold.Chemscore.DEClash>
0.0476

> <Gold.Chemscore.DEInternal>
0.6415

> <Gold.Chemscore.Rot>
3.1183

> <Gold.Chemscore.Internal.Correction>
   9.000000E+99

> <Gold.Chemscore.Hbonds>
donor molecule, donor type, donor heavy atom, donor atom, acceptor molecule, acceptor atom, score
      L1  H    10    36       P1  8028  0.91
      L1  H    11    37       P1  8028  0.96
      P1  H  8011  8017       L1    10  0.11

> <Gold.Chemscore.Hbond.Weighted>
-6.8675

> <Gold.Chemscore.Metal.Weighted>
-0.0000

> <Gold.Chemscore.Lipo.Weighted>
-6.6947

> <Gold.Chemscore.Internal_Hbond.Weighted>
0.0000

> <Gold.Chemscore.DEClash.Weighted>
0.0476

> <Gold.Chemscore.DEInternal.Weighted>
0.6415

> <Gold.Chemscore.Rot.Weighted>
7.9829

> <Gold.Chemscore.Internal.Correction.Weighted>
   9.000000E+99

> <Gold.Protein.RotatedTorsions>
[ 6907 6896 6895 6894 ] final  143.91 input  -60.11 | X-H torsion
[ 7974 7965 7964 7962 ] final  148.55 input  175.53 | X-H torsion
[ 8008 7997 7996 7995 ] final   94.41 input   59.86 | X-H torsion
[ 10167 10162 10161 10158 ] final  -56.80 input  -65.29 | X-H torsion
[ 10718 10713 10712 10709 ] final -173.47 input   66.30 | X-H torsion
[ 10763 10752 10751 10750 ] final  115.24 input  -60.55 | X-H torsion
[ 11005 11000 10999 10996 ] final  138.10 input  -57.11 | X-H torsion

> <Gold.Protein.ActiveResidues>
 VAL166  LYS551  ARG553  GLY616  TRP617  ASP618  TYR619  PRO620  LYS621  CYS622 
 ASP623  PHE694  ASN695  SER759  ASP760  ASP761  ALA762  ILE779  LEU786  VAL792 
 PHE793  MET794  SER795  GLU796  ALA797  LYS798  CYS799  TRP800  GLU811  SER814 

> <Gold.Protein.RotatedAtoms>
  152.2004  133.4836  159.5054 H   0  0  0  0  0  0  0  0  0  0  0  0  # atno 6907 bound_to 6896
  150.6968  134.1598  159.4181 H   0  0  0  0  0  0  0  0  0  0  0  0  # atno 6908 bound_to 6896
  151.9515  135.0166  160.0593 H   0  0  0  0  0  0  0  0  0  0  0  0  # atno 6909 bound_to 6896
  144.8505  139.6168  143.5976 H   0  0  0  0  0  0  0  0  0  0  0  0  # atno 7974 bound_to 7965
  156.0576  140.3300  155.7424 H   0  0  0  0  0  0  0  0  0  0  0  0  # atno 8008 bound_to 7997
  155.5504  140.0610  157.2868 H   0  0  0  0  0  0  0  0  0  0  0  0  # atno 8009 bound_to 7997
  154.4466  140.1895  156.0669 H   0  0  0  0  0  0  0  0  0  0  0  0  # atno 8010 bound_to 7997
  140.6296  143.2453  151.5275 H   0  0  0  0  0  0  0  0  0  0  0  0  # atno 10167 bound_to 10162
  156.7708  130.9448  151.3120 H   0  0  0  0  0  0  0  0  0  0  0  0  # atno 10718 bound_to 10713
  153.5193  135.3601  155.2624 H   0  0  0  0  0  0  0  0  0  0  0  0  # atno 10763 bound_to 10752
  154.8736  135.4041  154.3278 H   0  0  0  0  0  0  0  0  0  0  0  0  # atno 10764 bound_to 10752
  153.3946  135.7073  153.6537 H   0  0  0  0  0  0  0  0  0  0  0  0  # atno 10765 bound_to 10752
  140.0160  134.9418  157.0377 H   0  0  0  0  0  0  0  0  0  0  0  0  # atno 11005 bound_to 11000
  146.2781  139.6804  142.9249 LP  0  0  0  0  0  0  0  0  0  0  0  0  # atno 17320 bound_to 7965
  145.4509  141.0428  143.2805 LP  0  0  0  0  0  0  0  0  0  0  0  0  # atno 17321 bound_to 7965
  139.5512  144.2392  152.1533 LP  0  0  0  0  0  0  0  0  0  0  0  0  # atno 17342 bound_to 10162
  140.1632  144.5006  150.6621 LP  0  0  0  0  0  0  0  0  0  0  0  0  # atno 17343 bound_to 10162
  157.6692  130.9035  150.0001 LP  0  0  0  0  0  0  0  0  0  0  0  0  # atno 17370 bound_to 10713
  156.1279  130.3644  149.9779 LP  0  0  0  0  0  0  0  0  0  0  0  0  # atno 17371 bound_to 10713
  140.4470  134.1622  155.7178 LP  0  0  0  0  0  0  0  0  0  0  0  0  # atno 17394 bound_to 11000
  141.1743  133.8546  157.1471 LP  0  0  0  0  0  0  0  0  0  0  0  0  # atno 17395 bound_to 11000

$$$$
