AV-unprocessed.smi:283|AV-procd|sdf|2154|dock7
  -GOLD-   2262021503D 1   1.00000     0.00000
 Structure written by MMmdl.
 48 51  0  0  0  0  0  0  0  0  1 V2000
  152.4918  138.3215  158.1701 C   0  0  0  0  0  0  0  0  0  0  0  0
  151.6919  139.6144  157.9614 C   0  0  1  0  0  0  0  0  0  0  0  0
  150.2732  139.3599  158.2028 N   0  0  0  0  0  0  0  0  0  0  0  0
  149.3448  139.6062  157.2518 C   0  0  0  0  0  0  0  0  0  0  0  0
  149.1262  140.9138  156.9763 N   0  0  0  0  0  0  0  0  0  0  0  0
  148.2422  141.2628  156.0382 C   0  0  0  0  0  0  0  0  0  0  0  0
  147.4833  140.4756  155.2749 N   0  0  0  0  0  0  0  0  0  0  0  0
  147.6846  139.1553  155.5536 C   0  0  0  0  0  0  0  0  0  0  0  0
  148.5879  138.6382  156.5270 C   0  0  0  0  0  0  0  0  0  0  0  0
  148.5022  137.2509  156.5385 N   0  0  0  0  0  0  0  0  0  0  0  0
  147.6197  136.9709  155.6202 C   0  0  0  0  0  0  0  0  0  0  0  0
  147.0741  138.0576  154.9768 N   0  0  0  0  0  0  0  0  0  0  0  0
  146.0443  138.0381  153.8868 C   0  0  2  0  0  0  0  0  0  0  0  0
  145.6943  136.7154  153.6004 O   0  0  0  0  0  0  0  0  0  0  0  0
  145.9408  136.4189  152.2268 C   0  0  1  0  0  0  0  0  0  0  0  0
  144.9059  135.3917  151.7409 C   0  0  0  0  0  0  0  0  0  0  0  0
  145.0940  135.1019  150.3722 O   0  0  0  0  0  0  0  0  0  0  0  0
  145.8663  137.7888  151.5463 C   0  0  2  0  0  0  0  0  0  0  0  0
  146.5103  137.8379  150.2875 O   0  0  0  0  0  0  0  0  0  0  0  0
  146.5239  138.6946  152.5778 C   0  0  2  0  0  0  0  0  0  0  0  0
  147.9371  138.7375  152.4469 O   0  0  0  0  0  0  0  0  0  0  0  0
  152.2904  140.7504  158.7965 C   0  0  0  0  0  0  0  0  0  0  0  0
  153.1262  140.4518  159.8981 C   0  0  0  0  0  0  0  0  0  0  0  0
  153.6808  141.4823  160.6798 C   0  0  0  0  0  0  0  0  0  0  0  0
  153.4124  142.8259  160.3637 C   0  0  0  0  0  0  0  0  0  0  0  0
  152.5954  143.1359  159.2609 C   0  0  0  0  0  0  0  0  0  0  0  0
  152.0382  142.1080  158.4739 C   0  0  0  0  0  0  0  0  0  0  0  0
  151.0558  142.5498  157.1210 Cl  0  0  0  0  0  0  0  0  0  0  0  0
  145.1780  138.5426  154.3168 H   0  0  0  0  0  0  0  0  0  0  0  0
  146.9494  136.0105  152.1461 H   0  0  0  0  0  0  0  0  0  0  0  0
  144.8224  138.0819  151.4232 H   0  0  0  0  0  0  0  0  0  0  0  0
  146.1446  139.7152  152.5209 H   0  0  0  0  0  0  0  0  0  0  0  0
  153.5415  138.4637  157.9111 H   0  0  0  0  0  0  0  0  0  0  0  0
  152.1070  137.5153  157.5449 H   0  0  0  0  0  0  0  0  0  0  0  0
  152.4472  137.9894  159.2078 H   0  0  0  0  0  0  0  0  0  0  0  0
  151.7759  139.8670  156.9059 H   0  0  0  0  0  0  0  0  0  0  0  0
  150.0233  139.2707  159.1770 H   0  0  0  0  0  0  0  0  0  0  0  0
  148.1278  142.3240  155.8735 H   0  0  0  0  0  0  0  0  0  0  0  0
  147.3388  135.9541  155.3874 H   0  0  0  0  0  0  0  0  0  0  0  0
  145.0155  134.4618  152.2996 H   0  0  0  0  0  0  0  0  0  0  0  0
  143.8889  135.7485  151.9066 H   0  0  0  0  0  0  0  0  0  0  0  0
  144.4761  135.6101  149.8693 H   0  0  0  0  0  0  0  0  0  0  0  0
  145.8725  138.0974  149.6399 H   0  0  0  0  0  0  0  0  0  0  0  0
  148.2515  137.8572  152.3082 H   0  0  0  0  0  0  0  0  0  0  0  0
  153.3458  139.4256  160.1539 H   0  0  0  0  0  0  0  0  0  0  0  0
  154.3125  141.2408  161.5220 H   0  0  0  0  0  0  0  0  0  0  0  0
  153.8363  143.6184  160.9627 H   0  0  0  0  0  0  0  0  0  0  0  0
  152.3973  144.1693  159.0167 H   0  0  0  0  0  0  0  0  0  0  0  0
  1  2  1  0  0  0  0
  1 33  1  0  0  0  0
  1 34  1  0  0  0  0
  1 35  1  0  0  0  0
  2  3  1  0  0  0  0
  2 22  1  0  0  0  0
  2 36  1  0  0  0  0
  3  4  1  0  0  0  0
  3 37  1  0  0  0  0
  4  9  1  0  0  0  0
  4  5  2  0  0  0  0
  5  6  1  0  0  0  0
  6  7  2  0  0  0  0
  6 38  1  0  0  0  0
  7  8  1  0  0  0  0
  8 12  1  0  0  0  0
  8  9  2  0  0  0  0
  9 10  1  0  0  0  0
 10 11  2  0  0  0  0
 11 12  1  0  0  0  0
 11 39  1  0  0  0  0
 12 13  1  0  0  0  0
 13 29  1  0  0  0  0
 13 20  1  0  0  0  0
 13 14  1  0  0  0  0
 14 15  1  0  0  0  0
 15 30  1  0  0  0  0
 15 16  1  0  0  0  0
 15 18  1  0  0  0  0
 16 17  1  0  0  0  0
 16 40  1  0  0  0  0
 16 41  1  0  0  0  0
 17 42  1  0  0  0  0
 18 31  1  0  0  0  0
 18 19  1  0  0  0  0
 18 20  1  0  0  0  0
 19 43  1  0  0  0  0
 20 32  1  0  0  0  0
 20 21  1  0  0  0  0
 21 44  1  0  0  0  0
 22 27  1  0  0  0  0
 22 23  2  0  0  0  0
 23 24  1  0  0  0  0
 23 45  1  0  0  0  0
 24 25  2  0  0  0  0
 24 46  1  0  0  0  0
 25 26  1  0  0  0  0
 25 47  1  0  0  0  0
 26 27  2  0  0  0  0
 26 48  1  0  0  0  0
 27 28  1  0  0  0  0
M  END
> <s_m_source_file>
AV-unprocessed.smi

> <i_m_source_file_index>
283

> <i_lp_mmshare_version>
43012

> <i_f3d_flags>
0

> <s_epik_input>
Q2xjMVtjSF1bY0hdW2NIXVtjSF1jMVtDQEhdKFtDSDNdKVtOSF1jKG5bY0hdbjIpYyhjMjMpbltjSF1uM1tDQEBIXTRPW0NASF0oW0NIMl1bT0hdKVtDQEBIXShbT0hdKVtDQEhdNFtPSF0=

> <s_epik_cmdline>
J2VwaWtfcHl0aG9uJywgJy1waCcsICc3LjAnLCAnLXRuJywgJzgnLCAnLW1hJywgJzIwMCcsICctbWV0YWxfYmluZGluZycsICctaW1hZScsICc8aW5maWxlLm1hZT4nLCAnLW9tYWUnLCAnPG91dGZpbGUubWFlPic=

> <r_lp_tautomer_probability>
1

> <r_epik_Ionization_Penalty>
0.000266407

> <r_epik_Ionization_Penalty_Charging>
0

> <r_epik_Ionization_Penalty_Neutral>
0.000266407

> <r_epik_State_Penalty>
-0

> <r_epik_Charging_Adjusted_Penalty>
0

> <i_epik_Tot_Q>
0

> <i_epik_Tot_abs_Q>
0

> <r_epik_Metal_State_Penalty>
-0

> <b_epik_Metal_Only>
0

> <s_epik_Chemistry_Notes>
This compound contains an acetal/aminal-like group ( X-CH(R)-Y where X, Y are N, S, or O) that may be acid/base labile, releasing an aldehyde.

> <s_lp_Force_Field>
OPLS_2005

> <r_lp_Energy>
52.4072

> <b_lp_Chiralities_Consistent>
1

> <s_lp_Variant>
AV-unprocessed.smi:283-30

> <Gold.Version>
5.8.1

> <Gold.Id.Protein>
6NUR|6NUR_protein|mol2

> <Gold.PLP.Fitness>
47.6559

> <Gold.PLP.PLP>
-39.4866

> <Gold.PLP.part.hbond>
-4.9397

> <Gold.PLP.part.metal>
0.0000

> <Gold.PLP.part.buried>
-3.4686

> <Gold.PLP.part.nonpolar>
-32.0247

> <Gold.PLP.part.repulsive>
0.3825

> <Gold.PLP.ligand.clash>
0.0000

> <Gold.PLP.ligand.torsion>
1.1793

> <Gold.PLP.Chemscore.Hbond>
2.4720

> <Gold.PLP.Chemscore.CHOScore>
1.0000

> <Gold.PLP.Chemscore.Metal>
0.0000

> <Gold.Chemscore.Hbonds>
donor molecule, donor type, donor heavy atom, donor atom, acceptor molecule, acceptor atom, score
      L1  H    19    43       P1 10171  0.65
      L1  H    21    44       P1  7948  1.00
      P1  H  7954  7966       L1    19  0.82
      L1  C     6    38       P1  8028  1.00

> <Gold.PLP.Chemscore.Internal.Correction>
0.1119

> <Gold.Rescore>
     Score         DG    S(hbond)    S(metal)    S(lipo)     H(rot)  DE(clash)    DE(int)     intcor
     12.03     -16.15       2.67        0.00     104.65       4.10       1.22       2.90       ----

> <Gold.Chemscore.Fitness>
12.0326

> <Gold.Chemscore.DG>
-16.1512

> <Gold.Chemscore.ZeroCoef>
-5.4800

> <Gold.Chemscore.Hbond>
2.6692

> <Gold.Chemscore.Metal>
0.0000

> <Gold.Chemscore.Lipo>
104.6497

> <Gold.Chemscore.Internal_Hbond>
0.0000

> <Gold.Chemscore.DEClash>
1.2168

> <Gold.Chemscore.DEInternal>
2.9018

> <Gold.Chemscore.Rot>
4.0968

> <Gold.Chemscore.Internal.Correction>
   9.000000E+99

> <Gold.Chemscore.Hbonds>
donor molecule, donor type, donor heavy atom, donor atom, acceptor molecule, acceptor atom, score
      L1  H    19    43       P1 10171  0.61
      L1  H    21    44       P1  7948  1.00
      P1  H  7954  7966       L1    19  0.78

> <Gold.Chemscore.Hbond.Weighted>
-8.9151

> <Gold.Chemscore.Metal.Weighted>
-0.0000

> <Gold.Chemscore.Lipo.Weighted>
-12.2440

> <Gold.Chemscore.Internal_Hbond.Weighted>
0.0000

> <Gold.Chemscore.DEClash.Weighted>
1.2168

> <Gold.Chemscore.DEInternal.Weighted>
2.9018

> <Gold.Chemscore.Rot.Weighted>
10.4879

> <Gold.Chemscore.Internal.Correction.Weighted>
   9.000000E+99

> <Gold.Protein.RotatedTorsions>
[ 6907 6896 6895 6894 ] final  165.38 input  -60.11 | X-H torsion
[ 7974 7965 7964 7962 ] final   54.19 input  175.53 | X-H torsion
[ 8008 7997 7996 7995 ] final -108.47 input   59.86 | X-H torsion
[ 10167 10162 10161 10158 ] final   35.23 input  -65.29 | X-H torsion
[ 10718 10713 10712 10709 ] final  -71.05 input   66.30 | X-H torsion
[ 10763 10752 10751 10750 ] final  -55.37 input  -60.55 | X-H torsion
[ 11005 11000 10999 10996 ] final   77.76 input  -57.11 | X-H torsion

> <Gold.Protein.ActiveResidues>
 VAL166  LYS551  ARG553  GLY616  TRP617  ASP618  TYR619  PRO620  LYS621  CYS622 
 ASP623  PHE694  ASN695  SER759  ASP760  ASP761  ALA762  ILE779  LEU786  VAL792 
 PHE793  MET794  SER795  GLU796  ALA797  LYS798  CYS799  TRP800  GLU811  SER814 

> <Gold.Protein.RotatedAtoms>
  151.8953  133.3525  159.3811 H   0  0  0  0  0  0  0  0  0  0  0  0  # atno 6907 bound_to 6896
  150.7093  134.4883  159.5512 H   0  0  0  0  0  0  0  0  0  0  0  0  # atno 6908 bound_to 6896
  152.2461  134.8180  160.0504 H   0  0  0  0  0  0  0  0  0  0  0  0  # atno 6909 bound_to 6896
  145.9634  139.4080  143.0234 H   0  0  0  0  0  0  0  0  0  0  0  0  # atno 7974 bound_to 7965
  154.9447  140.0402  157.2114 H   0  0  0  0  0  0  0  0  0  0  0  0  # atno 8008 bound_to 7997
  154.8035  140.2856  155.5882 H   0  0  0  0  0  0  0  0  0  0  0  0  # atno 8009 bound_to 7997
  156.2964  140.2550  156.2909 H   0  0  0  0  0  0  0  0  0  0  0  0  # atno 8010 bound_to 7997
  140.4241  144.1418  150.6151 H   0  0  0  0  0  0  0  0  0  0  0  0  # atno 10167 bound_to 10162
  156.0380  130.4343  150.2386 H   0  0  0  0  0  0  0  0  0  0  0  0  # atno 10718 bound_to 10713
  154.1897  135.6429  153.5056 H   0  0  0  0  0  0  0  0  0  0  0  0  # atno 10763 bound_to 10752
  153.0038  135.5426  154.6428 H   0  0  0  0  0  0  0  0  0  0  0  0  # atno 10764 bound_to 10752
  154.5813  135.2925  155.0702 H   0  0  0  0  0  0  0  0  0  0  0  0  # atno 10765 bound_to 10752
  139.9241  134.7709  156.1563 H   0  0  0  0  0  0  0  0  0  0  0  0  # atno 11005 bound_to 11000
  145.8008  140.9771  143.0999 LP  0  0  0  0  0  0  0  0  0  0  0  0  # atno 17320 bound_to 7965
  144.6820  139.9799  143.7483 LP  0  0  0  0  0  0  0  0  0  0  0  0  # atno 17321 bound_to 7965
  140.4501  143.2490  151.9360 LP  0  0  0  0  0  0  0  0  0  0  0  0  # atno 17342 bound_to 10162
  139.4783  144.5571  151.8297 LP  0  0  0  0  0  0  0  0  0  0  0  0  # atno 17343 bound_to 10162
  157.0484  131.0055  151.3261 LP  0  0  0  0  0  0  0  0  0  0  0  0  # atno 17370 bound_to 10713
  157.5159  130.7967  149.7755 LP  0  0  0  0  0  0  0  0  0  0  0  0  # atno 17371 bound_to 10713
  141.0785  133.6765  156.2286 LP  0  0  0  0  0  0  0  0  0  0  0  0  # atno 17394 bound_to 11000
  140.6388  134.5187  157.5567 LP  0  0  0  0  0  0  0  0  0  0  0  0  # atno 17395 bound_to 11000

$$$$
