AV-unprocessed.smi:2657|AV-procd|sdf|10307|dock1
  -GOLD-   2272014323D 1   1.00000     0.00000
 Structure written by MMmdl.
 46 48  0  0  0  0  0  0  0  0  1 V2000
  154.5151  137.9647  160.4126 O   0  0  0  0  0  0  0  0  0  0  0  0
  154.7492  138.4860  161.5024 C   0  0  0  0  0  0  0  0  0  0  0  0
  154.9329  139.8041  161.6628 N   0  0  0  0  0  0  0  0  0  0  0  0
  154.8433  140.7932  160.5954 C   0  0  0  0  0  0  0  0  0  0  0  0
  153.4090  140.8998  160.0374 C   0  0  0  0  0  0  0  0  0  0  0  0
  152.8004  142.2063  160.3132 N   0  0  0  0  0  0  0  0  0  0  0  0
  152.6810  142.7349  161.5396 C   0  0  0  0  0  0  0  0  0  0  0  0
  153.0669  142.2288  162.5930 O   0  0  0  0  0  0  0  0  0  0  0  0
  151.9787  144.0846  161.4876 C   0  0  0  0  0  0  0  0  0  0  0  0
  151.7050  144.2750  159.9927 C   0  0  0  0  0  0  0  0  0  0  0  0
  152.2751  143.0059  159.3744 C   0  0  0  0  0  0  0  0  0  0  0  0
  152.2339  142.7794  158.1655 O   0  0  0  0  0  0  0  0  0  0  0  0
  154.8436  137.8396  162.6771 N   0  0  0  0  0  0  0  0  0  0  0  0
  154.6642  136.4585  162.9674 C   0  0  0  0  0  0  0  0  0  0  0  0
  154.3197  135.9304  164.2342 C   0  0  0  0  0  0  0  0  0  0  0  0
  154.1730  134.5373  164.3759 C   0  0  0  0  0  0  0  0  0  0  0  0
  154.3670  133.6998  163.2523 C   0  0  0  0  0  0  0  0  0  0  0  0
  154.2240  132.3001  163.3737 N   0  0  0  0  0  0  0  0  0  0  0  0
  154.4312  131.4824  162.1797 C   0  0  0  0  0  0  0  0  0  0  0  0
  154.5277  129.9947  162.5578 C   0  0  0  0  0  0  0  0  0  0  0  0
  153.3706  129.6109  163.2928 O   0  0  0  0  0  0  0  0  0  0  0  0
  153.2496  130.3427  164.5079 C   0  0  0  0  0  0  0  0  0  0  0  0
  153.1100  131.8439  164.2017 C   0  0  0  0  0  0  0  0  0  0  0  0
  154.6982  134.2091  162.0409 N   0  0  0  0  0  0  0  0  0  0  0  0
  154.8376  135.5446  161.9090 C   0  0  0  0  0  0  0  0  0  0  0  0
  155.1220  140.1509  162.5919 H   0  0  0  0  0  0  0  0  0  0  0  0
  155.1158  141.7497  161.0421 H   0  0  0  0  0  0  0  0  0  0  0  0
  155.5806  140.6126  159.8109 H   0  0  0  0  0  0  0  0  0  0  0  0
  153.3849  140.6609  158.9724 H   0  0  0  0  0  0  0  0  0  0  0  0
  152.7909  140.1351  160.5110 H   0  0  0  0  0  0  0  0  0  0  0  0
  151.0561  144.0555  162.0685 H   0  0  0  0  0  0  0  0  0  0  0  0
  152.6233  144.8679  161.8874 H   0  0  0  0  0  0  0  0  0  0  0  0
  150.6386  144.3573  159.7812 H   0  0  0  0  0  0  0  0  0  0  0  0
  152.2124  145.1547  159.5953 H   0  0  0  0  0  0  0  0  0  0  0  0
  155.0287  138.4218  163.4810 H   0  0  0  0  0  0  0  0  0  0  0  0
  154.1616  136.5507  165.1011 H   0  0  0  0  0  0  0  0  0  0  0  0
  153.9277  134.1301  165.3453 H   0  0  0  0  0  0  0  0  0  0  0  0
  153.6030  131.6384  161.4868 H   0  0  0  0  0  0  0  0  0  0  0  0
  155.3463  131.7842  161.6686 H   0  0  0  0  0  0  0  0  0  0  0  0
  154.5965  129.3828  161.6582 H   0  0  0  0  0  0  0  0  0  0  0  0
  155.4267  129.8001  163.1448 H   0  0  0  0  0  0  0  0  0  0  0  0
  152.3728  129.9880  165.0497 H   0  0  0  0  0  0  0  0  0  0  0  0
  154.1150  130.1550  165.1454 H   0  0  0  0  0  0  0  0  0  0  0  0
  153.0519  132.3917  165.1411 H   0  0  0  0  0  0  0  0  0  0  0  0
  152.1770  132.0300  163.6682 H   0  0  0  0  0  0  0  0  0  0  0  0
  155.1000  135.8938  160.9210 H   0  0  0  0  0  0  0  0  0  0  0  0
  1  2  2  0  0  0  0
  2  3  1  0  0  0  0
  2 13  1  0  0  0  0
  3  4  1  0  0  0  0
  3 26  1  0  0  0  0
  4  5  1  0  0  0  0
  4 27  1  0  0  0  0
  4 28  1  0  0  0  0
  5  6  1  0  0  0  0
  5 29  1  0  0  0  0
  5 30  1  0  0  0  0
  6 11  1  0  0  0  0
  6  7  1  0  0  0  0
  7  8  2  0  0  0  0
  7  9  1  0  0  0  0
  9 10  1  0  0  0  0
  9 31  1  0  0  0  0
  9 32  1  0  0  0  0
 10 11  1  0  0  0  0
 10 33  1  0  0  0  0
 10 34  1  0  0  0  0
 11 12  2  0  0  0  0
 13 14  1  0  0  0  0
 13 35  1  0  0  0  0
 14 25  1  0  0  0  0
 14 15  2  0  0  0  0
 15 16  1  0  0  0  0
 15 36  1  0  0  0  0
 16 17  2  0  0  0  0
 16 37  1  0  0  0  0
 17 18  1  0  0  0  0
 17 24  1  0  0  0  0
 18 23  1  0  0  0  0
 18 19  1  0  0  0  0
 19 20  1  0  0  0  0
 19 38  1  0  0  0  0
 19 39  1  0  0  0  0
 20 21  1  0  0  0  0
 20 40  1  0  0  0  0
 20 41  1  0  0  0  0
 21 22  1  0  0  0  0
 22 23  1  0  0  0  0
 22 42  1  0  0  0  0
 22 43  1  0  0  0  0
 23 44  1  0  0  0  0
 23 45  1  0  0  0  0
 24 25  2  0  0  0  0
 25 46  1  0  0  0  0
M  END
> <s_m_source_file>
AV-unprocessed.smi

> <i_m_source_file_index>
2657

> <i_lp_mmshare_version>
43012

> <i_f3d_flags>
0

> <s_epik_input>
Tz1DMVtDSDJdW0NIMl1DKD1PKU4xW0NIMl1bQ0gyXVtOSF1DKD1PKVtOSF1jMltjSF1bY0hdYyhuW2NIXTIpTjNbQ0gyXVtDSDJdT1tDSDJdW0NIMl0z

> <s_epik_cmdline>
J2VwaWtfcHl0aG9uJywgJy1waCcsICc3LjAnLCAnLXRuJywgJzgnLCAnLW1hJywgJzIwMCcsICctbWV0YWxfYmluZGluZycsICctaW1hZScsICc8aW5maWxlLm1hZT4nLCAnLW9tYWUnLCAnPG91dGZpbGUubWFlPic=

> <r_lp_tautomer_probability>
1

> <r_epik_Ionization_Penalty>
0.00195667

> <r_epik_Ionization_Penalty_Charging>
0

> <r_epik_Ionization_Penalty_Neutral>
0.00195667

> <r_epik_State_Penalty>
0.0013118

> <r_epik_Charging_Adjusted_Penalty>
0.0013118

> <i_epik_Tot_Q>
0

> <i_epik_Tot_abs_Q>
0

> <r_epik_Metal_State_Penalty>
-0

> <b_epik_Metal_Only>
0

> <s_lp_Force_Field>
OPLS_2005

> <r_lp_Energy>
27.686

> <b_lp_Chiralities_Consistent>
1

> <s_lp_Variant>
AV-unprocessed.smi:2657-1

> <Gold.Version>
5.8.1

> <Gold.Id.Protein>
6NUR|6NUR_protein|mol2

> <Gold.PLP.Fitness>
44.5816

> <Gold.PLP.PLP>
-45.8277

> <Gold.PLP.part.hbond>
0.0000

> <Gold.PLP.part.metal>
0.0000

> <Gold.PLP.part.buried>
-6.1231

> <Gold.PLP.part.nonpolar>
-39.6856

> <Gold.PLP.part.repulsive>
0.0835

> <Gold.PLP.ligand.clash>
0.0000

> <Gold.PLP.ligand.torsion>
0.7988

> <Gold.PLP.Chemscore.Hbond>
0.0000

> <Gold.PLP.Chemscore.CHOScore>
0.0000

> <Gold.PLP.Chemscore.Metal>
0.0000

> <Gold.PLP.Chemscore.Internal.Correction>
0.3515

> <Gold.Rescore>
     Score         DG    S(hbond)    S(metal)    S(lipo)     H(rot)  DE(clash)    DE(int)     intcor
      9.67     -11.75       0.00        0.00      96.82       1.97       0.04       2.04       ----

> <Gold.Chemscore.Fitness>
9.6718

> <Gold.Chemscore.DG>
-11.7536

> <Gold.Chemscore.ZeroCoef>
-5.4800

> <Gold.Chemscore.Hbond>
0.0000

> <Gold.Chemscore.Metal>
0.0000

> <Gold.Chemscore.Lipo>
96.8176

> <Gold.Chemscore.Internal_Hbond>
0.0000

> <Gold.Chemscore.DEClash>
0.0402

> <Gold.Chemscore.DEInternal>
2.0416

> <Gold.Chemscore.Rot>
1.9742

> <Gold.Chemscore.Internal.Correction>
   9.000000E+99

> <Gold.Chemscore.Hbond.Weighted>
-0.0000

> <Gold.Chemscore.Metal.Weighted>
-0.0000

> <Gold.Chemscore.Lipo.Weighted>
-11.3277

> <Gold.Chemscore.Internal_Hbond.Weighted>
0.0000

> <Gold.Chemscore.DEClash.Weighted>
0.0402

> <Gold.Chemscore.DEInternal.Weighted>
2.0416

> <Gold.Chemscore.Rot.Weighted>
5.0540

> <Gold.Chemscore.Internal.Correction.Weighted>
   9.000000E+99

> <Gold.Protein.RotatedTorsions>
[ 6907 6896 6895 6894 ] final  152.32 input  -60.11 | X-H torsion
[ 7974 7965 7964 7962 ] final    8.52 input  175.53 | X-H torsion
[ 8008 7997 7996 7995 ] final  111.31 input   59.86 | X-H torsion
[ 10167 10162 10161 10158 ] final    8.00 input  -65.29 | X-H torsion
[ 10718 10713 10712 10709 ] final  -34.44 input   66.30 | X-H torsion
[ 10763 10752 10751 10750 ] final  176.01 input  -60.55 | X-H torsion
[ 11005 11000 10999 10996 ] final  155.09 input  -57.11 | X-H torsion

> <Gold.Protein.ActiveResidues>
 VAL166  LYS551  ARG553  GLY616  TRP617  ASP618  TYR619  PRO620  LYS621  CYS622 
 ASP623  PHE694  ASN695  SER759  ASP760  ASP761  ALA762  ILE779  LEU786  VAL792 
 PHE793  MET794  SER795  GLU796  ALA797  LYS798  CYS799  TRP800  GLU811  SER814 

> <Gold.Protein.RotatedAtoms>
  152.0884  133.4188  159.4532 H   0  0  0  0  0  0  0  0  0  0  0  0  # atno 6907 bound_to 6896
  150.6862  134.2900  159.4672 H   0  0  0  0  0  0  0  0  0  0  0  0  # atno 6908 bound_to 6896
  152.0749  134.9509  160.0625 H   0  0  0  0  0  0  0  0  0  0  0  0  # atno 6909 bound_to 6896
  146.2415  139.9921  142.8424 H   0  0  0  0  0  0  0  0  0  0  0  0  # atno 7974 bound_to 7965
  156.2115  140.3021  155.9743 H   0  0  0  0  0  0  0  0  0  0  0  0  # atno 8008 bound_to 7997
  155.2712  140.0434  157.3024 H   0  0  0  0  0  0  0  0  0  0  0  0  # atno 8009 bound_to 7997
  154.5706  140.2347  155.8206 H   0  0  0  0  0  0  0  0  0  0  0  0  # atno 8010 bound_to 7997
  140.6339  143.7930  150.7333 H   0  0  0  0  0  0  0  0  0  0  0  0  # atno 10167 bound_to 10162
  156.3506  130.4308  149.7708 H   0  0  0  0  0  0  0  0  0  0  0  0  # atno 10718 bound_to 10713
  154.4753  135.2772  155.1612 H   0  0  0  0  0  0  0  0  0  0  0  0  # atno 10763 bound_to 10752
  154.3344  135.6183  153.5570 H   0  0  0  0  0  0  0  0  0  0  0  0  # atno 10764 bound_to 10752
  152.9869  135.5773  154.5143 H   0  0  0  0  0  0  0  0  0  0  0  0  # atno 10765 bound_to 10752
  140.1549  134.8649  157.2501 H   0  0  0  0  0  0  0  0  0  0  0  0  # atno 11005 bound_to 11000
  145.1493  140.9614  143.4442 LP  0  0  0  0  0  0  0  0  0  0  0  0  # atno 17320 bound_to 7965
  145.0220  139.3415  143.6067 LP  0  0  0  0  0  0  0  0  0  0  0  0  # atno 17321 bound_to 7965
  140.1547  143.4327  152.2108 LP  0  0  0  0  0  0  0  0  0  0  0  0  # atno 17342 bound_to 10162
  139.5551  144.7367  151.4318 LP  0  0  0  0  0  0  0  0  0  0  0  0  # atno 17343 bound_to 10162
  156.4910  130.8085  151.3094 LP  0  0  0  0  0  0  0  0  0  0  0  0  # atno 17370 bound_to 10713
  157.7460  130.9975  150.2820 LP  0  0  0  0  0  0  0  0  0  0  0  0  # atno 17371 bound_to 10713
  140.2560  134.3627  155.7424 LP  0  0  0  0  0  0  0  0  0  0  0  0  # atno 17394 bound_to 11000
  141.2203  133.7343  156.9007 LP  0  0  0  0  0  0  0  0  0  0  0  0  # atno 17395 bound_to 11000

$$$$
