#       Name:                AV-unprocessed.smi:234
#       Creating user name   scv26
#       Creation time:       Thu Mar 26 20:34:02 2020


#       File generated by GOLD software.
#

@<TRIPOS>MOLECULE
AV-unprocessed.smi:234
    69    72     1
SMALL
NO_CHARGES


@<TRIPOS>ATOM
      1 ****        -6.5769   0.2133   3.1921 C.3            1 S1                 0.0000
      2 ****        -5.3056  -0.5233   3.6350 C.3            1 S1                 0.0000
      3 ****        -4.3479  -0.5906   2.5874 O.3            1 S1                 0.0000
      4 ****        -3.6034   0.6050   2.3948 C.3            1 S1                 0.0000
      5 ****        -2.4963   0.8362   3.4265 C.3            1 S1                 0.0000
      6 ****        -1.6778   1.3862   2.2553 C.3            1 S1                 0.0000
      7 ****        -0.2492   1.0727   2.3383 N.3            1 S1                 0.0000
      8 ****         0.4710   1.6311   3.4754 C.3            1 S1                 0.0000
      9 ****         0.4568   1.2522   1.1976 C.ar           1 S1                 0.0000
     10 ****         0.2479   2.3526   0.4270 N.ar           1 S1                 0.0000
     11 ****         0.9493   2.5232  -0.6978 C.ar           1 S1                 0.0000
     12 ****         1.8887   1.7340  -1.2240 N.ar           1 S1                 0.0000
     13 ****         2.1024   0.6317  -0.4494 C.ar           1 S1                 0.0000
     14 ****         1.4413   0.3220   0.7716 C.ar           1 S1                 0.0000
     15 ****         1.9196  -0.8767   1.2840 N.2            1 S1                 0.0000
     16 ****         2.8120  -1.2582   0.4114 C.2            1 S1                 0.0000
     17 ****         2.9772  -0.4185  -0.6680 N.pl3          1 S1                 0.0000
     18 ****         3.8893  -0.6110  -1.7857 C.3            1 S1                 0.0000
     19 ****         3.2735  -1.4337  -2.9485 C.3            1 S1                 0.0000
     20 ****         2.9006  -2.7029  -2.4363 O.3            1 S1                 0.0000
     21 ****         2.0294  -0.7948  -3.5600 C.3            1 S1                 0.0000
     22 ****         2.0490  -1.3063  -4.9919 C.3            1 S1                 0.0000
     23 ****         3.4270  -1.2456  -5.3147 O.3            1 S1                 0.0000
     24 ****         4.1851  -1.6738  -4.1857 C.3            1 S1                 0.0000
     25 ****         5.5258  -0.9232  -4.2146 C.3            1 S1                 0.0000
     26 ****        -2.5093   0.4739   1.3057 C.3            1 S1                 0.0000
     27 ****        -1.9960  -0.9563   1.0548 C.3            1 S1                 0.0000
     28 ****        -2.8725   1.0642  -0.0569 C.3            1 S1                 0.0000
     29 ****        -7.3361   0.1747   3.9736 H              1 S1                 0.0000
     30 ****        -6.9991  -0.2427   2.2965 H              1 S1                 0.0000
     31 ****        -6.3842   1.2637   2.9762 H              1 S1                 0.0000
     32 ****        -4.8803  -0.0687   4.5306 H              1 S1                 0.0000
     33 ****        -5.5693  -1.5463   3.9040 H              1 S1                 0.0000
     34 ****        -4.2251   1.4896   2.2426 H              1 S1                 0.0000
     35 ****        -2.7381   1.5680   4.1974 H              1 S1                 0.0000
     36 ****        -2.1013  -0.0876   3.8528 H              1 S1                 0.0000
     37 ****        -1.8869   2.4464   2.0969 H              1 S1                 0.0000
     38 ****         1.5153   1.3144   3.4791 H              1 S1                 0.0000
     39 ****         0.0238   1.2988   4.4123 H              1 S1                 0.0000
     40 ****         0.4420   2.7215   3.4520 H              1 S1                 0.0000
     41 ****         0.7243   3.4192  -1.2571 H              1 S1                 0.0000
     42 ****         3.3721  -2.1750   0.5265 H              1 S1                 0.0000
     43 ****         4.2025   0.3734  -2.1344 H              1 S1                 0.0000
     44 ****         4.7852  -1.1042  -1.4063 H              1 S1                 0.0000
     45 ****         2.2522  -2.5737  -1.7610 H              1 S1                 0.0000
     46 ****         1.1046  -1.0278  -3.0302 H              1 S1                 0.0000
     47 ****         2.1365   0.2902  -3.5810 H              1 S1                 0.0000
     48 ****         1.6984  -2.3379  -5.0485 H              1 S1                 0.0000
     49 ****         1.4491  -0.6965  -5.6678 H              1 S1                 0.0000
     50 ****         4.3860  -2.7398  -4.3090 H              1 S1                 0.0000
     51 ****         6.1664  -1.2188  -3.3838 H              1 S1                 0.0000
     52 ****         5.3818   0.1565  -4.1696 H              1 S1                 0.0000
     53 ****         6.0674  -1.1418  -5.1352 H              1 S1                 0.0000
     54 ****        -1.1584  -0.9698   0.3575 H              1 S1                 0.0000
     55 ****        -2.7753  -1.5881   0.6278 H              1 S1                 0.0000
     56 ****        -1.6585  -1.4407   1.9711 H              1 S1                 0.0000
     57 ****        -2.0320   1.0256  -0.7504 H              1 S1                 0.0000
     58 ****        -3.1732   2.1089   0.0270 H              1 S1                 0.0000
     59 ****        -3.7016   0.5242  -0.5152 H              1 S1                 0.0000
     60 ****        -4.8295  -0.7997   1.7364 LP             1 S1                 0.0000
     61 ****        -3.7062  -1.3283   2.7972 LP             1 S1                 0.0000
     62 ****        -0.3041   0.0873   2.4992 LP             1 S1                 0.0000
     63 ****        -0.4303   3.0342   0.7017 LP             1 S1                 0.0000
     64 ****         2.3738   1.9264  -2.0770 LP             1 S1                 0.0000
     65 ****         1.6442  -1.3401   2.1263 LP             1 S1                 0.0000
     66 ****         3.7022  -3.1605  -2.0515 LP             1 S1                 0.0000
     67 ****         2.5168  -3.2636  -3.1700 LP             1 S1                 0.0000
     68 ****         3.6758  -0.3058  -5.5492 LP             1 S1                 0.0000
     69 ****         3.6162  -1.8445  -6.0928 LP             1 S1                 0.0000
@<TRIPOS>BOND
    1    1    2 1     
    2    1   29 1     
    3    1   30 1     
    4    1   31 1     
    5    2    3 1     
    6    2   32 1     
    7    2   33 1     
    8    3    4 1     
    9    4   26 1     
   10    4    5 1     
   11    4   34 1     
   12    5    6 1     
   13    5   35 1     
   14    5   36 1     
   15    6    7 1     
   16    6   26 1     
   17    6   37 1     
   18    7    8 1     
   19    7    9 1     
   20    8   38 1     
   21    8   39 1     
   22    8   40 1     
   23    9   14 ar    
   24    9   10 ar    
   25   10   11 ar    
   26   11   12 ar    
   27   11   41 1     
   28   12   13 ar    
   29   13   17 1     
   30   13   14 ar    
   31   14   15 1     
   32   15   16 2     
   33   16   17 1     
   34   16   42 1     
   35   17   18 1     
   36   18   19 1     
   37   18   43 1     
   38   18   44 1     
   39   19   24 1     
   40   19   20 1     
   41   19   21 1     
   42   20   45 1     
   43   21   22 1     
   44   21   46 1     
   45   21   47 1     
   46   22   23 1     
   47   22   48 1     
   48   22   49 1     
   49   23   24 1     
   50   24   25 1     
   51   24   50 1     
   52   25   51 1     
   53   25   52 1     
   54   25   53 1     
   55   26   27 1     
   56   26   28 1     
   57   27   54 1     
   58   27   55 1     
   59   27   56 1     
   60   28   57 1     
   61   28   58 1     
   62   28   59 1     
   63    3   60 1     
   64    3   61 1     
   65    7   62 1     
   66   10   63 1     
   67   12   64 1     
   68   15   65 1     
   69   20   66 1     
   70   20   67 1     
   71   23   68 1     
   72   23   69 1     
@<TRIPOS>SUBSTRUCTURE
      1 S1             1
@<TRIPOS>SET
LONE_PAIRS      STATIC     ATOMS    <user>   **** ""
10 60 61 62 63 64 65 66 67 68 69
DONOR_HYDROGENS      STATIC     ATOMS    <user>   **** ""
1 45
ATOM$BLUE        STATIC     ATOMS    COLORGROUP SYSTEM
10 60 61 62 63 64 65 66 67 68 69
ATOM$RED        STATIC     ATOMS    COLORGROUP SYSTEM
1 45
