#       Name:                AV-unprocessed.smi:2926
#       Creating user name   scv26
#       Creation time:       Fri Mar 27 16:12:05 2020


#       File generated by GOLD software.
#

@<TRIPOS>MOLECULE
AV-unprocessed.smi:2926
    37    37     1
SMALL
NO_CHARGES


@<TRIPOS>ATOM
      1 ****        -1.2638  -0.4207  -1.7934 C.3            1 S1                 0.0000
      2 ****        -1.7709  -0.8415  -0.3926 C.3            1 S1                 0.0000
      3 ****        -3.3038  -1.0289  -0.4595 C.3            1 S1                 0.0000
      4 ****        -1.3100   0.1326   0.7386 C.3            1 S1                 0.0000
      5 ****        -1.8833  -0.1832   2.1397 C.3            1 S1                 0.0000
      6 ****        -1.5500  -1.4878   2.5753 O.3            1 S1                 0.0000
      7 ****         0.1468   0.1498   0.8144 N.pl3          1 S1                -1.0000
      8 ****         0.9271   1.5627   0.9726 S.o2           1 S1                 0.0000
      9 ****         0.7815   2.4247  -0.2122 O.2            1 S1                 0.0000
     10 ****         0.6901   2.1822   2.2869 O.2            1 S1                 0.0000
     11 ****         2.6829   0.9897   0.9985 C.3            1 S1                 0.0000
     12 ****         3.1690   0.6984  -0.3955 C.2            1 S1                 0.0000
     13 ****         2.8442  -0.4047  -1.2334 C.2            1 S1                 0.0000
     14 ****         3.5599  -0.1650  -2.3702 C.2            1 S1                 0.0000
     15 ****         4.2779   0.9797  -2.2470 O.3            1 S1                 0.0000
     16 ****         4.0255   1.5216  -0.9815 N.2            1 S1                 0.0000
     17 ****        -1.6915   1.1183   0.4680 H              1 S1                 0.0000
     18 ****        -1.6420   0.5595  -2.0902 H              1 S1                 0.0000
     19 ****        -1.5931  -1.1325  -2.5507 H              1 S1                 0.0000
     20 ****        -0.1748  -0.3895  -1.8566 H              1 S1                 0.0000
     21 ****        -1.3448  -1.8238  -0.1820 H              1 S1                 0.0000
     22 ****        -3.8283  -0.0882  -0.6385 H              1 S1                 0.0000
     23 ****        -3.7110  -1.4764   0.4482 H              1 S1                 0.0000
     24 ****        -3.5715  -1.7025  -1.2741 H              1 S1                 0.0000
     25 ****        -1.5067   0.5315   2.8724 H              1 S1                 0.0000
     26 ****        -2.9676  -0.0763   2.1475 H              1 S1                 0.0000
     27 ****        -1.8678  -1.5980   3.4579 H              1 S1                 0.0000
     28 ****         3.2778   1.7805   1.4561 H              1 S1                 0.0000
     29 ****         2.7560   0.1137   1.6425 H              1 S1                 0.0000
     30 ****         2.1816  -1.2338  -1.0322 H              1 S1                 0.0000
     31 ****         3.6615  -0.6911  -3.3078 H              1 S1                 0.0000
     32 ****        -0.5573  -1.6068   2.5565 LP             1 S1                 0.0000
     33 ****        -1.9781  -2.1638   1.9754 LP             1 S1                 0.0000
     34 ****         0.6621  -0.7061   0.7690 LP             1 S1                 0.0000
     35 ****         4.0018   1.6300  -2.9547 LP             1 S1                 0.0000
     36 ****         5.2531   0.7791  -2.3408 LP             1 S1                 0.0000
     37 ****         4.4129   2.3598  -0.5978 LP             1 S1                 0.0000
@<TRIPOS>BOND
    1    1    2 1     
    2    1   18 1     
    3    1   19 1     
    4    1   20 1     
    5    2    3 1     
    6    2    4 1     
    7    2   21 1     
    8    3   22 1     
    9    3   23 1     
   10    3   24 1     
   11    4   17 1     
   12    4    5 1     
   13    4    7 1     
   14    5    6 1     
   15    5   25 1     
   16    5   26 1     
   17    6   27 1     
   18    7    8 1     
   19    8    9 2     
   20    8   10 2     
   21    8   11 1     
   22   11   12 1     
   23   11   28 1     
   24   11   29 1     
   25   12   16 2     
   26   12   13 1     
   27   13   14 2     
   28   13   30 1     
   29   14   15 1     
   30   14   31 1     
   31   15   16 1     
   32    6   32 1     
   33    6   33 1     
   34    7   34 1     
   35   15   35 1     
   36   15   36 1     
   37   16   37 1     
@<TRIPOS>SUBSTRUCTURE
      1 S1             1
@<TRIPOS>SET
LONE_PAIRS      STATIC     ATOMS    <user>   **** ""
8 32 33 34 9 10 35 36 37
DONOR_HYDROGENS      STATIC     ATOMS    <user>   **** ""
1 27
ATOM$BLUE        STATIC     ATOMS    COLORGROUP SYSTEM
8 32 33 34 9 10 35 36 37
ATOM$RED        STATIC     ATOMS    COLORGROUP SYSTEM
1 27
