#       Name:                AV-unprocessed.smi:3354
#       Creating user name   scv26
#       Creation time:       Fri Mar 27 19:39:55 2020


#       File generated by GOLD software.
#

@<TRIPOS>MOLECULE
AV-unprocessed.smi:3354
    43    45     1
SMALL
NO_CHARGES


@<TRIPOS>ATOM
      1 ****        -2.8045  -3.6261  -2.6575 C.3            1 S1                 0.0000
      2 ****        -3.6539  -2.3800  -2.8173 C.3            1 S1                 0.0000
      3 ****        -4.2037  -1.6598  -1.6083 C.3            1 S1                 0.0000
      4 ****        -3.1390  -0.9984  -2.4624 C.3            1 S1                 0.0000
      5 ****        -1.7955  -0.8444  -1.9820 N.am           1 S1                 0.0000
      6 ****        -1.4731  -0.8654  -0.5613 C.3            1 S1                 0.0000
      7 ****         0.0417  -0.6082  -0.4730 C.3            1 S1                 0.0000
      8 ****         0.3395   0.4033   0.5376 N.am           1 S1                 0.0000
      9 ****         1.5539   0.6333   1.0557 C.2            1 S1                 0.0000
     10 ****         2.5596   0.0034   0.7292 O.2            1 S1                 0.0000
     11 ****         1.5189   1.6407   1.9448 N.am           1 S1                 0.0000
     12 ****         2.5882   2.1899   2.7030 C.ar           1 S1                 0.0000
     13 ****         3.7952   1.5079   2.9916 C.ar           1 S1                 0.0000
     14 ****         4.7733   2.1574   3.7691 C.ar           1 S1                 0.0000
     15 ****         4.5068   3.4590   4.2360 C.ar           1 S1                 0.0000
     16 ****         3.3555   4.1156   3.9804 N.ar           1 S1                 0.0000
     17 ****         2.4226   3.4866   3.2343 C.ar           1 S1                 0.0000
     18 ****         0.4701  -0.1771  -1.8844 C.3            1 S1                 0.0000
     19 ****        -0.7725  -0.4083  -2.7259 C.2            1 S1                 0.0000
     20 ****        -0.7991  -0.1979  -3.9379 O.2            1 S1                 0.0000
     21 ****        -2.2263  -3.5955  -1.7342 H              1 S1                 0.0000
     22 ****        -2.1149  -3.7166  -3.4969 H              1 S1                 0.0000
     23 ****        -3.4412  -4.5106  -2.6342 H              1 S1                 0.0000
     24 ****        -4.3077  -2.4195  -3.6863 H              1 S1                 0.0000
     25 ****        -5.2162  -1.2681  -1.6820 H              1 S1                 0.0000
     26 ****        -3.9377  -2.0538  -0.6301 H              1 S1                 0.0000
     27 ****        -3.4986  -0.1857  -3.0920 H              1 S1                 0.0000
     28 ****        -2.0524  -0.0923  -0.0533 H              1 S1                 0.0000
     29 ****        -1.7232  -1.8257  -0.1099 H              1 S1                 0.0000
     30 ****         0.5433  -1.5433  -0.2150 H              1 S1                 0.0000
     31 ****        -0.4322   0.9693   0.8590 H              1 S1                 0.0000
     32 ****         0.6315   2.1108   2.0473 H              1 S1                 0.0000
     33 ****         3.9852   0.5032   2.6478 H              1 S1                 0.0000
     34 ****         5.7055   1.6664   4.0065 H              1 S1                 0.0000
     35 ****         5.2353   3.9842   4.8360 H              1 S1                 0.0000
     36 ****         1.5136   4.0413   3.0513 H              1 S1                 0.0000
     37 ****         0.7463   0.8771  -1.9339 H              1 S1                 0.0000
     38 ****         1.3068  -0.7710  -2.2535 H              1 S1                 0.0000
     39 ****         2.4946  -0.7224   0.0444 LP             1 S1                 0.0000
     40 ****         3.4417   0.2173   1.1488 LP             1 S1                 0.0000
     41 ****         3.1986   5.0383   4.3324 LP             1 S1                 0.0000
     42 ****        -1.6413  -0.3537  -4.4540 LP             1 S1                 0.0000
     43 ****         0.0215   0.1288  -4.4067 LP             1 S1                 0.0000
@<TRIPOS>BOND
    1    1    2 1     
    2    1   21 1     
    3    1   22 1     
    4    1   23 1     
    5    2    4 1     
    6    2    3 1     
    7    2   24 1     
    8    3    4 1     
    9    3   25 1     
   10    3   26 1     
   11    4    5 1     
   12    4   27 1     
   13    5   19 am    
   14    5    6 1     
   15    6    7 1     
   16    6   28 1     
   17    6   29 1     
   18    7    8 1     
   19    7   18 1     
   20    7   30 1     
   21    8    9 am    
   22    8   31 1     
   23    9   10 2     
   24    9   11 am    
   25   11   12 1     
   26   11   32 1     
   27   12   17 ar    
   28   12   13 ar    
   29   13   14 ar    
   30   13   33 1     
   31   14   15 ar    
   32   14   34 1     
   33   15   16 ar    
   34   15   35 1     
   35   16   17 ar    
   36   17   36 1     
   37   18   19 1     
   38   18   37 1     
   39   18   38 1     
   40   19   20 2     
   41   10   39 1     
   42   10   40 1     
   43   16   41 1     
   44   20   42 1     
   45   20   43 1     
@<TRIPOS>SUBSTRUCTURE
      1 S1             1
@<TRIPOS>SET
LONE_PAIRS      STATIC     ATOMS    <user>   **** ""
5 39 40 41 42 43
DONOR_HYDROGENS      STATIC     ATOMS    <user>   **** ""
2 31 32
ATOM$BLUE        STATIC     ATOMS    COLORGROUP SYSTEM
5 39 40 41 42 43
ATOM$RED        STATIC     ATOMS    COLORGROUP SYSTEM
2 31 32
