AV-unprocessed.smi:2577|AV-procd|sdf|10120|dock5
  -GOLD-   2272014143D 1   1.00000     0.00000
 Structure written by MMmdl.
 27 28  0  0  0  0  0  0  0  0  1 V2000
  149.3361  141.4125  154.6173 C   0  0  0  0  0  0  0  0  0  0  0  0
  149.1110  141.3276  156.1331 C   0  0  0  0  0  0  0  0  0  0  0  0
  150.3427  141.7383  156.9595 C   0  0  2  0  0  0  0  0  0  0  0  0
  150.6804  143.0787  156.6565 O   0  0  0  0  0  0  0  0  0  0  0  0
  151.5535  140.8272  156.6783 C   0  0  0  0  0  0  0  0  0  0  0  0
  152.3739  140.6092  157.8571 N   0  0  0  0  0  0  0  0  0  0  0  0
  153.1822  139.5133  157.9152 N   0  0  0  0  0  0  0  0  0  0  0  0
  153.8130  139.5212  159.0515 N   0  0  0  0  0  0  0  0  0  0  0  0
  153.4117  140.6436  159.7568 C   0  0  0  0  0  0  0  0  0  0  0  0
  153.7739  141.1352  161.0307 C   0  0  0  0  0  0  0  0  0  0  0  0
  153.2011  142.3278  161.5249 C   0  0  0  0  0  0  0  0  0  0  0  0
  153.6699  142.8973  163.0874 Cl  0  0  0  0  0  0  0  0  0  0  0  0
  152.2572  143.0426  160.7483 C   0  0  0  0  0  0  0  0  0  0  0  0
  151.5467  144.5029  161.3381 Cl  0  0  0  0  0  0  0  0  0  0  0  0
  151.8866  142.5635  159.4760 C   0  0  0  0  0  0  0  0  0  0  0  0
  152.4696  141.3760  159.0023 C   0  0  0  0  0  0  0  0  0  0  0  0
  148.4267  141.1504  154.0765 H   0  0  0  0  0  0  0  0  0  0  0  0
  150.1216  140.7298  154.2924 H   0  0  0  0  0  0  0  0  0  0  0  0
  149.6226  142.4209  154.3174 H   0  0  0  0  0  0  0  0  0  0  0  0
  148.2751  141.9790  156.3909 H   0  0  0  0  0  0  0  0  0  0  0  0
  148.8007  140.3168  156.4017 H   0  0  0  0  0  0  0  0  0  0  0  0
  150.0948  141.6831  158.0205 H   0  0  0  0  0  0  0  0  0  0  0  0
  150.0037  143.4422  156.1058 H   0  0  0  0  0  0  0  0  0  0  0  0
  151.2183  139.8569  156.3086 H   0  0  0  0  0  0  0  0  0  0  0  0
  152.1793  141.2562  155.8945 H   0  0  0  0  0  0  0  0  0  0  0  0
  154.4923  140.5938  161.6285 H   0  0  0  0  0  0  0  0  0  0  0  0
  151.1661  143.0980  158.8745 H   0  0  0  0  0  0  0  0  0  0  0  0
  1  2  1  0  0  0  0
  1 17  1  0  0  0  0
  1 18  1  0  0  0  0
  1 19  1  0  0  0  0
  2  3  1  0  0  0  0
  2 20  1  0  0  0  0
  2 21  1  0  0  0  0
  3  4  1  0  0  0  0
  3  5  1  0  0  0  0
  3 22  1  0  0  0  0
  4 23  1  0  0  0  0
  5  6  1  0  0  0  0
  5 24  1  0  0  0  0
  5 25  1  0  0  0  0
  6 16  1  0  0  0  0
  6  7  1  0  0  0  0
  7  8  2  0  0  0  0
  8  9  1  0  0  0  0
  9 16  2  0  0  0  0
  9 10  1  0  0  0  0
 10 11  2  0  0  0  0
 10 26  1  0  0  0  0
 11 12  1  0  0  0  0
 11 13  1  0  0  0  0
 13 14  1  0  0  0  0
 13 15  2  0  0  0  0
 15 16  1  0  0  0  0
 15 27  1  0  0  0  0
M  END
> <s_m_source_file>
AV-unprocessed.smi

> <i_m_source_file_index>
2577

> <i_lp_mmshare_version>
43012

> <i_f3d_flags>
0

> <s_epik_input>
W0NIM11bQ0gyXVtDQEhdKFtPSF0pW0NIMl1uKG5uMSljKGMxMilbY0hdYyhDbCljKENsKVtjSF0y

> <s_epik_cmdline>
J2VwaWtfcHl0aG9uJywgJy1waCcsICc3LjAnLCAnLXRuJywgJzgnLCAnLW1hJywgJzIwMCcsICctbWV0YWxfYmluZGluZycsICctaW1hZScsICc8aW5maWxlLm1hZT4nLCAnLW9tYWUnLCAnPG91dGZpbGUubWFlPic=

> <r_lp_tautomer_probability>
1

> <r_epik_Ionization_Penalty>
1.50913e-07

> <r_epik_Ionization_Penalty_Charging>
0

> <r_epik_Ionization_Penalty_Neutral>
1.50913e-07

> <r_epik_State_Penalty>
-0

> <r_epik_Charging_Adjusted_Penalty>
0

> <i_epik_Tot_Q>
0

> <i_epik_Tot_abs_Q>
0

> <r_epik_Metal_State_Penalty>
-0

> <b_epik_Metal_Only>
0

> <s_lp_Force_Field>
OPLS_2005

> <r_lp_Energy>
7.05244

> <b_lp_Chiralities_Consistent>
1

> <s_lp_Variant>
AV-unprocessed.smi:2577-1

> <Gold.Version>
5.8.1

> <Gold.Id.Protein>
6NUR|6NUR_protein|mol2

> <Gold.PLP.Fitness>
40.6427

> <Gold.PLP.PLP>
-36.1803

> <Gold.PLP.part.hbond>
-2.6805

> <Gold.PLP.part.metal>
0.0000

> <Gold.PLP.part.buried>
-1.5056

> <Gold.PLP.part.nonpolar>
-31.0175

> <Gold.PLP.part.repulsive>
0.0000

> <Gold.PLP.ligand.clash>
0.0000

> <Gold.PLP.ligand.torsion>
0.7700

> <Gold.PLP.Chemscore.Hbond>
2.0000

> <Gold.PLP.Chemscore.CHOScore>
0.0000

> <Gold.PLP.Chemscore.Metal>
0.0000

> <Gold.Chemscore.Hbonds>
donor molecule, donor type, donor heavy atom, donor atom, acceptor molecule, acceptor atom, score
      L1  H     4    23       P1  8028  1.00
      P1  H  7997  8008       L1     7  0.95

> <Gold.PLP.Chemscore.Internal.Correction>
0.0023

> <Gold.Rescore>
     Score         DG    S(hbond)    S(metal)    S(lipo)     H(rot)  DE(clash)    DE(int)     intcor
     15.32     -17.00       1.05        0.00     107.85       1.79       0.18       1.50       ----

> <Gold.Chemscore.Fitness>
15.3197

> <Gold.Chemscore.DG>
-17.0028

> <Gold.Chemscore.ZeroCoef>
-5.4800

> <Gold.Chemscore.Hbond>
1.0457

> <Gold.Chemscore.Metal>
0.0000

> <Gold.Chemscore.Lipo>
107.8529

> <Gold.Chemscore.Internal_Hbond>
0.0000

> <Gold.Chemscore.DEClash>
0.1827

> <Gold.Chemscore.DEInternal>
1.5005

> <Gold.Chemscore.Rot>
1.7924

> <Gold.Chemscore.Internal.Correction>
   9.000000E+99

> <Gold.Chemscore.Hbonds>
donor molecule, donor type, donor heavy atom, donor atom, acceptor molecule, acceptor atom, score
      L1  H     4    23       P1  8028  0.96
      P1  H  7997  8008       L1     7  0.06

> <Gold.Chemscore.Hbond.Weighted>
-3.4925

> <Gold.Chemscore.Metal.Weighted>
-0.0000

> <Gold.Chemscore.Lipo.Weighted>
-12.6188

> <Gold.Chemscore.Internal_Hbond.Weighted>
0.0000

> <Gold.Chemscore.DEClash.Weighted>
0.1827

> <Gold.Chemscore.DEInternal.Weighted>
1.5005

> <Gold.Chemscore.Rot.Weighted>
4.5884

> <Gold.Chemscore.Internal.Correction.Weighted>
   9.000000E+99

> <Gold.Protein.RotatedTorsions>
[ 6907 6896 6895 6894 ] final -115.38 input  -60.11 | X-H torsion
[ 7974 7965 7964 7962 ] final  -76.98 input  175.53 | X-H torsion
[ 8008 7997 7996 7995 ] final  -72.45 input   59.86 | X-H torsion
[ 10167 10162 10161 10158 ] final    1.70 input  -65.29 | X-H torsion
[ 10718 10713 10712 10709 ] final -158.74 input   66.30 | X-H torsion
[ 10763 10752 10751 10750 ] final   60.48 input  -60.55 | X-H torsion
[ 11005 11000 10999 10996 ] final   66.32 input  -57.11 | X-H torsion

> <Gold.Protein.ActiveResidues>
 VAL166  LYS551  ARG553  GLY616  TRP617  ASP618  TYR619  PRO620  LYS621  CYS622 
 ASP623  PHE694  ASN695  SER759  ASP760  ASP761  ALA762  ILE779  LEU786  VAL792 
 PHE793  MET794  SER795  GLU796  ALA797  LYS798  CYS799  TRP800  GLU811  SER814 

> <Gold.Protein.RotatedAtoms>
  150.7973  133.8666  159.3246 H   0  0  0  0  0  0  0  0  0  0  0  0  # atno 6907 bound_to 6896
  151.6488  135.1002  160.0166 H   0  0  0  0  0  0  0  0  0  0  0  0  # atno 6908 bound_to 6896
  152.4057  133.6846  159.6389 H   0  0  0  0  0  0  0  0  0  0  0  0  # atno 6909 bound_to 6896
  145.6058  140.9398  143.1216 H   0  0  0  0  0  0  0  0  0  0  0  0  # atno 7974 bound_to 7965
  154.5168  140.0797  156.8095 H   0  0  0  0  0  0  0  0  0  0  0  0  # atno 8008 bound_to 7997
  155.3664  140.3420  155.4224 H   0  0  0  0  0  0  0  0  0  0  0  0  # atno 8009 bound_to 7997
  156.1636  140.1596  156.8557 H   0  0  0  0  0  0  0  0  0  0  0  0  # atno 8010 bound_to 7997
  140.6670  143.7152  150.7847 H   0  0  0  0  0  0  0  0  0  0  0  0  # atno 10167 bound_to 10162
  156.5584  130.8636  151.2802 H   0  0  0  0  0  0  0  0  0  0  0  0  # atno 10718 bound_to 10713
  152.9922  135.5535  154.5880 H   0  0  0  0  0  0  0  0  0  0  0  0  # atno 10763 bound_to 10752
  154.5248  135.2810  155.1234 H   0  0  0  0  0  0  0  0  0  0  0  0  # atno 10764 bound_to 10752
  154.2573  135.6387  153.5314 H   0  0  0  0  0  0  0  0  0  0  0  0  # atno 10765 bound_to 10752
  139.9839  134.6700  156.0212 H   0  0  0  0  0  0  0  0  0  0  0  0  # atno 11005 bound_to 11000
  144.7291  139.7783  143.7354 LP  0  0  0  0  0  0  0  0  0  0  0  0  # atno 17320 bound_to 7965
  146.1542  139.4635  143.0029 LP  0  0  0  0  0  0  0  0  0  0  0  0  # atno 17321 bound_to 7965
  140.0831  143.4949  152.2519 LP  0  0  0  0  0  0  0  0  0  0  0  0  # atno 17342 bound_to 10162
  139.5923  144.7554  151.3371 LP  0  0  0  0  0  0  0  0  0  0  0  0  # atno 17343 bound_to 10162
  157.7373  130.9794  150.2188 LP  0  0  0  0  0  0  0  0  0  0  0  0  # atno 17370 bound_to 10713
  156.2821  130.3735  149.7925 LP  0  0  0  0  0  0  0  0  0  0  0  0  # atno 17371 bound_to 10713
  141.1507  133.6549  156.4004 LP  0  0  0  0  0  0  0  0  0  0  0  0  # atno 17394 bound_to 11000
  140.5041  134.6457  157.5260 LP  0  0  0  0  0  0  0  0  0  0  0  0  # atno 17395 bound_to 11000

$$$$
