AV-unprocessed.smi:2994|AV-procd|sdf|11404|dock3
  -GOLD-   2272016323D 1   1.00000     0.00000
 Structure written by MMmdl.
 47 49  0  0  0  0  0  0  0  0  1 V2000
  145.8890  137.5497  150.7154 C   0  0  0  0  0  0  0  0  0  0  0  0
  145.9440  138.0902  152.1539 C   0  0  2  0  0  0  0  0  0  0  0  0
  147.2991  137.9621  152.6830 N   0  0  0  0  0  0  0  0  0  0  0  0
  147.8092  138.6700  153.7014 C   0  0  0  0  0  0  0  0  0  0  0  0
  147.1761  139.5307  154.3121 O   0  0  0  0  0  0  0  0  0  0  0  0
  149.0853  138.3210  153.9406 N   0  0  0  0  0  0  0  0  0  0  0  0
  149.9939  138.8467  154.9001 C   0  0  0  0  0  0  0  0  0  0  0  0
  151.3827  139.0180  154.6859 C   0  0  0  0  0  0  0  0  0  0  0  0
  152.1697  139.5567  155.7215 C   0  0  0  0  0  0  0  0  0  0  0  0
  151.5468  139.9085  156.9398 C   0  0  0  0  0  0  0  0  0  0  0  0
  152.3496  140.5047  158.0590 C   0  0  0  0  0  0  0  0  0  0  0  0
  153.3607  139.9128  158.4395 O   0  0  0  0  0  0  0  0  0  0  0  0
  151.9161  141.6643  158.6150 N   0  0  0  0  0  0  0  0  0  0  0  0
  150.9218  142.5789  158.0305 C   0  0  0  0  0  0  0  0  0  0  0  0
  151.6414  143.8419  157.5210 C   0  0  0  0  0  0  0  0  0  0  0  0
  152.4529  144.5112  158.6455 C   0  0  0  0  0  0  0  0  0  0  0  0
  153.3638  143.4989  159.3631 C   0  0  0  0  0  0  0  0  0  0  0  0
  152.5667  142.2540  159.7929 C   0  0  0  0  0  0  0  0  0  0  0  0
  150.2173  139.7719  157.1412 N   0  0  0  0  0  0  0  0  0  0  0  0
  149.4693  139.2529  156.1449 C   0  0  0  0  0  0  0  0  0  0  0  0
  144.9138  137.3987  153.0270 C   0  0  0  0  0  0  0  0  0  0  0  0
  144.4040  136.0194  152.6843 C   0  0  0  0  0  0  0  0  0  0  0  0
  143.4888  137.2171  152.5621 C   0  0  0  0  0  0  0  0  0  0  0  0
  144.8907  137.6650  150.2923 H   0  0  0  0  0  0  0  0  0  0  0  0
  146.1448  136.4903  150.6790 H   0  0  0  0  0  0  0  0  0  0  0  0
  146.5807  138.0821  150.0618 H   0  0  0  0  0  0  0  0  0  0  0  0
  145.6850  139.1505  152.1257 H   0  0  0  0  0  0  0  0  0  0  0  0
  147.8934  137.2779  152.2385 H   0  0  0  0  0  0  0  0  0  0  0  0
  149.4746  137.6285  153.3177 H   0  0  0  0  0  0  0  0  0  0  0  0
  151.8613  138.7622  153.7542 H   0  0  0  0  0  0  0  0  0  0  0  0
  153.2314  139.6976  155.5798 H   0  0  0  0  0  0  0  0  0  0  0  0
  150.3513  142.1471  157.2103 H   0  0  0  0  0  0  0  0  0  0  0  0
  150.1885  142.8460  158.7925 H   0  0  0  0  0  0  0  0  0  0  0  0
  152.3076  143.5729  156.7000 H   0  0  0  0  0  0  0  0  0  0  0  0
  150.9177  144.5478  157.1128 H   0  0  0  0  0  0  0  0  0  0  0  0
  153.0445  145.3355  158.2462 H   0  0  0  0  0  0  0  0  0  0  0  0
  151.7648  144.9486  159.3700 H   0  0  0  0  0  0  0  0  0  0  0  0
  154.1756  143.2000  158.6985 H   0  0  0  0  0  0  0  0  0  0  0  0
  153.8293  143.9653  160.2318 H   0  0  0  0  0  0  0  0  0  0  0  0
  151.8039  142.5315  160.5218 H   0  0  0  0  0  0  0  0  0  0  0  0
  153.2224  141.5499  160.3074 H   0  0  0  0  0  0  0  0  0  0  0  0
  148.4134  139.1559  156.3521 H   0  0  0  0  0  0  0  0  0  0  0  0
  145.0431  137.5965  154.0897 H   0  0  0  0  0  0  0  0  0  0  0  0
  144.7565  135.5618  151.7619 H   0  0  0  0  0  0  0  0  0  0  0  0
  144.2270  135.3313  153.5084 H   0  0  0  0  0  0  0  0  0  0  0  0
  142.7006  137.3251  153.3043 H   0  0  0  0  0  0  0  0  0  0  0  0
  143.2350  137.5545  151.5592 H   0  0  0  0  0  0  0  0  0  0  0  0
  1  2  1  0  0  0  0
  1 24  1  0  0  0  0
  1 25  1  0  0  0  0
  1 26  1  0  0  0  0
  2  3  1  0  0  0  0
  2 21  1  0  0  0  0
  2 27  1  0  0  0  0
  3  4  1  0  0  0  0
  3 28  1  0  0  0  0
  4  5  2  0  0  0  0
  4  6  1  0  0  0  0
  6  7  1  0  0  0  0
  6 29  1  0  0  0  0
  7 20  1  0  0  0  0
  7  8  2  0  0  0  0
  8  9  1  0  0  0  0
  8 30  1  0  0  0  0
  9 10  2  0  0  0  0
  9 31  1  0  0  0  0
 10 11  1  0  0  0  0
 10 19  1  0  0  0  0
 11 12  2  0  0  0  0
 11 13  1  0  0  0  0
 13 18  1  0  0  0  0
 13 14  1  0  0  0  0
 14 15  1  0  0  0  0
 14 32  1  0  0  0  0
 14 33  1  0  0  0  0
 15 16  1  0  0  0  0
 15 34  1  0  0  0  0
 15 35  1  0  0  0  0
 16 17  1  0  0  0  0
 16 36  1  0  0  0  0
 16 37  1  0  0  0  0
 17 18  1  0  0  0  0
 17 38  1  0  0  0  0
 17 39  1  0  0  0  0
 18 40  1  0  0  0  0
 18 41  1  0  0  0  0
 19 20  2  0  0  0  0
 20 42  1  0  0  0  0
 21 23  1  0  0  0  0
 21 22  1  0  0  0  0
 21 43  1  0  0  0  0
 22 23  1  0  0  0  0
 22 44  1  0  0  0  0
 22 45  1  0  0  0  0
 23 46  1  0  0  0  0
 23 47  1  0  0  0  0
M  END
> <s_m_source_file>
AV-unprocessed.smi

> <i_m_source_file_index>
2994

> <i_lp_mmshare_version>
43012

> <i_f3d_flags>
0

> <s_epik_input>
W0NIMl0xW0NIMl1bQ0hdMVtDQEhdKFtDSDNdKVtOSF1DKD1PKVtOSF1jMltjSF1bY0hdYyhuW2NIXTIpQyg9TylOM1tDSDJdW0NIMl1bQ0gyXVtDSDJdW0NIMl0z

> <s_epik_cmdline>
J2VwaWtfcHl0aG9uJywgJy1waCcsICc3LjAnLCAnLXRuJywgJzgnLCAnLW1hJywgJzIwMCcsICctbWV0YWxfYmluZGluZycsICctaW1hZScsICc8aW5maWxlLm1hZT4nLCAnLW9tYWUnLCAnPG91dGZpbGUubWFlPic=

> <r_lp_tautomer_probability>
1

> <r_epik_Ionization_Penalty>
4.52104e-05

> <r_epik_Ionization_Penalty_Charging>
0

> <r_epik_Ionization_Penalty_Neutral>
4.52104e-05

> <r_epik_State_Penalty>
-0

> <r_epik_Charging_Adjusted_Penalty>
0

> <i_epik_Tot_Q>
0

> <i_epik_Tot_abs_Q>
0

> <r_epik_Metal_State_Penalty>
-0

> <b_epik_Metal_Only>
0

> <s_lp_Force_Field>
OPLS_2005

> <r_lp_Energy>
45.7479

> <b_lp_Chiralities_Consistent>
1

> <s_lp_Variant>
AV-unprocessed.smi:2994-1

> <Gold.Version>
5.8.1

> <Gold.Id.Protein>
6NUR|6NUR_protein|mol2

> <Gold.PLP.Fitness>
49.0127

> <Gold.PLP.PLP>
-42.7798

> <Gold.PLP.part.hbond>
-2.9740

> <Gold.PLP.part.metal>
0.0000

> <Gold.PLP.part.buried>
2.9316

> <Gold.PLP.part.nonpolar>
-42.3474

> <Gold.PLP.part.repulsive>
0.2073

> <Gold.PLP.ligand.clash>
0.0000

> <Gold.PLP.ligand.torsion>
2.0794

> <Gold.PLP.Chemscore.Hbond>
2.8044

> <Gold.PLP.Chemscore.CHOScore>
0.0000

> <Gold.PLP.Chemscore.Metal>
0.0000

> <Gold.Chemscore.Hbonds>
donor molecule, donor type, donor heavy atom, donor atom, acceptor molecule, acceptor atom, score
      L1  H     3    28       P1  7948  0.98
      L1  H     6    29       P1  7948  0.83
      P1  H  7997  8010       L1    12  1.00

> <Gold.PLP.Chemscore.Internal.Correction>
1.9785

> <Gold.Rescore>
     Score         DG    S(hbond)    S(metal)    S(lipo)     H(rot)  DE(clash)    DE(int)     intcor
     19.40     -25.51       2.85        0.00     114.73       1.14       1.83       4.27       ----

> <Gold.Chemscore.Fitness>
19.4047

> <Gold.Chemscore.DG>
-25.5059

> <Gold.Chemscore.ZeroCoef>
-5.4800

> <Gold.Chemscore.Hbond>
2.8504

> <Gold.Chemscore.Metal>
0.0000

> <Gold.Chemscore.Lipo>
114.7316

> <Gold.Chemscore.Internal_Hbond>
0.0000

> <Gold.Chemscore.DEClash>
1.8340

> <Gold.Chemscore.DEInternal>
4.2672

> <Gold.Chemscore.Rot>
1.1399

> <Gold.Chemscore.Internal.Correction>
   9.000000E+99

> <Gold.Chemscore.Hbonds>
donor molecule, donor type, donor heavy atom, donor atom, acceptor molecule, acceptor atom, score
      L1  H     3    28       P1  7948  0.91
      L1  H     6    29       P1  7948  0.72
      P1  H  7997  8010       L1    12  0.76

> <Gold.Chemscore.Hbond.Weighted>
-9.5204

> <Gold.Chemscore.Metal.Weighted>
-0.0000

> <Gold.Chemscore.Lipo.Weighted>
-13.4236

> <Gold.Chemscore.Internal_Hbond.Weighted>
0.0000

> <Gold.Chemscore.DEClash.Weighted>
1.8340

> <Gold.Chemscore.DEInternal.Weighted>
4.2672

> <Gold.Chemscore.Rot.Weighted>
2.9180

> <Gold.Chemscore.Internal.Correction.Weighted>
   9.000000E+99

> <Gold.Protein.RotatedTorsions>
[ 6907 6896 6895 6894 ] final  -84.66 input  -60.11 | X-H torsion
[ 7974 7965 7964 7962 ] final -139.10 input  175.53 | X-H torsion
[ 8008 7997 7996 7995 ] final   23.82 input   59.86 | X-H torsion
[ 10167 10162 10161 10158 ] final -150.49 input  -65.29 | X-H torsion
[ 10718 10713 10712 10709 ] final -139.28 input   66.30 | X-H torsion
[ 10763 10752 10751 10750 ] final  -21.60 input  -60.55 | X-H torsion
[ 11005 11000 10999 10996 ] final -121.52 input  -57.11 | X-H torsion

> <Gold.Protein.ActiveResidues>
 VAL166  LYS551  ARG553  GLY616  TRP617  ASP618  TYR619  PRO620  LYS621  CYS622 
 ASP623  PHE694  ASN695  SER759  ASP760  ASP761  ALA762  ILE779  LEU786  VAL792 
 PHE793  MET794  SER795  GLU796  ALA797  LYS798  CYS799  TRP800  GLU811  SER814 

> <Gold.Protein.RotatedAtoms>
  150.6875  134.3324  159.4832 H   0  0  0  0  0  0  0  0  0  0  0  0  # atno 6907 bound_to 6896
  152.1187  134.9219  160.0573 H   0  0  0  0  0  0  0  0  0  0  0  0  # atno 6908 bound_to 6896
  152.0434  133.3952  159.4383 H   0  0  0  0  0  0  0  0  0  0  0  0  # atno 6909 bound_to 6896
  144.8704  140.6358  143.5270 H   0  0  0  0  0  0  0  0  0  0  0  0  # atno 7974 bound_to 7965
  154.9868  140.3109  155.4923 H   0  0  0  0  0  0  0  0  0  0  0  0  # atno 8008 bound_to 7997
  156.2945  140.2256  156.4911 H   0  0  0  0  0  0  0  0  0  0  0  0  # atno 8009 bound_to 7997
  154.7739  140.0450  157.1062 H   0  0  0  0  0  0  0  0  0  0  0  0  # atno 8010 bound_to 7997
  139.7349  143.8750  152.2546 H   0  0  0  0  0  0  0  0  0  0  0  0  # atno 10167 bound_to 10162
  156.3089  130.7470  151.1541 H   0  0  0  0  0  0  0  0  0  0  0  0  # atno 10718 bound_to 10713
  153.6387  135.6986  153.5249 H   0  0  0  0  0  0  0  0  0  0  0  0  # atno 10763 bound_to 10752
  153.2800  135.4188  155.1069 H   0  0  0  0  0  0  0  0  0  0  0  0  # atno 10764 bound_to 10752
  154.8505  135.3599  154.5931 H   0  0  0  0  0  0  0  0  0  0  0  0  # atno 10765 bound_to 10752
  141.0064  134.0329  157.3472 H   0  0  0  0  0  0  0  0  0  0  0  0  # atno 11005 bound_to 11000
  145.4140  139.1575  143.4110 LP  0  0  0  0  0  0  0  0  0  0  0  0  # atno 17320 bound_to 7965
  146.2926  140.4246  142.8733 LP  0  0  0  0  0  0  0  0  0  0  0  0  # atno 17321 bound_to 7965
  139.8684  144.7081  150.9016 LP  0  0  0  0  0  0  0  0  0  0  0  0  # atno 17342 bound_to 10162
  140.7777  143.3758  151.1565 LP  0  0  0  0  0  0  0  0  0  0  0  0  # atno 17343 bound_to 10162
  157.7386  131.0539  150.5283 LP  0  0  0  0  0  0  0  0  0  0  0  0  # atno 17370 bound_to 10713
  156.5420  130.4210  149.6149 LP  0  0  0  0  0  0  0  0  0  0  0  0  # atno 17371 bound_to 10713
  139.9065  135.0181  156.7510 LP  0  0  0  0  0  0  0  0  0  0  0  0  # atno 17394 bound_to 11000
  140.6806  133.9478  155.7908 LP  0  0  0  0  0  0  0  0  0  0  0  0  # atno 17395 bound_to 11000

$$$$
