AV-unprocessed.smi:658|AV-procd|sdf|3236|dock5
  -GOLD-   22720 0183D 1   1.00000     0.00000
 Structure written by MMmdl.
 37 37  0  0  0  0  0  0  0  0  3 V2000
  154.6234  141.2855  160.0959 C   0  0  0  0  0  0  0  0  0  0  0  0
  153.1872  140.9554  160.5414 C   0  0  2  0  0  0  0  0  0  0  0  0
  152.5075  140.2189  159.4518 N   0  3  0  0  0  0  0  0  0  0  0  0
  153.1876  138.9802  159.0234 C   0  0  0  0  0  0  0  0  0  0  0  0
  152.2359  138.0807  158.2291 C   0  0  0  0  0  0  0  0  0  0  0  0
  151.3874  138.8723  157.2271 C   0  0  0  0  0  0  0  0  0  0  0  0
  151.7915  138.3867  155.4986 S   0  0  0  0  0  0  0  0  0  0  0  0
  153.3460  138.8085  155.4207 N   0  5  0  0  0  0  0  0  0  0  0  0
  151.5951  136.9301  155.4384 O   0  0  0  0  0  0  0  0  0  0  0  0
  150.9387  139.2192  154.6373 O   0  0  0  0  0  0  0  0  0  0  0  0
  152.3735  142.2163  160.9417 C   0  0  1  0  0  0  0  0  0  0  0  0
  153.0030  142.9963  162.1122 C   0  0  0  0  0  0  0  0  0  0  0  0
  152.1593  143.1067  159.8078 N   0  0  0  0  0  0  0  0  0  0  0  0
  153.0991  143.8163  159.0885 C   0  0  0  0  0  0  0  0  0  0  0  0
  152.4327  144.5121  158.1211 C   0  0  0  0  0  0  0  0  0  0  0  0
  151.0700  144.1607  158.3287 C   0  0  0  0  0  0  0  0  0  0  0  0
  150.9090  143.3221  159.3392 N   0  0  0  0  0  0  0  0  0  0  0  0
  155.2074  141.7273  160.9037 H   0  0  0  0  0  0  0  0  0  0  0  0
  154.6285  141.9855  159.2597 H   0  0  0  0  0  0  0  0  0  0  0  0
  155.1503  140.3851  159.7780 H   0  0  0  0  0  0  0  0  0  0  0  0
  153.2681  140.3026  161.4127 H   0  0  0  0  0  0  0  0  0  0  0  0
  151.5711  139.9897  159.7527 H   0  0  0  0  0  0  0  0  0  0  0  0
  154.0529  139.2408  158.4125 H   0  0  0  0  0  0  0  0  0  0  0  0
  153.5593  138.4444  159.8975 H   0  0  0  0  0  0  0  0  0  0  0  0
  152.8113  137.3228  157.6961 H   0  0  0  0  0  0  0  0  0  0  0  0
  151.5792  137.5452  158.9160 H   0  0  0  0  0  0  0  0  0  0  0  0
  150.3244  138.6915  157.3886 H   0  0  0  0  0  0  0  0  0  0  0  0
  151.5631  139.9437  157.3261 H   0  0  0  0  0  0  0  0  0  0  0  0
  153.9115  137.9520  155.4552 H   0  0  0  0  0  0  0  0  0  0  0  0
  151.3853  141.8861  161.2665 H   0  0  0  0  0  0  0  0  0  0  0  0
  153.0227  142.4015  163.0251 H   0  0  0  0  0  0  0  0  0  0  0  0
  152.4322  143.8992  162.3317 H   0  0  0  0  0  0  0  0  0  0  0  0
  154.0271  143.2976  161.8895 H   0  0  0  0  0  0  0  0  0  0  0  0
  154.1526  143.7682  159.3219 H   0  0  0  0  0  0  0  0  0  0  0  0
  152.8541  145.1712  157.3765 H   0  0  0  0  0  0  0  0  0  0  0  0
  150.1997  144.4877  157.7792 H   0  0  0  0  0  0  0  0  0  0  0  0
  152.4437  140.8280  158.6485 H   0  0  0  0  0  0  0  0  0  0  0  0
  1  2  1  0  0  0  0
  1 18  1  0  0  0  0
  1 19  1  0  0  0  0
  1 20  1  0  0  0  0
  2  3  1  0  0  0  0
  2 11  1  0  0  0  0
  2 21  1  0  0  0  0
  3  4  1  0  0  0  0
  3 22  1  0  0  0  0
  3 37  1  0  0  0  0
  4  5  1  0  0  0  0
  4 23  1  0  0  0  0
  4 24  1  0  0  0  0
  5  6  1  0  0  0  0
  5 25  1  0  0  0  0
  5 26  1  0  0  0  0
  6  7  1  0  0  0  0
  6 27  1  0  0  0  0
  6 28  1  0  0  0  0
  7  8  1  0  0  0  0
  7  9  2  0  0  0  0
  7 10  2  0  0  0  0
  8 29  1  0  0  0  0
 11 12  1  0  0  0  0
 11 13  1  0  0  0  0
 11 30  1  0  0  0  0
 12 31  1  0  0  0  0
 12 32  1  0  0  0  0
 12 33  1  0  0  0  0
 13 17  1  0  0  0  0
 13 14  1  0  0  0  0
 14 15  2  0  0  0  0
 14 34  1  0  0  0  0
 15 16  1  0  0  0  0
 15 35  1  0  0  0  0
 16 17  2  0  0  0  0
 16 36  1  0  0  0  0
M  CHG  1   3   1
M  CHG  1   8  -1
M  END
> <s_m_source_file>
AV-unprocessed.smi

> <i_m_source_file_index>
658

> <i_lp_mmshare_version>
43012

> <i_f3d_flags>
0

> <s_epik_input>
bjFbY0hdW2NIXVtjSF1uMVtDQEBIXShbQ0gzXSlbQ0BIXShbQ0gzXSlbTkhdW0NIMl1bQ0gyXVtDSDJdUyg9TykoPU8pW05IMl0=

> <s_epik_cmdline>
J2VwaWtfcHl0aG9uJywgJy1waCcsICc3LjAnLCAnLXRuJywgJzgnLCAnLW1hJywgJzIwMCcsICctbWV0YWxfYmluZGluZycsICctaW1hZScsICc8aW5maWxlLm1hZT4nLCAnLW9tYWUnLCAnPG91dGZpbGUubWFlPic=

> <r_lp_tautomer_probability>
1

> <r_epik_Ionization_Penalty>
4.63642

> <r_epik_Ionization_Penalty_Charging>
4.63641

> <r_epik_Ionization_Penalty_Neutral>
1.08396e-05

> <r_epik_State_Penalty>
4.63466

> <r_epik_Charging_Adjusted_Penalty>
9.27106

> <i_epik_Tot_Q>
0

> <i_epik_Tot_abs_Q>
2

> <r_epik_Metal_State_Penalty>
0.890424

> <b_epik_Metal_Only>
1

> <s_lp_Force_Field>
OPLS_2005

> <r_lp_Energy>
-1.73265

> <b_lp_Chiralities_Consistent>
1

> <s_lp_Variant>
AV-unprocessed.smi:658-7

> <Gold.Version>
5.8.1

> <Gold.Id.Protein>
6NUR|6NUR_protein|mol2

> <Gold.PLP.Fitness>
53.7161

> <Gold.PLP.PLP>
-39.5058

> <Gold.PLP.part.hbond>
-3.0000

> <Gold.PLP.part.metal>
0.0000

> <Gold.PLP.part.buried>
-5.4625

> <Gold.PLP.part.nonpolar>
-30.0967

> <Gold.PLP.part.repulsive>
0.3987

> <Gold.PLP.ligand.clash>
0.0000

> <Gold.PLP.ligand.torsion>
0.5667

> <Gold.PLP.Chemscore.Hbond>
4.0000

> <Gold.PLP.Chemscore.CHOScore>
1.0687

> <Gold.PLP.Chemscore.Metal>
0.0000

> <Gold.Chemscore.Hbonds>
donor molecule, donor type, donor heavy atom, donor atom, acceptor molecule, acceptor atom, score
      P1  H  7989  7998       L1    10  0.78
      P1  H  7997  8010       L1     8  2.00
      P1  H 10752 10765       L1     9  0.88
      L1  C    16    36       P1  8028  0.96
      L1  C    16    36       P1  8029  0.13

> <Gold.PLP.Chemscore.Internal.Correction>
0.1377

> <Gold.Rescore>
     Score         DG    S(hbond)    S(metal)    S(lipo)     H(rot)  DE(clash)    DE(int)     intcor
     17.44     -18.15       2.81        0.00      94.57       3.04       0.08       0.63       ----

> <Gold.Chemscore.Fitness>
17.4427

> <Gold.Chemscore.DG>
-18.1496

> <Gold.Chemscore.ZeroCoef>
-5.4800

> <Gold.Chemscore.Hbond>
2.8112

> <Gold.Chemscore.Metal>
0.0000

> <Gold.Chemscore.Lipo>
94.5730

> <Gold.Chemscore.Internal_Hbond>
0.0000

> <Gold.Chemscore.DEClash>
0.0814

> <Gold.Chemscore.DEInternal>
0.6255

> <Gold.Chemscore.Rot>
3.0409

> <Gold.Chemscore.Internal.Correction>
   9.000000E+99

> <Gold.Chemscore.Hbonds>
donor molecule, donor type, donor heavy atom, donor atom, acceptor molecule, acceptor atom, score
      P1  H  7989  7998       L1    10  0.76
      P1  H  7997  8010       L1     8  0.53
      P1  H 10752 10765       L1     9  0.82

> <Gold.Chemscore.Hbond.Weighted>
-9.3894

> <Gold.Chemscore.Metal.Weighted>
-0.0000

> <Gold.Chemscore.Lipo.Weighted>
-11.0650

> <Gold.Chemscore.Internal_Hbond.Weighted>
0.0000

> <Gold.Chemscore.DEClash.Weighted>
0.0814

> <Gold.Chemscore.DEInternal.Weighted>
0.6255

> <Gold.Chemscore.Rot.Weighted>
7.7848

> <Gold.Chemscore.Internal.Correction.Weighted>
   9.000000E+99

> <Gold.Protein.RotatedTorsions>
[ 6907 6896 6895 6894 ] final  -37.22 input  -60.11 | X-H torsion
[ 7974 7965 7964 7962 ] final   17.06 input  175.53 | X-H torsion
[ 8008 7997 7996 7995 ] final   98.47 input   59.86 | X-H torsion
[ 10167 10162 10161 10158 ] final  -71.95 input  -65.29 | X-H torsion
[ 10718 10713 10712 10709 ] final  -56.94 input   66.30 | X-H torsion
[ 10763 10752 10751 10750 ] final  175.44 input  -60.55 | X-H torsion
[ 11005 11000 10999 10996 ] final  148.99 input  -57.11 | X-H torsion

> <Gold.Protein.ActiveResidues>
 VAL166  LYS551  ARG553  GLY616  TRP617  ASP618  TYR619  PRO620  LYS621  CYS622 
 ASP623  PHE694  ASN695  SER759  ASP760  ASP761  ALA762  ILE779  LEU786  VAL792 
 PHE793  MET794  SER795  GLU796  ALA797  LYS798  CYS799  TRP800  GLU811  SER814 

> <Gold.Protein.RotatedAtoms>
  151.0174  134.9443  159.8040 H   0  0  0  0  0  0  0  0  0  0  0  0  # atno 6907 bound_to 6896
  152.5317  134.2948  159.9066 H   0  0  0  0  0  0  0  0  0  0  0  0  # atno 6908 bound_to 6896
  151.2955  133.4104  159.2670 H   0  0  0  0  0  0  0  0  0  0  0  0  # atno 6909 bound_to 6896
  146.2230  139.8657  142.8596 H   0  0  0  0  0  0  0  0  0  0  0  0  # atno 7974 bound_to 7965
  156.1008  140.3243  155.7939 H   0  0  0  0  0  0  0  0  0  0  0  0  # atno 8008 bound_to 7997
  155.4840  140.0556  157.2980 H   0  0  0  0  0  0  0  0  0  0  0  0  # atno 8009 bound_to 7997
  154.4695  140.2005  156.0045 H   0  0  0  0  0  0  0  0  0  0  0  0  # atno 8010 bound_to 7997
  140.5232  143.2329  151.7393 H   0  0  0  0  0  0  0  0  0  0  0  0  # atno 10167 bound_to 10162
  156.1249  130.4163  150.0373 H   0  0  0  0  0  0  0  0  0  0  0  0  # atno 10718 bound_to 10713
  154.4676  135.2770  155.1666 H   0  0  0  0  0  0  0  0  0  0  0  0  # atno 10763 bound_to 10752
  154.3429  135.6166  153.5608 H   0  0  0  0  0  0  0  0  0  0  0  0  # atno 10764 bound_to 10752
  152.9861  135.5793  154.5051 H   0  0  0  0  0  0  0  0  0  0  0  0  # atno 10765 bound_to 10752
  140.1007  134.8985  157.1791 H   0  0  0  0  0  0  0  0  0  0  0  0  # atno 11005 bound_to 11000
  145.2659  141.0092  143.3800 LP  0  0  0  0  0  0  0  0  0  0  0  0  # atno 17320 bound_to 7965
  144.9262  139.4353  143.6517 LP  0  0  0  0  0  0  0  0  0  0  0  0  # atno 17321 bound_to 7965
  139.4930  144.4224  151.9963 LP  0  0  0  0  0  0  0  0  0  0  0  0  # atno 17342 bound_to 10162
  140.3322  144.3303  150.5985 LP  0  0  0  0  0  0  0  0  0  0  0  0  # atno 17343 bound_to 10162
  156.8301  130.9389  151.3637 LP  0  0  0  0  0  0  0  0  0  0  0  0  # atno 17370 bound_to 10713
  157.6431  130.8822  149.9486 LP  0  0  0  0  0  0  0  0  0  0  0  0  # atno 17371 bound_to 10713
  140.3224  134.2901  155.7243 LP  0  0  0  0  0  0  0  0  0  0  0  0  # atno 17394 bound_to 11000
  141.2105  133.7718  156.9930 LP  0  0  0  0  0  0  0  0  0  0  0  0  # atno 17395 bound_to 11000

$$$$
