AV-unprocessed.smi:160|AV-procd|sdf|1365|dock1
  -GOLD-   2262019 73D 1   1.00000     0.00000
 Structure written by MMmdl.
 28 29  0  0  0  0  0  0  0  0  2 V2000
  151.7762  137.1703  153.4618 N   0  5  0  0  0  0  0  0  0  0  0  0
  152.5545  138.0968  154.0625 C   0  0  0  0  0  0  0  0  0  0  0  0
  153.7839  138.1419  154.0363 O   0  0  0  0  0  0  0  0  0  0  0  0
  151.7935  139.1569  154.8224 C   0  0  0  0  0  0  0  0  0  0  0  0
  152.3519  139.7727  155.9081 N   0  0  0  0  0  0  0  0  0  0  0  0
  151.3547  140.5874  156.2254 C   0  0  0  0  0  0  0  0  0  0  0  0
  150.2953  140.5042  155.4152 N   0  0  0  0  0  0  0  0  0  0  0  0
  148.9840  141.2328  155.4935 C   0  0  2  0  0  0  0  0  0  0  0  0
  148.0196  140.3408  155.9522 O   0  0  0  0  0  0  0  0  0  0  0  0
  147.4518  139.6510  154.8467 C   0  0  1  0  0  0  0  0  0  0  0  0
  146.0725  139.0957  155.2329 C   0  0  0  0  0  0  0  0  0  0  0  0
  145.0934  140.1081  155.1342 O   0  0  0  0  0  0  0  0  0  0  0  0
  147.3890  140.7343  153.7562 C   0  0  2  0  0  0  0  0  0  0  0  0
  147.6335  140.1559  152.4898 O   0  0  0  0  0  0  0  0  0  0  0  0
  148.5005  141.7259  154.1178 C   0  0  1  0  0  0  0  0  0  0  0  0
  147.9875  143.0407  154.2008 O   0  0  0  0  0  0  0  0  0  0  0  0
  150.5591  139.5467  154.4900 N   0  0  0  0  0  0  0  0  0  0  0  0
  149.1681  142.0303  156.2146 H   0  0  0  0  0  0  0  0  0  0  0  0
  148.1190  138.8425  154.5420 H   0  0  0  0  0  0  0  0  0  0  0  0
  146.4139  141.2248  153.7562 H   0  0  0  0  0  0  0  0  0  0  0  0
  149.3204  141.7354  153.3980 H   0  0  0  0  0  0  0  0  0  0  0  0
  151.5292  137.3055  152.4741 H   0  0  0  0  0  0  0  0  0  0  0  0
  151.3963  141.2589  157.0702 H   0  0  0  0  0  0  0  0  0  0  0  0
  145.8008  138.2406  154.6131 H   0  0  0  0  0  0  0  0  0  0  0  0
  146.0849  138.7551  156.2686 H   0  0  0  0  0  0  0  0  0  0  0  0
  144.8111  140.1674  154.2347 H   0  0  0  0  0  0  0  0  0  0  0  0
  148.3790  140.5875  152.1015 H   0  0  0  0  0  0  0  0  0  0  0  0
  148.5253  143.5331  154.8020 H   0  0  0  0  0  0  0  0  0  0  0  0
  1  2  1  0  0  0  0
  1 22  1  0  0  0  0
  2  3  2  0  0  0  0
  2  4  1  0  0  0  0
  4 17  2  0  0  0  0
  4  5  1  0  0  0  0
  5  6  2  0  0  0  0
  6  7  1  0  0  0  0
  6 23  1  0  0  0  0
  7  8  1  0  0  0  0
  7 17  1  0  0  0  0
  8 18  1  0  0  0  0
  8 15  1  0  0  0  0
  8  9  1  0  0  0  0
  9 10  1  0  0  0  0
 10 19  1  0  0  0  0
 10 11  1  0  0  0  0
 10 13  1  0  0  0  0
 11 12  1  0  0  0  0
 11 24  1  0  0  0  0
 11 25  1  0  0  0  0
 12 26  1  0  0  0  0
 13 20  1  0  0  0  0
 13 14  1  0  0  0  0
 13 15  1  0  0  0  0
 14 27  1  0  0  0  0
 15 21  1  0  0  0  0
 15 16  1  0  0  0  0
 16 28  1  0  0  0  0
M  CHG  1   1  -1
M  END
> <s_m_source_file>
AV-unprocessed.smi

> <i_m_source_file_index>
160

> <i_lp_mmshare_version>
43012

> <i_f3d_flags>
0

> <s_epik_input>
W05IMl1DKD1PKWMxbltjSF1uKG4xKVtDQEBIXTJPW0NASF0oW0NIMl1bT0hdKVtDQEBIXShbT0hdKVtDQEhdMltPSF0=

> <s_epik_cmdline>
J2VwaWtfcHl0aG9uJywgJy1waCcsICc3LjAnLCAnLXRuJywgJzgnLCAnLW1hJywgJzIwMCcsICctbWV0YWxfYmluZGluZycsICctaW1hZScsICc8aW5maWxlLm1hZT4nLCAnLW9tYWUnLCAnPG91dGZpbGUubWFlPic=

> <r_lp_tautomer_probability>
1

> <r_epik_Ionization_Penalty>
6.6993

> <r_epik_Ionization_Penalty_Charging>
6.6993

> <r_epik_Ionization_Penalty_Neutral>
6.01698e-06

> <r_epik_State_Penalty>
6.69929

> <r_epik_Charging_Adjusted_Penalty>
13.3986

> <i_epik_Tot_Q>
-1

> <i_epik_Tot_abs_Q>
1

> <r_epik_Metal_State_Penalty>
2.62798

> <b_epik_Metal_Only>
1

> <s_epik_Chemistry_Notes>
This compound contains an acetal/aminal-like group ( X-CH(R)-Y where X, Y are N, S, or O) that may be acid/base labile, releasing an aldehyde.

> <s_lp_Force_Field>
OPLS_2005

> <r_lp_Energy>
36.7288

> <b_lp_Chiralities_Consistent>
1

> <s_lp_Variant>
AV-unprocessed.smi:160-23

> <Gold.Version>
5.8.1

> <Gold.Id.Protein>
6NUR|6NUR_protein|mol2

> <Gold.PLP.Fitness>
46.3073

> <Gold.PLP.PLP>
-29.2783

> <Gold.PLP.part.hbond>
-9.5445

> <Gold.PLP.part.metal>
0.0000

> <Gold.PLP.part.buried>
-2.3777

> <Gold.PLP.part.nonpolar>
-18.1487

> <Gold.PLP.part.repulsive>
0.1244

> <Gold.PLP.ligand.clash>
0.0124

> <Gold.PLP.ligand.torsion>
0.9503

> <Gold.PLP.Chemscore.Hbond>
6.3023

> <Gold.PLP.Chemscore.CHOScore>
0.0000

> <Gold.PLP.Chemscore.Metal>
0.0000

> <Gold.Chemscore.Hbonds>
donor molecule, donor type, donor heavy atom, donor atom, acceptor molecule, acceptor atom, score
      L1  H     1    22       P1  7949  0.43
      L1  H    12    26       P1 10175  0.81
      L1  H    14    27       P1  7957  0.66
      L1  H    16    28       P1  8028  0.86
      P1  H  7997  8009       L1     5  0.83
      P1  H 10752 10764       L1     1  1.10

> <Gold.PLP.Chemscore.Internal.Correction>
0.0352

> <Gold.Rescore>
     Score         DG    S(hbond)    S(metal)    S(lipo)     H(rot)  DE(clash)    DE(int)     intcor
      9.82     -11.62       4.27        0.00      18.97       4.04       0.89       0.92       ----

> <Gold.Chemscore.Fitness>
9.8153

> <Gold.Chemscore.DG>
-11.6245

> <Gold.Chemscore.ZeroCoef>
-5.4800

> <Gold.Chemscore.Hbond>
4.2719

> <Gold.Chemscore.Metal>
0.0000

> <Gold.Chemscore.Lipo>
18.9684

> <Gold.Chemscore.Internal_Hbond>
0.0000

> <Gold.Chemscore.DEClash>
0.8888

> <Gold.Chemscore.DEInternal>
0.9204

> <Gold.Chemscore.Rot>
4.0403

> <Gold.Chemscore.Internal.Correction>
   9.000000E+99

> <Gold.Chemscore.Hbonds>
donor molecule, donor type, donor heavy atom, donor atom, acceptor molecule, acceptor atom, score
      L1  H     1    22       P1  7949  0.41
      L1  H    12    26       P1 10175  0.80
      L1  H    14    27       P1  7957  0.65
      L1  H    16    28       P1  8028  0.81
      P1  H  7997  8009       L1     5  0.80
      P1  H 10752 10764       L1     1  0.03

> <Gold.Chemscore.Hbond.Weighted>
-14.2683

> <Gold.Chemscore.Metal.Weighted>
-0.0000

> <Gold.Chemscore.Lipo.Weighted>
-2.2193

> <Gold.Chemscore.Internal_Hbond.Weighted>
0.0000

> <Gold.Chemscore.DEClash.Weighted>
0.8888

> <Gold.Chemscore.DEInternal.Weighted>
0.9204

> <Gold.Chemscore.Rot.Weighted>
10.3431

> <Gold.Chemscore.Internal.Correction.Weighted>
   9.000000E+99

> <Gold.Protein.RotatedTorsions>
[ 6907 6896 6895 6894 ] final   68.54 input  -60.11 | X-H torsion
[ 7974 7965 7964 7962 ] final  140.32 input  175.53 | X-H torsion
[ 8008 7997 7996 7995 ] final -172.00 input   59.86 | X-H torsion
[ 10167 10162 10161 10158 ] final  -29.63 input  -65.29 | X-H torsion
[ 10718 10713 10712 10709 ] final  -48.02 input   66.30 | X-H torsion
[ 10763 10752 10751 10750 ] final  -93.65 input  -60.55 | X-H torsion
[ 11005 11000 10999 10996 ] final  101.88 input  -57.11 | X-H torsion

> <Gold.Protein.ActiveResidues>
 VAL166  LYS551  ARG553  GLY616  TRP617  ASP618  TYR619  PRO620  LYS621  CYS622 
 ASP623  PHE694  ASN695  SER759  ASP760  ASP761  ALA762  ILE779  LEU786  VAL792 
 PHE793  MET794  SER795  GLU796  ALA797  LYS798  CYS799  TRP800  GLU811  SER814 

> <Gold.Protein.RotatedAtoms>
  152.4627  134.5147  159.9764 H   0  0  0  0  0  0  0  0  0  0  0  0  # atno 6907 bound_to 6896
  151.5192  133.3464  159.2906 H   0  0  0  0  0  0  0  0  0  0  0  0  # atno 6908 bound_to 6896
  150.8597  134.7975  159.7135 H   0  0  0  0  0  0  0  0  0  0  0  0  # atno 6909 bound_to 6896
  144.9197  139.5184  143.5669 H   0  0  0  0  0  0  0  0  0  0  0  0  # atno 7974 bound_to 7965
  155.9389  140.1105  157.1072 H   0  0  0  0  0  0  0  0  0  0  0  0  # atno 8008 bound_to 7997
  154.4085  140.1223  156.4966 H   0  0  0  0  0  0  0  0  0  0  0  0  # atno 8009 bound_to 7997
  155.6987  140.3472  155.4926 H   0  0  0  0  0  0  0  0  0  0  0  0  # atno 8010 bound_to 7997
  140.7258  143.3913  151.1425 H   0  0  0  0  0  0  0  0  0  0  0  0  # atno 10167 bound_to 10162
  156.2028  130.4157  149.9218 H   0  0  0  0  0  0  0  0  0  0  0  0  # atno 10718 bound_to 10713
  154.6979  135.5186  153.8485 H   0  0  0  0  0  0  0  0  0  0  0  0  # atno 10763 bound_to 10752
  153.0681  135.6592  154.0317 H   0  0  0  0  0  0  0  0  0  0  0  0  # atno 10764 bound_to 10752
  154.0181  135.2996  155.3364 H   0  0  0  0  0  0  0  0  0  0  0  0  # atno 10765 bound_to 10752
  139.8775  134.9201  156.4974 H   0  0  0  0  0  0  0  0  0  0  0  0  # atno 11005 bound_to 11000
  146.3199  139.8067  142.8954 LP  0  0  0  0  0  0  0  0  0  0  0  0  # atno 17320 bound_to 7965
  145.3316  141.0268  143.3443 LP  0  0  0  0  0  0  0  0  0  0  0  0  # atno 17321 bound_to 7965
  139.7518  143.8767  152.3078 LP  0  0  0  0  0  0  0  0  0  0  0  0  # atno 17342 bound_to 10162
  139.8623  144.7111  150.9085 LP  0  0  0  0  0  0  0  0  0  0  0  0  # atno 17343 bound_to 10162
  156.6921  130.8900  151.3589 LP  0  0  0  0  0  0  0  0  0  0  0  0  # atno 17370 bound_to 10713
  157.6995  130.9318  150.0744 LP  0  0  0  0  0  0  0  0  0  0  0  0  # atno 17371 bound_to 10713
  140.8614  133.8057  155.9269 LP  0  0  0  0  0  0  0  0  0  0  0  0  # atno 17394 bound_to 11000
  140.9045  134.2337  157.5022 LP  0  0  0  0  0  0  0  0  0  0  0  0  # atno 17395 bound_to 11000

$$$$
