#       Name:                AV-unprocessed.smi:1069
#       Creating user name   scv26
#       Creation time:       Fri Mar 27 03:19:00 2020


#       File generated by GOLD software.
#

@<TRIPOS>MOLECULE
AV-unprocessed.smi:1069
    60    61     1
SMALL
NO_CHARGES


@<TRIPOS>ATOM
      1 ****        -3.8219  -6.1370   1.8138 C.3            1 S1                 0.0000
      2 ****        -3.3585  -5.3067   0.6053 C.3            1 S1                 0.0000
      3 ****        -4.2361  -5.5987  -0.6264 C.3            1 S1                 0.0000
      4 ****        -1.8646  -5.5653   0.3129 C.2            1 S1                 0.0000
      5 ****        -1.5739  -6.4715  -0.4702 O.2            1 S1                 0.0000
      6 ****        -0.9144  -4.7825   0.8840 N.am           1 S1                 0.0000
      7 ****         0.4934  -4.8203   0.4697 C.3            1 S1                 0.0000
      8 ****         0.8175  -3.5139  -0.2788 C.3            1 S1                 0.0000
      9 ****         0.4923  -2.2713   0.5799 C.3            1 S1                 0.0000
     10 ****         0.6239  -1.0671  -0.2348 N.am           1 S1                 0.0000
     11 ****         0.8702   0.1637   0.2354 C.2            1 S1                 0.0000
     12 ****         0.9991   0.4183   1.4320 O.2            1 S1                 0.0000
     13 ****         0.9442   1.0562  -0.7666 N.am           1 S1                 0.0000
     14 ****         1.2034   2.4525  -0.7053 C.ar           1 S1                 0.0000
     15 ****         1.0896   3.2132  -1.8860 C.ar           1 S1                 0.0000
     16 ****         1.3301   4.5407  -1.9096 N.ar           1 S1                 0.0000
     17 ****         1.6567   5.1338  -0.7540 C.ar           1 S1                 0.0000
     18 ****         2.0714   6.6143  -0.8150 C.3            1 S1                 0.0000
     19 ****         1.7667   7.3325   0.5207 C.3            1 S1                 0.0000
     20 ****         1.2713   7.3729  -1.9000 C.3            1 S1                 0.0000
     21 ****         3.5767   6.7132  -1.1222 C.3            1 S1                 0.0000
     22 ****         1.8375   4.4982   0.4109 N.ar           1 S1                 0.0000
     23 ****         1.6001   3.1696   0.4493 C.ar           1 S1                 0.0000
     24 ****        -0.9228  -2.3619   1.1991 C.3            1 S1                 0.0000
     25 ****        -1.1398  -3.7254   1.8771 C.3            1 S1                 0.0000
     26 ****        -3.2230  -5.9257   2.7003 H              1 S1                 0.0000
     27 ****        -3.7505  -7.2070   1.6131 H              1 S1                 0.0000
     28 ****        -4.8603  -5.9166   2.0624 H              1 S1                 0.0000
     29 ****        -3.5085  -4.2494   0.8185 H              1 S1                 0.0000
     30 ****        -3.8913  -5.0446  -1.5004 H              1 S1                 0.0000
     31 ****        -5.2702  -5.3059  -0.4434 H              1 S1                 0.0000
     32 ****        -4.2372  -6.6593  -0.8811 H              1 S1                 0.0000
     33 ****         1.1320  -4.9200   1.3486 H              1 S1                 0.0000
     34 ****         0.7294  -5.6756  -0.1645 H              1 S1                 0.0000
     35 ****         1.8683  -3.5028  -0.5707 H              1 S1                 0.0000
     36 ****         0.2400  -3.4849  -1.2043 H              1 S1                 0.0000
     37 ****         1.2212  -2.2336   1.3920 H              1 S1                 0.0000
     38 ****         0.5274  -1.1831  -1.2329 H              1 S1                 0.0000
     39 ****         0.7797   0.6916  -1.6934 H              1 S1                 0.0000
     40 ****         0.8106   2.7543  -2.8232 H              1 S1                 0.0000
     41 ****         2.0147   8.3931   0.4672 H              1 S1                 0.0000
     42 ****         2.3421   6.9173   1.3490 H              1 S1                 0.0000
     43 ****         0.7103   7.2561   0.7807 H              1 S1                 0.0000
     44 ****         0.1972   7.2983  -1.7260 H              1 S1                 0.0000
     45 ****         1.4718   6.9881  -2.9005 H              1 S1                 0.0000
     46 ****         1.5276   8.4329  -1.9143 H              1 S1                 0.0000
     47 ****         3.9057   7.7516  -1.1723 H              1 S1                 0.0000
     48 ****         3.8176   6.2449  -2.0771 H              1 S1                 0.0000
     49 ****         4.1707   6.2166  -0.3543 H              1 S1                 0.0000
     50 ****         1.7528   2.7051   1.4099 H              1 S1                 0.0000
     51 ****        -1.0700  -1.5607   1.9241 H              1 S1                 0.0000
     52 ****        -1.6787  -2.2215   0.4247 H              1 S1                 0.0000
     53 ****        -2.1162  -3.7699   2.3555 H              1 S1                 0.0000
     54 ****        -0.4263  -3.8452   2.6938 H              1 S1                 0.0000
     55 ****        -2.2969  -7.0153  -0.8963 LP             1 S1                 0.0000
     56 ****        -0.6150  -6.6630  -0.6796 LP             1 S1                 0.0000
     57 ****         0.9207  -0.3126   2.1099 LP             1 S1                 0.0000
     58 ****         1.1823   1.3561   1.7267 LP             1 S1                 0.0000
     59 ****         1.2667   5.0632  -2.7599 LP             1 S1                 0.0000
     60 ****         2.1388   4.9920   1.2265 LP             1 S1                 0.0000
@<TRIPOS>BOND
    1    1    2 1     
    2    1   26 1     
    3    1   27 1     
    4    1   28 1     
    5    2    3 1     
    6    2    4 1     
    7    2   29 1     
    8    3   30 1     
    9    3   31 1     
   10    3   32 1     
   11    4    5 2     
   12    4    6 am    
   13    6   25 1     
   14    6    7 1     
   15    7    8 1     
   16    7   33 1     
   17    7   34 1     
   18    8    9 1     
   19    8   35 1     
   20    8   36 1     
   21    9   10 1     
   22    9   24 1     
   23    9   37 1     
   24   10   11 am    
   25   10   38 1     
   26   11   12 2     
   27   11   13 am    
   28   13   14 1     
   29   13   39 1     
   30   14   23 ar    
   31   14   15 ar    
   32   15   16 ar    
   33   15   40 1     
   34   16   17 ar    
   35   17   18 1     
   36   17   22 ar    
   37   18   19 1     
   38   18   20 1     
   39   18   21 1     
   40   19   41 1     
   41   19   42 1     
   42   19   43 1     
   43   20   44 1     
   44   20   45 1     
   45   20   46 1     
   46   21   47 1     
   47   21   48 1     
   48   21   49 1     
   49   22   23 ar    
   50   23   50 1     
   51   24   25 1     
   52   24   51 1     
   53   24   52 1     
   54   25   53 1     
   55   25   54 1     
   56    5   55 1     
   57    5   56 1     
   58   12   57 1     
   59   12   58 1     
   60   16   59 1     
   61   22   60 1     
@<TRIPOS>SUBSTRUCTURE
      1 S1             1
@<TRIPOS>SET
LONE_PAIRS      STATIC     ATOMS    <user>   **** ""
6 55 56 57 58 59 60
DONOR_HYDROGENS      STATIC     ATOMS    <user>   **** ""
2 38 39
ATOM$BLUE        STATIC     ATOMS    COLORGROUP SYSTEM
6 55 56 57 58 59 60
ATOM$RED        STATIC     ATOMS    COLORGROUP SYSTEM
2 38 39
