AV-unprocessed.smi:2136|AV-procd|sdf|8705|dock10
  -GOLD-   2272011463D 1   1.00000     0.00000
 Structure written by MMmdl.
 43 44  0  0  0  0  0  0  0  0  2 V2000
  154.0849  139.2134  159.8135 C   0  0  0  0  0  0  0  0  0  0  0  0
  152.6430  139.4165  158.6880 S   0  0  0  0  0  0  0  0  0  0  0  0
  153.1026  139.1799  157.3115 O   0  0  0  0  0  0  0  0  0  0  0  0
  151.5333  138.6089  159.2173 O   0  0  0  0  0  0  0  0  0  0  0  0
  152.2219  141.1081  158.8899 N   0  0  0  0  0  0  0  0  0  0  0  0
  152.9887  141.7994  159.9564 C   0  0  0  0  0  0  0  0  0  0  0  0
  152.4416  143.1905  160.2974 C   0  0  0  0  0  0  0  0  0  0  0  0
  152.3769  144.0607  159.0488 C   0  0  0  0  0  0  0  0  0  0  0  0
  151.4571  143.3753  158.0442 C   0  0  0  0  0  0  0  0  0  0  0  0
  151.9298  141.9461  157.6802 C   0  0  2  0  0  0  0  0  0  0  0  0
  150.9238  141.3708  156.6722 C   0  0  0  0  0  0  0  0  0  0  0  0
  151.3175  140.9531  155.5833 O   0  0  0  0  0  0  0  0  0  0  0  0
  149.6330  141.3536  157.0435 N   0  0  0  0  0  0  0  0  0  0  0  0
  148.5405  140.8174  156.2422 C   0  0  0  0  0  0  0  0  0  0  0  0
  148.4683  141.4867  154.8600 C   0  0  0  0  0  0  0  0  0  0  0  0
  147.9219  140.5495  153.8012 C   0  0  0  0  0  0  0  0  0  0  0  0
  146.9297  140.9843  152.8947 C   0  0  0  0  0  0  0  0  0  0  0  0
  146.4398  140.0864  151.9233 C   0  0  0  0  0  0  0  0  0  0  0  0
  146.9524  138.7734  151.8816 C   0  0  0  0  0  0  0  0  0  0  0  0
  147.9002  138.3930  152.7665 N   0  3  0  0  0  0  0  0  0  0  0  0
  148.3957  139.2228  153.7106 C   0  0  0  0  0  0  0  0  0  0  0  0
  154.4109  138.1738  159.7944 H   0  0  0  0  0  0  0  0  0  0  0  0
  153.8019  139.4818  160.8305 H   0  0  0  0  0  0  0  0  0  0  0  0
  154.9039  139.8503  159.4808 H   0  0  0  0  0  0  0  0  0  0  0  0
  152.9823  141.1972  160.8644 H   0  0  0  0  0  0  0  0  0  0  0  0
  154.0298  141.8821  159.6434 H   0  0  0  0  0  0  0  0  0  0  0  0
  151.4506  143.1016  160.7451 H   0  0  0  0  0  0  0  0  0  0  0  0
  153.0779  143.6636  161.0459 H   0  0  0  0  0  0  0  0  0  0  0  0
  151.9962  145.0521  159.2957 H   0  0  0  0  0  0  0  0  0  0  0  0
  153.3727  144.1963  158.6247 H   0  0  0  0  0  0  0  0  0  0  0  0
  150.4483  143.3439  158.4596 H   0  0  0  0  0  0  0  0  0  0  0  0
  151.3938  143.9888  157.1440 H   0  0  0  0  0  0  0  0  0  0  0  0
  152.8756  142.0537  157.1468 H   0  0  0  0  0  0  0  0  0  0  0  0
  149.4000  141.7091  157.9597 H   0  0  0  0  0  0  0  0  0  0  0  0
  148.6545  139.7365  156.1414 H   0  0  0  0  0  0  0  0  0  0  0  0
  147.6094  140.9816  156.7855 H   0  0  0  0  0  0  0  0  0  0  0  0
  147.8433  142.3797  154.9084 H   0  0  0  0  0  0  0  0  0  0  0  0
  149.4583  141.8223  154.5480 H   0  0  0  0  0  0  0  0  0  0  0  0
  146.5461  141.9932  152.9424 H   0  0  0  0  0  0  0  0  0  0  0  0
  145.6815  140.4006  151.2213 H   0  0  0  0  0  0  0  0  0  0  0  0
  146.6352  138.0219  151.1734 H   0  0  0  0  0  0  0  0  0  0  0  0
  149.1491  138.8025  154.3615 H   0  0  0  0  0  0  0  0  0  0  0  0
  148.2566  137.4379  152.7204 H   0  0  0  0  0  0  0  0  0  0  0  0
  1  2  1  0  0  0  0
  1 22  1  0  0  0  0
  1 23  1  0  0  0  0
  1 24  1  0  0  0  0
  2  3  2  0  0  0  0
  2  4  2  0  0  0  0
  2  5  1  0  0  0  0
  5 10  1  0  0  0  0
  5  6  1  0  0  0  0
  6  7  1  0  0  0  0
  6 25  1  0  0  0  0
  6 26  1  0  0  0  0
  7  8  1  0  0  0  0
  7 27  1  0  0  0  0
  7 28  1  0  0  0  0
  8  9  1  0  0  0  0
  8 29  1  0  0  0  0
  8 30  1  0  0  0  0
  9 10  1  0  0  0  0
  9 31  1  0  0  0  0
  9 32  1  0  0  0  0
 10 11  1  0  0  0  0
 10 33  1  0  0  0  0
 11 12  2  0  0  0  0
 11 13  1  0  0  0  0
 13 14  1  0  0  0  0
 13 34  1  0  0  0  0
 14 15  1  0  0  0  0
 14 35  1  0  0  0  0
 14 36  1  0  0  0  0
 15 16  1  0  0  0  0
 15 37  1  0  0  0  0
 15 38  1  0  0  0  0
 16 21  1  0  0  0  0
 16 17  2  0  0  0  0
 17 18  1  0  0  0  0
 17 39  1  0  0  0  0
 18 19  2  0  0  0  0
 18 40  1  0  0  0  0
 19 20  1  0  0  0  0
 19 41  1  0  0  0  0
 20 21  2  0  0  0  0
 20 43  1  0  0  0  0
 21 42  1  0  0  0  0
M  CHG  1  20   1
M  END
> <s_m_source_file>
AV-unprocessed.smi

> <i_m_source_file_index>
2136

> <i_lp_mmshare_version>
43012

> <i_f3d_flags>
0

> <s_epik_input>
W0NIM11TKD1PKSg9TylOMVtDSDJdW0NIMl1bQ0gyXVtDSDJdW0NASF0xQyg9TylbTkhdW0NIMl1bQ0gyXWMyW2NIXVtjSF1bY0hdbltjSF0y

> <s_epik_cmdline>
J2VwaWtfcHl0aG9uJywgJy1waCcsICc3LjAnLCAnLXRuJywgJzgnLCAnLW1hJywgJzIwMCcsICctbWV0YWxfYmluZGluZycsICctaW1hZScsICc8aW5maWxlLm1hZT4nLCAnLW9tYWUnLCAnPG91dGZpbGUubWFlPic=

> <r_epik_Ionization_Penalty>
2.2835

> <r_epik_Ionization_Penalty_Charging>
2.2835

> <r_epik_Ionization_Penalty_Neutral>
1.35461e-07

> <r_epik_State_Penalty>
2.43297

> <r_epik_Charging_Adjusted_Penalty>
4.71647

> <i_epik_Tot_Q>
1

> <i_epik_Tot_abs_Q>
1

> <r_epik_Metal_State_Penalty>
2.44557

> <b_epik_Metal_Only>
0

> <s_lp_Force_Field>
OPLS_2005

> <r_lp_Energy>
10.903

> <b_lp_Chiralities_Consistent>
1

> <s_lp_Variant>
AV-unprocessed.smi:2136-4

> <Gold.Version>
5.8.1

> <Gold.Id.Protein>
6NUR|6NUR_protein|mol2

> <Gold.PLP.Fitness>
45.1580

> <Gold.PLP.PLP>
-35.6314

> <Gold.PLP.part.hbond>
-4.0000

> <Gold.PLP.part.metal>
0.0000

> <Gold.PLP.part.buried>
3.9827

> <Gold.PLP.part.nonpolar>
-34.6951

> <Gold.PLP.part.repulsive>
0.1268

> <Gold.PLP.ligand.clash>
0.0000

> <Gold.PLP.ligand.torsion>
0.8731

> <Gold.PLP.Chemscore.Hbond>
3.5063

> <Gold.PLP.Chemscore.CHOScore>
0.0000

> <Gold.PLP.Chemscore.Metal>
0.0000

> <Gold.Chemscore.Hbonds>
donor molecule, donor type, donor heavy atom, donor atom, acceptor molecule, acceptor atom, score
      L1  H    20    43       P1  7948  1.95
      P1  H  7989  7998       L1    12  0.55
      P1  H  7997  8008       L1     3  1.00

> <Gold.PLP.Chemscore.Internal.Correction>
0.7538

> <Gold.Rescore>
     Score         DG    S(hbond)    S(metal)    S(lipo)     H(rot)  DE(clash)    DE(int)     intcor
     17.66     -21.83       2.43        0.00     112.88       1.95       2.26       1.90       ----

> <Gold.Chemscore.Fitness>
17.6642

> <Gold.Chemscore.DG>
-21.8282

> <Gold.Chemscore.ZeroCoef>
-5.4800

> <Gold.Chemscore.Hbond>
2.4325

> <Gold.Chemscore.Metal>
0.0000

> <Gold.Chemscore.Lipo>
112.8792

> <Gold.Chemscore.Internal_Hbond>
0.0000

> <Gold.Chemscore.DEClash>
2.2620

> <Gold.Chemscore.DEInternal>
1.9021

> <Gold.Chemscore.Rot>
1.9466

> <Gold.Chemscore.Internal.Correction>
   9.000000E+99

> <Gold.Chemscore.Hbonds>
donor molecule, donor type, donor heavy atom, donor atom, acceptor molecule, acceptor atom, score
      L1  H    20    43       P1  7948  0.92
      P1  H  7989  7998       L1    12  0.53
      P1  H  7997  8008       L1     3  0.93

> <Gold.Chemscore.Hbond.Weighted>
-8.1246

> <Gold.Chemscore.Metal.Weighted>
-0.0000

> <Gold.Chemscore.Lipo.Weighted>
-13.2069

> <Gold.Chemscore.Internal_Hbond.Weighted>
0.0000

> <Gold.Chemscore.DEClash.Weighted>
2.2620

> <Gold.Chemscore.DEInternal.Weighted>
1.9021

> <Gold.Chemscore.Rot.Weighted>
4.9832

> <Gold.Chemscore.Internal.Correction.Weighted>
   9.000000E+99

> <Gold.Protein.RotatedTorsions>
[ 6907 6896 6895 6894 ] final -169.15 input  -60.11 | X-H torsion
[ 7974 7965 7964 7962 ] final  145.03 input  175.53 | X-H torsion
[ 8008 7997 7996 7995 ] final  -71.89 input   59.86 | X-H torsion
[ 10167 10162 10161 10158 ] final   79.61 input  -65.29 | X-H torsion
[ 10718 10713 10712 10709 ] final  122.72 input   66.30 | X-H torsion
[ 10763 10752 10751 10750 ] final  -64.65 input  -60.55 | X-H torsion
[ 11005 11000 10999 10996 ] final  113.94 input  -57.11 | X-H torsion

> <Gold.Protein.ActiveResidues>
 VAL166  LYS551  ARG553  GLY616  TRP617  ASP618  TYR619  PRO620  LYS621  CYS622 
 ASP623  PHE694  ASN695  SER759  ASP760  ASP761  ALA762  ILE779  LEU786  VAL792 
 PHE793  MET794  SER795  GLU796  ALA797  LYS798  CYS799  TRP800  GLU811  SER814 

> <Gold.Protein.RotatedAtoms>
  151.4870  133.3533  159.2846 H   0  0  0  0  0  0  0  0  0  0  0  0  # atno 6907 bound_to 6896
  150.8860  134.8259  159.7270 H   0  0  0  0  0  0  0  0  0  0  0  0  # atno 6908 bound_to 6896
  152.4793  134.4774  159.9706 H   0  0  0  0  0  0  0  0  0  0  0  0  # atno 6909 bound_to 6896
  144.8786  139.5733  143.5853 H   0  0  0  0  0  0  0  0  0  0  0  0  # atno 7974 bound_to 7965
  154.5123  140.0807  156.8014 H   0  0  0  0  0  0  0  0  0  0  0  0  # atno 8008 bound_to 7997
  155.3757  140.3425  155.4226 H   0  0  0  0  0  0  0  0  0  0  0  0  # atno 8009 bound_to 7997
  156.1588  140.1581  156.8635 H   0  0  0  0  0  0  0  0  0  0  0  0  # atno 8010 bound_to 7997
  139.9585  144.5977  150.8094 H   0  0  0  0  0  0  0  0  0  0  0  0  # atno 10167 bound_to 10162
  157.5720  131.1082  150.8348 H   0  0  0  0  0  0  0  0  0  0  0  0  # atno 10718 bound_to 10713
  154.3332  135.6172  153.5561 H   0  0  0  0  0  0  0  0  0  0  0  0  # atno 10763 bound_to 10752
  152.9810  135.5752  154.4937 H   0  0  0  0  0  0  0  0  0  0  0  0  # atno 10764 bound_to 10752
  154.4628  135.2856  155.1677 H   0  0  0  0  0  0  0  0  0  0  0  0  # atno 10765 bound_to 10752
  139.8966  134.9559  156.6816 H   0  0  0  0  0  0  0  0  0  0  0  0  # atno 11005 bound_to 11000
  146.2980  139.7336  142.9113 LP  0  0  0  0  0  0  0  0  0  0  0  0  # atno 17320 bound_to 7965
  145.3996  141.0383  143.3078 LP  0  0  0  0  0  0  0  0  0  0  0  0  # atno 17321 bound_to 7965
  140.7560  143.3058  151.2965 LP  0  0  0  0  0  0  0  0  0  0  0  0  # atno 17342 bound_to 10162
  139.6572  144.0254  152.2668 LP  0  0  0  0  0  0  0  0  0  0  0  0  # atno 17343 bound_to 10162
  156.8817  130.5182  149.5290 LP  0  0  0  0  0  0  0  0  0  0  0  0  # atno 17370 bound_to 10713
  156.0766  130.5786  150.9484 LP  0  0  0  0  0  0  0  0  0  0  0  0  # atno 17371 bound_to 10713
  140.7295  133.9071  155.8201 LP  0  0  0  0  0  0  0  0  0  0  0  0  # atno 17394 bound_to 11000
  141.0164  134.0949  157.4167 LP  0  0  0  0  0  0  0  0  0  0  0  0  # atno 17395 bound_to 11000

$$$$
