AV-unprocessed.smi:3042|AV-procd|sdf|11600|dock2
  -GOLD-   2272016573D 1   1.00000     0.00000
 Structure written by MMmdl.
 33 34  0  0  0  0  0  0  0  0  2 V2000
  147.2422  138.7469  151.9545 N   0  3  0  0  0  0  0  0  0  0  0  0
  147.0666  139.0366  153.3895 C   0  0  0  0  0  0  0  0  0  0  0  0
  147.8160  140.3236  153.8216 C   0  0  1  0  0  0  0  0  0  0  0  0
  146.8186  141.2731  154.4843 C   0  0  0  0  0  0  0  0  0  0  0  0
  146.4469  142.4922  153.8749 C   0  0  0  0  0  0  0  0  0  0  0  0
  145.5307  143.3321  154.5358 C   0  0  0  0  0  0  0  0  0  0  0  0
  145.0177  142.9174  155.7806 C   0  0  0  0  0  0  0  0  0  0  0  0
  145.3642  141.7548  156.3737 N   0  0  0  0  0  0  0  0  0  0  0  0
  146.2421  140.9542  155.7334 C   0  0  0  0  0  0  0  0  0  0  0  0
  148.9913  140.0855  154.6856 N   0  0  0  0  0  0  0  0  0  0  0  0
  149.6671  141.3369  155.0490 C   0  0  0  0  0  0  0  0  0  0  0  0
  150.8923  141.1064  155.9497 C   0  0  0  0  0  0  0  0  0  0  0  0
  151.8028  140.2310  155.2971 O   0  0  0  0  0  0  0  0  0  0  0  0
  151.2122  138.9781  154.9779 C   0  0  0  0  0  0  0  0  0  0  0  0
  149.9844  139.1962  154.0761 C   0  0  0  0  0  0  0  0  0  0  0  0
  147.8594  139.4330  151.5442 H   0  0  0  0  0  0  0  0  0  0  0  0
  146.3457  138.7801  151.4907 H   0  0  0  0  0  0  0  0  0  0  0  0
  146.0006  139.1183  153.6045 H   0  0  0  0  0  0  0  0  0  0  0  0
  147.4349  138.1607  153.9214 H   0  0  0  0  0  0  0  0  0  0  0  0
  148.1665  140.8108  152.9101 H   0  0  0  0  0  0  0  0  0  0  0  0
  146.8572  142.7797  152.9179 H   0  0  0  0  0  0  0  0  0  0  0  0
  145.2262  144.2716  154.0985 H   0  0  0  0  0  0  0  0  0  0  0  0
  144.3122  143.5365  156.3144 H   0  0  0  0  0  0  0  0  0  0  0  0
  146.4963  140.0332  156.2372 H   0  0  0  0  0  0  0  0  0  0  0  0
  149.9811  141.8620  154.1456 H   0  0  0  0  0  0  0  0  0  0  0  0
  148.9852  142.0056  155.5737 H   0  0  0  0  0  0  0  0  0  0  0  0
  151.3939  142.0522  156.1549 H   0  0  0  0  0  0  0  0  0  0  0  0
  150.5934  140.6860  156.9113 H   0  0  0  0  0  0  0  0  0  0  0  0
  151.9496  138.3567  154.4697 H   0  0  0  0  0  0  0  0  0  0  0  0
  150.9309  138.4559  155.8940 H   0  0  0  0  0  0  0  0  0  0  0  0
  149.5523  138.2170  153.8777 H   0  0  0  0  0  0  0  0  0  0  0  0
  150.3072  139.6030  153.1165 H   0  0  0  0  0  0  0  0  0  0  0  0
  147.6425  137.8258  151.8464 H   0  0  0  0  0  0  0  0  0  0  0  0
  1  2  1  0  0  0  0
  1 16  1  0  0  0  0
  1 17  1  0  0  0  0
  1 33  1  0  0  0  0
  2  3  1  0  0  0  0
  2 18  1  0  0  0  0
  2 19  1  0  0  0  0
  3  4  1  0  0  0  0
  3 10  1  0  0  0  0
  3 20  1  0  0  0  0
  4  9  1  0  0  0  0
  4  5  2  0  0  0  0
  5  6  1  0  0  0  0
  5 21  1  0  0  0  0
  6  7  2  0  0  0  0
  6 22  1  0  0  0  0
  7  8  1  0  0  0  0
  7 23  1  0  0  0  0
  8  9  2  0  0  0  0
  9 24  1  0  0  0  0
 10 15  1  0  0  0  0
 10 11  1  0  0  0  0
 11 12  1  0  0  0  0
 11 25  1  0  0  0  0
 11 26  1  0  0  0  0
 12 13  1  0  0  0  0
 12 27  1  0  0  0  0
 12 28  1  0  0  0  0
 13 14  1  0  0  0  0
 14 15  1  0  0  0  0
 14 29  1  0  0  0  0
 14 30  1  0  0  0  0
 15 31  1  0  0  0  0
 15 32  1  0  0  0  0
M  CHG  1   1   1
M  END
> <s_m_source_file>
AV-unprocessed.smi

> <i_m_source_file_index>
3042

> <i_lp_mmshare_version>
43012

> <i_f3d_flags>
0

> <s_epik_input>
W0NIMl0xW0NIMl1PW0NIMl1bQ0gyXU4xW0NASF0oW0NIMl1bTkgyXSljMltjSF1bY0hdW2NIXW5bY0hdMg==

> <s_epik_cmdline>
J2VwaWtfcHl0aG9uJywgJy1waCcsICc3LjAnLCAnLXRuJywgJzgnLCAnLW1hJywgJzIwMCcsICctbWV0YWxfYmluZGluZycsICctaW1hZScsICc8aW5maWxlLm1hZT4nLCAnLW9tYWUnLCAnPG91dGZpbGUubWFlPic=

> <r_epik_Ionization_Penalty>
0.0112597

> <r_epik_Ionization_Penalty_Charging>
0.00794922

> <r_epik_Ionization_Penalty_Neutral>
0.00331052

> <r_epik_State_Penalty>
0.00596555

> <r_epik_Charging_Adjusted_Penalty>
0.0139148

> <i_epik_Tot_Q>
1

> <i_epik_Tot_abs_Q>
1

> <r_epik_Metal_State_Penalty>
0.00603286

> <b_epik_Metal_Only>
0

> <s_lp_Force_Field>
OPLS_2005

> <r_lp_Energy>
28.2789

> <b_lp_Chiralities_Consistent>
1

> <s_lp_Variant>
AV-unprocessed.smi:3042-2

> <Gold.Version>
5.8.1

> <Gold.Id.Protein>
6NUR|6NUR_protein|mol2

> <Gold.PLP.Fitness>
40.0406

> <Gold.PLP.PLP>
-30.6728

> <Gold.PLP.part.hbond>
-3.0000

> <Gold.PLP.part.metal>
0.0000

> <Gold.PLP.part.buried>
-3.7063

> <Gold.PLP.part.nonpolar>
-23.6761

> <Gold.PLP.part.repulsive>
0.2631

> <Gold.PLP.ligand.clash>
0.0000

> <Gold.PLP.ligand.torsion>
0.7877

> <Gold.PLP.Chemscore.Hbond>
3.6221

> <Gold.PLP.Chemscore.CHOScore>
0.0000

> <Gold.PLP.Chemscore.Metal>
0.0000

> <Gold.Chemscore.Hbonds>
donor molecule, donor type, donor heavy atom, donor atom, acceptor molecule, acceptor atom, score
      L1  H     1    16       P1  7957  1.00
      L1  H     1    33       P1  7948  1.98
      P1  H  7989  7998       L1    13  0.55

> <Gold.PLP.Chemscore.Internal.Correction>
0.0771

> <Gold.Rescore>
     Score         DG    S(hbond)    S(metal)    S(lipo)     H(rot)  DE(clash)    DE(int)     intcor
     15.44     -16.37       1.98        0.00      69.13       1.48       0.16       0.77       ----

> <Gold.Chemscore.Fitness>
15.4367

> <Gold.Chemscore.DG>
-16.3669

> <Gold.Chemscore.ZeroCoef>
-5.4800

> <Gold.Chemscore.Hbond>
1.9759

> <Gold.Chemscore.Metal>
0.0000

> <Gold.Chemscore.Lipo>
69.1281

> <Gold.Chemscore.Internal_Hbond>
0.0000

> <Gold.Chemscore.DEClash>
0.1616

> <Gold.Chemscore.DEInternal>
0.7686

> <Gold.Chemscore.Rot>
1.4846

> <Gold.Chemscore.Internal.Correction>
   9.000000E+99

> <Gold.Chemscore.Hbonds>
donor molecule, donor type, donor heavy atom, donor atom, acceptor molecule, acceptor atom, score
      L1  H     1    16       P1  7957  0.94
      L1  H     1    33       P1  7948  0.92
      P1  H  7989  7998       L1    13  0.01

> <Gold.Chemscore.Hbond.Weighted>
-6.5994

> <Gold.Chemscore.Metal.Weighted>
-0.0000

> <Gold.Chemscore.Lipo.Weighted>
-8.0880

> <Gold.Chemscore.Internal_Hbond.Weighted>
0.0000

> <Gold.Chemscore.DEClash.Weighted>
0.1616

> <Gold.Chemscore.DEInternal.Weighted>
0.7686

> <Gold.Chemscore.Rot.Weighted>
3.8005

> <Gold.Chemscore.Internal.Correction.Weighted>
   9.000000E+99

> <Gold.Protein.RotatedTorsions>
[ 6907 6896 6895 6894 ] final   11.77 input  -60.11 | X-H torsion
[ 7974 7965 7964 7962 ] final  -80.41 input  175.53 | X-H torsion
[ 8008 7997 7996 7995 ] final   -3.07 input   59.86 | X-H torsion
[ 10167 10162 10161 10158 ] final  143.10 input  -65.29 | X-H torsion
[ 10718 10713 10712 10709 ] final   18.64 input   66.30 | X-H torsion
[ 10763 10752 10751 10750 ] final   71.36 input  -60.55 | X-H torsion
[ 11005 11000 10999 10996 ] final -169.53 input  -57.11 | X-H torsion

> <Gold.Protein.ActiveResidues>
 VAL166  LYS551  ARG553  GLY616  TRP617  ASP618  TYR619  PRO620  LYS621  CYS622 
 ASP623  PHE694  ASN695  SER759  ASP760  ASP761  ALA762  ILE779  LEU786  VAL792 
 PHE793  MET794  SER795  GLU796  ALA797  LYS798  CYS799  TRP800  GLU811  SER814 

> <Gold.Protein.RotatedAtoms>
  151.7596  135.0813  160.0343 H   0  0  0  0  0  0  0  0  0  0  0  0  # atno 6907 bound_to 6896
  152.3362  133.6010  159.5852 H   0  0  0  0  0  0  0  0  0  0  0  0  # atno 6908 bound_to 6896
  150.7451  133.9709  159.3587 H   0  0  0  0  0  0  0  0  0  0  0  0  # atno 6909 bound_to 6896
  145.5604  140.9483  143.1450 H   0  0  0  0  0  0  0  0  0  0  0  0  # atno 7974 bound_to 7965
  154.6289  140.2518  155.7458 H   0  0  0  0  0  0  0  0  0  0  0  0  # atno 8008 bound_to 7997
  156.2468  140.2911  156.0551 H   0  0  0  0  0  0  0  0  0  0  0  0  # atno 8009 bound_to 7997
  155.1777  140.0388  157.2866 H   0  0  0  0  0  0  0  0  0  0  0  0  # atno 8010 bound_to 7997
  139.4978  144.6063  151.6371 H   0  0  0  0  0  0  0  0  0  0  0  0  # atno 10167 bound_to 10162
  157.0992  130.6460  149.5868 H   0  0  0  0  0  0  0  0  0  0  0  0  # atno 10718 bound_to 10713
  153.0394  135.5140  154.7581 H   0  0  0  0  0  0  0  0  0  0  0  0  # atno 10763 bound_to 10752
  154.6531  135.2928  154.9965 H   0  0  0  0  0  0  0  0  0  0  0  0  # atno 10764 bound_to 10752
  154.0842  135.6659  153.4895 H   0  0  0  0  0  0  0  0  0  0  0  0  # atno 10765 bound_to 10752
  140.5297  134.5628  157.5071 H   0  0  0  0  0  0  0  0  0  0  0  0  # atno 11005 bound_to 11000
  144.7486  139.7254  143.7282 LP  0  0  0  0  0  0  0  0  0  0  0  0  # atno 17320 bound_to 7965
  146.1855  139.5069  142.9839 LP  0  0  0  0  0  0  0  0  0  0  0  0  # atno 17321 bound_to 7965
  140.5726  144.0083  150.6224 LP  0  0  0  0  0  0  0  0  0  0  0  0  # atno 17342 bound_to 10162
  140.3206  143.3140  152.0788 LP  0  0  0  0  0  0  0  0  0  0  0  0  # atno 17343 bound_to 10162
  155.9878  130.4919  150.7141 LP  0  0  0  0  0  0  0  0  0  0  0  0  # atno 17370 bound_to 10713
  157.4656  131.0888  151.0699 LP  0  0  0  0  0  0  0  0  0  0  0  0  # atno 17371 bound_to 10713
  139.9561  134.7533  156.0339 LP  0  0  0  0  0  0  0  0  0  0  0  0  # atno 17394 bound_to 11000
  141.1288  133.6592  156.3408 LP  0  0  0  0  0  0  0  0  0  0  0  0  # atno 17395 bound_to 11000

$$$$
