AV-unprocessed.smi:1033|AV-procd|sdf|4498|dock9
  -GOLD-   22720 2493D 1   1.00000     0.00000
 Structure written by MMmdl.
 57 59  0  0  0  0  0  0  0  0  3 V2000
  153.6636  142.6089  160.1845 C   0  0  0  0  0  0  0  0  0  0  0  0
  152.5770  142.1874  159.2099 C   0  0  0  0  0  0  0  0  0  0  0  0
  152.1999  140.8262  159.1678 C   0  0  0  0  0  0  0  0  0  0  0  0
  151.2037  140.4713  158.2663 C   0  0  0  0  0  0  0  0  0  0  0  0
  150.6224  139.2325  157.9888 N   0  3  0  0  0  0  0  0  0  0  0  0
  149.6795  139.3800  157.0178 C   0  0  0  0  0  0  0  0  0  0  0  0
  149.6504  140.6952  156.6686 N   0  0  0  0  0  0  0  0  0  0  0  0
  148.8098  141.3826  155.6767 C   0  0  0  0  0  0  0  0  0  0  0  0
  148.5504  140.5320  154.4176 C   0  0  2  0  0  0  0  0  0  0  0  0
  149.6417  140.6627  153.5273 O   0  0  0  0  0  0  0  0  0  0  0  0
  147.2633  140.9708  153.6902 C   0  0  0  0  0  0  0  0  0  0  0  0
  146.3633  139.8329  153.3707 N   0  3  0  0  0  0  0  0  0  0  0  0
  145.9125  139.1093  154.5876 C   0  0  0  0  0  0  0  0  0  0  0  0
  144.9220  137.9882  154.2123 C   0  0  0  0  0  0  0  0  0  0  0  0
  145.4691  137.0316  153.2509 N   0  0  0  0  0  0  0  0  0  0  0  0
  146.4871  136.1535  153.8400 C   0  0  0  0  0  0  0  0  0  0  0  0
  146.5183  134.7131  153.2917 C   0  0  2  0  0  0  0  0  0  0  0  0
  147.6815  133.8840  153.8551 C   0  0  0  0  0  0  0  0  0  0  0  0
  146.6682  134.7847  151.8898 O   0  0  0  0  0  0  0  0  0  0  0  0
  145.9085  137.7677  152.0626 C   0  0  0  0  0  0  0  0  0  0  0  0
  146.9275  138.8828  152.3747 C   0  0  0  0  0  0  0  0  0  0  0  0
  150.5847  141.4159  157.4240 C   0  0  0  0  0  0  0  0  0  0  0  0
  150.9453  142.7616  157.4533 C   0  0  0  0  0  0  0  0  0  0  0  0
  151.9575  143.1426  158.3632 C   0  0  0  0  0  0  0  0  0  0  0  0
  152.3728  144.6031  158.4156 C   0  0  0  0  0  0  0  0  0  0  0  0
  154.0592  141.7550  160.7353 H   0  0  0  0  0  0  0  0  0  0  0  0
  153.2701  143.3207  160.9106 H   0  0  0  0  0  0  0  0  0  0  0  0
  154.4944  143.0766  159.6557 H   0  0  0  0  0  0  0  0  0  0  0  0
  152.6673  140.0933  159.8094 H   0  0  0  0  0  0  0  0  0  0  0  0
  149.0649  138.5945  156.6021 H   0  0  0  0  0  0  0  0  0  0  0  0
  147.8636  141.6132  156.1678 H   0  0  0  0  0  0  0  0  0  0  0  0
  149.2606  142.3424  155.4230 H   0  0  0  0  0  0  0  0  0  0  0  0
  148.4804  139.4872  154.7190 H   0  0  0  0  0  0  0  0  0  0  0  0
  149.3490  140.4343  152.6577 H   0  0  0  0  0  0  0  0  0  0  0  0
  146.7166  141.7033  154.2859 H   0  0  0  0  0  0  0  0  0  0  0  0
  147.5463  141.4807  152.7677 H   0  0  0  0  0  0  0  0  0  0  0  0
  146.7736  138.7071  155.1231 H   0  0  0  0  0  0  0  0  0  0  0  0
  145.4201  139.8078  155.2651 H   0  0  0  0  0  0  0  0  0  0  0  0
  144.5963  137.4647  155.1120 H   0  0  0  0  0  0  0  0  0  0  0  0
  144.0224  138.4393  153.7911 H   0  0  0  0  0  0  0  0  0  0  0  0
  147.4755  136.5977  153.7249 H   0  0  0  0  0  0  0  0  0  0  0  0
  146.3193  136.0947  154.9165 H   0  0  0  0  0  0  0  0  0  0  0  0
  145.5750  134.2036  153.4852 H   0  0  0  0  0  0  0  0  0  0  0  0
  147.5928  133.7659  154.9354 H   0  0  0  0  0  0  0  0  0  0  0  0
  148.6431  134.3564  153.6510 H   0  0  0  0  0  0  0  0  0  0  0  0
  147.7014  132.8851  153.4179 H   0  0  0  0  0  0  0  0  0  0  0  0
  147.5572  135.0399  151.6946 H   0  0  0  0  0  0  0  0  0  0  0  0
  146.3177  137.0861  151.3184 H   0  0  0  0  0  0  0  0  0  0  0  0
  145.0358  138.2184  151.5878 H   0  0  0  0  0  0  0  0  0  0  0  0
  147.1660  139.4055  151.4495 H   0  0  0  0  0  0  0  0  0  0  0  0
  147.8634  138.4624  152.7445 H   0  0  0  0  0  0  0  0  0  0  0  0
  150.4790  143.4910  156.8080 H   0  0  0  0  0  0  0  0  0  0  0  0
  151.7831  145.2113  157.7290 H   0  0  0  0  0  0  0  0  0  0  0  0
  153.4220  144.7120  158.1402 H   0  0  0  0  0  0  0  0  0  0  0  0
  152.2340  145.0059  159.4193 H   0  0  0  0  0  0  0  0  0  0  0  0
  145.5315  140.2328  152.9597 H   0  0  0  0  0  0  0  0  0  0  0  0
  150.8491  138.3504  158.4302 H   0  0  0  0  0  0  0  0  0  0  0  0
  1  2  1  0  0  0  0
  1 26  1  0  0  0  0
  1 27  1  0  0  0  0
  1 28  1  0  0  0  0
  2 24  1  0  0  0  0
  2  3  2  0  0  0  0
  3  4  1  0  0  0  0
  3 29  1  0  0  0  0
  4 22  2  0  0  0  0
  4  5  1  0  0  0  0
  5  6  2  0  0  0  0
  5 57  1  0  0  0  0
  6  7  1  0  0  0  0
  6 30  1  0  0  0  0
  7  8  1  0  0  0  0
  7 22  1  0  0  0  0
  8  9  1  0  0  0  0
  8 31  1  0  0  0  0
  8 32  1  0  0  0  0
  9 10  1  0  0  0  0
  9 11  1  0  0  0  0
  9 33  1  0  0  0  0
 10 34  1  0  0  0  0
 11 12  1  0  0  0  0
 11 35  1  0  0  0  0
 11 36  1  0  0  0  0
 12 21  1  0  0  0  0
 12 13  1  0  0  0  0
 12 56  1  0  0  0  0
 13 14  1  0  0  0  0
 13 37  1  0  0  0  0
 13 38  1  0  0  0  0
 14 15  1  0  0  0  0
 14 39  1  0  0  0  0
 14 40  1  0  0  0  0
 15 16  1  0  0  0  0
 15 20  1  0  0  0  0
 16 17  1  0  0  0  0
 16 41  1  0  0  0  0
 16 42  1  0  0  0  0
 17 18  1  0  0  0  0
 17 19  1  0  0  0  0
 17 43  1  0  0  0  0
 18 44  1  0  0  0  0
 18 45  1  0  0  0  0
 18 46  1  0  0  0  0
 19 47  1  0  0  0  0
 20 21  1  0  0  0  0
 20 48  1  0  0  0  0
 20 49  1  0  0  0  0
 21 50  1  0  0  0  0
 21 51  1  0  0  0  0
 22 23  1  0  0  0  0
 23 24  2  0  0  0  0
 23 52  1  0  0  0  0
 24 25  1  0  0  0  0
 25 53  1  0  0  0  0
 25 54  1  0  0  0  0
 25 55  1  0  0  0  0
M  CHG  1   5   1
M  CHG  1  12   1
M  END
> <s_m_source_file>
AV-unprocessed.smi

> <i_m_source_file_index>
1033

> <i_lp_mmshare_version>
43012

> <i_f3d_flags>
0

> <s_epik_input>
W0NIM11jKFtjSF0xKWMoW0NIM10pW2NIXWMoYzEyKW4oW2NIXW4yKVtDSDJdW0NASF0oW09IXSlbQ0gyXU4zW0NIMl1bQ0gyXU4oW0NIMl1bQ0gyXTMpW0NIMl1bQ0BIXShbQ0gzXSlbT0hd

> <s_epik_cmdline>
J2VwaWtfcHl0aG9uJywgJy1waCcsICc3LjAnLCAnLXRuJywgJzgnLCAnLW1hJywgJzIwMCcsICctbWV0YWxfYmluZGluZycsICctaW1hZScsICc8aW5maWxlLm1hZT4nLCAnLW9tYWUnLCAnPG91dGZpbGUubWFlPic=

> <r_epik_Ionization_Penalty>
1.22049

> <r_epik_Ionization_Penalty_Charging>
1.17952

> <r_epik_Ionization_Penalty_Neutral>
0.0409743

> <r_epik_State_Penalty>
1.61468

> <r_epik_Charging_Adjusted_Penalty>
2.7942

> <i_epik_Tot_Q>
2

> <i_epik_Tot_abs_Q>
2

> <r_epik_Metal_State_Penalty>
5.63169

> <b_epik_Metal_Only>
0

> <s_lp_Force_Field>
OPLS_2005

> <r_lp_Energy>
42.2447

> <b_lp_Chiralities_Consistent>
1

> <s_lp_Variant>
AV-unprocessed.smi:1033-9

> <Gold.Version>
5.8.1

> <Gold.Id.Protein>
6NUR|6NUR_protein|mol2

> <Gold.PLP.Fitness>
54.2226

> <Gold.PLP.PLP>
-44.3043

> <Gold.PLP.part.hbond>
-4.5456

> <Gold.PLP.part.metal>
0.0000

> <Gold.PLP.part.buried>
-2.5325

> <Gold.PLP.part.nonpolar>
-37.5863

> <Gold.PLP.part.repulsive>
0.2462

> <Gold.PLP.ligand.clash>
0.0000

> <Gold.PLP.ligand.torsion>
1.7084

> <Gold.PLP.Chemscore.Hbond>
4.4000

> <Gold.PLP.Chemscore.CHOScore>
0.0000

> <Gold.PLP.Chemscore.Metal>
0.0000

> <Gold.Chemscore.Hbonds>
donor molecule, donor type, donor heavy atom, donor atom, acceptor molecule, acceptor atom, score
      L1  H    10    34       P1  7957  1.00
      L1  H    12    56       P1 10175  2.00
      L1  H    19    47       P1  7948  1.00
      P1  H  7989  7998       L1    10  0.42

> <Gold.PLP.Chemscore.Internal.Correction>
0.1351

> <Gold.Rescore>
     Score         DG    S(hbond)    S(metal)    S(lipo)     H(rot)  DE(clash)    DE(int)     intcor
     20.35     -22.02       3.05        0.00     123.19       3.15       0.03       1.64       ----

> <Gold.Chemscore.Fitness>
20.3481

> <Gold.Chemscore.DG>
-22.0179

> <Gold.Chemscore.ZeroCoef>
-5.4800

> <Gold.Chemscore.Hbond>
3.0492

> <Gold.Chemscore.Metal>
0.0000

> <Gold.Chemscore.Lipo>
123.1891

> <Gold.Chemscore.Internal_Hbond>
0.0000

> <Gold.Chemscore.DEClash>
0.0323

> <Gold.Chemscore.DEInternal>
1.6375

> <Gold.Chemscore.Rot>
3.1483

> <Gold.Chemscore.Internal.Correction>
   9.000000E+99

> <Gold.Chemscore.Hbonds>
donor molecule, donor type, donor heavy atom, donor atom, acceptor molecule, acceptor atom, score
      L1  H    10    34       P1  7957  0.93
      L1  H    12    56       P1 10175  0.96
      L1  H    19    47       P1  7948  0.72
      P1  H  7989  7998       L1    10  0.25

> <Gold.Chemscore.Hbond.Weighted>
-10.1844

> <Gold.Chemscore.Metal.Weighted>
-0.0000

> <Gold.Chemscore.Lipo.Weighted>
-14.4131

> <Gold.Chemscore.Internal_Hbond.Weighted>
0.0000

> <Gold.Chemscore.DEClash.Weighted>
0.0323

> <Gold.Chemscore.DEInternal.Weighted>
1.6375

> <Gold.Chemscore.Rot.Weighted>
8.0597

> <Gold.Chemscore.Internal.Correction.Weighted>
   9.000000E+99

> <Gold.Protein.RotatedTorsions>
[ 6907 6896 6895 6894 ] final -167.05 input  -60.11 | X-H torsion
[ 7974 7965 7964 7962 ] final  -51.19 input  175.53 | X-H torsion
[ 8008 7997 7996 7995 ] final   91.68 input   59.86 | X-H torsion
[ 10167 10162 10161 10158 ] final  -13.09 input  -65.29 | X-H torsion
[ 10718 10713 10712 10709 ] final  -46.71 input   66.30 | X-H torsion
[ 10763 10752 10751 10750 ] final  -95.98 input  -60.55 | X-H torsion
[ 11005 11000 10999 10996 ] final   14.68 input  -57.11 | X-H torsion

> <Gold.Protein.ActiveResidues>
 VAL166  LYS551  ARG553  GLY616  TRP617  ASP618  TYR619  PRO620  LYS621  CYS622 
 ASP623  PHE694  ASN695  SER759  ASP760  ASP761  ALA762  ILE779  LEU786  VAL792 
 PHE793  MET794  SER795  GLU796  ALA797  LYS798  CYS799  TRP800  GLU811  SER814 

> <Gold.Protein.RotatedAtoms>
  151.4533  133.3611  159.2798 H   0  0  0  0  0  0  0  0  0  0  0  0  # atno 6907 bound_to 6896
  150.9075  134.8493  159.7413 H   0  0  0  0  0  0  0  0  0  0  0  0  # atno 6908 bound_to 6896
  152.4914  134.4460  159.9611 H   0  0  0  0  0  0  0  0  0  0  0  0  # atno 6909 bound_to 6896
  145.9217  140.7828  142.9644 H   0  0  0  0  0  0  0  0  0  0  0  0  # atno 7974 bound_to 7965
  156.0266  140.3334  155.7095 H   0  0  0  0  0  0  0  0  0  0  0  0  # atno 8008 bound_to 7997
  155.5946  140.0649  157.2767 H   0  0  0  0  0  0  0  0  0  0  0  0  # atno 8009 bound_to 7997
  154.4336  140.1821  156.1098 H   0  0  0  0  0  0  0  0  0  0  0  0  # atno 8010 bound_to 7997
  140.7175  143.5463  150.9352 H   0  0  0  0  0  0  0  0  0  0  0  0  # atno 10167 bound_to 10162
  156.2156  130.4163  149.9058 H   0  0  0  0  0  0  0  0  0  0  0  0  # atno 10718 bound_to 10713
  154.7198  135.5100  153.8794 H   0  0  0  0  0  0  0  0  0  0  0  0  # atno 10763 bound_to 10752
  153.0852  135.6643  153.9972 H   0  0  0  0  0  0  0  0  0  0  0  0  # atno 10764 bound_to 10752
  153.9797  135.3030  155.3400 H   0  0  0  0  0  0  0  0  0  0  0  0  # atno 10765 bound_to 10752
  140.4668  134.1072  155.7725 H   0  0  0  0  0  0  0  0  0  0  0  0  # atno 11005 bound_to 11000
  144.6753  140.1985  143.7389 LP  0  0  0  0  0  0  0  0  0  0  0  0  # atno 17320 bound_to 7965
  145.8542  139.2190  143.1754 LP  0  0  0  0  0  0  0  0  0  0  0  0  # atno 17321 bound_to 7965
  139.9187  143.6633  152.3101 LP  0  0  0  0  0  0  0  0  0  0  0  0  # atno 17342 bound_to 10162
  139.7042  144.7630  151.1222 LP  0  0  0  0  0  0  0  0  0  0  0  0  # atno 17343 bound_to 10162
  156.6721  130.8824  151.3564 LP  0  0  0  0  0  0  0  0  0  0  0  0  # atno 17370 bound_to 10713
  157.7061  130.9387  150.0937 LP  0  0  0  0  0  0  0  0  0  0  0  0  # atno 17371 bound_to 10713
  141.1596  133.8818  157.1885 LP  0  0  0  0  0  0  0  0  0  0  0  0  # atno 17394 bound_to 11000
  139.9910  135.0064  156.9975 LP  0  0  0  0  0  0  0  0  0  0  0  0  # atno 17395 bound_to 11000

$$$$
