AV-unprocessed.smi:1640|AV-procd|sdf|6555|dock8
  -GOLD-   22720 7243D 1   1.00000     0.00000
 Structure written by MMmdl.
 46 47  0  0  0  0  0  0  0  0  2 V2000
  157.9699  135.3704  156.4923 C   0  0  0  0  0  0  0  0  0  0  0  0
  156.6047  136.0501  156.2927 C   0  0  0  0  0  0  0  0  0  0  0  0
  156.7612  137.3297  155.4571 C   0  0  0  0  0  0  0  0  0  0  0  0
  155.8993  136.3546  157.6297 C   0  0  0  0  0  0  0  0  0  0  0  0
  154.4788  136.9239  157.4695 C   0  0  0  0  0  0  0  0  0  0  0  0
  153.8263  137.6043  159.0556 S   0  0  0  0  0  0  0  0  0  0  0  0
  152.6158  136.8324  159.3808 O   0  0  0  0  0  0  0  0  0  0  0  0
  154.9478  137.5318  160.0063 O   0  0  0  0  0  0  0  0  0  0  0  0
  153.4919  139.1264  158.6114 N   0  5  0  0  0  0  0  0  0  0  0  0
  152.1570  139.6534  158.8299 C   0  0  0  0  0  0  0  0  0  0  0  0
  152.1246  141.1837  158.6965 C   0  0  0  0  0  0  0  0  0  0  0  0
  153.0610  141.9398  159.4426 C   0  0  0  0  0  0  0  0  0  0  0  0
  153.0723  143.3417  159.3325 C   0  0  0  0  0  0  0  0  0  0  0  0
  152.1414  143.9494  158.4748 C   0  0  0  0  0  0  0  0  0  0  0  0
  151.2382  143.2542  157.7567 N   0  0  0  0  0  0  0  0  0  0  0  0
  151.2135  141.9006  157.8522 C   0  0  0  0  0  0  0  0  0  0  0  0
  150.2154  141.2603  157.0858 N   0  0  0  0  0  0  0  0  0  0  0  0
  148.8617  141.5272  157.5545 C   0  0  0  0  0  0  0  0  0  0  0  0
  147.8683  140.6069  156.8256 C   0  0  0  0  0  0  0  0  0  0  0  0
  148.0020  140.7797  155.4167 O   0  0  0  0  0  0  0  0  0  0  0  0
  149.3107  140.4491  154.9583 C   0  0  0  0  0  0  0  0  0  0  0  0
  150.3425  141.3664  155.6372 C   0  0  0  0  0  0  0  0  0  0  0  0
  158.6315  135.9842  157.1041 H   0  0  0  0  0  0  0  0  0  0  0  0
  158.4655  135.2000  155.5362 H   0  0  0  0  0  0  0  0  0  0  0  0
  157.8705  134.4000  156.9778 H   0  0  0  0  0  0  0  0  0  0  0  0
  155.9706  135.3691  155.7236 H   0  0  0  0  0  0  0  0  0  0  0  0
  157.3953  138.0581  155.9636 H   0  0  0  0  0  0  0  0  0  0  0  0
  155.7953  137.8006  155.2724 H   0  0  0  0  0  0  0  0  0  0  0  0
  157.2100  137.1143  154.4870 H   0  0  0  0  0  0  0  0  0  0  0  0
  155.8676  135.4530  158.2426 H   0  0  0  0  0  0  0  0  0  0  0  0
  156.5001  137.0752  158.1851 H   0  0  0  0  0  0  0  0  0  0  0  0
  154.4879  137.7393  156.7466 H   0  0  0  0  0  0  0  0  0  0  0  0
  153.7721  136.1763  157.1110 H   0  0  0  0  0  0  0  0  0  0  0  0
  151.4377  139.2212  158.1336 H   0  0  0  0  0  0  0  0  0  0  0  0
  151.7771  139.4062  159.8218 H   0  0  0  0  0  0  0  0  0  0  0  0
  153.7781  141.4687  160.1017 H   0  0  0  0  0  0  0  0  0  0  0  0
  153.7792  143.9353  159.8928 H   0  0  0  0  0  0  0  0  0  0  0  0
  152.1194  145.0232  158.3625 H   0  0  0  0  0  0  0  0  0  0  0  0
  148.7945  141.3711  158.6313 H   0  0  0  0  0  0  0  0  0  0  0  0
  148.6124  142.5721  157.3659 H   0  0  0  0  0  0  0  0  0  0  0  0
  148.0393  139.5629  157.0924 H   0  0  0  0  0  0  0  0  0  0  0  0
  146.8468  140.8479  157.1199 H   0  0  0  0  0  0  0  0  0  0  0  0
  149.5260  139.4000  155.1677 H   0  0  0  0  0  0  0  0  0  0  0  0
  149.3512  140.5737  153.8762 H   0  0  0  0  0  0  0  0  0  0  0  0
  150.1795  142.3985  155.3238 H   0  0  0  0  0  0  0  0  0  0  0  0
  151.3524  141.0883  155.3334 H   0  0  0  0  0  0  0  0  0  0  0  0
  1  2  1  0  0  0  0
  1 23  1  0  0  0  0
  1 24  1  0  0  0  0
  1 25  1  0  0  0  0
  2  3  1  0  0  0  0
  2  4  1  0  0  0  0
  2 26  1  0  0  0  0
  3 27  1  0  0  0  0
  3 28  1  0  0  0  0
  3 29  1  0  0  0  0
  4  5  1  0  0  0  0
  4 30  1  0  0  0  0
  4 31  1  0  0  0  0
  5  6  1  0  0  0  0
  5 32  1  0  0  0  0
  5 33  1  0  0  0  0
  6  7  2  0  0  0  0
  6  8  2  0  0  0  0
  6  9  1  0  0  0  0
  9 10  1  0  0  0  0
 10 11  1  0  0  0  0
 10 34  1  0  0  0  0
 10 35  1  0  0  0  0
 11 16  1  0  0  0  0
 11 12  2  0  0  0  0
 12 13  1  0  0  0  0
 12 36  1  0  0  0  0
 13 14  2  0  0  0  0
 13 37  1  0  0  0  0
 14 15  1  0  0  0  0
 14 38  1  0  0  0  0
 15 16  2  0  0  0  0
 16 17  1  0  0  0  0
 17 22  1  0  0  0  0
 17 18  1  0  0  0  0
 18 19  1  0  0  0  0
 18 39  1  0  0  0  0
 18 40  1  0  0  0  0
 19 20  1  0  0  0  0
 19 41  1  0  0  0  0
 19 42  1  0  0  0  0
 20 21  1  0  0  0  0
 21 22  1  0  0  0  0
 21 43  1  0  0  0  0
 21 44  1  0  0  0  0
 22 45  1  0  0  0  0
 22 46  1  0  0  0  0
M  CHG  1   9  -1
M  END
> <s_m_source_file>
AV-unprocessed.smi

> <i_m_source_file_index>
1640

> <i_lp_mmshare_version>
43012

> <i_f3d_flags>
0

> <s_epik_input>
W0NIM11bQ0hdKFtDSDNdKVtDSDJdW0NIMl1TKD1PKSg9TylbTkhdW0NIMl1jMVtjSF1bY0hdW2NIXW5jMU4yW0NIMl1bQ0gyXU9bQ0gyXVtDSDJdMg==

> <s_epik_cmdline>
J2VwaWtfcHl0aG9uJywgJy1waCcsICc3LjAnLCAnLXRuJywgJzgnLCAnLW1hJywgJzIwMCcsICctbWV0YWxfYmluZGluZycsICctaW1hZScsICc8aW5maWxlLm1hZT4nLCAnLW9tYWUnLCAnPG91dGZpbGUubWFlPic=

> <r_lp_tautomer_probability>
1

> <r_epik_Ionization_Penalty>
6.15599

> <r_epik_Ionization_Penalty_Charging>
6.0779

> <r_epik_Ionization_Penalty_Neutral>
0.078089

> <r_epik_State_Penalty>
6.0833

> <r_epik_Charging_Adjusted_Penalty>
12.1612

> <i_epik_Tot_Q>
-1

> <i_epik_Tot_abs_Q>
1

> <r_epik_Metal_State_Penalty>
2.0323

> <b_epik_Metal_Only>
1

> <s_lp_Force_Field>
OPLS_2005

> <r_lp_Energy>
20.5141

> <b_lp_Chiralities_Consistent>
1

> <s_lp_Variant>
AV-unprocessed.smi:1640-2

> <Gold.Version>
5.8.1

> <Gold.Id.Protein>
6NUR|6NUR_protein|mol2

> <Gold.PLP.Fitness>
41.0605

> <Gold.PLP.PLP>
-32.6342

> <Gold.PLP.part.hbond>
-2.0000

> <Gold.PLP.part.metal>
0.0000

> <Gold.PLP.part.buried>
-5.6335

> <Gold.PLP.part.nonpolar>
-25.9328

> <Gold.PLP.part.repulsive>
0.2393

> <Gold.PLP.ligand.clash>
0.0000

> <Gold.PLP.ligand.torsion>
0.8487

> <Gold.PLP.Chemscore.Hbond>
2.9588

> <Gold.PLP.Chemscore.CHOScore>
0.0000

> <Gold.PLP.Chemscore.Metal>
0.0000

> <Gold.Chemscore.Hbonds>
donor molecule, donor type, donor heavy atom, donor atom, acceptor molecule, acceptor atom, score
      P1  H  6896  6909       L1     7  1.00
      P1  H  7997  8008       L1     9  1.56

> <Gold.PLP.Chemscore.Internal.Correction>
1.2476

> <Gold.Rescore>
     Score         DG    S(hbond)    S(metal)    S(lipo)     H(rot)  DE(clash)    DE(int)     intcor
     16.90     -17.92       1.84        0.00      91.84       1.73       0.03       0.99       ----

> <Gold.Chemscore.Fitness>
16.8994

> <Gold.Chemscore.DG>
-17.9207

> <Gold.Chemscore.ZeroCoef>
-5.4800

> <Gold.Chemscore.Hbond>
1.8372

> <Gold.Chemscore.Metal>
0.0000

> <Gold.Chemscore.Lipo>
91.8392

> <Gold.Chemscore.Internal_Hbond>
0.0000

> <Gold.Chemscore.DEClash>
0.0270

> <Gold.Chemscore.DEInternal>
0.9943

> <Gold.Chemscore.Rot>
1.7347

> <Gold.Chemscore.Internal.Correction>
   9.000000E+99

> <Gold.Chemscore.Hbonds>
donor molecule, donor type, donor heavy atom, donor atom, acceptor molecule, acceptor atom, score
      P1  H  6896  6909       L1     7  0.95
      P1  H  7997  8008       L1     9  0.70

> <Gold.Chemscore.Hbond.Weighted>
-6.1364

> <Gold.Chemscore.Metal.Weighted>
-0.0000

> <Gold.Chemscore.Lipo.Weighted>
-10.7452

> <Gold.Chemscore.Internal_Hbond.Weighted>
0.0000

> <Gold.Chemscore.DEClash.Weighted>
0.0270

> <Gold.Chemscore.DEInternal.Weighted>
0.9943

> <Gold.Chemscore.Rot.Weighted>
4.4409

> <Gold.Chemscore.Internal.Correction.Weighted>
   9.000000E+99

> <Gold.Protein.RotatedTorsions>
[ 6907 6896 6895 6894 ] final  146.69 input  -60.11 | X-H torsion
[ 7974 7965 7964 7962 ] final  -76.59 input  175.53 | X-H torsion
[ 8008 7997 7996 7995 ] final -102.50 input   59.86 | X-H torsion
[ 10167 10162 10161 10158 ] final -103.23 input  -65.29 | X-H torsion
[ 10718 10713 10712 10709 ] final -140.98 input   66.30 | X-H torsion
[ 10763 10752 10751 10750 ] final  -17.16 input  -60.55 | X-H torsion
[ 11005 11000 10999 10996 ] final  -34.06 input  -57.11 | X-H torsion

> <Gold.Protein.ActiveResidues>
 VAL166  LYS551  ARG553  GLY616  TRP617  ASP618  TYR619  PRO620  LYS621  CYS622 
 ASP623  PHE694  ASN695  SER759  ASP760  ASP761  ALA762  ILE779  LEU786  VAL792 
 PHE793  MET794  SER795  GLU796  ALA797  LYS798  CYS799  TRP800  GLU811  SER814 

> <Gold.Protein.RotatedAtoms>
  152.1646  133.4604  159.4877 H   0  0  0  0  0  0  0  0  0  0  0  0  # atno 6907 bound_to 6896
  150.6911  134.2029  159.4338 H   0  0  0  0  0  0  0  0  0  0  0  0  # atno 6908 bound_to 6896
  151.9933  134.9967  160.0613 H   0  0  0  0  0  0  0  0  0  0  0  0  # atno 6909 bound_to 6896
  145.6108  140.9387  143.1190 H   0  0  0  0  0  0  0  0  0  0  0  0  # atno 7974 bound_to 7965
  154.8575  140.0428  157.1644 H   0  0  0  0  0  0  0  0  0  0  0  0  # atno 8008 bound_to 7997
  154.8876  140.2981  155.5369 H   0  0  0  0  0  0  0  0  0  0  0  0  # atno 8009 bound_to 7997
  156.2998  140.2399  156.3887 H   0  0  0  0  0  0  0  0  0  0  0  0  # atno 8010 bound_to 7997
  140.2222  143.3667  152.0959 H   0  0  0  0  0  0  0  0  0  0  0  0  # atno 10167 bound_to 10162
  156.3286  130.7574  151.1687 H   0  0  0  0  0  0  0  0  0  0  0  0  # atno 10718 bound_to 10713
  153.5696  135.7008  153.5511 H   0  0  0  0  0  0  0  0  0  0  0  0  # atno 10763 bound_to 10752
  153.3356  135.4035  155.1531 H   0  0  0  0  0  0  0  0  0  0  0  0  # atno 10764 bound_to 10752
  154.8635  135.3729  154.5218 H   0  0  0  0  0  0  0  0  0  0  0  0  # atno 10765 bound_to 10752
  140.9686  133.7123  156.1486 H   0  0  0  0  0  0  0  0  0  0  0  0  # atno 11005 bound_to 11000
  144.7270  139.7843  143.7361 LP  0  0  0  0  0  0  0  0  0  0  0  0  # atno 17320 bound_to 7965
  146.1505  139.4587  143.0051 LP  0  0  0  0  0  0  0  0  0  0  0  0  # atno 17321 bound_to 7965
  139.5140  144.6941  151.5679 LP  0  0  0  0  0  0  0  0  0  0  0  0  # atno 17342 bound_to 10162
  140.6246  143.9192  150.6554 LP  0  0  0  0  0  0  0  0  0  0  0  0  # atno 17343 bound_to 10162
  157.7426  131.0487  150.5011 LP  0  0  0  0  0  0  0  0  0  0  0  0  # atno 17370 bound_to 10713
  156.5174  130.4154  149.6269 LP  0  0  0  0  0  0  0  0  0  0  0  0  # atno 17371 bound_to 10713
  140.7363  134.4200  157.5560 LP  0  0  0  0  0  0  0  0  0  0  0  0  # atno 17394 bound_to 11000
  139.8904  134.8807  156.2374 LP  0  0  0  0  0  0  0  0  0  0  0  0  # atno 17395 bound_to 11000

$$$$
