AV-unprocessed.smi:1335|AV-procd|sdf|5494|dock5
  -GOLD-   22720 5 73D 1   1.00000     0.00000
 Structure written by MMmdl.
 47 49  0  0  0  0  0  0  0  0  1 V2000
  152.4892  139.3532  154.4730 C   0  0  0  0  0  0  0  0  0  0  0  0
  151.1741  139.8877  154.4245 O   0  0  0  0  0  0  0  0  0  0  0  0
  150.6596  140.4729  155.5641 C   0  0  0  0  0  0  0  0  0  0  0  0
  151.4047  140.6346  156.7607 C   0  0  0  0  0  0  0  0  0  0  0  0
  150.8292  141.2503  157.8881 C   0  0  0  0  0  0  0  0  0  0  0  0
  149.5053  141.7183  157.8358 C   0  0  0  0  0  0  0  0  0  0  0  0
  148.7559  141.5641  156.6564 C   0  0  0  0  0  0  0  0  0  0  0  0
  149.3197  140.9335  155.5255 C   0  0  0  0  0  0  0  0  0  0  0  0
  148.4856  140.7915  154.2605 C   0  0  0  0  0  0  0  0  0  0  0  0
  147.9846  139.4745  154.0988 O   0  0  0  0  0  0  0  0  0  0  0  0
  147.0873  139.3466  153.0082 C   0  0  0  0  0  0  0  0  0  0  0  0
  146.3892  137.9820  153.1071 C   0  0  2  0  0  0  0  0  0  0  0  0
  147.3711  137.0276  153.4556 O   0  0  0  0  0  0  0  0  0  0  0  0
  145.7354  137.5595  151.7748 C   0  0  0  0  0  0  0  0  0  0  0  0
  144.8955  136.3769  151.9453 N   0  0  0  0  0  0  0  0  0  0  0  0
  143.7511  136.2952  152.6637 C   0  0  0  0  0  0  0  0  0  0  0  0
  143.2379  137.2079  153.3109 O   0  0  0  0  0  0  0  0  0  0  0  0
  143.2669  135.0372  152.5368 N   0  0  0  0  0  0  0  0  0  0  0  0
  142.0479  134.5016  153.1303 C   0  0  0  0  0  0  0  0  0  0  0  0
  144.1155  134.2995  151.7012 C   0  0  0  0  0  0  0  0  0  0  0  0
  144.0441  132.9689  151.2548 C   0  0  0  0  0  0  0  0  0  0  0  0
  145.0745  132.5200  150.3954 C   0  0  0  0  0  0  0  0  0  0  0  0
  146.1279  133.3886  150.0072 C   0  0  0  0  0  0  0  0  0  0  0  0
  146.1740  134.7241  150.4713 C   0  0  0  0  0  0  0  0  0  0  0  0
  145.1399  135.1425  151.3267 C   0  0  0  0  0  0  0  0  0  0  0  0
  152.7380  138.9236  153.5025 H   0  0  0  0  0  0  0  0  0  0  0  0
  152.5701  138.5577  155.2150 H   0  0  0  0  0  0  0  0  0  0  0  0
  153.2270  140.1271  154.6889 H   0  0  0  0  0  0  0  0  0  0  0  0
  152.4263  140.2962  156.8411 H   0  0  0  0  0  0  0  0  0  0  0  0
  151.4075  141.3681  158.7927 H   0  0  0  0  0  0  0  0  0  0  0  0
  149.0653  142.1973  158.6982 H   0  0  0  0  0  0  0  0  0  0  0  0
  147.7423  141.9354  156.6252 H   0  0  0  0  0  0  0  0  0  0  0  0
  147.6593  141.5021  154.3141 H   0  0  0  0  0  0  0  0  0  0  0  0
  149.0816  141.0480  153.3838 H   0  0  0  0  0  0  0  0  0  0  0  0
  146.3561  140.1568  153.0157 H   0  0  0  0  0  0  0  0  0  0  0  0
  147.6458  139.4146  152.0729 H   0  0  0  0  0  0  0  0  0  0  0  0
  145.6497  138.0257  153.9080 H   0  0  0  0  0  0  0  0  0  0  0  0
  148.0867  137.0945  152.8420 H   0  0  0  0  0  0  0  0  0  0  0  0
  145.0933  138.3580  151.4017 H   0  0  0  0  0  0  0  0  0  0  0  0
  146.4839  137.4049  150.9955 H   0  0  0  0  0  0  0  0  0  0  0  0
  142.2576  133.5649  153.6473 H   0  0  0  0  0  0  0  0  0  0  0  0
  141.3081  134.3057  152.3539 H   0  0  0  0  0  0  0  0  0  0  0  0
  141.6073  135.1905  153.8519 H   0  0  0  0  0  0  0  0  0  0  0  0
  143.2373  132.3153  151.5520 H   0  0  0  0  0  0  0  0  0  0  0  0
  145.0581  131.5043  150.0288 H   0  0  0  0  0  0  0  0  0  0  0  0
  146.9037  133.0265  149.3490 H   0  0  0  0  0  0  0  0  0  0  0  0
  146.9701  135.3912  150.1767 H   0  0  0  0  0  0  0  0  0  0  0  0
  1  2  1  0  0  0  0
  1 26  1  0  0  0  0
  1 27  1  0  0  0  0
  1 28  1  0  0  0  0
  2  3  1  0  0  0  0
  3  8  1  0  0  0  0
  3  4  2  0  0  0  0
  4  5  1  0  0  0  0
  4 29  1  0  0  0  0
  5  6  2  0  0  0  0
  5 30  1  0  0  0  0
  6  7  1  0  0  0  0
  6 31  1  0  0  0  0
  7  8  2  0  0  0  0
  7 32  1  0  0  0  0
  8  9  1  0  0  0  0
  9 10  1  0  0  0  0
  9 33  1  0  0  0  0
  9 34  1  0  0  0  0
 10 11  1  0  0  0  0
 11 12  1  0  0  0  0
 11 35  1  0  0  0  0
 11 36  1  0  0  0  0
 12 13  1  0  0  0  0
 12 14  1  0  0  0  0
 12 37  1  0  0  0  0
 13 38  1  0  0  0  0
 14 15  1  0  0  0  0
 14 39  1  0  0  0  0
 14 40  1  0  0  0  0
 15 25  1  0  0  0  0
 15 16  1  0  0  0  0
 16 17  2  0  0  0  0
 16 18  1  0  0  0  0
 18 19  1  0  0  0  0
 18 20  1  0  0  0  0
 19 41  1  0  0  0  0
 19 42  1  0  0  0  0
 19 43  1  0  0  0  0
 20 25  2  0  0  0  0
 20 21  1  0  0  0  0
 21 22  2  0  0  0  0
 21 44  1  0  0  0  0
 22 23  1  0  0  0  0
 22 45  1  0  0  0  0
 23 24  2  0  0  0  0
 23 46  1  0  0  0  0
 24 25  1  0  0  0  0
 24 47  1  0  0  0  0
M  END
> <s_m_source_file>
AV-unprocessed.smi

> <i_m_source_file_index>
1335

> <i_lp_mmshare_version>
43012

> <i_f3d_flags>
0

> <s_epik_input>
W0NIM11PYzFbY0hdW2NIXVtjSF1bY0hdYzFbQ0gyXU9bQ0gyXVtDQEhdKFtPSF0pW0NIMl1uKGMoPU8pbjJbQ0gzXSljKGMyMylbY0hdW2NIXVtjSF1bY0hdMw==

> <s_epik_cmdline>
J2VwaWtfcHl0aG9uJywgJy1waCcsICc3LjAnLCAnLXRuJywgJzgnLCAnLW1hJywgJzIwMCcsICctbWV0YWxfYmluZGluZycsICctaW1hZScsICc8aW5maWxlLm1hZT4nLCAnLW9tYWUnLCAnPG91dGZpbGUubWFlPic=

> <r_lp_tautomer_probability>
1

> <r_epik_Ionization_Penalty>
1.07897e-06

> <r_epik_Ionization_Penalty_Charging>
2.2947e-09

> <r_epik_Ionization_Penalty_Neutral>
1.07667e-06

> <r_epik_State_Penalty>
-0

> <r_epik_Charging_Adjusted_Penalty>
2.2947e-09

> <i_epik_Tot_Q>
0

> <i_epik_Tot_abs_Q>
0

> <r_epik_Metal_State_Penalty>
-0

> <b_epik_Metal_Only>
0

> <s_lp_Force_Field>
OPLS_2005

> <r_lp_Energy>
50.1795

> <b_lp_Chiralities_Consistent>
1

> <s_lp_Variant>
AV-unprocessed.smi:1335-1

> <Gold.Version>
5.8.1

> <Gold.Id.Protein>
6NUR|6NUR_protein|mol2

> <Gold.PLP.Fitness>
52.6762

> <Gold.PLP.PLP>
-47.6229

> <Gold.PLP.part.hbond>
-2.0000

> <Gold.PLP.part.metal>
0.0000

> <Gold.PLP.part.buried>
-2.6606

> <Gold.PLP.part.nonpolar>
-41.8824

> <Gold.PLP.part.repulsive>
0.7575

> <Gold.PLP.ligand.clash>
0.0000

> <Gold.PLP.ligand.torsion>
0.5234

> <Gold.PLP.Chemscore.Hbond>
2.0000

> <Gold.PLP.Chemscore.CHOScore>
0.0000

> <Gold.PLP.Chemscore.Metal>
0.0000

> <Gold.Chemscore.Hbonds>
donor molecule, donor type, donor heavy atom, donor atom, acceptor molecule, acceptor atom, score
      L1  H    13    38       P1  7948  0.85
      P1  H  7989  7998       L1     2  0.33

> <Gold.PLP.Chemscore.Internal.Correction>
0.1002

> <Gold.Rescore>
     Score         DG    S(hbond)    S(metal)    S(lipo)     H(rot)  DE(clash)    DE(int)     intcor
     16.08     -17.29       1.70        0.00     107.26       2.50       0.26       0.95       ----

> <Gold.Chemscore.Fitness>
16.0810

> <Gold.Chemscore.DG>
-17.2948

> <Gold.Chemscore.ZeroCoef>
-5.4800

> <Gold.Chemscore.Hbond>
1.6992

> <Gold.Chemscore.Metal>
0.0000

> <Gold.Chemscore.Lipo>
107.2578

> <Gold.Chemscore.Internal_Hbond>
0.0000

> <Gold.Chemscore.DEClash>
0.2649

> <Gold.Chemscore.DEInternal>
0.9488

> <Gold.Chemscore.Rot>
2.5038

> <Gold.Chemscore.Internal.Correction>
   9.000000E+99

> <Gold.Chemscore.Hbonds>
donor molecule, donor type, donor heavy atom, donor atom, acceptor molecule, acceptor atom, score
      L1  H    13    38       P1  7948  0.82
      P1  H  7989  7998       L1     2  0.01

> <Gold.Chemscore.Hbond.Weighted>
-5.6754

> <Gold.Chemscore.Metal.Weighted>
-0.0000

> <Gold.Chemscore.Lipo.Weighted>
-12.5492

> <Gold.Chemscore.Internal_Hbond.Weighted>
0.0000

> <Gold.Chemscore.DEClash.Weighted>
0.2649

> <Gold.Chemscore.DEInternal.Weighted>
0.9488

> <Gold.Chemscore.Rot.Weighted>
6.4098

> <Gold.Chemscore.Internal.Correction.Weighted>
   9.000000E+99

> <Gold.Protein.RotatedTorsions>
[ 6907 6896 6895 6894 ] final  145.19 input  -60.11 | X-H torsion
[ 7974 7965 7964 7962 ] final   50.56 input  175.53 | X-H torsion
[ 8008 7997 7996 7995 ] final -107.59 input   59.86 | X-H torsion
[ 10167 10162 10161 10158 ] final   49.54 input  -65.29 | X-H torsion
[ 10718 10713 10712 10709 ] final -120.39 input   66.30 | X-H torsion
[ 10763 10752 10751 10750 ] final  -80.34 input  -60.55 | X-H torsion
[ 11005 11000 10999 10996 ] final -141.43 input  -57.11 | X-H torsion

> <Gold.Protein.ActiveResidues>
 VAL166  LYS551  ARG553  GLY616  TRP617  ASP618  TYR619  PRO620  LYS621  CYS622 
 ASP623  PHE694  ASN695  SER759  ASP760  ASP761  ALA762  ILE779  LEU786  VAL792 
 PHE793  MET794  SER795  GLU796  ALA797  LYS798  CYS799  TRP800  GLU811  SER814 

> <Gold.Protein.RotatedAtoms>
  152.1840  133.4727  159.4972 H   0  0  0  0  0  0  0  0  0  0  0  0  # atno 6907 bound_to 6896
  150.6939  134.1797  159.4253 H   0  0  0  0  0  0  0  0  0  0  0  0  # atno 6908 bound_to 6896
  151.9709  135.0077  160.0603 H   0  0  0  0  0  0  0  0  0  0  0  0  # atno 6909 bound_to 6896
  146.0000  139.4429  143.0021 H   0  0  0  0  0  0  0  0  0  0  0  0  # atno 7974 bound_to 7965
  154.9316  140.0405  157.2051 H   0  0  0  0  0  0  0  0  0  0  0  0  # atno 8008 bound_to 7997
  154.8155  140.2875  155.5801 H   0  0  0  0  0  0  0  0  0  0  0  0  # atno 8009 bound_to 7997
  156.2975  140.2529  156.3052 H   0  0  0  0  0  0  0  0  0  0  0  0  # atno 8010 bound_to 7997
  140.2818  144.3148  150.6262 H   0  0  0  0  0  0  0  0  0  0  0  0  # atno 10167 bound_to 10162
  156.1254  130.6355  150.9534 H   0  0  0  0  0  0  0  0  0  0  0  0  # atno 10718 bound_to 10713
  154.5500  135.5664  153.6914 H   0  0  0  0  0  0  0  0  0  0  0  0  # atno 10763 bound_to 10752
  152.9987  135.6248  154.2387 H   0  0  0  0  0  0  0  0  0  0  0  0  # atno 10764 bound_to 10752
  154.2321  135.2865  155.2866 H   0  0  0  0  0  0  0  0  0  0  0  0  # atno 10765 bound_to 10752
  140.8325  134.2499  157.4850 H   0  0  0  0  0  0  0  0  0  0  0  0  # atno 11005 bound_to 11000
  145.7502  140.9975  143.1254 LP  0  0  0  0  0  0  0  0  0  0  0  0  # atno 17320 bound_to 7965
  144.6916  139.9205  143.7467 LP  0  0  0  0  0  0  0  0  0  0  0  0  # atno 17321 bound_to 7965
  140.5805  143.2173  151.7436 LP  0  0  0  0  0  0  0  0  0  0  0  0  # atno 17342 bound_to 10162
  139.4960  144.4087  152.0104 LP  0  0  0  0  0  0  0  0  0  0  0  0  # atno 17343 bound_to 10162
  157.6436  131.0907  150.8200 LP  0  0  0  0  0  0  0  0  0  0  0  0  # atno 17370 bound_to 10713
  156.8291  130.5010  149.5333 LP  0  0  0  0  0  0  0  0  0  0  0  0  # atno 17371 bound_to 10713
  139.8704  134.9594  156.4330 LP  0  0  0  0  0  0  0  0  0  0  0  0  # atno 17394 bound_to 11000
  140.8982  133.7798  155.9650 LP  0  0  0  0  0  0  0  0  0  0  0  0  # atno 17395 bound_to 11000

$$$$
