#       Name:                AV-unprocessed.smi:1412
#       Creating user name   scv26
#       Creation time:       Fri Mar 27 05:37:44 2020


#       File generated by GOLD software.
#

@<TRIPOS>MOLECULE
AV-unprocessed.smi:1412
    48    49     1
SMALL
NO_CHARGES


@<TRIPOS>ATOM
      1 ****        -0.4196  -2.5623  -1.2543 C.3            1 S1                 0.0000
      2 ****        -0.9774  -1.1382  -1.0827 C.3            1 S1                 0.0000
      3 ****        -0.5976  -0.4261   0.2563 C.3            1 S1                 0.0000
      4 ****        -1.2593   0.9768   0.2192 C.3            1 S1                 0.0000
      5 ****         0.9561  -0.2299   0.2904 C.3            1 S1                 0.0000
      6 ****         1.5304   0.3395  -0.9302 N.am           1 S1                 0.0000
      7 ****         1.8978   1.6176  -1.1056 C.2            1 S1                 0.0000
      8 ****         1.7899   2.4826  -0.2360 O.2            1 S1                 0.0000
      9 ****         2.3842   1.8166  -2.3434 N.am           1 S1                 0.0000
     10 ****         2.8614   3.0246  -2.9181 C.2            1 S1                 0.0000
     11 ****         2.9022   4.1956  -2.2632 N.2            1 S1                 0.0000
     12 ****         3.4100   5.2170  -3.0558 N.2            1 S1                 0.0000
     13 ****         3.7316   4.7769  -4.2757 C.2            1 S1                 0.0000
     14 ****         3.4470   3.0709  -4.5751 S.3            1 S1                 0.0000
     15 ****        -1.0463  -1.2247   1.4375 N.3            1 S1                 0.0000
     16 ****        -2.4801  -1.5482   1.4694 C.3            1 S1                 0.0000
     17 ****        -2.8440  -2.4750   2.6415 C.3            1 S1                 0.0000
     18 ****        -2.4481  -1.8737   3.8671 O.3            1 S1                 0.0000
     19 ****        -1.0527  -1.6051   3.9075 C.3            1 S1                 0.0000
     20 ****        -0.6669  -0.6733   2.7457 C.3            1 S1                 0.0000
     21 ****        -0.7603  -2.9949  -2.1949 H              1 S1                 0.0000
     22 ****        -0.7491  -3.2240  -0.4532 H              1 S1                 0.0000
     23 ****         0.6699  -2.5713  -1.2704 H              1 S1                 0.0000
     24 ****        -0.6510  -0.5430  -1.9357 H              1 S1                 0.0000
     25 ****        -2.0595  -1.1695  -1.2040 H              1 S1                 0.0000
     26 ****        -0.9737   1.5321  -0.6740 H              1 S1                 0.0000
     27 ****        -0.9705   1.5884   1.0738 H              1 S1                 0.0000
     28 ****        -2.3471   0.9223   0.2032 H              1 S1                 0.0000
     29 ****         1.2518   0.3974   1.1314 H              1 S1                 0.0000
     30 ****         1.4478  -1.1884   0.4592 H              1 S1                 0.0000
     31 ****         1.6535  -0.2969  -1.7041 H              1 S1                 0.0000
     32 ****         2.4124   1.0096  -2.9488 H              1 S1                 0.0000
     33 ****         4.1399   5.4619  -5.0040 H              1 S1                 0.0000
     34 ****        -3.0729  -0.6373   1.5514 H              1 S1                 0.0000
     35 ****        -2.7911  -2.0487   0.5551 H              1 S1                 0.0000
     36 ****        -3.9195  -2.6518   2.6637 H              1 S1                 0.0000
     37 ****        -2.3618  -3.4475   2.5304 H              1 S1                 0.0000
     38 ****        -0.8078  -1.1407   4.8628 H              1 S1                 0.0000
     39 ****        -0.4931  -2.5403   3.8539 H              1 S1                 0.0000
     40 ****         0.4072  -0.5144   2.8093 H              1 S1                 0.0000
     41 ****        -1.1423   0.2956   2.8988 H              1 S1                 0.0000
     42 ****         1.4110   2.2473   0.6591 LP             1 S1                 0.0000
     43 ****         2.0811   3.4204  -0.4247 LP             1 S1                 0.0000
     44 ****         2.6026   4.3181  -1.3170 LP             1 S1                 0.0000
     45 ****         3.5209   6.1631  -2.7515 LP             1 S1                 0.0000
     46 ****        -0.5347  -2.0708   1.2882 LP             1 S1                 0.0000
     47 ****        -2.6790  -2.4919   4.6185 LP             1 S1                 0.0000
     48 ****        -2.9451  -1.0132   3.9789 LP             1 S1                 0.0000
@<TRIPOS>BOND
    1    1    2 1     
    2    1   21 1     
    3    1   22 1     
    4    1   23 1     
    5    2    3 1     
    6    2   24 1     
    7    2   25 1     
    8    3    4 1     
    9    3    5 1     
   10    3   15 1     
   11    4   26 1     
   12    4   27 1     
   13    4   28 1     
   14    5    6 1     
   15    5   29 1     
   16    5   30 1     
   17    6    7 am    
   18    6   31 1     
   19    7    8 2     
   20    7    9 am    
   21    9   10 1     
   22    9   32 1     
   23   10   14 1     
   24   10   11 2     
   25   11   12 1     
   26   12   13 2     
   27   13   14 1     
   28   13   33 1     
   29   15   20 1     
   30   15   16 1     
   31   16   17 1     
   32   16   34 1     
   33   16   35 1     
   34   17   18 1     
   35   17   36 1     
   36   17   37 1     
   37   18   19 1     
   38   19   20 1     
   39   19   38 1     
   40   19   39 1     
   41   20   40 1     
   42   20   41 1     
   43    8   42 1     
   44    8   43 1     
   45   11   44 1     
   46   12   45 1     
   47   15   46 1     
   48   18   47 1     
   49   18   48 1     
@<TRIPOS>SUBSTRUCTURE
      1 S1             1
@<TRIPOS>SET
LONE_PAIRS      STATIC     ATOMS    <user>   **** ""
7 42 43 44 45 46 47 48
DONOR_HYDROGENS      STATIC     ATOMS    <user>   **** ""
2 31 32
ATOM$BLUE        STATIC     ATOMS    COLORGROUP SYSTEM
7 42 43 44 45 46 47 48
ATOM$RED        STATIC     ATOMS    COLORGROUP SYSTEM
2 31 32
