#       Name:                AV-unprocessed.smi:2510
#       Creating user name   scv26
#       Creation time:       Fri Mar 27 13:51:18 2020


#       File generated by GOLD software.
#

@<TRIPOS>MOLECULE
AV-unprocessed.smi:2510
    53    54     1
SMALL
NO_CHARGES


@<TRIPOS>ATOM
      1 ****        -1.4679   0.1529   2.4379 C.3            1 S1                 0.0000
      2 ****        -1.0237   0.7419   1.0896 C.3            1 S1                 0.0000
      3 ****        -1.7030   0.1190  -0.1597 C.3            1 S1                 0.0000
      4 ****        -3.2258   0.3865  -0.0721 C.3            1 S1                 0.0000
      5 ****        -3.6325   1.8699  -0.0733 C.3            1 S1                 0.0000
      6 ****        -1.0941   0.4260  -1.5635 C.3            1 S1                 0.0000
      7 ****         0.3263   0.7677  -1.5309 N.am           1 S1                 0.0000
      8 ****         0.8276   2.0104  -1.4823 C.2            1 S1                 0.0000
      9 ****         0.1390   3.0253  -1.5798 O.2            1 S1                 0.0000
     10 ****         2.3365   2.1184  -1.2539 C.3            1 S1                 0.0000
     11 ****         2.7239   1.4274   0.0165 C.2            1 S1                 0.0000
     12 ****         3.0654   0.1273   0.2672 C.2            1 S1                 0.0000
     13 ****         3.2596   0.0793   1.6782 C.2            1 S1                 0.0000
     14 ****         3.6176  -1.1072   2.5229 C.3            1 S1                 0.0000
     15 ****         3.0771   1.2581   2.2542 N.2            1 S1                 0.0000
     16 ****         2.7527   2.0719   1.2324 N.pl3          1 S1                 0.0000
     17 ****        -1.3097  -1.0473  -1.9533 C.3            1 S1                 0.0000
     18 ****        -0.3438  -1.7700  -2.8905 C.3            1 S1                 0.0000
     19 ****        -1.3470  -1.3656  -0.4470 C.3            1 S1                 0.0000
     20 ****        -0.0649  -1.7106   0.0688 O.3            1 S1                 0.0000
     21 ****         0.1295  -3.1074   0.2022 C.3            1 S1                 0.0000
     22 ****         2.5407   3.0486   1.3794 H              1 S1                 0.0000
     23 ****        -0.8533   0.5494   3.2460 H              1 S1                 0.0000
     24 ****        -1.3664  -0.9323   2.4511 H              1 S1                 0.0000
     25 ****        -2.5024   0.4012   2.6723 H              1 S1                 0.0000
     26 ****        -1.1512   1.8238   1.1046 H              1 S1                 0.0000
     27 ****         0.0552   0.6017   1.0431 H              1 S1                 0.0000
     28 ****        -3.7319  -0.0821  -0.9159 H              1 S1                 0.0000
     29 ****        -3.6567  -0.1034   0.8003 H              1 S1                 0.0000
     30 ****        -4.7162   1.9670  -0.1406 H              1 S1                 0.0000
     31 ****        -3.2022   2.4057  -0.9191 H              1 S1                 0.0000
     32 ****        -3.3237   2.3775   0.8399 H              1 S1                 0.0000
     33 ****        -1.6913   1.1051  -2.1735 H              1 S1                 0.0000
     34 ****         0.9719  -0.0037  -1.4407 H              1 S1                 0.0000
     35 ****         2.8586   1.6706  -2.0999 H              1 S1                 0.0000
     36 ****         2.6310   3.1681  -1.2201 H              1 S1                 0.0000
     37 ****         3.1385  -0.6780  -0.4485 H              1 S1                 0.0000
     38 ****         3.7569  -1.9985   1.9108 H              1 S1                 0.0000
     39 ****         2.8315  -1.3232   3.2469 H              1 S1                 0.0000
     40 ****         4.5420  -0.9342   3.0739 H              1 S1                 0.0000
     41 ****        -2.3223  -1.1454  -2.3476 H              1 S1                 0.0000
     42 ****         0.6757  -1.7765  -2.5045 H              1 S1                 0.0000
     43 ****        -0.3197  -1.2938  -3.8707 H              1 S1                 0.0000
     44 ****        -0.6437  -2.8074  -3.0385 H              1 S1                 0.0000
     45 ****        -2.1368  -2.0583  -0.1499 H              1 S1                 0.0000
     46 ****         1.1391  -3.3008   0.5644 H              1 S1                 0.0000
     47 ****         0.0069  -3.6233  -0.7501 H              1 S1                 0.0000
     48 ****        -0.5723  -3.5312   0.9213 H              1 S1                 0.0000
     49 ****        -0.8505   2.9483  -1.7025 LP             1 S1                 0.0000
     50 ****         0.5687   3.9272  -1.5362 LP             1 S1                 0.0000
     51 ****         3.1609   1.4897   3.2234 LP             1 S1                 0.0000
     52 ****         0.0387  -1.2885   0.9695 LP             1 S1                 0.0000
     53 ****         0.6333  -1.3509  -0.5502 LP             1 S1                 0.0000
@<TRIPOS>BOND
    1    1    2 1     
    2    1   23 1     
    3    1   24 1     
    4    1   25 1     
    5    2    3 1     
    6    2   26 1     
    7    2   27 1     
    8    3   19 1     
    9    3    4 1     
   10    3    6 1     
   11    4    5 1     
   12    4   28 1     
   13    4   29 1     
   14    5   30 1     
   15    5   31 1     
   16    5   32 1     
   17    6    7 1     
   18    6   17 1     
   19    6   33 1     
   20    7    8 am    
   21    7   34 1     
   22    8    9 2     
   23    8   10 1     
   24   10   35 1     
   25   10   36 1     
   26   10   11 1     
   27   11   16 1     
   28   11   12 2     
   29   12   13 1     
   30   12   37 1     
   31   13   14 1     
   32   13   15 2     
   33   14   38 1     
   34   14   39 1     
   35   14   40 1     
   36   15   16 1     
   37   16   22 1     
   38   17   18 1     
   39   17   19 1     
   40   17   41 1     
   41   18   42 1     
   42   18   43 1     
   43   18   44 1     
   44   19   20 1     
   45   19   45 1     
   46   20   21 1     
   47   21   46 1     
   48   21   47 1     
   49   21   48 1     
   50    9   49 1     
   51    9   50 1     
   52   15   51 1     
   53   20   52 1     
   54   20   53 1     
@<TRIPOS>SUBSTRUCTURE
      1 S1             1
@<TRIPOS>SET
LONE_PAIRS      STATIC     ATOMS    <user>   **** ""
5 49 50 51 52 53
DONOR_HYDROGENS      STATIC     ATOMS    <user>   **** ""
2 34 22
ATOM$BLUE        STATIC     ATOMS    COLORGROUP SYSTEM
5 49 50 51 52 53
ATOM$RED        STATIC     ATOMS    COLORGROUP SYSTEM
2 34 22
