AV-unprocessed.smi:1128|AV-procd|sdf|4845|dock1
  -GOLD-   22720 3413D 1   1.00000     0.00000
 Structure written by MMmdl.
 37 38  0  0  0  0  0  0  0  0  2 V2000
  148.9371  138.2578  156.9484 O   0  0  0  0  0  0  0  0  0  0  0  0
  149.4770  138.4583  158.0359 C   0  0  0  0  0  0  0  0  0  0  0  0
  150.1517  139.5806  158.3224 N   0  0  0  0  0  0  0  0  0  0  0  0
  150.3380  140.7055  157.4117 C   0  0  0  0  0  0  0  0  0  0  0  0
  150.8551  141.9697  158.1297 C   0  0  1  0  0  0  0  0  0  0  0  0
  152.0714  141.6746  159.0396 C   0  0  0  0  0  0  0  0  0  0  0  0
  152.7673  142.9368  159.5170 C   0  0  0  0  0  0  0  0  0  0  0  0
  152.5559  144.1489  158.9774 C   0  0  0  0  0  0  0  0  0  0  0  0
  151.6027  144.3918  157.8225 C   0  0  0  0  0  0  0  0  0  0  0  0
  151.1928  143.0836  157.1208 C   0  0  0  0  0  0  0  0  0  0  0  0
  149.4949  137.6132  159.0826 N   0  0  0  0  0  0  0  0  0  0  0  0
  148.9208  136.3372  159.2221 C   0  0  0  0  0  0  0  0  0  0  0  0
  148.2871  135.8799  160.3380 C   0  0  0  0  0  0  0  0  0  0  0  0
  147.7155  134.5413  160.4177 C   0  0  0  0  0  0  0  0  0  0  0  0
  147.0753  133.9711  161.6710 C   0  0  0  0  0  0  0  0  0  0  0  0
  145.7972  133.6577  161.4567 F   0  0  0  0  0  0  0  0  0  0  0  0
  147.7144  132.8743  162.0780 F   0  0  0  0  0  0  0  0  0  0  0  0
  147.1233  134.8692  162.6537 F   0  0  0  0  0  0  0  0  0  0  0  0
  147.9182  133.8147  159.2605 C   0  0  0  0  0  0  0  0  0  0  0  0
  148.5227  134.1933  158.1134 N   0  5  0  0  0  0  0  0  0  0  0  0
  149.0502  135.4483  158.0484 C   0  0  0  0  0  0  0  0  0  0  0  0
  149.6269  135.8522  157.0379 O   0  0  0  0  0  0  0  0  0  0  0  0
  150.5702  139.6618  159.2375 H   0  0  0  0  0  0  0  0  0  0  0  0
  151.0464  140.3996  156.6414 H   0  0  0  0  0  0  0  0  0  0  0  0
  149.3998  140.9177  156.8962 H   0  0  0  0  0  0  0  0  0  0  0  0
  150.0503  142.3475  158.7628 H   0  0  0  0  0  0  0  0  0  0  0  0
  151.7561  141.1008  159.9117 H   0  0  0  0  0  0  0  0  0  0  0  0
  152.8066  141.0680  158.5099 H   0  0  0  0  0  0  0  0  0  0  0  0
  153.4713  142.8266  160.3287 H   0  0  0  0  0  0  0  0  0  0  0  0
  153.0708  145.0117  159.3743 H   0  0  0  0  0  0  0  0  0  0  0  0
  150.7221  144.9024  158.2132 H   0  0  0  0  0  0  0  0  0  0  0  0
  152.0698  145.0670  157.1051 H   0  0  0  0  0  0  0  0  0  0  0  0
  152.0071  142.7481  156.4772 H   0  0  0  0  0  0  0  0  0  0  0  0
  150.3431  143.2753  156.4647 H   0  0  0  0  0  0  0  0  0  0  0  0
  150.0200  137.9160  159.8899 H   0  0  0  0  0  0  0  0  0  0  0  0
  148.1912  136.4962  161.2158 H   0  0  0  0  0  0  0  0  0  0  0  0
  147.5423  132.7691  159.2581 H   0  0  0  0  0  0  0  0  0  0  0  0
  1  2  2  0  0  0  0
  2  3  1  0  0  0  0
  2 11  1  0  0  0  0
  3  4  1  0  0  0  0
  3 23  1  0  0  0  0
  4  5  1  0  0  0  0
  4 24  1  0  0  0  0
  4 25  1  0  0  0  0
  5 10  1  0  0  0  0
  5  6  1  0  0  0  0
  5 26  1  0  0  0  0
  6  7  1  0  0  0  0
  6 27  1  0  0  0  0
  6 28  1  0  0  0  0
  7  8  2  0  0  0  0
  7 29  1  0  0  0  0
  8  9  1  0  0  0  0
  8 30  1  0  0  0  0
  9 10  1  0  0  0  0
  9 31  1  0  0  0  0
  9 32  1  0  0  0  0
 10 33  1  0  0  0  0
 10 34  1  0  0  0  0
 11 12  1  0  0  0  0
 11 35  1  0  0  0  0
 12 21  1  0  0  0  0
 12 13  2  0  0  0  0
 13 14  1  0  0  0  0
 13 36  1  0  0  0  0
 14 15  1  0  0  0  0
 14 19  2  0  0  0  0
 15 16  1  0  0  0  0
 15 17  1  0  0  0  0
 15 18  1  0  0  0  0
 19 20  1  0  0  0  0
 19 37  1  0  0  0  0
 20 21  1  0  0  0  0
 21 22  2  0  0  0  0
M  CHG  1  20  -1
M  END
> <s_m_source_file>
AV-unprocessed.smi

> <i_m_source_file_index>
1128

> <i_lp_mmshare_version>
43012

> <i_f3d_flags>
0

> <s_epik_input>
Tz1jMVtuSF1bY0hdYyhDKEYpKEYpRilbY0hdYzFbTkhdQyg9TylbTkhdW0NIMl1bQ0BASF0yW0NIMl1bQ0hdPVtDSF1bQ0gyXVtDSDJdMg==

> <s_epik_cmdline>
J2VwaWtfcHl0aG9uJywgJy1waCcsICc3LjAnLCAnLXRuJywgJzgnLCAnLW1hJywgJzIwMCcsICctbWV0YWxfYmluZGluZycsICctaW1hZScsICc8aW5maWxlLm1hZT4nLCAnLW9tYWUnLCAnPG91dGZpbGUubWFlPic=

> <r_lp_tautomer_probability>
1

> <r_epik_Ionization_Penalty>
3.16664

> <r_epik_Ionization_Penalty_Charging>
0.172425

> <r_epik_Ionization_Penalty_Neutral>
2.99422

> <r_epik_State_Penalty>
2.99038

> <r_epik_Charging_Adjusted_Penalty>
3.16281

> <i_epik_Tot_Q>
-1

> <i_epik_Tot_abs_Q>
1

> <r_epik_Metal_State_Penalty>
0.453031

> <b_epik_Metal_Only>
1

> <s_lp_Force_Field>
OPLS_2005

> <r_lp_Energy>
22.2299

> <b_lp_Chiralities_Consistent>
1

> <s_lp_Variant>
AV-unprocessed.smi:1128-4

> <Gold.Version>
5.8.1

> <Gold.Id.Protein>
6NUR|6NUR_protein|mol2

> <Gold.PLP.Fitness>
39.9155

> <Gold.PLP.PLP>
-40.8390

> <Gold.PLP.part.hbond>
0.0000

> <Gold.PLP.part.metal>
0.0000

> <Gold.PLP.part.buried>
-4.7648

> <Gold.PLP.part.nonpolar>
-37.1825

> <Gold.PLP.part.repulsive>
0.4110

> <Gold.PLP.ligand.clash>
0.0000

> <Gold.PLP.ligand.torsion>
0.4981

> <Gold.PLP.Chemscore.Hbond>
0.0000

> <Gold.PLP.Chemscore.CHOScore>
0.0000

> <Gold.PLP.Chemscore.Metal>
0.0000

> <Gold.PLP.Chemscore.Internal.Correction>
0.0727

> <Gold.Rescore>
     Score         DG    S(hbond)    S(metal)    S(lipo)     H(rot)  DE(clash)    DE(int)     intcor
     12.64     -13.53       0.00        0.00      97.10       1.29       0.12       0.77       ----

> <Gold.Chemscore.Fitness>
12.6381

> <Gold.Chemscore.DG>
-13.5277

> <Gold.Chemscore.ZeroCoef>
-5.4800

> <Gold.Chemscore.Hbond>
0.0000

> <Gold.Chemscore.Metal>
0.0000

> <Gold.Chemscore.Lipo>
97.1022

> <Gold.Chemscore.Internal_Hbond>
0.0000

> <Gold.Chemscore.DEClash>
0.1190

> <Gold.Chemscore.DEInternal>
0.7706

> <Gold.Chemscore.Rot>
1.2943

> <Gold.Chemscore.Internal.Correction>
   9.000000E+99

> <Gold.Chemscore.Hbond.Weighted>
-0.0000

> <Gold.Chemscore.Metal.Weighted>
-0.0000

> <Gold.Chemscore.Lipo.Weighted>
-11.3610

> <Gold.Chemscore.Internal_Hbond.Weighted>
0.0000

> <Gold.Chemscore.DEClash.Weighted>
0.1190

> <Gold.Chemscore.DEInternal.Weighted>
0.7706

> <Gold.Chemscore.Rot.Weighted>
3.3133

> <Gold.Chemscore.Internal.Correction.Weighted>
   9.000000E+99

> <Gold.Protein.RotatedTorsions>
[ 6907 6896 6895 6894 ] final  -94.03 input  -60.11 | X-H torsion
[ 7974 7965 7964 7962 ] final -136.91 input  175.53 | X-H torsion
[ 8008 7997 7996 7995 ] final -145.35 input   59.86 | X-H torsion
[ 10167 10162 10161 10158 ] final  -30.86 input  -65.29 | X-H torsion
[ 10718 10713 10712 10709 ] final -152.46 input   66.30 | X-H torsion
[ 10763 10752 10751 10750 ] final  -54.44 input  -60.55 | X-H torsion
[ 11005 11000 10999 10996 ] final  172.70 input  -57.11 | X-H torsion

> <Gold.Protein.ActiveResidues>
 VAL166  LYS551  ARG553  GLY616  TRP617  ASP618  TYR619  PRO620  LYS621  CYS622 
 ASP623  PHE694  ASN695  SER759  ASP760  ASP761  ALA762  ILE779  LEU786  VAL792 
 PHE793  MET794  SER795  GLU796  ALA797  LYS798  CYS799  TRP800  GLU811  SER814 

> <Gold.Protein.RotatedAtoms>
  150.6934  134.1875  159.4272 H   0  0  0  0  0  0  0  0  0  0  0  0  # atno 6907 bound_to 6896
  151.9847  135.0008  160.0568 H   0  0  0  0  0  0  0  0  0  0  0  0  # atno 6908 bound_to 6896
  152.1723  133.4616  159.4952 H   0  0  0  0  0  0  0  0  0  0  0  0  # atno 6909 bound_to 6896
  144.8886  140.6611  143.5159 H   0  0  0  0  0  0  0  0  0  0  0  0  # atno 7974 bound_to 7965
  155.5417  140.0608  157.2868 H   0  0  0  0  0  0  0  0  0  0  0  0  # atno 8008 bound_to 7997
  154.4450  140.1918  156.0641 H   0  0  0  0  0  0  0  0  0  0  0  0  # atno 8009 bound_to 7997
  156.0580  140.3276  155.7432 H   0  0  0  0  0  0  0  0  0  0  0  0  # atno 8010 bound_to 7997
  140.7244  143.3816  151.1590 H   0  0  0  0  0  0  0  0  0  0  0  0  # atno 10167 bound_to 10162
  156.4727  130.8266  151.2495 H   0  0  0  0  0  0  0  0  0  0  0  0  # atno 10718 bound_to 10713
  154.1749  135.6453  153.5019 H   0  0  0  0  0  0  0  0  0  0  0  0  # atno 10763 bound_to 10752
  153.0074  135.5392  154.6574 H   0  0  0  0  0  0  0  0  0  0  0  0  # atno 10764 bound_to 10752
  154.5923  135.2935  155.0595 H   0  0  0  0  0  0  0  0  0  0  0  0  # atno 10765 bound_to 10752
  140.3325  134.7345  157.4145 H   0  0  0  0  0  0  0  0  0  0  0  0  # atno 11005 bound_to 11000
  145.3823  139.1634  143.4274 LP  0  0  0  0  0  0  0  0  0  0  0  0  # atno 17320 bound_to 7965
  146.3040  140.3905  142.8694 LP  0  0  0  0  0  0  0  0  0  0  0  0  # atno 17321 bound_to 7965
  139.7406  143.8931  152.3048 LP  0  0  0  0  0  0  0  0  0  0  0  0  # atno 17342 bound_to 10162
  139.8750  144.7048  150.8943 LP  0  0  0  0  0  0  0  0  0  0  0  0  # atno 17343 bound_to 10162
  157.7490  131.0071  150.3176 LP  0  0  0  0  0  0  0  0  0  0  0  0  # atno 17370 bound_to 10713
  156.3602  130.3845  149.7258 LP  0  0  0  0  0  0  0  0  0  0  0  0  # atno 17371 bound_to 10713
  140.0848  134.5681  155.8503 LP  0  0  0  0  0  0  0  0  0  0  0  0  # atno 17394 bound_to 11000
  141.2059  133.6651  156.6212 LP  0  0  0  0  0  0  0  0  0  0  0  0  # atno 17395 bound_to 11000

$$$$
