AV-unprocessed.smi:531|AV-procd|sdf|2846|dock9
  -GOLD-   2262023333D 1   1.00000     0.00000
 Structure written by MMmdl.
 46 48  0  0  0  0  0  0  0  0  1 V2000
  146.4893  142.6734  153.9291 C   0  0  0  0  0  0  0  0  0  0  0  0
  147.5103  141.5345  153.8851 C   0  0  0  0  0  0  0  0  0  0  0  0
  148.7800  142.0422  154.2583 O   0  0  0  0  0  0  0  0  0  0  0  0
  149.3549  141.3333  155.3424 C   0  0  0  0  0  0  0  0  0  0  0  0
  150.6483  142.0396  155.7635 C   0  0  0  0  0  0  0  0  0  0  0  0
  151.4127  141.2329  156.7109 N   0  0  0  0  0  0  0  0  0  0  0  0
  151.8709  141.5771  157.9469 C   0  0  0  0  0  0  0  0  0  0  0  0
  151.6688  142.8451  158.4964 N   0  0  0  0  0  0  0  0  0  0  0  0
  150.5379  143.7376  158.2394 C   0  0  0  0  0  0  0  0  0  0  0  0
  149.8969  144.2313  159.5495 C   0  0  0  0  0  0  0  0  0  0  0  0
  150.9382  144.9529  160.4159 C   0  0  0  0  0  0  0  0  0  0  0  0
  152.1801  144.0679  160.5917 C   0  0  0  0  0  0  0  0  0  0  0  0
  152.7004  143.5796  159.2276 C   0  0  0  0  0  0  0  0  0  0  0  0
  152.4769  140.5876  158.6090 N   0  0  0  0  0  0  0  0  0  0  0  0
  152.4200  139.5288  157.7169 C   0  0  0  0  0  0  0  0  0  0  0  0
  151.7716  139.8891  156.5803 C   0  0  0  0  0  0  0  0  0  0  0  0
  151.5178  138.9395  155.4869 C   0  0  0  0  0  0  0  0  0  0  0  0
  150.9107  139.2310  154.4590 O   0  0  0  0  0  0  0  0  0  0  0  0
  152.0108  137.7012  155.7322 N   0  0  0  0  0  0  0  0  0  0  0  0
  152.6789  137.2776  156.8479 C   0  0  0  0  0  0  0  0  0  0  0  0
  153.0615  136.1105  156.9294 O   0  0  0  0  0  0  0  0  0  0  0  0
  152.8928  138.1917  157.8474 N   0  0  0  0  0  0  0  0  0  0  0  0
  153.5986  137.7950  159.0673 C   0  0  0  0  0  0  0  0  0  0  0  0
  151.8623  137.0101  155.0114 H   0  0  0  0  0  0  0  0  0  0  0  0
  145.4983  142.3193  153.6442 H   0  0  0  0  0  0  0  0  0  0  0  0
  146.7678  143.4757  153.2452 H   0  0  0  0  0  0  0  0  0  0  0  0
  146.4183  143.0960  154.9317 H   0  0  0  0  0  0  0  0  0  0  0  0
  147.2073  140.7382  154.5664 H   0  0  0  0  0  0  0  0  0  0  0  0
  147.5546  141.1121  152.8803 H   0  0  0  0  0  0  0  0  0  0  0  0
  148.6544  141.3032  156.1786 H   0  0  0  0  0  0  0  0  0  0  0  0
  149.5665  140.3034  155.0506 H   0  0  0  0  0  0  0  0  0  0  0  0
  151.2602  142.2662  154.8928 H   0  0  0  0  0  0  0  0  0  0  0  0
  150.4211  143.0088  156.1960 H   0  0  0  0  0  0  0  0  0  0  0  0
  150.8935  144.5925  157.6625 H   0  0  0  0  0  0  0  0  0  0  0  0
  149.8004  143.2482  157.6047 H   0  0  0  0  0  0  0  0  0  0  0  0
  149.0651  144.9012  159.3305 H   0  0  0  0  0  0  0  0  0  0  0  0
  149.4801  143.3891  160.1029 H   0  0  0  0  0  0  0  0  0  0  0  0
  151.2238  145.8906  159.9374 H   0  0  0  0  0  0  0  0  0  0  0  0
  150.5136  145.2123  161.3860 H   0  0  0  0  0  0  0  0  0  0  0  0
  152.9614  144.6196  161.1150 H   0  0  0  0  0  0  0  0  0  0  0  0
  151.9337  143.2088  161.2172 H   0  0  0  0  0  0  0  0  0  0  0  0
  153.5688  142.9378  159.3801 H   0  0  0  0  0  0  0  0  0  0  0  0
  153.0407  144.4232  158.6257 H   0  0  0  0  0  0  0  0  0  0  0  0
  154.5285  137.2758  158.8305 H   0  0  0  0  0  0  0  0  0  0  0  0
  152.9763  137.1265  159.6633 H   0  0  0  0  0  0  0  0  0  0  0  0
  153.8616  138.6485  159.6923 H   0  0  0  0  0  0  0  0  0  0  0  0
  1  2  1  0  0  0  0
  1 25  1  0  0  0  0
  1 26  1  0  0  0  0
  1 27  1  0  0  0  0
  2  3  1  0  0  0  0
  2 28  1  0  0  0  0
  2 29  1  0  0  0  0
  3  4  1  0  0  0  0
  4  5  1  0  0  0  0
  4 30  1  0  0  0  0
  4 31  1  0  0  0  0
  5  6  1  0  0  0  0
  5 32  1  0  0  0  0
  5 33  1  0  0  0  0
  6 16  1  0  0  0  0
  6  7  1  0  0  0  0
  7  8  1  0  0  0  0
  7 14  2  0  0  0  0
  8 13  1  0  0  0  0
  8  9  1  0  0  0  0
  9 10  1  0  0  0  0
  9 34  1  0  0  0  0
  9 35  1  0  0  0  0
 10 11  1  0  0  0  0
 10 36  1  0  0  0  0
 10 37  1  0  0  0  0
 11 12  1  0  0  0  0
 11 38  1  0  0  0  0
 11 39  1  0  0  0  0
 12 13  1  0  0  0  0
 12 40  1  0  0  0  0
 12 41  1  0  0  0  0
 13 42  1  0  0  0  0
 13 43  1  0  0  0  0
 14 15  1  0  0  0  0
 15 22  1  0  0  0  0
 15 16  2  0  0  0  0
 16 17  1  0  0  0  0
 17 18  2  0  0  0  0
 17 19  1  0  0  0  0
 19 24  1  0  0  0  0
 19 20  1  0  0  0  0
 20 21  2  0  0  0  0
 20 22  1  0  0  0  0
 22 23  1  0  0  0  0
 23 44  1  0  0  0  0
 23 45  1  0  0  0  0
 23 46  1  0  0  0  0
M  END
> <s_m_source_file>
AV-unprocessed.smi

> <i_m_source_file_index>
531

> <i_lp_mmshare_version>
43012

> <i_f3d_flags>
0

> <s_epik_input>
W0NIM11uMWMoPU8pW25IXWMoPU8pYyhjMTIpbihbQ0gyXVtDSDJdT1tDSDJdW0NIM10pYyhuMilOM1tDSDJdW0NIMl1bQ0gyXVtDSDJdW0NIMl0z

> <s_epik_cmdline>
J2VwaWtfcHl0aG9uJywgJy1waCcsICc3LjAnLCAnLXRuJywgJzgnLCAnLW1hJywgJzIwMCcsICctbWV0YWxfYmluZGluZycsICctaW1hZScsICc8aW5maWxlLm1hZT4nLCAnLW9tYWUnLCAnPG91dGZpbGUubWFlPic=

> <r_lp_tautomer_probability>
1

> <r_epik_Ionization_Penalty>
0.000274134

> <r_epik_Ionization_Penalty_Charging>
0.000122674

> <r_epik_Ionization_Penalty_Neutral>
0.00015146

> <r_epik_State_Penalty>
-0

> <r_epik_Charging_Adjusted_Penalty>
0.000122674

> <i_epik_Tot_Q>
0

> <i_epik_Tot_abs_Q>
0

> <r_epik_Metal_State_Penalty>
0.0938197

> <b_epik_Metal_Only>
0

> <s_lp_Force_Field>
OPLS_2005

> <r_lp_Energy>
38.5132

> <b_lp_Chiralities_Consistent>
1

> <s_lp_Variant>
AV-unprocessed.smi:531-1

> <Gold.Version>
5.8.1

> <Gold.Id.Protein>
6NUR|6NUR_protein|mol2

> <Gold.PLP.Fitness>
47.0512

> <Gold.PLP.PLP>
-41.7306

> <Gold.PLP.part.hbond>
-3.0000

> <Gold.PLP.part.metal>
0.0000

> <Gold.PLP.part.buried>
-6.1899

> <Gold.PLP.part.nonpolar>
-31.9597

> <Gold.PLP.part.repulsive>
0.8890

> <Gold.PLP.ligand.clash>
0.0000

> <Gold.PLP.ligand.torsion>
1.0217

> <Gold.PLP.Chemscore.Hbond>
2.2990

> <Gold.PLP.Chemscore.CHOScore>
0.0000

> <Gold.PLP.Chemscore.Metal>
0.0000

> <Gold.Chemscore.Hbonds>
donor molecule, donor type, donor heavy atom, donor atom, acceptor molecule, acceptor atom, score
      P1  H  7989  7998       L1    18  1.00
      P1  H  8011  8017       L1     3  0.22
      P1  H 10752 10763       L1    21  1.00

> <Gold.PLP.Chemscore.Internal.Correction>
0.4671

> <Gold.Rescore>
     Score         DG    S(hbond)    S(metal)    S(lipo)     H(rot)  DE(clash)    DE(int)     intcor
     13.87     -18.32       1.90        0.00      90.95       1.62       1.35       3.10       ----

> <Gold.Chemscore.Fitness>
13.8739

> <Gold.Chemscore.DG>
-18.3247

> <Gold.Chemscore.ZeroCoef>
-5.4800

> <Gold.Chemscore.Hbond>
1.9016

> <Gold.Chemscore.Metal>
0.0000

> <Gold.Chemscore.Lipo>
90.9526

> <Gold.Chemscore.Internal_Hbond>
0.0000

> <Gold.Chemscore.DEClash>
1.3464

> <Gold.Chemscore.DEInternal>
3.1044

> <Gold.Chemscore.Rot>
1.6204

> <Gold.Chemscore.Internal.Correction>
   9.000000E+99

> <Gold.Chemscore.Hbonds>
donor molecule, donor type, donor heavy atom, donor atom, acceptor molecule, acceptor atom, score
      P1  H  7989  7998       L1    18  0.85
      P1  H  8011  8017       L1     3  0.09
      P1  H 10752 10763       L1    21  0.94

> <Gold.Chemscore.Hbond.Weighted>
-6.3514

> <Gold.Chemscore.Metal.Weighted>
-0.0000

> <Gold.Chemscore.Lipo.Weighted>
-10.6414

> <Gold.Chemscore.Internal_Hbond.Weighted>
0.0000

> <Gold.Chemscore.DEClash.Weighted>
1.3464

> <Gold.Chemscore.DEInternal.Weighted>
3.1044

> <Gold.Chemscore.Rot.Weighted>
4.1481

> <Gold.Chemscore.Internal.Correction.Weighted>
   9.000000E+99

> <Gold.Protein.RotatedTorsions>
[ 6907 6896 6895 6894 ] final   42.51 input  -60.11 | X-H torsion
[ 7974 7965 7964 7962 ] final   46.13 input  175.53 | X-H torsion
[ 8008 7997 7996 7995 ] final -171.31 input   59.86 | X-H torsion
[ 10167 10162 10161 10158 ] final  148.33 input  -65.29 | X-H torsion
[ 10718 10713 10712 10709 ] final  136.42 input   66.30 | X-H torsion
[ 10763 10752 10751 10750 ] final  130.39 input  -60.55 | X-H torsion
[ 11005 11000 10999 10996 ] final   54.69 input  -57.11 | X-H torsion

> <Gold.Protein.ActiveResidues>
 VAL166  LYS551  ARG553  GLY616  TRP617  ASP618  TYR619  PRO620  LYS621  CYS622 
 ASP623  PHE694  ASN695  SER759  ASP760  ASP761  ALA762  ILE779  LEU786  VAL792 
 PHE793  MET794  SER795  GLU796  ALA797  LYS798  CYS799  TRP800  GLU811  SER814 

> <Gold.Protein.RotatedAtoms>
  152.2087  134.8521  160.0499 H   0  0  0  0  0  0  0  0  0  0  0  0  # atno 6907 bound_to 6896
  151.9348  133.3616  159.3952 H   0  0  0  0  0  0  0  0  0  0  0  0  # atno 6908 bound_to 6896
  150.6971  134.4425  159.5343 H   0  0  0  0  0  0  0  0  0  0  0  0  # atno 6909 bound_to 6896
  146.0417  139.4889  142.9774 H   0  0  0  0  0  0  0  0  0  0  0  0  # atno 7974 bound_to 7965
  155.9299  140.1089  157.1140 H   0  0  0  0  0  0  0  0  0  0  0  0  # atno 8008 bound_to 7997
  154.4069  140.1239  156.4855 H   0  0  0  0  0  0  0  0  0  0  0  0  # atno 8009 bound_to 7997
  155.7093  140.3471  155.4969 H   0  0  0  0  0  0  0  0  0  0  0  0  # atno 8010 bound_to 7997
  139.4876  144.5687  151.7095 H   0  0  0  0  0  0  0  0  0  0  0  0  # atno 10167 bound_to 10162
  157.4468  131.1062  151.0080 H   0  0  0  0  0  0  0  0  0  0  0  0  # atno 10718 bound_to 10713
  153.7572  135.3201  155.3331 H   0  0  0  0  0  0  0  0  0  0  0  0  # atno 10763 bound_to 10752
  154.8243  135.4581  154.0874 H   0  0  0  0  0  0  0  0  0  0  0  0  # atno 10764 bound_to 10752
  153.2094  135.6933  153.8216 H   0  0  0  0  0  0  0  0  0  0  0  0  # atno 10765 bound_to 10752
  140.0666  134.5527  155.9092 H   0  0  0  0  0  0  0  0  0  0  0  0  # atno 11005 bound_to 11000
  145.6873  141.0174  143.1574 LP  0  0  0  0  0  0  0  0  0  0  0  0  # atno 17320 bound_to 7965
  144.7078  139.8491  143.7424 LP  0  0  0  0  0  0  0  0  0  0  0  0  # atno 17321 bound_to 7965
  140.5270  144.0789  150.6041 LP  0  0  0  0  0  0  0  0  0  0  0  0  # atno 17342 bound_to 10162
  140.3767  143.2825  152.0217 LP  0  0  0  0  0  0  0  0  0  0  0  0  # atno 17343 bound_to 10162
  157.0924  130.5947  149.5442 LP  0  0  0  0  0  0  0  0  0  0  0  0  # atno 17370 bound_to 10713
  155.9971  130.5041  150.7520 LP  0  0  0  0  0  0  0  0  0  0  0  0  # atno 17371 bound_to 10713
  141.1995  133.6607  156.5848 LP  0  0  0  0  0  0  0  0  0  0  0  0  # atno 17394 bound_to 11000
  140.3689  134.7623  157.4585 LP  0  0  0  0  0  0  0  0  0  0  0  0  # atno 17395 bound_to 11000

$$$$
