AV-unprocessed.smi:1153|AV-procd|sdf|4899|dock9
  -GOLD-   22720 3473D 1   1.00000     0.00000
 Structure written by MMmdl.
 26 27  0  0  0  0  0  0  0  0  1 V2000
  150.7010  140.7599  158.4556 O   0  0  0  0  0  0  0  0  0  0  0  0
  150.5058  141.9237  158.1020 C   0  0  0  0  0  0  0  0  0  0  0  0
  151.2043  143.0883  158.8140 C   0  0  0  0  0  0  0  0  0  0  0  0
  152.1494  142.6363  159.8222 N   0  0  0  0  0  0  0  0  0  0  0  0
  152.4840  143.2385  161.0165 C   0  0  0  0  0  0  0  0  0  0  0  0
  153.4154  142.4464  161.6237 C   0  0  0  0  0  0  0  0  0  0  0  0
  153.5968  141.3644  160.7138 C   0  0  0  0  0  0  0  0  0  0  0  0
  154.5091  140.1735  160.8476 C   0  0  0  0  0  0  0  0  0  0  0  0
  155.0567  140.1546  162.0627 F   0  0  0  0  0  0  0  0  0  0  0  0
  153.8247  139.0437  160.6688 F   0  0  0  0  0  0  0  0  0  0  0  0
  155.4783  140.2369  159.9345 F   0  0  0  0  0  0  0  0  0  0  0  0
  152.8359  141.4887  159.6345 N   0  0  0  0  0  0  0  0  0  0  0  0
  149.6931  142.2599  157.0894 N   0  0  0  0  0  0  0  0  0  0  0  0
  148.9438  141.3468  156.2884 C   0  0  0  0  0  0  0  0  0  0  0  0
  149.7157  140.3553  155.4448 C   0  0  0  0  0  0  0  0  0  0  0  0
  149.0143  141.5103  154.7854 C   0  0  0  0  0  0  0  0  0  0  0  0
  151.7235  143.7004  158.0751 H   0  0  0  0  0  0  0  0  0  0  0  0
  150.4665  143.7277  159.3005 H   0  0  0  0  0  0  0  0  0  0  0  0
  152.0340  144.1683  161.3321 H   0  0  0  0  0  0  0  0  0  0  0  0
  153.8959  142.6138  162.5762 H   0  0  0  0  0  0  0  0  0  0  0  0
  149.5982  143.2403  156.8673 H   0  0  0  0  0  0  0  0  0  0  0  0
  147.9923  140.9966  156.6859 H   0  0  0  0  0  0  0  0  0  0  0  0
  150.8028  140.3865  155.4881 H   0  0  0  0  0  0  0  0  0  0  0  0
  149.2838  139.3649  155.3151 H   0  0  0  0  0  0  0  0  0  0  0  0
  148.1139  141.2915  154.2149 H   0  0  0  0  0  0  0  0  0  0  0  0
  149.6332  142.3126  154.3882 H   0  0  0  0  0  0  0  0  0  0  0  0
  1  2  2  0  0  0  0
  2  3  1  0  0  0  0
  2 13  1  0  0  0  0
  3  4  1  0  0  0  0
  3 17  1  0  0  0  0
  3 18  1  0  0  0  0
  4 12  1  0  0  0  0
  4  5  1  0  0  0  0
  5  6  2  0  0  0  0
  5 19  1  0  0  0  0
  6  7  1  0  0  0  0
  6 20  1  0  0  0  0
  7  8  1  0  0  0  0
  7 12  2  0  0  0  0
  8  9  1  0  0  0  0
  8 10  1  0  0  0  0
  8 11  1  0  0  0  0
 13 14  1  0  0  0  0
 13 21  1  0  0  0  0
 14 16  1  0  0  0  0
 14 15  1  0  0  0  0
 14 22  1  0  0  0  0
 15 16  1  0  0  0  0
 15 23  1  0  0  0  0
 15 24  1  0  0  0  0
 16 25  1  0  0  0  0
 16 26  1  0  0  0  0
M  END
> <s_m_source_file>
AV-unprocessed.smi

> <i_m_source_file_index>
1153

> <i_lp_mmshare_version>
43012

> <i_f3d_flags>
0

> <s_epik_input>
W0NIMl0xW0NIMl1bQ0hdMVtOSF1DKD1PKVtDSDJdbjJbY0hdW2NIXWMobjIpQyhGKShGKUY=

> <s_epik_cmdline>
J2VwaWtfcHl0aG9uJywgJy1waCcsICc3LjAnLCAnLXRuJywgJzgnLCAnLW1hJywgJzIwMCcsICctbWV0YWxfYmluZGluZycsICctaW1hZScsICc8aW5maWxlLm1hZT4nLCAnLW9tYWUnLCAnPG91dGZpbGUubWFlPic=

> <r_lp_tautomer_probability>
1

> <r_epik_Ionization_Penalty>
7.21317e-08

> <r_epik_Ionization_Penalty_Charging>
0

> <r_epik_Ionization_Penalty_Neutral>
7.21317e-08

> <r_epik_State_Penalty>
-0

> <r_epik_Charging_Adjusted_Penalty>
0

> <i_epik_Tot_Q>
0

> <i_epik_Tot_abs_Q>
0

> <r_epik_Metal_State_Penalty>
-0

> <b_epik_Metal_Only>
0

> <s_lp_Force_Field>
OPLS_2005

> <r_lp_Energy>
18.4383

> <b_lp_Chiralities_Consistent>
1

> <s_lp_Variant>
AV-unprocessed.smi:1153-1

> <Gold.Version>
5.8.1

> <Gold.Id.Protein>
6NUR|6NUR_protein|mol2

> <Gold.PLP.Fitness>
36.9072

> <Gold.PLP.PLP>
-35.1229

> <Gold.PLP.part.hbond>
-1.0000

> <Gold.PLP.part.metal>
0.0000

> <Gold.PLP.part.buried>
-3.1506

> <Gold.PLP.part.nonpolar>
-30.7212

> <Gold.PLP.part.repulsive>
0.0148

> <Gold.PLP.ligand.clash>
0.0000

> <Gold.PLP.ligand.torsion>
0.6176

> <Gold.PLP.Chemscore.Hbond>
0.9920

> <Gold.PLP.Chemscore.CHOScore>
0.0000

> <Gold.PLP.Chemscore.Metal>
0.0000

> <Gold.Chemscore.Hbonds>
donor molecule, donor type, donor heavy atom, donor atom, acceptor molecule, acceptor atom, score
      L1  H    13    21       P1  8028  0.99

> <Gold.PLP.Chemscore.Internal.Correction>
0.0435

> <Gold.Rescore>
     Score         DG    S(hbond)    S(metal)    S(lipo)     H(rot)  DE(clash)    DE(int)     intcor
     10.99     -12.72       0.97        0.00      70.09       1.64       0.02       1.70       ----

> <Gold.Chemscore.Fitness>
10.9922

> <Gold.Chemscore.DG>
-12.7153

> <Gold.Chemscore.ZeroCoef>
-5.4800

> <Gold.Chemscore.Hbond>
0.9659

> <Gold.Chemscore.Metal>
0.0000

> <Gold.Chemscore.Lipo>
70.0906

> <Gold.Chemscore.Internal_Hbond>
0.0000

> <Gold.Chemscore.DEClash>
0.0220

> <Gold.Chemscore.DEInternal>
1.7011

> <Gold.Chemscore.Rot>
1.6372

> <Gold.Chemscore.Internal.Correction>
   9.000000E+99

> <Gold.Chemscore.Hbonds>
donor molecule, donor type, donor heavy atom, donor atom, acceptor molecule, acceptor atom, score
      L1  H    13    21       P1  8028  0.88

> <Gold.Chemscore.Hbond.Weighted>
-3.2260

> <Gold.Chemscore.Metal.Weighted>
-0.0000

> <Gold.Chemscore.Lipo.Weighted>
-8.2006

> <Gold.Chemscore.Internal_Hbond.Weighted>
0.0000

> <Gold.Chemscore.DEClash.Weighted>
0.0220

> <Gold.Chemscore.DEInternal.Weighted>
1.7011

> <Gold.Chemscore.Rot.Weighted>
4.1913

> <Gold.Chemscore.Internal.Correction.Weighted>
   9.000000E+99

> <Gold.Protein.RotatedTorsions>
[ 6907 6896 6895 6894 ] final  -53.41 input  -60.11 | X-H torsion
[ 7974 7965 7964 7962 ] final   28.37 input  175.53 | X-H torsion
[ 8008 7997 7996 7995 ] final  -97.21 input   59.86 | X-H torsion
[ 10167 10162 10161 10158 ] final   71.08 input  -65.29 | X-H torsion
[ 10718 10713 10712 10709 ] final   96.27 input   66.30 | X-H torsion
[ 10763 10752 10751 10750 ] final -139.98 input  -60.55 | X-H torsion
[ 11005 11000 10999 10996 ] final   87.82 input  -57.11 | X-H torsion

> <Gold.Protein.ActiveResidues>
 VAL166  LYS551  ARG553  GLY616  TRP617  ASP618  TYR619  PRO620  LYS621  CYS622 
 ASP623  PHE694  ASN695  SER759  ASP760  ASP761  ALA762  ILE779  LEU786  VAL792 
 PHE793  MET794  SER795  GLU796  ALA797  LYS798  CYS799  TRP800  GLU811  SER814 

> <Gold.Protein.RotatedAtoms>
  150.8429  134.7727  159.6946 H   0  0  0  0  0  0  0  0  0  0  0  0  # atno 6907 bound_to 6896
  152.4512  134.5385  159.9842 H   0  0  0  0  0  0  0  0  0  0  0  0  # atno 6908 bound_to 6896
  151.5522  133.3378  159.2991 H   0  0  0  0  0  0  0  0  0  0  0  0  # atno 6909 bound_to 6896
  146.1733  139.7066  142.8952 H   0  0  0  0  0  0  0  0  0  0  0  0  # atno 7974 bound_to 7965
  154.7847  140.0465  157.1154 H   0  0  0  0  0  0  0  0  0  0  0  0  # atno 8008 bound_to 7997
  154.9663  140.3084  155.4988 H   0  0  0  0  0  0  0  0  0  0  0  0  # atno 8009 bound_to 7997
  156.2941  140.2261  156.4752 H   0  0  0  0  0  0  0  0  0  0  0  0  # atno 8010 bound_to 7997
  140.0500  144.5320  150.7370 H   0  0  0  0  0  0  0  0  0  0  0  0  # atno 10167 bound_to 10162
  157.6929  131.0572  150.4466 H   0  0  0  0  0  0  0  0  0  0  0  0  # atno 10718 bound_to 10713
  154.8593  135.3566  154.5634 H   0  0  0  0  0  0  0  0  0  0  0  0  # atno 10763 bound_to 10752
  153.6249  135.7004  153.5301 H   0  0  0  0  0  0  0  0  0  0  0  0  # atno 10764 bound_to 10752
  153.3098  135.4182  155.1286 H   0  0  0  0  0  0  0  0  0  0  0  0  # atno 10765 bound_to 10752
  139.8910  134.8447  156.2913 H   0  0  0  0  0  0  0  0  0  0  0  0  # atno 11005 bound_to 11000
  145.4281  141.0413  143.2926 LP  0  0  0  0  0  0  0  0  0  0  0  0  # atno 17320 bound_to 7965
  144.8196  139.5815  143.6993 LP  0  0  0  0  0  0  0  0  0  0  0  0  # atno 17321 bound_to 7965
  140.7221  143.2599  151.4243 LP  0  0  0  0  0  0  0  0  0  0  0  0  # atno 17342 bound_to 10162
  139.5959  144.1398  152.2143 LP  0  0  0  0  0  0  0  0  0  0  0  0  # atno 17343 bound_to 10162
  156.4821  130.4076  149.6456 LP  0  0  0  0  0  0  0  0  0  0  0  0  # atno 17370 bound_to 10713
  156.3498  130.7426  151.2383 LP  0  0  0  0  0  0  0  0  0  0  0  0  # atno 17371 bound_to 10713
  140.9974  133.7172  156.0907 LP  0  0  0  0  0  0  0  0  0  0  0  0  # atno 17394 bound_to 11000
  140.7544  134.4009  157.5536 LP  0  0  0  0  0  0  0  0  0  0  0  0  # atno 17395 bound_to 11000

$$$$
