#       Name:                AV-unprocessed.smi:1667
#       Creating user name   scv26
#       Creation time:       Fri Mar 27 07:39:33 2020


#       File generated by GOLD software.
#

@<TRIPOS>MOLECULE
AV-unprocessed.smi:1667
    50    52     1
SMALL
NO_CHARGES


@<TRIPOS>ATOM
      1 ****        -2.9028   3.5479  -1.4226 C.3            1 S1                 0.0000
      2 ****        -2.6173   2.2059  -0.7573 C.2            1 S1                 0.0000
      3 ****        -3.0768   1.9652   0.3585 O.2            1 S1                 0.0000
      4 ****        -1.8544   1.3464  -1.4510 N.am           1 S1                 0.0000
      5 ****        -1.4513   0.0169  -1.0024 C.3            1 S1                 0.0000
      6 ****        -2.2779  -1.0543  -1.7328 C.3            1 S1                 0.0000
      7 ****         0.0263  -0.1812  -1.1743 C.2            1 S1                 0.0000
      8 ****         0.6349  -0.9357  -2.1351 N.pl3          1 S1                 1.0000
      9 ****         2.0195  -0.8795  -1.9799 C.ar           1 S1                 0.0000
     10 ****         3.0431  -1.4858  -2.7015 C.ar           1 S1                 0.0000
     11 ****         4.3610  -1.2206  -2.2748 C.ar           1 S1                 0.0000
     12 ****         4.6206  -0.3790  -1.1735 C.ar           1 S1                 0.0000
     13 ****         3.5739   0.2324  -0.4520 C.ar           1 S1                 0.0000
     14 ****         2.2742  -0.0382  -0.8788 C.ar           1 S1                 0.0000
     15 ****         1.0194   0.3749  -0.4174 N.pl3          1 S1                 0.0000
     16 ****         0.9529   1.2823   0.7405 C.3            1 S1                 0.0000
     17 ****         1.1175   0.5483   2.0866 C.3            1 S1                 0.0000
     18 ****         1.2479   1.5190   3.1043 O.3            1 S1                 0.0000
     19 ****        -0.0256  -0.4202   2.3522 C.ar           1 S1                 0.0000
     20 ****        -1.2712   0.0474   2.8275 C.ar           1 S1                 0.0000
     21 ****        -2.3357  -0.8518   3.0302 C.ar           1 S1                 0.0000
     22 ****        -2.1609  -2.2231   2.7625 C.ar           1 S1                 0.0000
     23 ****        -0.9209  -2.6950   2.2913 C.ar           1 S1                 0.0000
     24 ****        -0.7531  -4.0124   2.0279 F              1 S1                 0.0000
     25 ****         0.1437  -1.7963   2.0872 C.ar           1 S1                 0.0000
     26 ****        -1.6603  -0.0928   0.0607 H              1 S1                 0.0000
     27 ****        -2.8938   3.4598  -2.5096 H              1 S1                 0.0000
     28 ****        -2.1504   4.2799  -1.1286 H              1 S1                 0.0000
     29 ****        -3.8816   3.9227  -1.1215 H              1 S1                 0.0000
     30 ****        -1.5210   1.6397  -2.3577 H              1 S1                 0.0000
     31 ****        -2.0188  -2.0548  -1.3846 H              1 S1                 0.0000
     32 ****        -2.1195  -1.0211  -2.8113 H              1 S1                 0.0000
     33 ****        -3.3441  -0.9133  -1.5518 H              1 S1                 0.0000
     34 ****         2.8466  -2.1303  -3.5459 H              1 S1                 0.0000
     35 ****         5.1890  -1.6716  -2.8024 H              1 S1                 0.0000
     36 ****         5.6435  -0.1990  -0.8756 H              1 S1                 0.0000
     37 ****         3.7829   0.8745   0.3911 H              1 S1                 0.0000
     38 ****         1.7258   2.0417   0.6148 H              1 S1                 0.0000
     39 ****         0.0014   1.8128   0.7071 H              1 S1                 0.0000
     40 ****         2.0525  -0.0130   2.0806 H              1 S1                 0.0000
     41 ****         1.4270   1.0766   3.9201 H              1 S1                 0.0000
     42 ****        -1.4206   1.0996   3.0225 H              1 S1                 0.0000
     43 ****        -3.2883  -0.4880   3.3860 H              1 S1                 0.0000
     44 ****        -2.9783  -2.9121   2.9161 H              1 S1                 0.0000
     45 ****         1.0877  -2.1656   1.7141 H              1 S1                 0.0000
     46 ****         0.1326  -1.4580  -2.8414 H              1 S1                 0.0000
     47 ****        -3.6361   2.6490   0.8271 LP             1 S1                 0.0000
     48 ****        -2.8909   1.0858   0.7968 LP             1 S1                 0.0000
     49 ****         0.3987   2.0410   3.1832 LP             1 S1                 0.0000
     50 ****         2.0011   2.1390   2.8845 LP             1 S1                 0.0000
@<TRIPOS>BOND
    1    1    2 1     
    2    1   27 1     
    3    1   28 1     
    4    1   29 1     
    5    2    3 2     
    6    2    4 am    
    7    4    5 1     
    8    4   30 1     
    9    5   26 1     
   10    5    6 1     
   11    5    7 1     
   12    6   31 1     
   13    6   32 1     
   14    6   33 1     
   15    7   15 1     
   16    7    8 2     
   17    8    9 1     
   18    8   46 1     
   19    9   14 ar    
   20    9   10 ar    
   21   10   11 ar    
   22   10   34 1     
   23   11   12 ar    
   24   11   35 1     
   25   12   13 ar    
   26   12   36 1     
   27   13   14 ar    
   28   13   37 1     
   29   14   15 1     
   30   15   16 1     
   31   16   17 1     
   32   16   38 1     
   33   16   39 1     
   34   17   18 1     
   35   17   19 1     
   36   17   40 1     
   37   18   41 1     
   38   19   25 ar    
   39   19   20 ar    
   40   20   21 ar    
   41   20   42 1     
   42   21   22 ar    
   43   21   43 1     
   44   22   23 ar    
   45   22   44 1     
   46   23   24 1     
   47   23   25 ar    
   48   25   45 1     
   49    3   47 1     
   50    3   48 1     
   51   18   49 1     
   52   18   50 1     
@<TRIPOS>SUBSTRUCTURE
      1 S1             1
@<TRIPOS>SET
LONE_PAIRS      STATIC     ATOMS    <user>   **** ""
4 47 48 49 50
DONOR_HYDROGENS      STATIC     ATOMS    <user>   **** ""
3 30 46 41
ATOM$BLUE        STATIC     ATOMS    COLORGROUP SYSTEM
4 47 48 49 50
ATOM$RED        STATIC     ATOMS    COLORGROUP SYSTEM
3 30 46 41
