AV-unprocessed.smi:2878|AV-procd|sdf|11046|dock10
  -GOLD-   2272015513D 1   1.00000     0.00000
 Structure written by MMmdl.
 42 43  0  0  0  0  0  0  0  0  1 V2000
  150.7417  141.6385  156.1470 C   0  0  0  0  0  0  0  0  0  0  0  0
  149.7226  142.0980  157.5740 S   0  0  0  0  0  0  0  0  0  0  0  0
  150.8870  143.1272  158.5251 C   0  0  1  0  0  0  0  0  0  0  0  0
  151.5261  144.1971  157.6182 C   0  0  0  0  0  0  0  0  0  0  0  0
  152.5351  145.0613  158.3905 C   0  0  0  0  0  0  0  0  0  0  0  0
  151.8841  145.7116  159.6202 C   0  0  0  0  0  0  0  0  0  0  0  0
  151.2449  144.6535  160.5357 C   0  0  0  0  0  0  0  0  0  0  0  0
  150.2378  143.7591  159.7814 C   0  0  1  0  0  0  0  0  0  0  0  0
  149.0377  144.5185  159.4291 N   0  0  0  0  0  0  0  0  0  0  0  0
  147.8335  144.3724  159.9979 C   0  0  0  0  0  0  0  0  0  0  0  0
  147.5897  143.5803  160.9084 O   0  0  0  0  0  0  0  0  0  0  0  0
  146.9250  145.1943  159.4550 N   0  0  0  0  0  0  0  0  0  0  0  0
  145.5225  145.2622  159.8487 C   0  0  0  0  0  0  0  0  0  0  0  0
  144.7993  146.4451  159.1845 C   0  0  0  0  0  0  0  0  0  0  0  0
  145.4207  147.7561  159.5311 C   0  0  0  0  0  0  0  0  0  0  0  0
  144.9662  148.9681  159.2218 N   0  0  0  0  0  0  0  0  0  0  0  0
  145.8893  149.7571  159.8375 C   0  0  0  0  0  0  0  0  0  0  0  0
  145.8406  151.2461  159.7902 C   0  0  0  0  0  0  0  0  0  0  0  0
  146.8452  149.1214  160.5038 N   0  0  0  0  0  0  0  0  0  0  0  0
  146.5293  147.7690  160.3101 O   0  0  0  0  0  0  0  0  0  0  0  0
  150.1443  141.0746  155.4307 H   0  0  0  0  0  0  0  0  0  0  0  0
  151.5811  141.0149  156.4528 H   0  0  0  0  0  0  0  0  0  0  0  0
  151.1274  142.5283  155.6495 H   0  0  0  0  0  0  0  0  0  0  0  0
  151.6863  142.4626  158.8564 H   0  0  0  0  0  0  0  0  0  0  0  0
  152.0271  143.7182  156.7763 H   0  0  0  0  0  0  0  0  0  0  0  0
  150.7513  144.8347  157.1903 H   0  0  0  0  0  0  0  0  0  0  0  0
  153.3772  144.4444  158.7063 H   0  0  0  0  0  0  0  0  0  0  0  0
  152.9442  145.8310  157.7354 H   0  0  0  0  0  0  0  0  0  0  0  0
  152.6291  146.2814  160.1766 H   0  0  0  0  0  0  0  0  0  0  0  0
  151.1270  146.4279  159.2988 H   0  0  0  0  0  0  0  0  0  0  0  0
  152.0320  144.0261  160.9555 H   0  0  0  0  0  0  0  0  0  0  0  0
  150.7613  145.1379  161.3849 H   0  0  0  0  0  0  0  0  0  0  0  0
  149.9515  142.9506  160.4548 H   0  0  0  0  0  0  0  0  0  0  0  0
  149.1334  145.1952  158.6861 H   0  0  0  0  0  0  0  0  0  0  0  0
  147.2215  145.8086  158.7106 H   0  0  0  0  0  0  0  0  0  0  0  0
  145.0447  144.3258  159.5591 H   0  0  0  0  0  0  0  0  0  0  0  0
  145.4446  145.3278  160.9354 H   0  0  0  0  0  0  0  0  0  0  0  0
  144.8075  146.3381  158.0991 H   0  0  0  0  0  0  0  0  0  0  0  0
  143.7521  146.4642  159.4889 H   0  0  0  0  0  0  0  0  0  0  0  0
  146.8476  151.6643  159.8081 H   0  0  0  0  0  0  0  0  0  0  0  0
  145.2889  151.6311  160.6480 H   0  0  0  0  0  0  0  0  0  0  0  0
  145.3457  151.5840  158.8791 H   0  0  0  0  0  0  0  0  0  0  0  0
  1  2  1  0  0  0  0
  1 21  1  0  0  0  0
  1 22  1  0  0  0  0
  1 23  1  0  0  0  0
  2  3  1  0  0  0  0
  3  8  1  0  0  0  0
  3  4  1  0  0  0  0
  3 24  1  0  0  0  0
  4  5  1  0  0  0  0
  4 25  1  0  0  0  0
  4 26  1  0  0  0  0
  5  6  1  0  0  0  0
  5 27  1  0  0  0  0
  5 28  1  0  0  0  0
  6  7  1  0  0  0  0
  6 29  1  0  0  0  0
  6 30  1  0  0  0  0
  7  8  1  0  0  0  0
  7 31  1  0  0  0  0
  7 32  1  0  0  0  0
  8  9  1  0  0  0  0
  8 33  1  0  0  0  0
  9 10  1  0  0  0  0
  9 34  1  0  0  0  0
 10 11  2  0  0  0  0
 10 12  1  0  0  0  0
 12 13  1  0  0  0  0
 12 35  1  0  0  0  0
 13 14  1  0  0  0  0
 13 36  1  0  0  0  0
 13 37  1  0  0  0  0
 14 15  1  0  0  0  0
 14 38  1  0  0  0  0
 14 39  1  0  0  0  0
 15 20  1  0  0  0  0
 15 16  2  0  0  0  0
 16 17  1  0  0  0  0
 17 18  1  0  0  0  0
 17 19  2  0  0  0  0
 18 40  1  0  0  0  0
 18 41  1  0  0  0  0
 18 42  1  0  0  0  0
 19 20  1  0  0  0  0
M  END
> <s_m_source_file>
AV-unprocessed.smi

> <i_m_source_file_index>
2878

> <i_lp_mmshare_version>
43012

> <i_f3d_flags>
0

> <s_epik_input>
W0NIM11TW0NAQEhdMVtDSDJdW0NIMl1bQ0gyXVtDSDJdW0NASF0xW05IXUMoPU8pW05IXVtDSDJdW0NIMl1jMm5jKFtDSDNdKW5vMg==

> <s_epik_cmdline>
J2VwaWtfcHl0aG9uJywgJy1waCcsICc3LjAnLCAnLXRuJywgJzgnLCAnLW1hJywgJzIwMCcsICctbWV0YWxfYmluZGluZycsICctaW1hZScsICc8aW5maWxlLm1hZT4nLCAnLW9tYWUnLCAnPG91dGZpbGUubWFlPic=

> <r_lp_tautomer_probability>
1

> <r_epik_Ionization_Penalty>
4.9299e-05

> <r_epik_Ionization_Penalty_Charging>
0

> <r_epik_Ionization_Penalty_Neutral>
4.9299e-05

> <r_epik_State_Penalty>
-0

> <r_epik_Charging_Adjusted_Penalty>
0

> <i_epik_Tot_Q>
0

> <i_epik_Tot_abs_Q>
0

> <r_epik_Metal_State_Penalty>
-0

> <b_epik_Metal_Only>
0

> <s_lp_Force_Field>
OPLS_2005

> <r_lp_Energy>
0.0435146

> <b_lp_Chiralities_Consistent>
1

> <s_lp_Variant>
AV-unprocessed.smi:2878-2

> <Gold.Version>
5.8.1

> <Gold.Id.Protein>
6NUR|6NUR_protein|mol2

> <Gold.PLP.Fitness>
54.4735

> <Gold.PLP.PLP>
-46.5831

> <Gold.PLP.part.hbond>
-8.1492

> <Gold.PLP.part.metal>
0.0000

> <Gold.PLP.part.buried>
-6.6098

> <Gold.PLP.part.nonpolar>
-33.7854

> <Gold.PLP.part.repulsive>
0.6830

> <Gold.PLP.ligand.clash>
0.0000

> <Gold.PLP.ligand.torsion>
0.1829

> <Gold.PLP.Chemscore.Hbond>
2.7360

> <Gold.PLP.Chemscore.CHOScore>
0.0000

> <Gold.PLP.Chemscore.Metal>
0.0000

> <Gold.Chemscore.Hbonds>
donor molecule, donor type, donor heavy atom, donor atom, acceptor molecule, acceptor atom, score
      L1  H     9    34       P1  8029  0.70
      L1  H    12    35       P1  8029  0.98
      P1  H  6933  6944       L1    11  1.00

> <Gold.PLP.Chemscore.Internal.Correction>
0.0482

> <Gold.Rescore>
     Score         DG    S(hbond)    S(metal)    S(lipo)     H(rot)  DE(clash)    DE(int)     intcor
     17.50     -20.67       3.02        0.00      89.39       2.09       1.67       1.51       ----

> <Gold.Chemscore.Fitness>
17.4995

> <Gold.Chemscore.DG>
-20.6737

> <Gold.Chemscore.ZeroCoef>
-5.4800

> <Gold.Chemscore.Hbond>
3.0214

> <Gold.Chemscore.Metal>
0.0000

> <Gold.Chemscore.Lipo>
89.3879

> <Gold.Chemscore.Internal_Hbond>
0.0000

> <Gold.Chemscore.DEClash>
1.6683

> <Gold.Chemscore.DEInternal>
1.5059

> <Gold.Chemscore.Rot>
2.0923

> <Gold.Chemscore.Internal.Correction>
   9.000000E+99

> <Gold.Chemscore.Hbonds>
donor molecule, donor type, donor heavy atom, donor atom, acceptor molecule, acceptor atom, score
      L1  H     9    34       P1  8029  0.64
      L1  H    12    35       P1  8029  0.90
      P1  H  6933  6944       L1    11  0.99

> <Gold.Chemscore.Hbond.Weighted>
-10.0916

> <Gold.Chemscore.Metal.Weighted>
-0.0000

> <Gold.Chemscore.Lipo.Weighted>
-10.4584

> <Gold.Chemscore.Internal_Hbond.Weighted>
0.0000

> <Gold.Chemscore.DEClash.Weighted>
1.6683

> <Gold.Chemscore.DEInternal.Weighted>
1.5059

> <Gold.Chemscore.Rot.Weighted>
5.3562

> <Gold.Chemscore.Internal.Correction.Weighted>
   9.000000E+99

> <Gold.Protein.RotatedTorsions>
[ 6907 6896 6895 6894 ] final  -13.23 input  -60.11 | X-H torsion
[ 7974 7965 7964 7962 ] final  -92.91 input  175.53 | X-H torsion
[ 8008 7997 7996 7995 ] final   15.00 input   59.86 | X-H torsion
[ 10167 10162 10161 10158 ] final   85.47 input  -65.29 | X-H torsion
[ 10718 10713 10712 10709 ] final -166.16 input   66.30 | X-H torsion
[ 10763 10752 10751 10750 ] final   46.32 input  -60.55 | X-H torsion
[ 11005 11000 10999 10996 ] final  -39.25 input  -57.11 | X-H torsion

> <Gold.Protein.ActiveResidues>
 VAL166  LYS551  ARG553  GLY616  TRP617  ASP618  TYR619  PRO620  LYS621  CYS622 
 ASP623  PHE694  ASN695  SER759  ASP760  ASP761  ALA762  ILE779  LEU786  VAL792 
 PHE793  MET794  SER795  GLU796  ALA797  LYS798  CYS799  TRP800  GLU811  SER814 

> <Gold.Protein.RotatedAtoms>
  151.3581  135.0898  159.9425 H   0  0  0  0  0  0  0  0  0  0  0  0  # atno 6907 bound_to 6896
  152.5169  133.9285  159.7579 H   0  0  0  0  0  0  0  0  0  0  0  0  # atno 6908 bound_to 6896
  150.9674  133.6326  159.2773 H   0  0  0  0  0  0  0  0  0  0  0  0  # atno 6909 bound_to 6896
  145.3935  140.9530  143.2327 H   0  0  0  0  0  0  0  0  0  0  0  0  # atno 7974 bound_to 7965
  154.8564  140.2937  155.5566 H   0  0  0  0  0  0  0  0  0  0  0  0  # atno 8008 bound_to 7997
  156.3018  140.2486  156.3463 H   0  0  0  0  0  0  0  0  0  0  0  0  # atno 8009 bound_to 7997
  154.8966  140.0393  157.1858 H   0  0  0  0  0  0  0  0  0  0  0  0  # atno 8010 bound_to 7997
  139.8974  144.6350  150.8673 H   0  0  0  0  0  0  0  0  0  0  0  0  # atno 10167 bound_to 10162
  156.6638  130.9056  151.3033 H   0  0  0  0  0  0  0  0  0  0  0  0  # atno 10718 bound_to 10713
  152.9812  135.6012  154.3581 H   0  0  0  0  0  0  0  0  0  0  0  0  # atno 10763 bound_to 10752
  154.3265  135.2769  155.2495 H   0  0  0  0  0  0  0  0  0  0  0  0  # atno 10764 bound_to 10752
  154.4639  135.5959  153.6330 H   0  0  0  0  0  0  0  0  0  0  0  0  # atno 10765 bound_to 10752
  141.0088  133.6918  156.2162 H   0  0  0  0  0  0  0  0  0  0  0  0  # atno 11005 bound_to 11000
  144.8423  139.5452  143.6894 LP  0  0  0  0  0  0  0  0  0  0  0  0  # atno 17320 bound_to 7965
  146.2786  139.6818  142.9245 LP  0  0  0  0  0  0  0  0  0  0  0  0  # atno 17321 bound_to 7965
  140.7714  143.3463  151.2105 LP  0  0  0  0  0  0  0  0  0  0  0  0  # atno 17342 bound_to 10162
  139.7055  143.9462  152.2925 LP  0  0  0  0  0  0  0  0  0  0  0  0  # atno 17343 bound_to 10162
  157.7100  130.9430  150.1059 LP  0  0  0  0  0  0  0  0  0  0  0  0  # atno 17370 bound_to 10713
  156.1990  130.3659  149.8812 LP  0  0  0  0  0  0  0  0  0  0  0  0  # atno 17371 bound_to 10713
  140.6768  134.4809  157.5588 LP  0  0  0  0  0  0  0  0  0  0  0  0  # atno 17394 bound_to 11000
  139.9078  134.8410  156.1640 LP  0  0  0  0  0  0  0  0  0  0  0  0  # atno 17395 bound_to 11000

$$$$
