AV-unprocessed.smi:1680|AV-procd|sdf|6737|dock3
  -GOLD-   22720 7483D 1   1.00000     0.00000
 Structure written by MMmdl.
 38 39  0  0  0  0  0  0  0  0  1 V2000
  152.1047  144.6239  158.3829 C   0  0  0  0  0  0  0  0  0  0  0  0
  152.4722  143.2155  158.8547 C   0  0  0  0  0  0  0  0  0  0  0  0
  153.4517  143.0890  159.5896 O   0  0  0  0  0  0  0  0  0  0  0  0
  151.7181  142.1653  158.4518 N   0  0  0  0  0  0  0  0  0  0  0  0
  151.9744  140.7541  158.7569 C   0  0  0  0  0  0  0  0  0  0  0  0
  152.2824  140.0085  157.4439 C   0  0  0  0  0  0  0  0  0  0  0  0
  151.1531  140.1294  156.5178 N   0  0  0  0  0  0  0  0  0  0  0  0
  151.4431  139.3829  155.2933 C   0  0  0  0  0  0  0  0  0  0  0  0
  150.2135  139.2247  154.3745 C   0  0  0  0  0  0  0  0  0  0  0  0
  149.9080  137.8205  154.1169 N   0  0  0  0  0  0  0  0  0  0  0  0
  150.0359  136.8236  155.0052 C   0  0  0  0  0  0  0  0  0  0  0  0
  150.3966  136.9922  156.1704 O   0  0  0  0  0  0  0  0  0  0  0  0
  149.7255  135.6380  154.4518 N   0  0  0  0  0  0  0  0  0  0  0  0
  149.7772  134.3494  155.0459 C   0  0  0  0  0  0  0  0  0  0  0  0
  150.0444  134.1376  156.3442 N   0  0  0  0  0  0  0  0  0  0  0  0
  150.0379  132.7857  156.6624 N   0  0  0  0  0  0  0  0  0  0  0  0
  149.7676  132.0320  155.5929 C   0  0  0  0  0  0  0  0  0  0  0  0
  149.4902  132.9003  154.0931 S   0  0  0  0  0  0  0  0  0  0  0  0
  150.8863  141.5451  156.2352 C   0  0  0  0  0  0  0  0  0  0  0  0
  150.5750  142.2962  157.5439 C   0  0  0  0  0  0  0  0  0  0  0  0
  151.1064  144.8977  158.7253 H   0  0  0  0  0  0  0  0  0  0  0  0
  152.1386  144.6882  157.2948 H   0  0  0  0  0  0  0  0  0  0  0  0
  152.8059  145.3579  158.7814 H   0  0  0  0  0  0  0  0  0  0  0  0
  152.7932  140.6010  159.4582 H   0  0  0  0  0  0  0  0  0  0  0  0
  151.0925  140.3247  159.2355 H   0  0  0  0  0  0  0  0  0  0  0  0
  153.1901  140.4053  156.9859 H   0  0  0  0  0  0  0  0  0  0  0  0
  152.4651  138.9555  157.6614 H   0  0  0  0  0  0  0  0  0  0  0  0
  152.2594  139.8648  154.7534 H   0  0  0  0  0  0  0  0  0  0  0  0
  151.7964  138.3850  155.5573 H   0  0  0  0  0  0  0  0  0  0  0  0
  149.3434  139.7594  154.7564 H   0  0  0  0  0  0  0  0  0  0  0  0
  150.4366  139.6852  153.4120 H   0  0  0  0  0  0  0  0  0  0  0  0
  149.6028  137.5884  153.1831 H   0  0  0  0  0  0  0  0  0  0  0  0
  149.4394  135.6566  153.4842 H   0  0  0  0  0  0  0  0  0  0  0  0
  149.7305  130.9569  155.6882 H   0  0  0  0  0  0  0  0  0  0  0  0
  151.7446  141.9974  155.7358 H   0  0  0  0  0  0  0  0  0  0  0  0
  150.0353  141.6460  155.5632 H   0  0  0  0  0  0  0  0  0  0  0  0
  149.6849  141.8784  158.0170 H   0  0  0  0  0  0  0  0  0  0  0  0
  150.3339  143.3357  157.3174 H   0  0  0  0  0  0  0  0  0  0  0  0
  1  2  1  0  0  0  0
  1 21  1  0  0  0  0
  1 22  1  0  0  0  0
  1 23  1  0  0  0  0
  2  3  2  0  0  0  0
  2  4  1  0  0  0  0
  4 20  1  0  0  0  0
  4  5  1  0  0  0  0
  5  6  1  0  0  0  0
  5 24  1  0  0  0  0
  5 25  1  0  0  0  0
  6  7  1  0  0  0  0
  6 26  1  0  0  0  0
  6 27  1  0  0  0  0
  7  8  1  0  0  0  0
  7 19  1  0  0  0  0
  8  9  1  0  0  0  0
  8 28  1  0  0  0  0
  8 29  1  0  0  0  0
  9 10  1  0  0  0  0
  9 30  1  0  0  0  0
  9 31  1  0  0  0  0
 10 11  1  0  0  0  0
 10 32  1  0  0  0  0
 11 12  2  0  0  0  0
 11 13  1  0  0  0  0
 13 14  1  0  0  0  0
 13 33  1  0  0  0  0
 14 18  1  0  0  0  0
 14 15  2  0  0  0  0
 15 16  1  0  0  0  0
 16 17  2  0  0  0  0
 17 18  1  0  0  0  0
 17 34  1  0  0  0  0
 19 20  1  0  0  0  0
 19 35  1  0  0  0  0
 19 36  1  0  0  0  0
 20 37  1  0  0  0  0
 20 38  1  0  0  0  0
M  END
> <s_m_source_file>
AV-unprocessed.smi

> <i_m_source_file_index>
1680

> <i_lp_mmshare_version>
43012

> <i_f3d_flags>
0

> <s_epik_input>
W0NIM11DKD1PKU4xW0NIMl1bQ0gyXU4oW0NIMl1bQ0gyXTEpW0NIMl1bQ0gyXVtOSF1DKD1PKVtOSF1jMm5uW2NIXXMy

> <s_epik_cmdline>
J2VwaWtfcHl0aG9uJywgJy1waCcsICc3LjAnLCAnLXRuJywgJzgnLCAnLW1hJywgJzIwMCcsICctbWV0YWxfYmluZGluZycsICctaW1hZScsICc8aW5maWxlLm1hZT4nLCAnLW9tYWUnLCAnPG91dGZpbGUubWFlPic=

> <r_lp_tautomer_probability>
1

> <r_epik_Ionization_Penalty>
0.229992

> <r_epik_Ionization_Penalty_Charging>
0

> <r_epik_Ionization_Penalty_Neutral>
0.229992

> <r_epik_State_Penalty>
0.219013

> <r_epik_Charging_Adjusted_Penalty>
0.219013

> <i_epik_Tot_Q>
0

> <i_epik_Tot_abs_Q>
0

> <r_epik_Metal_State_Penalty>
0.556868

> <b_epik_Metal_Only>
0

> <s_lp_Force_Field>
OPLS_2005

> <r_lp_Energy>
36.5244

> <b_lp_Chiralities_Consistent>
1

> <s_lp_Variant>
AV-unprocessed.smi:1680-1

> <Gold.Version>
5.8.1

> <Gold.Id.Protein>
6NUR|6NUR_protein|mol2

> <Gold.PLP.Fitness>
42.3127

> <Gold.PLP.PLP>
-37.5045

> <Gold.PLP.part.hbond>
-2.1555

> <Gold.PLP.part.metal>
0.0000

> <Gold.PLP.part.buried>
-4.9185

> <Gold.PLP.part.nonpolar>
-30.9024

> <Gold.PLP.part.repulsive>
0.1093

> <Gold.PLP.ligand.clash>
0.0000

> <Gold.PLP.ligand.torsion>
0.6049

> <Gold.PLP.Chemscore.Hbond>
2.0000

> <Gold.PLP.Chemscore.CHOScore>
0.0000

> <Gold.PLP.Chemscore.Metal>
0.0000

> <Gold.Chemscore.Hbonds>
donor molecule, donor type, donor heavy atom, donor atom, acceptor molecule, acceptor atom, score
      L1  H    10    32       P1  7948  1.00
      L1  H    13    33       P1  7948  1.00

> <Gold.PLP.Chemscore.Internal.Correction>
0.0179

> <Gold.Rescore>
     Score         DG    S(hbond)    S(metal)    S(lipo)     H(rot)  DE(clash)    DE(int)     intcor
     11.40     -14.67       1.88        0.00      64.14       1.79       0.00       3.27       ----

> <Gold.Chemscore.Fitness>
11.3974

> <Gold.Chemscore.DG>
-14.6697

> <Gold.Chemscore.ZeroCoef>
-5.4800

> <Gold.Chemscore.Hbond>
1.8785

> <Gold.Chemscore.Metal>
0.0000

> <Gold.Chemscore.Lipo>
64.1398

> <Gold.Chemscore.Internal_Hbond>
0.0000

> <Gold.Chemscore.DEClash>
0.0000

> <Gold.Chemscore.DEInternal>
3.2722

> <Gold.Chemscore.Rot>
1.7926

> <Gold.Chemscore.Internal.Correction>
   9.000000E+99

> <Gold.Chemscore.Hbonds>
donor molecule, donor type, donor heavy atom, donor atom, acceptor molecule, acceptor atom, score
      L1  H    10    32       P1  7948  0.73
      L1  H    13    33       P1  7948  0.26

> <Gold.Chemscore.Hbond.Weighted>
-6.2743

> <Gold.Chemscore.Metal.Weighted>
-0.0000

> <Gold.Chemscore.Lipo.Weighted>
-7.5044

> <Gold.Chemscore.Internal_Hbond.Weighted>
0.0000

> <Gold.Chemscore.DEClash.Weighted>
0.0000

> <Gold.Chemscore.DEInternal.Weighted>
3.2722

> <Gold.Chemscore.Rot.Weighted>
4.5890

> <Gold.Chemscore.Internal.Correction.Weighted>
   9.000000E+99

> <Gold.Protein.RotatedTorsions>
[ 6907 6896 6895 6894 ] final -133.91 input  -60.11 | X-H torsion
[ 7974 7965 7964 7962 ] final  -84.14 input  175.53 | X-H torsion
[ 8008 7997 7996 7995 ] final   15.82 input   59.86 | X-H torsion
[ 10167 10162 10161 10158 ] final   41.65 input  -65.29 | X-H torsion
[ 10718 10713 10712 10709 ] final -159.81 input   66.30 | X-H torsion
[ 10763 10752 10751 10750 ] final  127.02 input  -60.55 | X-H torsion
[ 11005 11000 10999 10996 ] final -178.57 input  -57.11 | X-H torsion

> <Gold.Protein.ActiveResidues>
 VAL166  LYS551  ARG553  GLY616  TRP617  ASP618  TYR619  PRO620  LYS621  CYS622 
 ASP623  PHE694  ASN695  SER759  ASP760  ASP761  ALA762  ILE779  LEU786  VAL792 
 PHE793  MET794  SER795  GLU796  ALA797  LYS798  CYS799  TRP800  GLU811  SER814 

> <Gold.Protein.RotatedAtoms>
  150.9796  133.6259  159.2724 H   0  0  0  0  0  0  0  0  0  0  0  0  # atno 6907 bound_to 6896
  151.3519  135.0885  159.9415 H   0  0  0  0  0  0  0  0  0  0  0  0  # atno 6908 bound_to 6896
  152.5211  133.9386  159.7670 H   0  0  0  0  0  0  0  0  0  0  0  0  # atno 6909 bound_to 6896
  145.5106  140.9540  143.1709 H   0  0  0  0  0  0  0  0  0  0  0  0  # atno 7974 bound_to 7965
  154.8682  140.2954  155.5497 H   0  0  0  0  0  0  0  0  0  0  0  0  # atno 8008 bound_to 7997
  156.3021  140.2465  156.3599 H   0  0  0  0  0  0  0  0  0  0  0  0  # atno 8009 bound_to 7997
  154.8846  140.0396  157.1791 H   0  0  0  0  0  0  0  0  0  0  0  0  # atno 8010 bound_to 7997
  140.3622  144.2213  150.6137 H   0  0  0  0  0  0  0  0  0  0  0  0  # atno 10167 bound_to 10162
  156.5733  130.8698  151.2844 H   0  0  0  0  0  0  0  0  0  0  0  0  # atno 10718 bound_to 10713
  153.7026  135.3281  155.3228 H   0  0  0  0  0  0  0  0  0  0  0  0  # atno 10763 bound_to 10752
  154.8408  135.4458  154.1395 H   0  0  0  0  0  0  0  0  0  0  0  0  # atno 10764 bound_to 10752
  153.2467  135.6977  153.7802 H   0  0  0  0  0  0  0  0  0  0  0  0  # atno 10765 bound_to 10752
  140.4283  134.6543  157.4699 H   0  0  0  0  0  0  0  0  0  0  0  0  # atno 11005 bound_to 11000
  144.7729  139.6693  143.7187 LP  0  0  0  0  0  0  0  0  0  0  0  0  # atno 17320 bound_to 7965
  146.2169  139.5565  142.9644 LP  0  0  0  0  0  0  0  0  0  0  0  0  # atno 17321 bound_to 7965
  140.5116  143.2289  151.8527 LP  0  0  0  0  0  0  0  0  0  0  0  0  # atno 17342 bound_to 10162
  139.4813  144.4943  151.9144 LP  0  0  0  0  0  0  0  0  0  0  0  0  # atno 17343 bound_to 10162
  157.7343  130.9744  150.2023 LP  0  0  0  0  0  0  0  0  0  0  0  0  # atno 17370 bound_to 10713
  156.2695  130.3720  149.8046 LP  0  0  0  0  0  0  0  0  0  0  0  0  # atno 17371 bound_to 10713
  140.0152  134.6630  155.9320 LP  0  0  0  0  0  0  0  0  0  0  0  0  # atno 17394 bound_to 11000
  141.1756  133.6540  156.4817 LP  0  0  0  0  0  0  0  0  0  0  0  0  # atno 17395 bound_to 11000

$$$$
