AV-unprocessed.smi:1041|AV-procd|sdf|4535|dock8
  -GOLD-   22720 2563D 1   1.00000     0.00000
 Structure written by MMmdl.
 51 52  0  0  0  0  0  0  0  0  2 V2000
  149.5814  144.9928  160.2829 C   0  0  0  0  0  0  0  0  0  0  0  0
  150.5862  144.1856  160.8706 O   0  0  0  0  0  0  0  0  0  0  0  0
  151.8924  144.6882  160.6390 C   0  0  0  0  0  0  0  0  0  0  0  0
  152.2500  144.5796  159.1469 C   0  0  0  0  0  0  0  0  0  0  0  0
  152.1491  143.2396  158.5651 N   0  0  0  0  0  0  0  0  0  0  0  0
  150.7664  142.8539  158.2718 C   0  0  0  0  0  0  0  0  0  0  0  0
  150.6631  141.4616  157.6258 C   0  0  0  0  0  0  0  0  0  0  0  0
  151.3149  140.3887  158.5163 C   0  0  0  0  0  0  0  0  0  0  0  0
  151.2598  138.9987  157.8563 C   0  0  0  0  0  0  0  0  0  0  0  0
  149.9258  138.4230  157.9551 N   0  0  0  0  0  0  0  0  0  0  0  0
  149.5991  137.3777  158.7275 C   0  0  0  0  0  0  0  0  0  0  0  0
  150.4120  136.7706  159.4242 O   0  0  0  0  0  0  0  0  0  0  0  0
  148.1268  136.9629  158.7193 C   0  0  0  0  0  0  0  0  0  0  0  0
  147.7679  135.7973  159.6400 C   0  0  0  0  0  0  0  0  0  0  0  0
  147.6001  134.5188  159.1939 C   0  0  0  0  0  0  0  0  0  0  0  0
  147.7414  134.1254  157.7330 C   0  0  0  0  0  0  0  0  0  0  0  0
  147.2804  133.4757  160.0797 N   0  0  0  0  0  0  0  0  0  0  0  0
  147.1477  133.7267  161.3263 C   0  0  0  0  0  0  0  0  0  0  0  0
  146.8072  132.5983  162.2761 C   0  0  0  0  0  0  0  0  0  0  0  0
  147.2991  134.9787  161.8782 N   0  5  0  0  0  0  0  0  0  0  0  0
  147.5993  136.0454  161.0836 C   0  0  0  0  0  0  0  0  0  0  0  0
  147.7254  137.1815  161.5387 O   0  0  0  0  0  0  0  0  0  0  0  0
  152.7520  140.8315  158.8609 C   0  0  0  0  0  0  0  0  0  0  0  0
  152.7574  142.2499  159.4546 C   0  0  0  0  0  0  0  0  0  0  0  0
  148.5998  144.5725  160.5009 H   0  0  0  0  0  0  0  0  0  0  0  0
  149.6954  145.0355  159.1991 H   0  0  0  0  0  0  0  0  0  0  0  0
  149.6084  146.0086  160.6789 H   0  0  0  0  0  0  0  0  0  0  0  0
  151.9818  145.7218  160.9782 H   0  0  0  0  0  0  0  0  0  0  0  0
  152.6005  144.0957  161.2205 H   0  0  0  0  0  0  0  0  0  0  0  0
  151.5583  145.2314  158.6117 H   0  0  0  0  0  0  0  0  0  0  0  0
  153.2430  144.9968  158.9721 H   0  0  0  0  0  0  0  0  0  0  0  0
  150.1720  142.8793  159.1865 H   0  0  0  0  0  0  0  0  0  0  0  0
  150.3152  143.5701  157.5869 H   0  0  0  0  0  0  0  0  0  0  0  0
  149.6158  141.2162  157.4469 H   0  0  0  0  0  0  0  0  0  0  0  0
  151.1488  141.4785  156.6492 H   0  0  0  0  0  0  0  0  0  0  0  0
  150.7454  140.3401  159.4461 H   0  0  0  0  0  0  0  0  0  0  0  0
  151.5352  139.0737  156.8032 H   0  0  0  0  0  0  0  0  0  0  0  0
  151.9804  138.3286  158.3287 H   0  0  0  0  0  0  0  0  0  0  0  0
  149.1948  138.8634  157.4159 H   0  0  0  0  0  0  0  0  0  0  0  0
  147.5106  137.8183  158.9988 H   0  0  0  0  0  0  0  0  0  0  0  0
  147.8421  136.7505  157.6886 H   0  0  0  0  0  0  0  0  0  0  0  0
  146.9981  134.6393  157.1238 H   0  0  0  0  0  0  0  0  0  0  0  0
  147.5962  133.0530  157.5983 H   0  0  0  0  0  0  0  0  0  0  0  0
  148.7335  134.3764  157.3585 H   0  0  0  0  0  0  0  0  0  0  0  0
  146.0172  132.9022  162.9636 H   0  0  0  0  0  0  0  0  0  0  0  0
  147.6856  132.3202  162.8592 H   0  0  0  0  0  0  0  0  0  0  0  0
  146.4629  131.7182  161.7317 H   0  0  0  0  0  0  0  0  0  0  0  0
  153.2070  140.1411  159.5715 H   0  0  0  0  0  0  0  0  0  0  0  0
  153.3740  140.8083  157.9649 H   0  0  0  0  0  0  0  0  0  0  0  0
  153.7885  142.5336  159.6684 H   0  0  0  0  0  0  0  0  0  0  0  0
  152.2356  142.2443  160.4130 H   0  0  0  0  0  0  0  0  0  0  0  0
  1  2  1  0  0  0  0
  1 25  1  0  0  0  0
  1 26  1  0  0  0  0
  1 27  1  0  0  0  0
  2  3  1  0  0  0  0
  3  4  1  0  0  0  0
  3 28  1  0  0  0  0
  3 29  1  0  0  0  0
  4  5  1  0  0  0  0
  4 30  1  0  0  0  0
  4 31  1  0  0  0  0
  5 24  1  0  0  0  0
  5  6  1  0  0  0  0
  6  7  1  0  0  0  0
  6 32  1  0  0  0  0
  6 33  1  0  0  0  0
  7  8  1  0  0  0  0
  7 34  1  0  0  0  0
  7 35  1  0  0  0  0
  8  9  1  0  0  0  0
  8 23  1  0  0  0  0
  8 36  1  0  0  0  0
  9 10  1  0  0  0  0
  9 37  1  0  0  0  0
  9 38  1  0  0  0  0
 10 11  1  0  0  0  0
 10 39  1  0  0  0  0
 11 12  2  0  0  0  0
 11 13  1  0  0  0  0
 13 14  1  0  0  0  0
 13 40  1  0  0  0  0
 13 41  1  0  0  0  0
 14 21  1  0  0  0  0
 14 15  2  0  0  0  0
 15 16  1  0  0  0  0
 15 17  1  0  0  0  0
 16 42  1  0  0  0  0
 16 43  1  0  0  0  0
 16 44  1  0  0  0  0
 17 18  2  0  0  0  0
 18 19  1  0  0  0  0
 18 20  1  0  0  0  0
 19 45  1  0  0  0  0
 19 46  1  0  0  0  0
 19 47  1  0  0  0  0
 20 21  1  0  0  0  0
 21 22  2  0  0  0  0
 23 24  1  0  0  0  0
 23 48  1  0  0  0  0
 23 49  1  0  0  0  0
 24 50  1  0  0  0  0
 24 51  1  0  0  0  0
M  CHG  1  20  -1
M  END
> <s_m_source_file>
AV-unprocessed.smi

> <i_m_source_file_index>
1041

> <i_lp_mmshare_version>
43012

> <i_f3d_flags>
0

> <s_epik_input>
W0NIM11PW0NIMl1bQ0gyXU4xW0NIMl1bQ0gyXVtDSF0oW0NIMl1bQ0gyXTEpW0NIMl1bTkhdQyg9TylbQ0gyXWMyYyhbQ0gzXSluYyhbQ0gzXSlbbkhdYzI9Tw==

> <s_epik_cmdline>
J2VwaWtfcHl0aG9uJywgJy1waCcsICc3LjAnLCAnLXRuJywgJzgnLCAnLW1hJywgJzIwMCcsICctbWV0YWxfYmluZGluZycsICctaW1hZScsICc8aW5maWxlLm1hZT4nLCAnLW9tYWUnLCAnPG91dGZpbGUubWFlPic=

> <r_lp_tautomer_probability>
0.839158

> <r_epik_Ionization_Penalty>
9.04559

> <r_epik_Ionization_Penalty_Charging>
6.70107e-08

> <r_epik_Ionization_Penalty_Neutral>
9.04559

> <r_epik_State_Penalty>
7.10582

> <r_epik_Charging_Adjusted_Penalty>
7.10582

> <i_epik_Tot_Q>
-1

> <i_epik_Tot_abs_Q>
1

> <r_epik_Metal_State_Penalty>
3.46994

> <b_epik_Metal_Only>
1

> <s_lp_Force_Field>
OPLS_2005

> <r_lp_Energy>
32.0623

> <b_lp_Chiralities_Consistent>
1

> <s_lp_Variant>
AV-unprocessed.smi:1041-8

> <Gold.Version>
5.8.1

> <Gold.Id.Protein>
6NUR|6NUR_protein|mol2

> <Gold.PLP.Fitness>
48.1130

> <Gold.PLP.PLP>
-40.9892

> <Gold.PLP.part.hbond>
-3.6368

> <Gold.PLP.part.metal>
0.0000

> <Gold.PLP.part.buried>
-8.0332

> <Gold.PLP.part.nonpolar>
-30.1827

> <Gold.PLP.part.repulsive>
0.2618

> <Gold.PLP.ligand.clash>
0.0000

> <Gold.PLP.ligand.torsion>
0.6187

> <Gold.PLP.Chemscore.Hbond>
2.7680

> <Gold.PLP.Chemscore.CHOScore>
0.0000

> <Gold.PLP.Chemscore.Metal>
0.0000

> <Gold.Chemscore.Hbonds>
donor molecule, donor type, donor heavy atom, donor atom, acceptor molecule, acceptor atom, score
      P1  H  6896  6907       L1    12  1.00
      P1  H  6931  6943       L1    22  1.00
      P1  H  6934  6947       L1    22  0.75

> <Gold.PLP.Chemscore.Internal.Correction>
0.0573

> <Gold.Rescore>
     Score         DG    S(hbond)    S(metal)    S(lipo)     H(rot)  DE(clash)    DE(int)     intcor
     18.51     -19.26       2.78        0.00      88.31       2.28       0.07       0.69       ----

> <Gold.Chemscore.Fitness>
18.5101

> <Gold.Chemscore.DG>
-19.2607

> <Gold.Chemscore.ZeroCoef>
-5.4800

> <Gold.Chemscore.Hbond>
2.7813

> <Gold.Chemscore.Metal>
0.0000

> <Gold.Chemscore.Lipo>
88.3078

> <Gold.Chemscore.Internal_Hbond>
0.0000

> <Gold.Chemscore.DEClash>
0.0650

> <Gold.Chemscore.DEInternal>
0.6857

> <Gold.Chemscore.Rot>
2.2816

> <Gold.Chemscore.Internal.Correction>
   9.000000E+99

> <Gold.Chemscore.Hbonds>
donor molecule, donor type, donor heavy atom, donor atom, acceptor molecule, acceptor atom, score
      P1  H  6896  6907       L1    12  0.98
      P1  H  6931  6943       L1    22  0.95
      P1  H  6934  6947       L1    22  0.72

> <Gold.Chemscore.Hbond.Weighted>
-9.2897

> <Gold.Chemscore.Metal.Weighted>
-0.0000

> <Gold.Chemscore.Lipo.Weighted>
-10.3320

> <Gold.Chemscore.Internal_Hbond.Weighted>
0.0000

> <Gold.Chemscore.DEClash.Weighted>
0.0650

> <Gold.Chemscore.DEInternal.Weighted>
0.6857

> <Gold.Chemscore.Rot.Weighted>
5.8409

> <Gold.Chemscore.Internal.Correction.Weighted>
   9.000000E+99

> <Gold.Protein.RotatedTorsions>
[ 6907 6896 6895 6894 ] final  -44.45 input  -60.11 | X-H torsion
[ 7974 7965 7964 7962 ] final  -43.19 input  175.53 | X-H torsion
[ 8008 7997 7996 7995 ] final   36.52 input   59.86 | X-H torsion
[ 10167 10162 10161 10158 ] final -154.43 input  -65.29 | X-H torsion
[ 10718 10713 10712 10709 ] final -159.79 input   66.30 | X-H torsion
[ 10763 10752 10751 10750 ] final -141.22 input  -60.55 | X-H torsion
[ 11005 11000 10999 10996 ] final   56.36 input  -57.11 | X-H torsion

> <Gold.Protein.ActiveResidues>
 VAL166  LYS551  ARG553  GLY616  TRP617  ASP618  TYR619  PRO620  LYS621  CYS622 
 ASP623  PHE694  ASN695  SER759  ASP760  ASP761  ALA762  ILE779  LEU786  VAL792 
 PHE793  MET794  SER795  GLU796  ALA797  LYS798  CYS799  TRP800  GLU811  SER814 

> <Gold.Protein.RotatedAtoms>
  150.9327  134.8741  159.7561 H   0  0  0  0  0  0  0  0  0  0  0  0  # atno 6907 bound_to 6896
  152.5045  134.4056  159.9441 H   0  0  0  0  0  0  0  0  0  0  0  0  # atno 6908 bound_to 6896
  151.4082  133.3696  159.2775 H   0  0  0  0  0  0  0  0  0  0  0  0  # atno 6909 bound_to 6896
  146.0043  140.7038  142.9255 H   0  0  0  0  0  0  0  0  0  0  0  0  # atno 7974 bound_to 7965
  155.1888  140.3306  155.4362 H   0  0  0  0  0  0  0  0  0  0  0  0  # atno 8008 bound_to 7997
  156.2450  140.1914  156.6932 H   0  0  0  0  0  0  0  0  0  0  0  0  # atno 8009 bound_to 7997
  154.6220  140.0594  156.9613 H   0  0  0  0  0  0  0  0  0  0  0  0  # atno 8010 bound_to 7997
  139.7014  143.9256  152.2430 H   0  0  0  0  0  0  0  0  0  0  0  0  # atno 10167 bound_to 10162
  156.5731  130.8697  151.2843 H   0  0  0  0  0  0  0  0  0  0  0  0  # atno 10718 bound_to 10713
  154.8552  135.3530  154.5834 H   0  0  0  0  0  0  0  0  0  0  0  0  # atno 10763 bound_to 10752
  153.6444  135.6997  153.5235 H   0  0  0  0  0  0  0  0  0  0  0  0  # atno 10764 bound_to 10752
  153.2945  135.4225  155.1155 H   0  0  0  0  0  0  0  0  0  0  0  0  # atno 10765 bound_to 10752
  140.0535  134.5703  155.9235 H   0  0  0  0  0  0  0  0  0  0  0  0  # atno 11005 bound_to 11000
  144.6930  140.3288  143.7219 LP  0  0  0  0  0  0  0  0  0  0  0  0  # atno 17320 bound_to 7965
  145.7439  139.1773  143.2360 LP  0  0  0  0  0  0  0  0  0  0  0  0  # atno 17321 bound_to 7965
  139.9100  144.6862  150.8573 LP  0  0  0  0  0  0  0  0  0  0  0  0  # atno 17342 bound_to 10162
  140.7710  143.3450  151.2129 LP  0  0  0  0  0  0  0  0  0  0  0  0  # atno 17343 bound_to 10162
  157.7344  130.9745  150.2025 LP  0  0  0  0  0  0  0  0  0  0  0  0  # atno 17370 bound_to 10713
  156.2697  130.3720  149.8044 LP  0  0  0  0  0  0  0  0  0  0  0  0  # atno 17371 bound_to 10713
  141.1941  133.6581  156.5580 LP  0  0  0  0  0  0  0  0  0  0  0  0  # atno 17394 bound_to 11000
  140.3880  134.7465  157.4704 LP  0  0  0  0  0  0  0  0  0  0  0  0  # atno 17395 bound_to 11000

$$$$
