AV-unprocessed.smi:2129|AV-procd|sdf|8684|dock10
  -GOLD-   2272011433D 1   1.00000     0.00000
 Structure written by MMmdl.
 33 33  0  0  0  0  0  0  0  0  2 V2000
  151.5522  144.3998  160.6784 C   0  0  0  0  0  0  0  0  0  0  0  0
  152.1543  143.1136  161.2720 C   0  0  0  0  0  0  0  0  0  0  0  0
  152.8597  142.1678  160.2605 C   0  0  0  0  0  0  0  0  0  0  0  0
  153.6534  143.0008  159.2300 C   0  0  0  0  0  0  0  0  0  0  0  0
  153.8529  141.2483  160.9977 C   0  0  0  0  0  0  0  0  0  0  0  0
  151.8986  141.2958  159.5728 N   0  0  0  0  0  0  0  0  0  0  0  0
  152.1432  140.1900  158.8477 C   0  0  0  0  0  0  0  0  0  0  0  0
  153.2659  139.7127  158.6801 O   0  0  0  0  0  0  0  0  0  0  0  0
  150.9139  139.5091  158.2327 C   0  0  0  0  0  0  0  0  0  0  0  0
  150.6456  139.9628  156.8588 N   0  0  0  0  0  0  0  0  0  0  0  0
  149.4640  140.6885  156.6263 C   0  0  0  0  0  0  0  0  0  0  0  0
  149.1367  141.1388  155.4001 C   0  0  0  0  0  0  0  0  0  0  0  0
  150.0449  140.8558  154.2955 C   0  0  0  0  0  0  0  0  0  0  0  0
  149.7642  141.2626  153.1698 O   0  0  0  0  0  0  0  0  0  0  0  0
  151.1769  140.1443  154.5710 N   0  5  0  0  0  0  0  0  0  0  0  0
  151.4965  139.6918  155.8231 C   0  0  0  0  0  0  0  0  0  0  0  0
  152.5238  139.0513  156.0498 O   0  0  0  0  0  0  0  0  0  0  0  0
  151.0912  145.0008  161.4620 H   0  0  0  0  0  0  0  0  0  0  0  0
  150.7806  144.1831  159.9404 H   0  0  0  0  0  0  0  0  0  0  0  0
  152.3109  145.0203  160.2011 H   0  0  0  0  0  0  0  0  0  0  0  0
  152.8546  143.4000  162.0572 H   0  0  0  0  0  0  0  0  0  0  0  0
  151.3631  142.5640  161.7836 H   0  0  0  0  0  0  0  0  0  0  0  0
  154.4392  143.5804  159.7157 H   0  0  0  0  0  0  0  0  0  0  0  0
  153.0192  143.7094  158.6972 H   0  0  0  0  0  0  0  0  0  0  0  0
  154.1308  142.3633  158.4848 H   0  0  0  0  0  0  0  0  0  0  0  0
  154.5828  141.8259  161.5658 H   0  0  0  0  0  0  0  0  0  0  0  0
  154.4068  140.6217  160.2974 H   0  0  0  0  0  0  0  0  0  0  0  0
  153.3488  140.5790  161.6952 H   0  0  0  0  0  0  0  0  0  0  0  0
  150.9328  141.5831  159.6343 H   0  0  0  0  0  0  0  0  0  0  0  0
  151.0770  138.4311  158.2562 H   0  0  0  0  0  0  0  0  0  0  0  0
  150.0364  139.6803  158.8593 H   0  0  0  0  0  0  0  0  0  0  0  0
  148.8437  140.8494  157.4958 H   0  0  0  0  0  0  0  0  0  0  0  0
  148.2240  141.6929  155.2376 H   0  0  0  0  0  0  0  0  0  0  0  0
  1  2  1  0  0  0  0
  1 18  1  0  0  0  0
  1 19  1  0  0  0  0
  1 20  1  0  0  0  0
  2  3  1  0  0  0  0
  2 21  1  0  0  0  0
  2 22  1  0  0  0  0
  3  4  1  0  0  0  0
  3  5  1  0  0  0  0
  3  6  1  0  0  0  0
  4 23  1  0  0  0  0
  4 24  1  0  0  0  0
  4 25  1  0  0  0  0
  5 26  1  0  0  0  0
  5 27  1  0  0  0  0
  5 28  1  0  0  0  0
  6  7  1  0  0  0  0
  6 29  1  0  0  0  0
  7  8  2  0  0  0  0
  7  9  1  0  0  0  0
  9 10  1  0  0  0  0
  9 30  1  0  0  0  0
  9 31  1  0  0  0  0
 10 16  1  0  0  0  0
 10 11  1  0  0  0  0
 11 12  2  0  0  0  0
 11 32  1  0  0  0  0
 12 13  1  0  0  0  0
 12 33  1  0  0  0  0
 13 14  2  0  0  0  0
 13 15  1  0  0  0  0
 15 16  1  0  0  0  0
 16 17  2  0  0  0  0
M  CHG  1  15  -1
M  END
> <s_m_source_file>
AV-unprocessed.smi

> <i_m_source_file_index>
2129

> <i_lp_mmshare_version>
43012

> <i_f3d_flags>
0

> <s_epik_input>
W0NIM11bQ0gyXUMoW0NIM10pKFtDSDNdKVtOSF1DKD1PKVtDSDJdbjFbY0hdW2NIXWMoPU8pW25IXWMxPU8=

> <s_epik_cmdline>
J2VwaWtfcHl0aG9uJywgJy1waCcsICc3LjAnLCAnLXRuJywgJzgnLCAnLW1hJywgJzIwMCcsICctbWV0YWxfYmluZGluZycsICctaW1hZScsICc8aW5maWxlLm1hZT4nLCAnLW9tYWUnLCAnPG91dGZpbGUubWFlPic=

> <r_lp_tautomer_probability>
0.999537

> <r_epik_Ionization_Penalty>
3.14534

> <r_epik_Ionization_Penalty_Charging>
2.92803e-08

> <r_epik_Ionization_Penalty_Neutral>
3.14534

> <r_epik_State_Penalty>
3.14446

> <r_epik_Charging_Adjusted_Penalty>
3.14446

> <i_epik_Tot_Q>
-1

> <i_epik_Tot_abs_Q>
1

> <r_epik_Metal_State_Penalty>
0.465837

> <b_epik_Metal_Only>
1

> <s_lp_Force_Field>
OPLS_2005

> <r_lp_Energy>
14.5296

> <b_lp_Chiralities_Consistent>
1

> <s_lp_Variant>
AV-unprocessed.smi:2129-2

> <Gold.Version>
5.8.1

> <Gold.Id.Protein>
6NUR|6NUR_protein|mol2

> <Gold.PLP.Fitness>
41.1686

> <Gold.PLP.PLP>
-34.8119

> <Gold.PLP.part.hbond>
-5.0000

> <Gold.PLP.part.metal>
0.0000

> <Gold.PLP.part.buried>
-3.2954

> <Gold.PLP.part.nonpolar>
-25.7760

> <Gold.PLP.part.repulsive>
1.0600

> <Gold.PLP.ligand.clash>
0.0000

> <Gold.PLP.ligand.torsion>
0.9839

> <Gold.PLP.Chemscore.Hbond>
2.7680

> <Gold.PLP.Chemscore.CHOScore>
0.0000

> <Gold.PLP.Chemscore.Metal>
0.0000

> <Gold.Chemscore.Hbonds>
donor molecule, donor type, donor heavy atom, donor atom, acceptor molecule, acceptor atom, score
      P1  H  7989  7998       L1    15  0.03
      P1  H  7997  8010       L1     8  0.73
      P1  H  8011  8017       L1    14  0.73

> <Gold.PLP.Chemscore.Internal.Correction>
0.0205

> <Gold.Rescore>
     Score         DG    S(hbond)    S(metal)    S(lipo)     H(rot)  DE(clash)    DE(int)     intcor
     14.68     -16.45       2.44        0.00      65.85       1.90       0.06       1.71       ----

> <Gold.Chemscore.Fitness>
14.6834

> <Gold.Chemscore.DG>
-16.4505

> <Gold.Chemscore.ZeroCoef>
-5.4800

> <Gold.Chemscore.Hbond>
2.4366

> <Gold.Chemscore.Metal>
0.0000

> <Gold.Chemscore.Lipo>
65.8484

> <Gold.Chemscore.Internal_Hbond>
0.0000

> <Gold.Chemscore.DEClash>
0.0554

> <Gold.Chemscore.DEInternal>
1.7117

> <Gold.Chemscore.Rot>
1.9031

> <Gold.Chemscore.Internal.Correction>
   9.000000E+99

> <Gold.Chemscore.Hbonds>
donor molecule, donor type, donor heavy atom, donor atom, acceptor molecule, acceptor atom, score
      P1  H  7997  8010       L1     8  0.72
      P1  H  8011  8017       L1    14  0.71

> <Gold.Chemscore.Hbond.Weighted>
-8.1382

> <Gold.Chemscore.Metal.Weighted>
-0.0000

> <Gold.Chemscore.Lipo.Weighted>
-7.7043

> <Gold.Chemscore.Internal_Hbond.Weighted>
0.0000

> <Gold.Chemscore.DEClash.Weighted>
0.0554

> <Gold.Chemscore.DEInternal.Weighted>
1.7117

> <Gold.Chemscore.Rot.Weighted>
4.8720

> <Gold.Chemscore.Internal.Correction.Weighted>
   9.000000E+99

> <Gold.Protein.RotatedTorsions>
[ 6907 6896 6895 6894 ] final   97.79 input  -60.11 | X-H torsion
[ 7974 7965 7964 7962 ] final   93.45 input  175.53 | X-H torsion
[ 8008 7997 7996 7995 ] final   32.30 input   59.86 | X-H torsion
[ 10167 10162 10161 10158 ] final  141.43 input  -65.29 | X-H torsion
[ 10718 10713 10712 10709 ] final  109.85 input   66.30 | X-H torsion
[ 10763 10752 10751 10750 ] final   60.17 input  -60.55 | X-H torsion
[ 11005 11000 10999 10996 ] final   28.08 input  -57.11 | X-H torsion

> <Gold.Protein.ActiveResidues>
 VAL166  LYS551  ARG553  GLY616  TRP617  ASP618  TYR619  PRO620  LYS621  CYS622 
 ASP623  PHE694  ASN695  SER759  ASP760  ASP761  ALA762  ILE779  LEU786  VAL792 
 PHE793  MET794  SER795  GLU796  ALA797  LYS798  CYS799  TRP800  GLU811  SER814 

> <Gold.Protein.RotatedAtoms>
  152.5418  134.0679  159.8180 H   0  0  0  0  0  0  0  0  0  0  0  0  # atno 6907 bound_to 6896
  151.0797  133.5392  159.2629 H   0  0  0  0  0  0  0  0  0  0  0  0  # atno 6908 bound_to 6896
  151.2224  135.0532  159.9009 H   0  0  0  0  0  0  0  0  0  0  0  0  # atno 6909 bound_to 6896
  145.4788  139.2279  143.2894 H   0  0  0  0  0  0  0  0  0  0  0  0  # atno 7974 bound_to 7965
  155.1203  140.3247  155.4499 H   0  0  0  0  0  0  0  0  0  0  0  0  # atno 8008 bound_to 7997
  156.2665  140.2028  156.6273 H   0  0  0  0  0  0  0  0  0  0  0  0  # atno 8009 bound_to 7997
  154.6689  140.0539  157.0130 H   0  0  0  0  0  0  0  0  0  0  0  0  # atno 8010 bound_to 7997
  139.5021  144.6172  151.6136 H   0  0  0  0  0  0  0  0  0  0  0  0  # atno 10167 bound_to 10162
  157.6522  131.0921  150.6515 H   0  0  0  0  0  0  0  0  0  0  0  0  # atno 10718 bound_to 10713
  152.9914  135.5546  154.5830 H   0  0  0  0  0  0  0  0  0  0  0  0  # atno 10763 bound_to 10752
  154.5207  135.2807  155.1267 H   0  0  0  0  0  0  0  0  0  0  0  0  # atno 10764 bound_to 10752
  154.2621  135.6379  153.5331 H   0  0  0  0  0  0  0  0  0  0  0  0  # atno 10765 bound_to 10752
  140.3194  134.2560  155.7720 H   0  0  0  0  0  0  0  0  0  0  0  0  # atno 11005 bound_to 11000
  146.2353  140.5573  142.8957 LP  0  0  0  0  0  0  0  0  0  0  0  0  # atno 17320 bound_to 7965
  144.7901  140.6015  143.6547 LP  0  0  0  0  0  0  0  0  0  0  0  0  # atno 17321 bound_to 7965
  140.5864  143.9857  150.6298 LP  0  0  0  0  0  0  0  0  0  0  0  0  # atno 17342 bound_to 10162
  140.3023  143.3252  152.0960 LP  0  0  0  0  0  0  0  0  0  0  0  0  # atno 17343 bound_to 10162
  156.6825  130.4571  149.5623 LP  0  0  0  0  0  0  0  0  0  0  0  0  # atno 17370 bound_to 10713
  156.1919  130.6565  151.1070 LP  0  0  0  0  0  0  0  0  0  0  0  0  # atno 17371 bound_to 10713
  141.2090  133.7761  157.0024 LP  0  0  0  0  0  0  0  0  0  0  0  0  # atno 17394 bound_to 11000
  140.0955  134.9567  157.1843 LP  0  0  0  0  0  0  0  0  0  0  0  0  # atno 17395 bound_to 11000

$$$$
