AV-unprocessed.smi:83|AV-procd|sdf|805|dock1
  -GOLD-   2262017193D 1   1.00000     0.00000
 Structure written by MMmdl.
 56 59  0  0  0  0  0  0  0  0  1 V2000
  151.6385  144.8255  160.6256 C   0  0  0  0  0  0  0  0  0  0  0  0
  152.1904  143.7305  159.7114 C   0  0  0  0  0  0  0  0  0  0  0  0
  152.0610  143.8482  158.4930 O   0  0  0  0  0  0  0  0  0  0  0  0
  152.8002  142.6696  160.2774 N   0  0  0  0  0  0  0  0  0  0  0  0
  153.0041  142.4656  161.7108 C   0  0  0  0  0  0  0  0  0  0  0  0
  153.9089  141.2371  161.8240 C   0  0  0  0  0  0  0  0  0  0  0  0
  153.6258  140.4505  160.5489 C   0  0  2  0  0  0  0  0  0  0  0  0
  154.7428  139.4616  160.1621 C   0  0  0  0  0  0  0  0  0  0  0  0
  154.4098  138.0757  160.4987 N   0  0  0  0  0  0  0  0  0  0  0  0
  153.8593  137.8040  161.8202 C   0  0  0  0  0  0  0  0  0  0  0  0
  154.2311  137.1726  159.4946 C   0  0  0  0  0  0  0  0  0  0  0  0
  153.3164  137.4639  158.5315 N   0  0  0  0  0  0  0  0  0  0  0  0
  153.0888  136.6173  157.5244 C   0  0  0  0  0  0  0  0  0  0  0  0
  153.6551  135.4347  157.2868 N   0  0  0  0  0  0  0  0  0  0  0  0
  154.5733  135.1276  158.2462 C   0  0  0  0  0  0  0  0  0  0  0  0
  154.9247  135.9290  159.3719 C   0  0  0  0  0  0  0  0  0  0  0  0
  155.8918  135.2674  160.1235 N   0  0  0  0  0  0  0  0  0  0  0  0
  156.1040  134.1538  159.4783 C   0  0  0  0  0  0  0  0  0  0  0  0
  155.3534  133.9888  158.3391 N   0  0  0  0  0  0  0  0  0  0  0  0
  155.3879  132.8513  157.4367 C   0  0  0  0  0  0  0  0  0  0  0  0
  153.9823  132.2913  157.1436 C   0  0  2  0  0  0  0  0  0  0  0  0
  153.2607  132.1793  158.3556 O   0  0  0  0  0  0  0  0  0  0  0  0
  154.0355  130.9097  156.4659 C   0  0  1  0  0  0  0  0  0  0  0  0
  152.7090  130.4502  155.8551 C   0  0  0  0  0  0  0  0  0  0  0  0
  153.1275  129.5185  154.7272 C   0  0  0  0  0  0  0  0  0  0  0  0
  154.6308  129.7630  154.5790 C   0  0  0  0  0  0  0  0  0  0  0  0
  154.8840  130.9421  155.3285 O   0  0  0  0  0  0  0  0  0  0  0  0
  153.3515  141.5513  159.5180 C   0  0  0  0  0  0  0  0  0  0  0  0
  150.9381  144.4096  161.3503 H   0  0  0  0  0  0  0  0  0  0  0  0
  151.1104  145.5819  160.0440 H   0  0  0  0  0  0  0  0  0  0  0  0
  152.4477  145.3196  161.1639 H   0  0  0  0  0  0  0  0  0  0  0  0
  153.4574  143.3329  162.1925 H   0  0  0  0  0  0  0  0  0  0  0  0
  152.0406  142.2745  162.1853 H   0  0  0  0  0  0  0  0  0  0  0  0
  154.9527  141.5543  161.8420 H   0  0  0  0  0  0  0  0  0  0  0  0
  153.7207  140.6580  162.7284 H   0  0  0  0  0  0  0  0  0  0  0  0
  152.6987  139.8975  160.7080 H   0  0  0  0  0  0  0  0  0  0  0  0
  154.9975  139.5728  159.1082 H   0  0  0  0  0  0  0  0  0  0  0  0
  155.6516  139.7253  160.7039 H   0  0  0  0  0  0  0  0  0  0  0  0
  154.0805  136.7831  162.1331 H   0  0  0  0  0  0  0  0  0  0  0  0
  152.7788  137.9497  161.8261 H   0  0  0  0  0  0  0  0  0  0  0  0
  154.2922  138.4766  162.5610 H   0  0  0  0  0  0  0  0  0  0  0  0
  152.3445  136.9323  156.8082 H   0  0  0  0  0  0  0  0  0  0  0  0
  156.8179  133.4174  159.8174 H   0  0  0  0  0  0  0  0  0  0  0  0
  155.8689  133.1699  156.5114 H   0  0  0  0  0  0  0  0  0  0  0  0
  156.0262  132.0791  157.8673 H   0  0  0  0  0  0  0  0  0  0  0  0
  153.4459  132.9885  156.4982 H   0  0  0  0  0  0  0  0  0  0  0  0
  153.5042  131.3683  158.7753 H   0  0  0  0  0  0  0  0  0  0  0  0
  154.4081  130.1546  157.1613 H   0  0  0  0  0  0  0  0  0  0  0  0
  152.0591  129.9657  156.5843 H   0  0  0  0  0  0  0  0  0  0  0  0
  152.1681  131.3018  155.4398 H   0  0  0  0  0  0  0  0  0  0  0  0
  152.9263  128.4742  154.9686 H   0  0  0  0  0  0  0  0  0  0  0  0
  152.5908  129.7607  153.8094 H   0  0  0  0  0  0  0  0  0  0  0  0
  155.1978  128.9362  155.0089 H   0  0  0  0  0  0  0  0  0  0  0  0
  154.9373  129.8824  153.5397 H   0  0  0  0  0  0  0  0  0  0  0  0
  152.6674  141.2038  158.7418 H   0  0  0  0  0  0  0  0  0  0  0  0
  154.2739  141.8787  159.0360 H   0  0  0  0  0  0  0  0  0  0  0  0
  1  2  1  0  0  0  0
  1 29  1  0  0  0  0
  1 30  1  0  0  0  0
  1 31  1  0  0  0  0
  2  3  2  0  0  0  0
  2  4  1  0  0  0  0
  4 28  1  0  0  0  0
  4  5  1  0  0  0  0
  5  6  1  0  0  0  0
  5 32  1  0  0  0  0
  5 33  1  0  0  0  0
  6  7  1  0  0  0  0
  6 34  1  0  0  0  0
  6 35  1  0  0  0  0
  7  8  1  0  0  0  0
  7 28  1  0  0  0  0
  7 36  1  0  0  0  0
  8  9  1  0  0  0  0
  8 37  1  0  0  0  0
  8 38  1  0  0  0  0
  9 10  1  0  0  0  0
  9 11  1  0  0  0  0
 10 39  1  0  0  0  0
 10 40  1  0  0  0  0
 10 41  1  0  0  0  0
 11 16  1  0  0  0  0
 11 12  2  0  0  0  0
 12 13  1  0  0  0  0
 13 14  2  0  0  0  0
 13 42  1  0  0  0  0
 14 15  1  0  0  0  0
 15 19  1  0  0  0  0
 15 16  2  0  0  0  0
 16 17  1  0  0  0  0
 17 18  2  0  0  0  0
 18 19  1  0  0  0  0
 18 43  1  0  0  0  0
 19 20  1  0  0  0  0
 20 21  1  0  0  0  0
 20 44  1  0  0  0  0
 20 45  1  0  0  0  0
 21 22  1  0  0  0  0
 21 23  1  0  0  0  0
 21 46  1  0  0  0  0
 22 47  1  0  0  0  0
 23 27  1  0  0  0  0
 23 24  1  0  0  0  0
 23 48  1  0  0  0  0
 24 25  1  0  0  0  0
 24 49  1  0  0  0  0
 24 50  1  0  0  0  0
 25 26  1  0  0  0  0
 25 51  1  0  0  0  0
 25 52  1  0  0  0  0
 26 27  1  0  0  0  0
 26 53  1  0  0  0  0
 26 54  1  0  0  0  0
 28 55  1  0  0  0  0
 28 56  1  0  0  0  0
M  END
> <s_m_source_file>
AV-unprocessed.smi

> <i_m_source_file_index>
83

> <i_lp_mmshare_version>
43012

> <i_f3d_flags>
0

> <s_epik_input>
W0NIM11DKD1PKU4xW0NIMl1bQ0gyXVtDQEhdKFtDSDJdMSlbQ0gyXU4oW0NIM10pYyhuW2NIXW4yKWMoYzIzKW5bY0hdbjNbQ0gyXVtDQEhdKFtPSF0pW0NAQEhdNFtDSDJdW0NIMl1bQ0gyXU80

> <s_epik_cmdline>
J2VwaWtfcHl0aG9uJywgJy1waCcsICc3LjAnLCAnLXRuJywgJzgnLCAnLW1hJywgJzIwMCcsICctbWV0YWxfYmluZGluZycsICctaW1hZScsICc8aW5maWxlLm1hZT4nLCAnLW9tYWUnLCAnPG91dGZpbGUubWFlPic=

> <r_lp_tautomer_probability>
1

> <r_epik_Ionization_Penalty>
0.00109752

> <r_epik_Ionization_Penalty_Charging>
0

> <r_epik_Ionization_Penalty_Neutral>
0.00109752

> <r_epik_State_Penalty>
0.000634803

> <r_epik_Charging_Adjusted_Penalty>
0.000634803

> <i_epik_Tot_Q>
0

> <i_epik_Tot_abs_Q>
0

> <r_epik_Metal_State_Penalty>
-0

> <b_epik_Metal_Only>
0

> <s_lp_Force_Field>
OPLS_2005

> <r_lp_Energy>
52.1459

> <b_lp_Chiralities_Consistent>
1

> <s_lp_Variant>
AV-unprocessed.smi:83-6

> <Gold.Version>
5.8.1

> <Gold.Id.Protein>
6NUR|6NUR_protein|mol2

> <Gold.PLP.Fitness>
50.2415

> <Gold.PLP.PLP>
-48.0165

> <Gold.PLP.part.hbond>
-2.0000

> <Gold.PLP.part.metal>
0.0000

> <Gold.PLP.part.buried>
-6.6126

> <Gold.PLP.part.nonpolar>
-38.6215

> <Gold.PLP.part.repulsive>
0.0269

> <Gold.PLP.ligand.clash>
0.0000

> <Gold.PLP.ligand.torsion>
2.1829

> <Gold.PLP.Chemscore.Hbond>
2.0000

> <Gold.PLP.Chemscore.CHOScore>
0.0000

> <Gold.PLP.Chemscore.Metal>
0.0000

> <Gold.Chemscore.Hbonds>
donor molecule, donor type, donor heavy atom, donor atom, acceptor molecule, acceptor atom, score
      P1  H  6896  6907       L1    22  0.99
      P1  H 10752 10765       L1    14  1.00

> <Gold.PLP.Chemscore.Internal.Correction>
0.5908

> <Gold.Rescore>
     Score         DG    S(hbond)    S(metal)    S(lipo)     H(rot)  DE(clash)    DE(int)     intcor
     13.60     -15.87       1.71        0.00      97.18       2.62       0.24       2.03       ----

> <Gold.Chemscore.Fitness>
13.6009

> <Gold.Chemscore.DG>
-15.8742

> <Gold.Chemscore.ZeroCoef>
-5.4800

> <Gold.Chemscore.Hbond>
1.7122

> <Gold.Chemscore.Metal>
0.0000

> <Gold.Chemscore.Lipo>
97.1826

> <Gold.Chemscore.Internal_Hbond>
0.0000

> <Gold.Chemscore.DEClash>
0.2389

> <Gold.Chemscore.DEInternal>
2.0343

> <Gold.Chemscore.Rot>
2.6152

> <Gold.Chemscore.Internal.Correction>
   9.000000E+99

> <Gold.Chemscore.Hbonds>
donor molecule, donor type, donor heavy atom, donor atom, acceptor molecule, acceptor atom, score
      P1  H  6896  6907       L1    22  0.84
      P1  H 10752 10765       L1    14  0.45

> <Gold.Chemscore.Hbond.Weighted>
-5.7187

> <Gold.Chemscore.Metal.Weighted>
-0.0000

> <Gold.Chemscore.Lipo.Weighted>
-11.3704

> <Gold.Chemscore.Internal_Hbond.Weighted>
0.0000

> <Gold.Chemscore.DEClash.Weighted>
0.2389

> <Gold.Chemscore.DEInternal.Weighted>
2.0343

> <Gold.Chemscore.Rot.Weighted>
6.6949

> <Gold.Chemscore.Internal.Correction.Weighted>
   9.000000E+99

> <Gold.Protein.RotatedTorsions>
[ 6907 6896 6895 6894 ] final  131.21 input  -60.11 | X-H torsion
[ 7974 7965 7964 7962 ] final  -46.88 input  175.53 | X-H torsion
[ 8008 7997 7996 7995 ] final  -96.98 input   59.86 | X-H torsion
[ 10167 10162 10161 10158 ] final   49.20 input  -65.29 | X-H torsion
[ 10718 10713 10712 10709 ] final  -22.72 input   66.30 | X-H torsion
[ 10763 10752 10751 10750 ] final -109.44 input  -60.55 | X-H torsion
[ 11005 11000 10999 10996 ] final  166.65 input  -57.11 | X-H torsion

> <Gold.Protein.ActiveResidues>
 VAL166  LYS551  ARG553  GLY616  TRP617  ASP618  TYR619  PRO620  LYS621  CYS622 
 ASP623  PHE694  ASN695  SER759  ASP760  ASP761  ALA762  ILE779  LEU786  VAL792 
 PHE793  MET794  SER795  GLU796  ALA797  LYS798  CYS799  TRP800  GLU811  SER814 

> <Gold.Protein.RotatedAtoms>
  152.3449  133.6110  159.5902 H   0  0  0  0  0  0  0  0  0  0  0  0  # atno 6907 bound_to 6896
  150.7501  133.9665  159.3541 H   0  0  0  0  0  0  0  0  0  0  0  0  # atno 6908 bound_to 6896
  151.7524  135.0830  160.0384 H   0  0  0  0  0  0  0  0  0  0  0  0  # atno 6909 bound_to 6896
  145.9673  140.7418  142.9427 H   0  0  0  0  0  0  0  0  0  0  0  0  # atno 7974 bound_to 7965
  154.7816  140.0467  157.1132 H   0  0  0  0  0  0  0  0  0  0  0  0  # atno 8008 bound_to 7997
  154.9697  140.3088  155.4973 H   0  0  0  0  0  0  0  0  0  0  0  0  # atno 8009 bound_to 7997
  156.2937  140.2255  156.4789 H   0  0  0  0  0  0  0  0  0  0  0  0  # atno 8010 bound_to 7997
  140.2854  144.3108  150.6253 H   0  0  0  0  0  0  0  0  0  0  0  0  # atno 10167 bound_to 10162
  156.5007  130.4587  149.6703 H   0  0  0  0  0  0  0  0  0  0  0  0  # atno 10718 bound_to 10713
  154.8193  135.4601  154.0732 H   0  0  0  0  0  0  0  0  0  0  0  0  # atno 10763 bound_to 10752
  153.2099  135.6880  153.8133 H   0  0  0  0  0  0  0  0  0  0  0  0  # atno 10764 bound_to 10752
  153.7588  135.3287  155.3310 H   0  0  0  0  0  0  0  0  0  0  0  0  # atno 10765 bound_to 10752
  140.2686  134.7845  157.3655 H   0  0  0  0  0  0  0  0  0  0  0  0  # atno 11005 bound_to 11000
  144.6828  140.2691  143.7308 LP  0  0  0  0  0  0  0  0  0  0  0  0  # atno 17320 bound_to 7965
  145.7955  139.1944  143.2078 LP  0  0  0  0  0  0  0  0  0  0  0  0  # atno 17321 bound_to 7965
  140.5777  143.2175  151.7485 LP  0  0  0  0  0  0  0  0  0  0  0  0  # atno 17342 bound_to 10162
  139.4951  144.4126  152.0064 LP  0  0  0  0  0  0  0  0  0  0  0  0  # atno 17343 bound_to 10162
  156.3336  130.7344  151.2278 LP  0  0  0  0  0  0  0  0  0  0  0  0  # atno 17370 bound_to 10713
  157.7463  131.0423  150.4688 LP  0  0  0  0  0  0  0  0  0  0  0  0  # atno 17371 bound_to 10713
  140.1395  134.4990  155.8042 LP  0  0  0  0  0  0  0  0  0  0  0  0  # atno 17394 bound_to 11000
  141.2180  133.6820  156.7184 LP  0  0  0  0  0  0  0  0  0  0  0  0  # atno 17395 bound_to 11000

$$$$
