#       Name:                AV-unprocessed.smi:3050
#       Creating user name   scv26
#       Creation time:       Fri Mar 27 17:02:17 2020


#       File generated by GOLD software.
#

@<TRIPOS>MOLECULE
AV-unprocessed.smi:3050
    50    51     1
SMALL
NO_CHARGES


@<TRIPOS>ATOM
      1 ****        -2.7939  -1.6042  -1.2982 C.3            1 S1                 0.0000
      2 ****        -1.2693  -1.7608  -1.2408 C.3            1 S1                 0.0000
      3 ****        -0.6474  -1.0761  -0.0095 C.3            1 S1                 0.0000
      4 ****        -1.0629  -1.7966   1.1501 O.3            1 S1                 0.0000
      5 ****        -0.8584  -1.1529   2.4053 C.3            1 S1                 0.0000
      6 ****        -1.2179  -2.1012   3.5468 C.3            1 S1                 0.0000
      7 ****        -1.4668  -1.1789   4.7427 C.3            1 S1                 0.0000
      8 ****        -1.9461   0.1569   4.1535 C.3            1 S1                 0.0000
      9 ****        -1.7957   0.0383   2.6308 C.3            1 S1                 0.0000
     10 ****         0.8866  -1.0582  -0.0985 C.2            1 S1                 0.0000
     11 ****         1.5082  -2.0895  -0.3550 O.2            1 S1                 0.0000
     12 ****         1.4805   0.1257   0.1136 N.am           1 S1                 0.0000
     13 ****         2.9146   0.3755   0.0093 C.3            1 S1                 0.0000
     14 ****         3.3857   0.4930  -1.4531 C.3            1 S1                 0.0000
     15 ****         2.5642   1.4727  -2.2494 C.2            1 S1                 0.0000
     16 ****         2.5887   2.8949  -2.1811 C.2            1 S1                 0.0000
     17 ****         1.7249   3.4643  -3.0059 N.2            1 S1                 0.0000
     18 ****         1.1232   2.4301  -3.6287 N.pl3          1 S1                 0.0000
     19 ****         0.0991   2.6911  -4.6174 C.3            1 S1                 0.0000
     20 ****         1.6111   1.2167  -3.1948 C.2            1 S1                 0.0000
     21 ****        -3.2005  -2.0936  -2.1833 H              1 S1                 0.0000
     22 ****        -3.0805  -0.5531  -1.3380 H              1 S1                 0.0000
     23 ****        -3.2707  -2.0490  -0.4245 H              1 S1                 0.0000
     24 ****        -1.0156  -2.8219  -1.2464 H              1 S1                 0.0000
     25 ****        -0.8427  -1.3386  -2.1520 H              1 S1                 0.0000
     26 ****        -1.0171  -0.0502   0.0311 H              1 S1                 0.0000
     27 ****         0.1785  -0.8396   2.5341 H              1 S1                 0.0000
     28 ****        -2.1358  -2.6389   3.3048 H              1 S1                 0.0000
     29 ****        -0.4407  -2.8414   3.7395 H              1 S1                 0.0000
     30 ****        -2.1865  -1.6053   5.4421 H              1 S1                 0.0000
     31 ****        -0.5345  -1.0237   5.2873 H              1 S1                 0.0000
     32 ****        -2.9817   0.3652   4.4246 H              1 S1                 0.0000
     33 ****        -1.3381   0.9761   4.5392 H              1 S1                 0.0000
     34 ****        -1.4218   0.9573   2.1782 H              1 S1                 0.0000
     35 ****        -2.7698  -0.1745   2.1878 H              1 S1                 0.0000
     36 ****         0.8932   0.9195   0.3247 H              1 S1                 0.0000
     37 ****         3.1211   1.3092   0.5330 H              1 S1                 0.0000
     38 ****         3.4757  -0.4010   0.5315 H              1 S1                 0.0000
     39 ****         4.4379   0.7780  -1.4636 H              1 S1                 0.0000
     40 ****         3.3497  -0.4937  -1.9165 H              1 S1                 0.0000
     41 ****         3.2015   3.5259  -1.5543 H              1 S1                 0.0000
     42 ****        -0.3171   1.7516  -4.9821 H              1 S1                 0.0000
     43 ****         0.5285   3.2385  -5.4571 H              1 S1                 0.0000
     44 ****        -0.7012   3.2842  -4.1735 H              1 S1                 0.0000
     45 ****         1.2405   0.2797  -3.5843 H              1 S1                 0.0000
     46 ****        -0.5610  -2.6614   1.1666 LP             1 S1                 0.0000
     47 ****        -2.0415  -1.9810   1.0589 LP             1 S1                 0.0000
     48 ****         1.0148  -2.9460  -0.5070 LP             1 S1                 0.0000
     49 ****         2.5064  -2.0707  -0.4114 LP             1 S1                 0.0000
     50 ****         1.5562   4.4411  -3.1379 LP             1 S1                 0.0000
@<TRIPOS>BOND
    1    1    2 1     
    2    1   21 1     
    3    1   22 1     
    4    1   23 1     
    5    2    3 1     
    6    2   24 1     
    7    2   25 1     
    8    3    4 1     
    9    3   10 1     
   10    3   26 1     
   11    4    5 1     
   12    5    9 1     
   13    5    6 1     
   14    5   27 1     
   15    6    7 1     
   16    6   28 1     
   17    6   29 1     
   18    7    8 1     
   19    7   30 1     
   20    7   31 1     
   21    8    9 1     
   22    8   32 1     
   23    8   33 1     
   24    9   34 1     
   25    9   35 1     
   26   10   11 2     
   27   10   12 am    
   28   12   13 1     
   29   12   36 1     
   30   13   14 1     
   31   13   37 1     
   32   13   38 1     
   33   14   15 1     
   34   14   39 1     
   35   14   40 1     
   36   15   20 2     
   37   15   16 1     
   38   16   17 2     
   39   16   41 1     
   40   17   18 1     
   41   18   19 1     
   42   18   20 1     
   43   19   42 1     
   44   19   43 1     
   45   19   44 1     
   46   20   45 1     
   47    4   46 1     
   48    4   47 1     
   49   11   48 1     
   50   11   49 1     
   51   17   50 1     
@<TRIPOS>SUBSTRUCTURE
      1 S1             1
@<TRIPOS>SET
LONE_PAIRS      STATIC     ATOMS    <user>   **** ""
5 46 47 48 49 50
DONOR_HYDROGENS      STATIC     ATOMS    <user>   **** ""
1 36
ATOM$BLUE        STATIC     ATOMS    COLORGROUP SYSTEM
5 46 47 48 49 50
ATOM$RED        STATIC     ATOMS    COLORGROUP SYSTEM
1 36
