AV-unprocessed.smi:563|AV-procd|sdf|2946|dock5
  -GOLD-   2262023443D 1   1.00000     0.00000
 Structure written by MMmdl.
 31 32  0  0  0  0  0  0  0  0  1 V2000
  154.8428  140.7513  160.9026 C   0  0  0  0  0  0  0  0  0  0  0  0
  153.8031  141.7909  160.6596 C   0  0  0  0  0  0  0  0  0  0  0  0
  153.2063  141.9769  159.4793 N   0  0  0  0  0  0  0  0  0  0  0  0
  152.2655  143.0122  159.5080 C   0  0  0  0  0  0  0  0  0  0  0  0
  151.5009  143.3668  158.2663 C   0  0  0  0  0  0  0  0  0  0  0  0
  150.7406  142.1468  157.7449 C   0  0  0  0  0  0  0  0  0  0  0  0
  150.9238  141.0424  158.2566 O   0  0  0  0  0  0  0  0  0  0  0  0
  149.8858  142.3609  156.7323 N   0  0  0  0  0  0  0  0  0  0  0  0
  149.0580  141.3375  156.0998 C   0  0  0  0  0  0  0  0  0  0  0  0
  149.4195  141.1830  154.6099 C   0  0  0  0  0  0  0  0  0  0  0  0
  148.0935  141.2055  153.8471 C   0  0  0  0  0  0  0  0  0  0  0  0
  147.1800  142.0746  154.7050 C   0  0  0  0  0  0  0  0  0  0  0  0
  147.5631  141.7147  156.1406 C   0  0  0  0  0  0  0  0  0  0  0  0
  152.1620  143.6131  160.7384 C   0  0  0  0  0  0  0  0  0  0  0  0
  153.2366  142.8953  161.9063 S   0  0  0  0  0  0  0  0  0  0  0  0
  155.2977  140.4373  159.9627 H   0  0  0  0  0  0  0  0  0  0  0  0
  154.3941  139.8821  161.3838 H   0  0  0  0  0  0  0  0  0  0  0  0
  155.6239  141.1474  161.5518 H   0  0  0  0  0  0  0  0  0  0  0  0
  150.7911  144.1693  158.4710 H   0  0  0  0  0  0  0  0  0  0  0  0
  152.1686  143.7402  157.4885 H   0  0  0  0  0  0  0  0  0  0  0  0
  149.8035  143.3011  156.3728 H   0  0  0  0  0  0  0  0  0  0  0  0
  149.2058  140.3828  156.6085 H   0  0  0  0  0  0  0  0  0  0  0  0
  150.0351  142.0192  154.2738 H   0  0  0  0  0  0  0  0  0  0  0  0
  149.9845  140.2707  154.4163 H   0  0  0  0  0  0  0  0  0  0  0  0
  148.1996  141.5828  152.8299 H   0  0  0  0  0  0  0  0  0  0  0  0
  147.6863  140.1952  153.7870 H   0  0  0  0  0  0  0  0  0  0  0  0
  147.3948  143.1281  154.5197 H   0  0  0  0  0  0  0  0  0  0  0  0
  146.1227  141.9077  154.4975 H   0  0  0  0  0  0  0  0  0  0  0  0
  146.9843  140.8471  156.4600 H   0  0  0  0  0  0  0  0  0  0  0  0
  147.3354  142.5225  156.8374 H   0  0  0  0  0  0  0  0  0  0  0  0
  151.5176  144.4303  161.0272 H   0  0  0  0  0  0  0  0  0  0  0  0
  1  2  1  0  0  0  0
  1 16  1  0  0  0  0
  1 17  1  0  0  0  0
  1 18  1  0  0  0  0
  2 15  1  0  0  0  0
  2  3  2  0  0  0  0
  3  4  1  0  0  0  0
  4  5  1  0  0  0  0
  4 14  2  0  0  0  0
  5  6  1  0  0  0  0
  5 19  1  0  0  0  0
  5 20  1  0  0  0  0
  6  7  2  0  0  0  0
  6  8  1  0  0  0  0
  8  9  1  0  0  0  0
  8 21  1  0  0  0  0
  9 13  1  0  0  0  0
  9 10  1  0  0  0  0
  9 22  1  0  0  0  0
 10 11  1  0  0  0  0
 10 23  1  0  0  0  0
 10 24  1  0  0  0  0
 11 12  1  0  0  0  0
 11 25  1  0  0  0  0
 11 26  1  0  0  0  0
 12 13  1  0  0  0  0
 12 27  1  0  0  0  0
 12 28  1  0  0  0  0
 13 29  1  0  0  0  0
 13 30  1  0  0  0  0
 14 15  1  0  0  0  0
 14 31  1  0  0  0  0
M  END
> <s_m_source_file>
AV-unprocessed.smi

> <i_m_source_file_index>
563

> <i_lp_mmshare_version>
43012

> <i_f3d_flags>
0

> <s_epik_input>
W0NIM11jMW5jKFtjSF1zMSlbQ0gyXUMoPU8pW05IXVtDSF0yW0NIMl1bQ0gyXVtDSDJdW0NIMl0y

> <s_epik_cmdline>
J2VwaWtfcHl0aG9uJywgJy1waCcsICc3LjAnLCAnLXRuJywgJzgnLCAnLW1hJywgJzIwMCcsICctbWV0YWxfYmluZGluZycsICctaW1hZScsICc8aW5maWxlLm1hZT4nLCAnLW9tYWUnLCAnPG91dGZpbGUubWFlPic=

> <r_lp_tautomer_probability>
1

> <r_epik_Ionization_Penalty>
6.26871e-05

> <r_epik_Ionization_Penalty_Charging>
0

> <r_epik_Ionization_Penalty_Neutral>
6.26871e-05

> <r_epik_State_Penalty>
-0

> <r_epik_Charging_Adjusted_Penalty>
0

> <i_epik_Tot_Q>
0

> <i_epik_Tot_abs_Q>
0

> <r_epik_Metal_State_Penalty>
-0

> <b_epik_Metal_Only>
0

> <s_lp_Force_Field>
OPLS_2005

> <r_lp_Energy>
15.9106

> <b_lp_Chiralities_Consistent>
1

> <s_lp_Variant>
AV-unprocessed.smi:563-1

> <Gold.Version>
5.8.1

> <Gold.Id.Protein>
6NUR|6NUR_protein|mol2

> <Gold.PLP.Fitness>
38.8800

> <Gold.PLP.PLP>
-36.0232

> <Gold.PLP.part.hbond>
-1.0000

> <Gold.PLP.part.metal>
0.0000

> <Gold.PLP.part.buried>
-2.8343

> <Gold.PLP.part.nonpolar>
-31.6441

> <Gold.PLP.part.repulsive>
0.0303

> <Gold.PLP.ligand.clash>
0.0000

> <Gold.PLP.ligand.torsion>
0.0733

> <Gold.PLP.Chemscore.Hbond>
1.0000

> <Gold.PLP.Chemscore.CHOScore>
0.0000

> <Gold.PLP.Chemscore.Metal>
0.0000

> <Gold.Chemscore.Hbonds>
donor molecule, donor type, donor heavy atom, donor atom, acceptor molecule, acceptor atom, score
      L1  H     8    21       P1  8028  1.00

> <Gold.PLP.Chemscore.Internal.Correction>
0.0034

> <Gold.Rescore>
     Score         DG    S(hbond)    S(metal)    S(lipo)     H(rot)  DE(clash)    DE(int)     intcor
     15.06     -16.58       0.99        0.00      94.97       1.29       0.03       1.48       ----

> <Gold.Chemscore.Fitness>
15.0616

> <Gold.Chemscore.DG>
-16.5791

> <Gold.Chemscore.ZeroCoef>
-5.4800

> <Gold.Chemscore.Hbond>
0.9886

> <Gold.Chemscore.Metal>
0.0000

> <Gold.Chemscore.Lipo>
94.9686

> <Gold.Chemscore.Internal_Hbond>
0.0000

> <Gold.Chemscore.DEClash>
0.0339

> <Gold.Chemscore.DEInternal>
1.4836

> <Gold.Chemscore.Rot>
1.2946

> <Gold.Chemscore.Internal.Correction>
   9.000000E+99

> <Gold.Chemscore.Hbonds>
donor molecule, donor type, donor heavy atom, donor atom, acceptor molecule, acceptor atom, score
      L1  H     8    21       P1  8028  0.98

> <Gold.Chemscore.Hbond.Weighted>
-3.3019

> <Gold.Chemscore.Metal.Weighted>
-0.0000

> <Gold.Chemscore.Lipo.Weighted>
-11.1113

> <Gold.Chemscore.Internal_Hbond.Weighted>
0.0000

> <Gold.Chemscore.DEClash.Weighted>
0.0339

> <Gold.Chemscore.DEInternal.Weighted>
1.4836

> <Gold.Chemscore.Rot.Weighted>
3.3141

> <Gold.Chemscore.Internal.Correction.Weighted>
   9.000000E+99

> <Gold.Protein.RotatedTorsions>
[ 6907 6896 6895 6894 ] final   91.58 input  -60.11 | X-H torsion
[ 7974 7965 7964 7962 ] final  136.16 input  175.53 | X-H torsion
[ 8008 7997 7996 7995 ] final -143.37 input   59.86 | X-H torsion
[ 10167 10162 10161 10158 ] final   -0.61 input  -65.29 | X-H torsion
[ 10718 10713 10712 10709 ] final  -55.29 input   66.30 | X-H torsion
[ 10763 10752 10751 10750 ] final   65.69 input  -60.55 | X-H torsion
[ 11005 11000 10999 10996 ] final -121.09 input  -57.11 | X-H torsion

> <Gold.Protein.ActiveResidues>
 VAL166  LYS551  ARG553  GLY616  TRP617  ASP618  TYR619  PRO620  LYS621  CYS622 
 ASP623  PHE694  ASN695  SER759  ASP760  ASP761  ALA762  ILE779  LEU786  VAL792 
 PHE793  MET794  SER795  GLU796  ALA797  LYS798  CYS799  TRP800  GLU811  SER814 

> <Gold.Protein.RotatedAtoms>
  152.5450  134.1634  159.8566 H   0  0  0  0  0  0  0  0  0  0  0  0  # atno 6907 bound_to 6896
  151.1650  133.4813  159.2601 H   0  0  0  0  0  0  0  0  0  0  0  0  # atno 6908 bound_to 6896
  151.1333  135.0153  159.8647 H   0  0  0  0  0  0  0  0  0  0  0  0  # atno 6909 bound_to 6896
  144.9592  139.4730  143.5488 H   0  0  0  0  0  0  0  0  0  0  0  0  # atno 7974 bound_to 7965
  155.5095  140.0582  157.2926 H   0  0  0  0  0  0  0  0  0  0  0  0  # atno 8008 bound_to 7997
  154.4557  140.1971  156.0335 H   0  0  0  0  0  0  0  0  0  0  0  0  # atno 8009 bound_to 7997
  156.0794  140.3249  155.7679 H   0  0  0  0  0  0  0  0  0  0  0  0  # atno 8010 bound_to 7997
  140.6775  143.6874  150.8056 H   0  0  0  0  0  0  0  0  0  0  0  0  # atno 10167 bound_to 10162
  156.1381  130.4156  150.0151 H   0  0  0  0  0  0  0  0  0  0  0  0  # atno 10718 bound_to 10713
  153.0107  135.5348  154.6706 H   0  0  0  0  0  0  0  0  0  0  0  0  # atno 10763 bound_to 10752
  154.5892  135.2857  155.0655 H   0  0  0  0  0  0  0  0  0  0  0  0  # atno 10764 bound_to 10752
  154.1755  135.6525  153.5073 H   0  0  0  0  0  0  0  0  0  0  0  0  # atno 10765 bound_to 10752
  141.0096  134.0284  157.3432 H   0  0  0  0  0  0  0  0  0  0  0  0  # atno 11005 bound_to 11000
  146.3347  139.8730  142.8837 LP  0  0  0  0  0  0  0  0  0  0  0  0  # atno 17320 bound_to 7965
  145.2726  141.0113  143.3763 LP  0  0  0  0  0  0  0  0  0  0  0  0  # atno 17321 bound_to 7965
  140.0569  143.5193  152.2647 LP  0  0  0  0  0  0  0  0  0  0  0  0  # atno 17342 bound_to 10162
  139.6076  144.7600  151.3026 LP  0  0  0  0  0  0  0  0  0  0  0  0  # atno 17343 bound_to 10162
  156.8045  130.9302  151.3645 LP  0  0  0  0  0  0  0  0  0  0  0  0  # atno 17370 bound_to 10713
  157.6550  130.8917  149.9711 LP  0  0  0  0  0  0  0  0  0  0  0  0  # atno 17371 bound_to 10713
  139.9082  135.0184  156.7579 LP  0  0  0  0  0  0  0  0  0  0  0  0  # atno 17394 bound_to 11000
  140.6756  133.9520  155.7881 LP  0  0  0  0  0  0  0  0  0  0  0  0  # atno 17395 bound_to 11000

$$$$
