AV-unprocessed.smi:157|AV-procd|sdf|1322|dock2
  -GOLD-   2262019 13D 1   1.00000     0.00000
 Structure written by MMmdl.
 36 38  0  0  0  0  0  0  0  0  2 V2000
  153.2461  138.9113  156.8544 O   0  0  0  0  0  0  0  0  0  0  0  0
  152.1962  139.7601  156.4423 C   0  0  0  0  0  0  0  0  0  0  0  0
  151.6477  139.3056  155.0811 C   0  0  2  0  0  0  0  0  0  0  0  0
  150.5757  140.1730  154.7157 O   0  0  0  0  0  0  0  0  0  0  0  0
  149.6260  139.4192  154.0411 C   0  0  2  0  0  0  0  0  0  0  0  0
  148.3057  140.1138  154.1102 N   0  0  0  0  0  0  0  0  0  0  0  0
  147.3398  140.1100  153.1671 C   0  0  0  0  0  0  0  0  0  0  0  0
  146.2670  140.8153  153.4843 N   0  3  0  0  0  0  0  0  0  0  0  0
  146.5070  141.3537  154.7308 C   0  0  0  0  0  0  0  0  0  0  0  0
  147.7743  140.9003  155.1055 C   0  0  0  0  0  0  0  0  0  0  0  0
  148.5091  141.1456  156.2756 N   0  0  0  0  0  0  0  0  0  0  0  0
  147.9834  141.6424  157.3478 C   0  0  0  0  0  0  0  0  0  0  0  0
  146.6937  142.1012  157.5587 N   0  0  0  0  0  0  0  0  0  0  0  0
  145.9921  142.9662  156.6268 C   0  0  0  0  0  0  0  0  0  0  0  0
  145.4864  142.2402  155.3733 C   0  0  2  0  0  0  0  0  0  0  0  0
  144.2958  141.5522  155.6976 O   0  0  0  0  0  0  0  0  0  0  0  0
  149.5796  138.0914  154.7789 C   0  0  0  0  0  0  0  0  0  0  0  0
  151.0519  137.8790  155.0890 C   0  0  1  0  0  0  0  0  0  0  0  0
  151.6503  137.0931  154.0772 O   0  0  0  0  0  0  0  0  0  0  0  0
  152.4236  139.4002  154.3187 H   0  0  0  0  0  0  0  0  0  0  0  0
  149.8696  139.3313  152.9809 H   0  0  0  0  0  0  0  0  0  0  0  0
  145.2044  143.0006  154.6441 H   0  0  0  0  0  0  0  0  0  0  0  0
  151.1815  137.3728  156.0464 H   0  0  0  0  0  0  0  0  0  0  0  0
  152.8719  138.1490  157.2694 H   0  0  0  0  0  0  0  0  0  0  0  0
  151.4101  139.7676  157.1980 H   0  0  0  0  0  0  0  0  0  0  0  0
  152.5862  140.7756  156.3704 H   0  0  0  0  0  0  0  0  0  0  0  0
  147.4377  139.5787  152.2373 H   0  0  0  0  0  0  0  0  0  0  0  0
  148.6027  141.7421  158.2404 H   0  0  0  0  0  0  0  0  0  0  0  0
  146.3857  142.2549  158.5084 H   0  0  0  0  0  0  0  0  0  0  0  0
  145.1714  143.4679  157.1404 H   0  0  0  0  0  0  0  0  0  0  0  0
  146.6859  143.7523  156.3250 H   0  0  0  0  0  0  0  0  0  0  0  0
  143.5640  142.1391  155.5859 H   0  0  0  0  0  0  0  0  0  0  0  0
  149.0117  138.2126  155.7028 H   0  0  0  0  0  0  0  0  0  0  0  0
  149.1193  137.3091  154.1736 H   0  0  0  0  0  0  0  0  0  0  0  0
  151.1014  137.1252  153.3082 H   0  0  0  0  0  0  0  0  0  0  0  0
  145.4392  140.9392  152.9153 H   0  0  0  0  0  0  0  0  0  0  0  0
  1  2  1  0  0  0  0
  1 24  1  0  0  0  0
  2  3  1  0  0  0  0
  2 25  1  0  0  0  0
  2 26  1  0  0  0  0
  3 20  1  0  0  0  0
  3 18  1  0  0  0  0
  3  4  1  0  0  0  0
  4  5  1  0  0  0  0
  5 21  1  0  0  0  0
  5  6  1  0  0  0  0
  5 17  1  0  0  0  0
  6 10  1  0  0  0  0
  6  7  1  0  0  0  0
  7  8  2  0  0  0  0
  7 27  1  0  0  0  0
  8  9  1  0  0  0  0
  8 36  1  0  0  0  0
  9 15  1  0  0  0  0
  9 10  2  0  0  0  0
 10 11  1  0  0  0  0
 11 12  2  0  0  0  0
 12 13  1  0  0  0  0
 12 28  1  0  0  0  0
 13 14  1  0  0  0  0
 13 29  1  0  0  0  0
 14 15  1  0  0  0  0
 14 30  1  0  0  0  0
 14 31  1  0  0  0  0
 15 22  1  0  0  0  0
 15 16  1  0  0  0  0
 16 32  1  0  0  0  0
 17 18  1  0  0  0  0
 17 33  1  0  0  0  0
 17 34  1  0  0  0  0
 18 23  1  0  0  0  0
 18 19  1  0  0  0  0
 19 35  1  0  0  0  0
M  CHG  1   8   1
M  END
> <s_m_source_file>
AV-unprocessed.smi

> <i_m_source_file_index>
157

> <i_lp_mmshare_version>
43012

> <i_f3d_flags>
0

> <s_epik_input>
W09IXVtDSDJdW0NASF0xT1tDQEhdKFtDSDJdW0NAQEhdMVtPSF0pbihbY0hdbjIpYyhjMjMpTj1bQ0hdW05IXVtDSDJdW0NASF0zW09IXQ==

> <s_epik_cmdline>
J2VwaWtfcHl0aG9uJywgJy1waCcsICc3LjAnLCAnLXRuJywgJzgnLCAnLW1hJywgJzIwMCcsICctbWV0YWxfYmluZGluZycsICctaW1hZScsICc8aW5maWxlLm1hZT4nLCAnLW9tYWUnLCAnPG91dGZpbGUubWFlPic=

> <r_epik_Ionization_Penalty>
1.68594

> <r_epik_Ionization_Penalty_Charging>
0

> <r_epik_Ionization_Penalty_Neutral>
1.68594

> <r_epik_State_Penalty>
1.79006

> <r_epik_Charging_Adjusted_Penalty>
1.79006

> <i_epik_Tot_Q>
1

> <i_epik_Tot_abs_Q>
1

> <r_epik_Metal_State_Penalty>
5.85324

> <b_epik_Metal_Only>
0

> <s_epik_Chemistry_Notes>
This compound has an imine and may undergo hydrolysis. This compound contains an acetal/aminal-like group ( X-CH(R)-Y where X, Y are N, S, or O) that may be acid/base labile, releasing an aldehyde.

> <s_lp_Force_Field>
OPLS_2005

> <r_lp_Energy>
53.7485

> <b_lp_Chiralities_Consistent>
1

> <s_lp_Variant>
AV-unprocessed.smi:157-32

> <Gold.Version>
5.8.1

> <Gold.Id.Protein>
6NUR|6NUR_protein|mol2

> <Gold.PLP.Fitness>
42.7734

> <Gold.PLP.PLP>
-27.5090

> <Gold.PLP.part.hbond>
-5.0000

> <Gold.PLP.part.metal>
0.0000

> <Gold.PLP.part.buried>
-0.5725

> <Gold.PLP.part.nonpolar>
-21.6098

> <Gold.PLP.part.repulsive>
0.2114

> <Gold.PLP.ligand.clash>
0.0000

> <Gold.PLP.ligand.torsion>
0.6847

> <Gold.PLP.Chemscore.Hbond>
4.8722

> <Gold.PLP.Chemscore.CHOScore>
0.6641

> <Gold.PLP.Chemscore.Metal>
0.0000

> <Gold.Chemscore.Hbonds>
donor molecule, donor type, donor heavy atom, donor atom, acceptor molecule, acceptor atom, score
      L1  H     8    36       P1 10175  2.00
      L1  H    19    35       P1  7949  0.45
      P1  H  7989  7998       L1     4  0.40
      P1  H  7997  8010       L1     1  0.96
      P1  H 10752 10765       L1    19  1.00
      L1  C     7    27       P1  7957  0.65

> <Gold.PLP.Chemscore.Internal.Correction>
0.0250

> <Gold.Rescore>
     Score         DG    S(hbond)    S(metal)    S(lipo)     H(rot)  DE(clash)    DE(int)     intcor
      7.06      -9.28       2.75        0.00      34.24       3.67       0.07       2.14       ----

> <Gold.Chemscore.Fitness>
7.0639

> <Gold.Chemscore.DG>
-9.2760

> <Gold.Chemscore.ZeroCoef>
-5.4800

> <Gold.Chemscore.Hbond>
2.7469

> <Gold.Chemscore.Metal>
0.0000

> <Gold.Chemscore.Lipo>
34.2410

> <Gold.Chemscore.Internal_Hbond>
0.0000

> <Gold.Chemscore.DEClash>
0.0737

> <Gold.Chemscore.DEInternal>
2.1384

> <Gold.Chemscore.Rot>
3.6659

> <Gold.Chemscore.Internal.Correction>
   9.000000E+99

> <Gold.Chemscore.Hbonds>
donor molecule, donor type, donor heavy atom, donor atom, acceptor molecule, acceptor atom, score
      L1  H     8    36       P1 10175  0.29
      L1  H    19    35       P1  7949  0.20
      P1  H  7989  7998       L1     4  0.01
      P1  H  7997  8010       L1     1  0.24
      P1  H 10752 10765       L1    19  0.96

> <Gold.Chemscore.Hbond.Weighted>
-9.1746

> <Gold.Chemscore.Metal.Weighted>
-0.0000

> <Gold.Chemscore.Lipo.Weighted>
-4.0062

> <Gold.Chemscore.Internal_Hbond.Weighted>
0.0000

> <Gold.Chemscore.DEClash.Weighted>
0.0737

> <Gold.Chemscore.DEInternal.Weighted>
2.1384

> <Gold.Chemscore.Rot.Weighted>
9.3848

> <Gold.Chemscore.Internal.Correction.Weighted>
   9.000000E+99

> <Gold.Protein.RotatedTorsions>
[ 6907 6896 6895 6894 ] final  127.75 input  -60.11 | X-H torsion
[ 7974 7965 7964 7962 ] final    2.84 input  175.53 | X-H torsion
[ 8008 7997 7996 7995 ] final   40.86 input   59.86 | X-H torsion
[ 10167 10162 10161 10158 ] final  113.18 input  -65.29 | X-H torsion
[ 10718 10713 10712 10709 ] final  -61.80 input   66.30 | X-H torsion
[ 10763 10752 10751 10750 ] final  165.84 input  -60.55 | X-H torsion
[ 11005 11000 10999 10996 ] final  -22.10 input  -57.11 | X-H torsion

> <Gold.Protein.ActiveResidues>
 VAL166  LYS551  ARG553  GLY616  TRP617  ASP618  TYR619  PRO620  LYS621  CYS622 
 ASP623  PHE694  ASN695  SER759  ASP760  ASP761  ALA762  ILE779  LEU786  VAL792 
 PHE793  MET794  SER795  GLU796  ALA797  LYS798  CYS799  TRP800  GLU811  SER814 

> <Gold.Protein.RotatedAtoms>
  152.3784  133.6512  159.6141 H   0  0  0  0  0  0  0  0  0  0  0  0  # atno 6907 bound_to 6896
  150.7721  133.9155  159.3391 H   0  0  0  0  0  0  0  0  0  0  0  0  # atno 6908 bound_to 6896
  151.6965  135.0939  160.0294 H   0  0  0  0  0  0  0  0  0  0  0  0  # atno 6909 bound_to 6896
  146.2444  140.0775  142.8359 H   0  0  0  0  0  0  0  0  0  0  0  0  # atno 7974 bound_to 7965
  155.2601  140.3358  155.4274 H   0  0  0  0  0  0  0  0  0  0  0  0  # atno 8008 bound_to 7997
  156.2178  140.1796  156.7590 H   0  0  0  0  0  0  0  0  0  0  0  0  # atno 8009 bound_to 7997
  154.5780  140.0658  156.9047 H   0  0  0  0  0  0  0  0  0  0  0  0  # atno 8010 bound_to 7997
  139.6481  144.7127  151.2103 H   0  0  0  0  0  0  0  0  0  0  0  0  # atno 10167 bound_to 10162
  156.0897  130.4202  150.1045 H   0  0  0  0  0  0  0  0  0  0  0  0  # atno 10718 bound_to 10713
  154.3300  135.2755  155.2476 H   0  0  0  0  0  0  0  0  0  0  0  0  # atno 10763 bound_to 10752
  154.4792  135.5863  153.6380 H   0  0  0  0  0  0  0  0  0  0  0  0  # atno 10764 bound_to 10752
  152.9867  135.6107  154.3492 H   0  0  0  0  0  0  0  0  0  0  0  0  # atno 10765 bound_to 10752
  140.8625  133.7778  156.0091 H   0  0  0  0  0  0  0  0  0  0  0  0  # atno 11005 bound_to 11000
  145.0762  140.9189  143.4852 LP  0  0  0  0  0  0  0  0  0  0  0  0  # atno 17320 bound_to 7965
  145.0919  139.2884  143.5731 LP  0  0  0  0  0  0  0  0  0  0  0  0  # atno 17321 bound_to 7965
  140.7524  143.6197  150.8525 LP  0  0  0  0  0  0  0  0  0  0  0  0  # atno 17342 bound_to 10162
  139.9842  143.5918  152.2932 LP  0  0  0  0  0  0  0  0  0  0  0  0  # atno 17343 bound_to 10162
  156.9058  130.9635  151.3570 LP  0  0  0  0  0  0  0  0  0  0  0  0  # atno 17370 bound_to 10713
  157.6043  130.8535  149.8850 LP  0  0  0  0  0  0  0  0  0  0  0  0  # atno 17371 bound_to 10713
  140.8667  134.2776  157.5210 LP  0  0  0  0  0  0  0  0  0  0  0  0  # atno 17394 bound_to 11000
  139.8707  134.9546  156.4181 LP  0  0  0  0  0  0  0  0  0  0  0  0  # atno 17395 bound_to 11000

$$$$
