AV-unprocessed.smi:1138|AV-procd|sdf|4867|dock1
  -GOLD-   22720 3433D 1   1.00000     0.00000
 Structure written by MMmdl.
 50 52  0  0  0  0  0  0  0  0  2 V2000
  145.2700  131.4565  152.1782 C   0  0  0  0  0  0  0  0  0  0  0  0
  144.8182  132.4562  151.2191 N   0  0  0  0  0  0  0  0  0  0  0  0
  144.7673  132.1411  149.7960 C   0  0  0  0  0  0  0  0  0  0  0  0
  144.4028  133.7270  151.6724 C   0  0  0  0  0  0  0  0  0  0  0  0
  144.7427  134.9341  151.0135 C   0  0  0  0  0  0  0  0  0  0  0  0
  144.2860  136.1657  151.5257 C   0  0  0  0  0  0  0  0  0  0  0  0
  143.5008  136.1920  152.6969 C   0  0  0  0  0  0  0  0  0  0  0  0
  143.0493  137.4562  153.1634 N   0  0  0  0  0  0  0  0  0  0  0  0
  141.9283  137.7473  153.8457 C   0  0  0  0  0  0  0  0  0  0  0  0
  141.0944  136.9264  154.2274 O   0  0  0  0  0  0  0  0  0  0  0  0
  141.8361  139.0632  154.0840 N   0  0  0  0  0  0  0  0  0  0  0  0
  140.7531  139.7168  154.8126 C   0  0  0  0  0  0  0  0  0  0  0  0
  139.4139  139.4515  154.0909 C   0  0  0  0  0  0  0  0  0  0  0  0
  138.2732  140.2878  154.6978 C   0  0  0  0  0  0  0  0  0  0  0  0
  138.6507  141.7053  154.6492 N   0  0  0  0  0  0  0  0  0  0  0  0
  138.0955  142.5765  153.7700 C   0  0  0  0  0  0  0  0  0  0  0  0
  138.4495  143.7542  153.6971 O   0  0  0  0  0  0  0  0  0  0  0  0
  137.0358  142.0414  152.8585 C   0  0  0  0  0  0  0  0  0  0  0  0
  135.7548  142.8416  152.7066 C   0  0  0  0  0  0  0  0  0  0  0  0
  135.7507  141.5624  153.5015 C   0  0  0  0  0  0  0  0  0  0  0  0
  139.8063  141.9768  155.5157 C   0  0  0  0  0  0  0  0  0  0  0  0
  141.0304  141.2318  154.9540 C   0  0  0  0  0  0  0  0  0  0  0  0
  143.1805  134.9597  153.3145 C   0  0  0  0  0  0  0  0  0  0  0  0
  143.6371  133.8024  152.7884 N   0  3  0  0  0  0  0  0  0  0  0  0
  146.1676  131.7989  152.6945 H   0  0  0  0  0  0  0  0  0  0  0  0
  145.5082  130.5136  151.6855 H   0  0  0  0  0  0  0  0  0  0  0  0
  144.4947  131.2573  152.9189 H   0  0  0  0  0  0  0  0  0  0  0  0
  145.3507  132.8612  149.2212 H   0  0  0  0  0  0  0  0  0  0  0  0
  143.7381  132.1608  149.4365 H   0  0  0  0  0  0  0  0  0  0  0  0
  145.1741  131.1497  149.5947 H   0  0  0  0  0  0  0  0  0  0  0  0
  145.3447  134.9372  150.1172 H   0  0  0  0  0  0  0  0  0  0  0  0
  144.5430  137.0849  151.0194 H   0  0  0  0  0  0  0  0  0  0  0  0
  143.6742  138.2302  152.9911 H   0  0  0  0  0  0  0  0  0  0  0  0
  142.5704  139.6621  153.7356 H   0  0  0  0  0  0  0  0  0  0  0  0
  140.6796  139.2852  155.8128 H   0  0  0  0  0  0  0  0  0  0  0  0
  139.5080  139.6967  153.0317 H   0  0  0  0  0  0  0  0  0  0  0  0
  139.1647  138.3909  154.1412 H   0  0  0  0  0  0  0  0  0  0  0  0
  137.3391  140.0804  154.1741 H   0  0  0  0  0  0  0  0  0  0  0  0
  138.1011  139.9928  155.7339 H   0  0  0  0  0  0  0  0  0  0  0  0
  137.3831  141.5313  151.9617 H   0  0  0  0  0  0  0  0  0  0  0  0
  135.6394  143.7694  153.2644 H   0  0  0  0  0  0  0  0  0  0  0  0
  135.2824  142.8345  151.7264 H   0  0  0  0  0  0  0  0  0  0  0  0
  135.2781  140.6858  153.0636 H   0  0  0  0  0  0  0  0  0  0  0  0
  135.6571  141.6448  154.5832 H   0  0  0  0  0  0  0  0  0  0  0  0
  140.0390  143.0349  155.6249 H   0  0  0  0  0  0  0  0  0  0  0  0
  139.5887  141.6248  156.5251 H   0  0  0  0  0  0  0  0  0  0  0  0
  141.8926  141.3984  155.6007 H   0  0  0  0  0  0  0  0  0  0  0  0
  141.2883  141.6536  153.9812 H   0  0  0  0  0  0  0  0  0  0  0  0
  142.5698  134.8447  154.1971 H   0  0  0  0  0  0  0  0  0  0  0  0
  143.3867  132.9328  153.2593 H   0  0  0  0  0  0  0  0  0  0  0  0
  1  2  1  0  0  0  0
  1 25  1  0  0  0  0
  1 26  1  0  0  0  0
  1 27  1  0  0  0  0
  2  3  1  0  0  0  0
  2  4  1  0  0  0  0
  3 28  1  0  0  0  0
  3 29  1  0  0  0  0
  3 30  1  0  0  0  0
  4 24  1  0  0  0  0
  4  5  2  0  0  0  0
  5  6  1  0  0  0  0
  5 31  1  0  0  0  0
  6  7  2  0  0  0  0
  6 32  1  0  0  0  0
  7  8  1  0  0  0  0
  7 23  1  0  0  0  0
  8  9  1  0  0  0  0
  8 33  1  0  0  0  0
  9 10  2  0  0  0  0
  9 11  1  0  0  0  0
 11 12  1  0  0  0  0
 11 34  1  0  0  0  0
 12 22  1  0  0  0  0
 12 13  1  0  0  0  0
 12 35  1  0  0  0  0
 13 14  1  0  0  0  0
 13 36  1  0  0  0  0
 13 37  1  0  0  0  0
 14 15  1  0  0  0  0
 14 38  1  0  0  0  0
 14 39  1  0  0  0  0
 15 16  1  0  0  0  0
 15 21  1  0  0  0  0
 16 17  2  0  0  0  0
 16 18  1  0  0  0  0
 18 20  1  0  0  0  0
 18 19  1  0  0  0  0
 18 40  1  0  0  0  0
 19 20  1  0  0  0  0
 19 41  1  0  0  0  0
 19 42  1  0  0  0  0
 20 43  1  0  0  0  0
 20 44  1  0  0  0  0
 21 22  1  0  0  0  0
 21 45  1  0  0  0  0
 21 46  1  0  0  0  0
 22 47  1  0  0  0  0
 22 48  1  0  0  0  0
 23 24  2  0  0  0  0
 23 49  1  0  0  0  0
 24 50  1  0  0  0  0
M  CHG  1  24   1
M  END
> <s_m_source_file>
AV-unprocessed.smi

> <i_m_source_file_index>
1138

> <i_lp_mmshare_version>
43012

> <i_f3d_flags>
0

> <s_epik_input>
W0NIM11OKFtDSDNdKWMxW2NIXVtjSF1jKFtjSF1uMSlbTkhdQyg9TylbTkhdW0NIXTJbQ0gyXVtDSDJdTihbQ0gyXVtDSDJdMilDKD1PKVtDSF0zW0NIMl1bQ0gyXTM=

> <s_epik_cmdline>
J2VwaWtfcHl0aG9uJywgJy1waCcsICc3LjAnLCAnLXRuJywgJzgnLCAnLW1hJywgJzIwMCcsICctbWV0YWxfYmluZGluZycsICctaW1hZScsICc8aW5maWxlLm1hZT4nLCAnLW9tYWUnLCAnPG91dGZpbGUubWFlPic=

> <r_lp_tautomer_probability>
0.999994

> <r_epik_Ionization_Penalty>
0.25564

> <r_epik_Ionization_Penalty_Charging>
0.25562

> <r_epik_Ionization_Penalty_Neutral>
1.99621e-05

> <r_epik_State_Penalty>
0.247139

> <r_epik_Charging_Adjusted_Penalty>
0.502759

> <i_epik_Tot_Q>
1

> <i_epik_Tot_abs_Q>
1

> <r_epik_Metal_State_Penalty>
0.536902

> <b_epik_Metal_Only>
0

> <s_lp_Force_Field>
OPLS_2005

> <r_lp_Energy>
38.8624

> <b_lp_Chiralities_Consistent>
1

> <s_lp_Variant>
AV-unprocessed.smi:1138-1

> <Gold.Version>
5.8.1

> <Gold.Id.Protein>
6NUR|6NUR_protein|mol2

> <Gold.PLP.Fitness>
45.2105

> <Gold.PLP.PLP>
-34.0947

> <Gold.PLP.part.hbond>
-3.7357

> <Gold.PLP.part.metal>
0.0000

> <Gold.PLP.part.buried>
-4.8815

> <Gold.PLP.part.nonpolar>
-25.6857

> <Gold.PLP.part.repulsive>
0.0837

> <Gold.PLP.ligand.clash>
0.0000

> <Gold.PLP.ligand.torsion>
1.0232

> <Gold.PLP.Chemscore.Hbond>
4.3395

> <Gold.PLP.Chemscore.CHOScore>
0.0000

> <Gold.PLP.Chemscore.Metal>
0.0000

> <Gold.Chemscore.Hbonds>
donor molecule, donor type, donor heavy atom, donor atom, acceptor molecule, acceptor atom, score
      L1  H     8    33       P1 10175  0.33
      L1  H    11    34       P1 10175  1.00
      L1  H    24    50       P1 10957  1.95
      P1  H 10162 10167       L1    17  0.96

> <Gold.PLP.Chemscore.Internal.Correction>
0.1436

> <Gold.Rescore>
     Score         DG    S(hbond)    S(metal)    S(lipo)     H(rot)  DE(clash)    DE(int)     intcor
     17.64     -21.49       3.10        0.00      74.85       1.21       0.86       2.99       ----

> <Gold.Chemscore.Fitness>
17.6379

> <Gold.Chemscore.DG>
-21.4937

> <Gold.Chemscore.ZeroCoef>
-5.4800

> <Gold.Chemscore.Hbond>
3.0980

> <Gold.Chemscore.Metal>
0.0000

> <Gold.Chemscore.Lipo>
74.8473

> <Gold.Chemscore.Internal_Hbond>
0.0000

> <Gold.Chemscore.DEClash>
0.8609

> <Gold.Chemscore.DEInternal>
2.9949

> <Gold.Chemscore.Rot>
1.2074

> <Gold.Chemscore.Internal.Correction>
   9.000000E+99

> <Gold.Chemscore.Hbonds>
donor molecule, donor type, donor heavy atom, donor atom, acceptor molecule, acceptor atom, score
      L1  H     8    33       P1 10175  0.34
      L1  H    11    34       P1 10175  0.98
      L1  H    24    50       P1 10957  0.59
      P1  H 10162 10167       L1    17  0.65

> <Gold.Chemscore.Hbond.Weighted>
-10.3474

> <Gold.Chemscore.Metal.Weighted>
-0.0000

> <Gold.Chemscore.Lipo.Weighted>
-8.7571

> <Gold.Chemscore.Internal_Hbond.Weighted>
0.0000

> <Gold.Chemscore.DEClash.Weighted>
0.8609

> <Gold.Chemscore.DEInternal.Weighted>
2.9949

> <Gold.Chemscore.Rot.Weighted>
3.0909

> <Gold.Chemscore.Internal.Correction.Weighted>
   9.000000E+99

> <Gold.Protein.RotatedTorsions>
[ 6907 6896 6895 6894 ] final   33.68 input  -60.11 | X-H torsion
[ 7974 7965 7964 7962 ] final  -52.13 input  175.53 | X-H torsion
[ 8008 7997 7996 7995 ] final -104.93 input   59.86 | X-H torsion
[ 10167 10162 10161 10158 ] final -154.83 input  -65.29 | X-H torsion
[ 10718 10713 10712 10709 ] final -164.07 input   66.30 | X-H torsion
[ 10763 10752 10751 10750 ] final    4.36 input  -60.55 | X-H torsion
[ 11005 11000 10999 10996 ] final  146.81 input  -57.11 | X-H torsion

> <Gold.Protein.ActiveResidues>
 VAL166  LYS551  ARG553  GLY616  TRP617  ASP618  TYR619  PRO620  LYS621  CYS622 
 ASP623  PHE694  ASN695  SER759  ASP760  ASP761  ALA762  ILE779  LEU786  VAL792 
 PHE793  MET794  SER795  GLU796  ALA797  LYS798  CYS799  TRP800  GLU811  SER814 

> <Gold.Protein.RotatedAtoms>
  152.0919  134.9401  160.0571 H   0  0  0  0  0  0  0  0  0  0  0  0  # atno 6907 bound_to 6896
  152.0649  133.4074  159.4442 H   0  0  0  0  0  0  0  0  0  0  0  0  # atno 6908 bound_to 6896
  150.6837  134.3078  159.4777 H   0  0  0  0  0  0  0  0  0  0  0  0  # atno 6909 bound_to 6896
  145.9113  140.7912  142.9693 H   0  0  0  0  0  0  0  0  0  0  0  0  # atno 7974 bound_to 7965
  154.8924  140.0415  157.1846 H   0  0  0  0  0  0  0  0  0  0  0  0  # atno 8008 bound_to 7997
  154.8527  140.2932  155.5567 H   0  0  0  0  0  0  0  0  0  0  0  0  # atno 8009 bound_to 7997
  156.2996  140.2462  156.3488 H   0  0  0  0  0  0  0  0  0  0  0  0  # atno 8010 bound_to 7997
  139.6981  143.9309  152.2416 H   0  0  0  0  0  0  0  0  0  0  0  0  # atno 10167 bound_to 10162
  156.6338  130.8940  151.2983 H   0  0  0  0  0  0  0  0  0  0  0  0  # atno 10718 bound_to 10713
  153.2722  135.6933  153.7469 H   0  0  0  0  0  0  0  0  0  0  0  0  # atno 10763 bound_to 10752
  153.6488  135.3380  155.3094 H   0  0  0  0  0  0  0  0  0  0  0  0  # atno 10764 bound_to 10752
  154.8468  135.4449  154.1748 H   0  0  0  0  0  0  0  0  0  0  0  0  # atno 10765 bound_to 10752
  140.0823  134.9089  157.1521 H   0  0  0  0  0  0  0  0  0  0  0  0  # atno 11005 bound_to 11000
  144.6743  140.1830  143.7404 LP  0  0  0  0  0  0  0  0  0  0  0  0  # atno 17320 bound_to 7965
  145.8667  139.2251  143.1684 LP  0  0  0  0  0  0  0  0  0  0  0  0  # atno 17321 bound_to 7965
  139.9143  144.6838  150.8528 LP  0  0  0  0  0  0  0  0  0  0  0  0  # atno 17342 bound_to 10162
  140.7702  143.3420  151.2188 LP  0  0  0  0  0  0  0  0  0  0  0  0  # atno 17343 bound_to 10162
  157.7192  130.9536  150.1371 LP  0  0  0  0  0  0  0  0  0  0  0  0  # atno 17370 bound_to 10713
  156.2213  130.3674  149.8552 LP  0  0  0  0  0  0  0  0  0  0  0  0  # atno 17371 bound_to 10713
  140.3469  134.2641  155.7204 LP  0  0  0  0  0  0  0  0  0  0  0  0  # atno 17394 bound_to 11000
  141.2051  133.7869  157.0251 LP  0  0  0  0  0  0  0  0  0  0  0  0  # atno 17395 bound_to 11000

$$$$
