#       Name:                AV-unprocessed.smi:2556
#       Creating user name   scv26
#       Creation time:       Fri Mar 27 14:06:58 2020


#       File generated by GOLD software.
#

@<TRIPOS>MOLECULE
AV-unprocessed.smi:2556
    42    44     1
SMALL
NO_CHARGES


@<TRIPOS>ATOM
      1 ****        -2.5048   4.8662  -0.3513 C.3            1 S1                 0.0000
      2 ****        -1.9897   3.6018  -0.8807 N.am           1 S1                 0.0000
      3 ****        -1.8241   3.3913  -2.2283 C.2            1 S1                 0.0000
      4 ****        -2.0913   4.2463  -3.0720 O.2            1 S1                 0.0000
      5 ****        -1.3399   2.1744  -2.6277 N.am           1 S1                 0.0000
      6 ****        -0.9908   1.1271  -1.8413 C.2            1 S1                 0.0000
      7 ****        -0.5608   0.0600  -2.2746 O.2            1 S1                 0.0000
      8 ****        -1.1771   1.3998  -0.4132 C.2            1 S1                 0.0000
      9 ****        -1.6548   2.5825   0.0535 C.2            1 S1                 0.0000
     10 ****        -1.7323   2.5799   1.4419 N.2            1 S1                 0.0000
     11 ****        -1.2824   1.3598   1.7436 C.2            1 S1                 0.0000
     12 ****        -0.9280   0.5920   0.6922 N.pl3          1 S1                 0.0000
     13 ****        -0.4095  -0.7660   0.7406 C.3            1 S1                 0.0000
     14 ****         1.1208  -0.8263   0.5620 C.3            1 S1                 0.0000
     15 ****         1.7539  -0.0494   1.5610 O.3            1 S1                 0.0000
     16 ****         1.6166  -2.2639   0.5464 C.ar           1 S1                 0.0000
     17 ****         1.8074  -2.9751   1.7521 C.ar           1 S1                 0.0000
     18 ****         2.2578  -4.3093   1.7259 C.ar           1 S1                 0.0000
     19 ****         2.5168  -4.9418   0.4950 C.ar           1 S1                 0.0000
     20 ****         2.3245  -4.2392  -0.7100 C.ar           1 S1                 0.0000
     21 ****         1.8744  -2.9047  -0.6846 C.ar           1 S1                 0.0000
     22 ****        -1.2299   2.0429  -3.6226 H              1 S1                 0.0000
     23 ****        -2.7807   5.5904  -1.1185 H              1 S1                 0.0000
     24 ****        -1.7555   5.3350   0.2872 H              1 S1                 0.0000
     25 ****        -3.3928   4.6823   0.2544 H              1 S1                 0.0000
     26 ****        -1.2050   1.0138   2.7641 H              1 S1                 0.0000
     27 ****        -0.6960  -1.2117   1.6943 H              1 S1                 0.0000
     28 ****        -0.9077  -1.3529  -0.0317 H              1 S1                 0.0000
     29 ****         1.3841  -0.3690  -0.3922 H              1 S1                 0.0000
     30 ****         2.6802  -0.0216   1.3751 H              1 S1                 0.0000
     31 ****         1.6063  -2.5012   2.7019 H              1 S1                 0.0000
     32 ****         2.4024  -4.8481   2.6507 H              1 S1                 0.0000
     33 ****         2.8606  -5.9655   0.4753 H              1 S1                 0.0000
     34 ****         2.5204  -4.7249  -1.6546 H              1 S1                 0.0000
     35 ****         1.7253  -2.3755  -1.6146 H              1 S1                 0.0000
     36 ****        -2.4444   5.1373  -2.7865 LP             1 S1                 0.0000
     37 ****        -1.9552   4.0502  -4.0431 LP             1 S1                 0.0000
     38 ****        -0.4515  -0.0719  -3.2598 LP             1 S1                 0.0000
     39 ****        -0.3202  -0.6760  -1.6418 LP             1 S1                 0.0000
     40 ****        -2.0444   3.3049   2.0559 LP             1 S1                 0.0000
     41 ****         1.6019  -0.4640   2.4582 LP             1 S1                 0.0000
     42 ****         1.3803   0.8782   1.5548 LP             1 S1                 0.0000
@<TRIPOS>BOND
    1    1    2 1     
    2    1   23 1     
    3    1   24 1     
    4    1   25 1     
    5    2    9 1     
    6    2    3 1     
    7    3    4 2     
    8    3    5 1     
    9    5   22 1     
   10    5    6 1     
   11    6    7 2     
   12    6    8 1     
   13    8   12 1     
   14    8    9 2     
   15    9   10 1     
   16   10   11 2     
   17   11   12 1     
   18   11   26 1     
   19   12   13 1     
   20   13   14 1     
   21   13   27 1     
   22   13   28 1     
   23   14   15 1     
   24   14   16 1     
   25   14   29 1     
   26   15   30 1     
   27   16   21 ar    
   28   16   17 ar    
   29   17   18 ar    
   30   17   31 1     
   31   18   19 ar    
   32   18   32 1     
   33   19   20 ar    
   34   19   33 1     
   35   20   21 ar    
   36   20   34 1     
   37   21   35 1     
   38    4   36 1     
   39    4   37 1     
   40    7   38 1     
   41    7   39 1     
   42   10   40 1     
   43   15   41 1     
   44   15   42 1     
@<TRIPOS>SUBSTRUCTURE
      1 S1             1
@<TRIPOS>SET
LONE_PAIRS      STATIC     ATOMS    <user>   **** ""
7 36 37 38 39 40 41 42
DONOR_HYDROGENS      STATIC     ATOMS    <user>   **** ""
2 22 30
ATOM$BLUE        STATIC     ATOMS    COLORGROUP SYSTEM
7 36 37 38 39 40 41 42
ATOM$RED        STATIC     ATOMS    COLORGROUP SYSTEM
2 22 30
