AV-unprocessed.smi:1578|AV-procd|sdf|6353|dock3
  -GOLD-   22720 6573D 1   1.00000     0.00000
 Structure written by MMmdl.
 45 46  0  0  0  0  0  0  0  0  2 V2000
  149.4889  141.1997  154.9831 C   0  0  0  0  0  0  0  0  0  0  0  0
  149.7504  139.7514  155.4175 C   0  0  1  0  0  0  0  0  0  0  0  0
  149.9374  138.8202  154.1962 C   0  0  0  0  0  0  0  0  0  0  0  0
  148.6739  138.1807  153.7461 N   0  3  0  0  0  0  0  0  0  0  0  0
  148.0120  137.3721  154.7980 C   0  0  0  0  0  0  0  0  0  0  0  0
  146.7656  136.6793  154.2243 C   0  0  0  0  0  0  0  0  0  0  0  0
  145.8756  137.6622  153.7098 O   0  0  0  0  0  0  0  0  0  0  0  0
  146.4597  138.4074  152.6484 C   0  0  0  0  0  0  0  0  0  0  0  0
  147.7146  139.1422  153.1532 C   0  0  0  0  0  0  0  0  0  0  0  0
  150.9275  139.7134  156.2851 N   0  0  0  0  0  0  0  0  0  0  0  0
  150.9186  139.7524  157.6268 C   0  0  0  0  0  0  0  0  0  0  0  0
  149.8958  139.8996  158.2956 O   0  0  0  0  0  0  0  0  0  0  0  0
  152.2748  139.5736  158.3196 C   0  0  0  0  0  0  0  0  0  0  0  0
  152.6033  140.7091  159.1983 N   0  0  0  0  0  0  0  0  0  0  0  0
  151.9587  141.9346  158.9402 C   0  0  0  0  0  0  0  0  0  0  0  0
  152.1747  143.0441  159.6717 C   0  0  0  0  0  0  0  0  0  0  0  0
  151.4436  144.3416  159.3659 C   0  0  0  0  0  0  0  0  0  0  0  0
  151.7764  145.3063  160.2234 F   0  0  0  0  0  0  0  0  0  0  0  0
  151.7405  144.7545  158.1343 F   0  0  0  0  0  0  0  0  0  0  0  0
  150.1250  144.1574  159.4315 F   0  0  0  0  0  0  0  0  0  0  0  0
  153.1128  142.9221  160.7712 C   0  0  0  0  0  0  0  0  0  0  0  0
  153.7339  141.7559  161.0348 C   0  0  0  0  0  0  0  0  0  0  0  0
  153.4945  140.5599  160.2249 C   0  0  0  0  0  0  0  0  0  0  0  0
  154.0543  139.4877  160.4578 O   0  0  0  0  0  0  0  0  0  0  0  0
  148.6011  141.2648  154.3534 H   0  0  0  0  0  0  0  0  0  0  0  0
  150.3286  141.6043  154.4166 H   0  0  0  0  0  0  0  0  0  0  0  0
  149.3273  141.8462  155.8463 H   0  0  0  0  0  0  0  0  0  0  0  0
  148.8734  139.4283  155.9797 H   0  0  0  0  0  0  0  0  0  0  0  0
  150.3949  139.3588  153.3647 H   0  0  0  0  0  0  0  0  0  0  0  0
  150.6444  138.0374  154.4756 H   0  0  0  0  0  0  0  0  0  0  0  0
  148.6960  136.6208  155.1911 H   0  0  0  0  0  0  0  0  0  0  0  0
  147.7310  138.0143  155.6342 H   0  0  0  0  0  0  0  0  0  0  0  0
  147.0394  135.9689  153.4421 H   0  0  0  0  0  0  0  0  0  0  0  0
  146.2561  136.1147  155.0052 H   0  0  0  0  0  0  0  0  0  0  0  0
  146.7011  137.7430  151.8179 H   0  0  0  0  0  0  0  0  0  0  0  0
  145.7287  139.1256  152.2768 H   0  0  0  0  0  0  0  0  0  0  0  0
  147.4377  139.8896  153.8983 H   0  0  0  0  0  0  0  0  0  0  0  0
  148.1844  139.6718  152.3236 H   0  0  0  0  0  0  0  0  0  0  0  0
  151.8212  139.6043  155.8271 H   0  0  0  0  0  0  0  0  0  0  0  0
  152.2827  138.6485  158.8999 H   0  0  0  0  0  0  0  0  0  0  0  0
  153.0338  139.4378  157.5483 H   0  0  0  0  0  0  0  0  0  0  0  0
  151.2689  141.9190  158.1087 H   0  0  0  0  0  0  0  0  0  0  0  0
  153.3239  143.7776  161.3955 H   0  0  0  0  0  0  0  0  0  0  0  0
  154.4264  141.7008  161.8619 H   0  0  0  0  0  0  0  0  0  0  0  0
  148.9276  137.5452  153.0027 H   0  0  0  0  0  0  0  0  0  0  0  0
  1  2  1  0  0  0  0
  1 25  1  0  0  0  0
  1 26  1  0  0  0  0
  1 27  1  0  0  0  0
  2  3  1  0  0  0  0
  2 10  1  0  0  0  0
  2 28  1  0  0  0  0
  3  4  1  0  0  0  0
  3 29  1  0  0  0  0
  3 30  1  0  0  0  0
  4  9  1  0  0  0  0
  4  5  1  0  0  0  0
  4 45  1  0  0  0  0
  5  6  1  0  0  0  0
  5 31  1  0  0  0  0
  5 32  1  0  0  0  0
  6  7  1  0  0  0  0
  6 33  1  0  0  0  0
  6 34  1  0  0  0  0
  7  8  1  0  0  0  0
  8  9  1  0  0  0  0
  8 35  1  0  0  0  0
  8 36  1  0  0  0  0
  9 37  1  0  0  0  0
  9 38  1  0  0  0  0
 10 11  1  0  0  0  0
 10 39  1  0  0  0  0
 11 12  2  0  0  0  0
 11 13  1  0  0  0  0
 13 14  1  0  0  0  0
 13 40  1  0  0  0  0
 13 41  1  0  0  0  0
 14 23  1  0  0  0  0
 14 15  1  0  0  0  0
 15 16  2  0  0  0  0
 15 42  1  0  0  0  0
 16 17  1  0  0  0  0
 16 21  1  0  0  0  0
 17 18  1  0  0  0  0
 17 19  1  0  0  0  0
 17 20  1  0  0  0  0
 21 22  2  0  0  0  0
 21 43  1  0  0  0  0
 22 23  1  0  0  0  0
 22 44  1  0  0  0  0
 23 24  2  0  0  0  0
M  CHG  1   4   1
M  END
> <s_m_source_file>
AV-unprocessed.smi

> <i_m_source_file_index>
1578

> <i_lp_mmshare_version>
43012

> <i_f3d_flags>
0

> <s_epik_input>
W0NIMl0xW0NIMl1PW0NIMl1bQ0gyXU4xW0NIMl1bQ0BASF0oW0NIM10pW05IXUMoPU8pW0NIMl1uMltjSF1jKEMoRikoRilGKVtjSF1bY0hdYzI9Tw==

> <s_epik_cmdline>
J2VwaWtfcHl0aG9uJywgJy1waCcsICc3LjAnLCAnLXRuJywgJzgnLCAnLW1hJywgJzIwMCcsICctbWV0YWxfYmluZGluZycsICctaW1hZScsICc8aW5maWxlLm1hZT4nLCAnLW9tYWUnLCAnPG91dGZpbGUubWFlPic=

> <r_lp_tautomer_probability>
1

> <r_epik_Ionization_Penalty>
0.656654

> <r_epik_Ionization_Penalty_Charging>
0.656653

> <r_epik_Ionization_Penalty_Neutral>
9.12373e-08

> <r_epik_State_Penalty>
0.675641

> <r_epik_Charging_Adjusted_Penalty>
1.33229

> <i_epik_Tot_Q>
1

> <i_epik_Tot_abs_Q>
1

> <r_epik_Metal_State_Penalty>
0.675695

> <b_epik_Metal_Only>
0

> <s_lp_Force_Field>
OPLS_2005

> <r_lp_Energy>
32.4409

> <b_lp_Chiralities_Consistent>
1

> <s_lp_Variant>
AV-unprocessed.smi:1578-4

> <Gold.Version>
5.8.1

> <Gold.Id.Protein>
6NUR|6NUR_protein|mol2

> <Gold.PLP.Fitness>
52.8324

> <Gold.PLP.PLP>
-48.8841

> <Gold.PLP.part.hbond>
-1.5319

> <Gold.PLP.part.metal>
0.0000

> <Gold.PLP.part.buried>
-2.6950

> <Gold.PLP.part.nonpolar>
-44.6595

> <Gold.PLP.part.repulsive>
0.2851

> <Gold.PLP.ligand.clash>
0.0000

> <Gold.PLP.ligand.torsion>
1.1196

> <Gold.PLP.Chemscore.Hbond>
2.0000

> <Gold.PLP.Chemscore.CHOScore>
0.0000

> <Gold.PLP.Chemscore.Metal>
0.0000

> <Gold.Chemscore.Hbonds>
donor molecule, donor type, donor heavy atom, donor atom, acceptor molecule, acceptor atom, score
      L1  H     4    45       P1  7948  2.00

> <Gold.PLP.Chemscore.Internal.Correction>
0.1875

> <Gold.Rescore>
     Score         DG    S(hbond)    S(metal)    S(lipo)     H(rot)  DE(clash)    DE(int)     intcor
     13.41     -14.56       1.00        0.00      96.71       2.17       0.05       1.10       ----

> <Gold.Chemscore.Fitness>
13.4089

> <Gold.Chemscore.DG>
-14.5602

> <Gold.Chemscore.ZeroCoef>
-5.4800

> <Gold.Chemscore.Hbond>
0.9953

> <Gold.Chemscore.Metal>
0.0000

> <Gold.Chemscore.Lipo>
96.7094

> <Gold.Chemscore.Internal_Hbond>
0.0000

> <Gold.Chemscore.DEClash>
0.0468

> <Gold.Chemscore.DEInternal>
1.1045

> <Gold.Chemscore.Rot>
2.1716

> <Gold.Chemscore.Internal.Correction>
   9.000000E+99

> <Gold.Chemscore.Hbonds>
donor molecule, donor type, donor heavy atom, donor atom, acceptor molecule, acceptor atom, score
      L1  H     4    45       P1  7948  1.00

> <Gold.Chemscore.Hbond.Weighted>
-3.3244

> <Gold.Chemscore.Metal.Weighted>
-0.0000

> <Gold.Chemscore.Lipo.Weighted>
-11.3150

> <Gold.Chemscore.Internal_Hbond.Weighted>
0.0000

> <Gold.Chemscore.DEClash.Weighted>
0.0468

> <Gold.Chemscore.DEInternal.Weighted>
1.1045

> <Gold.Chemscore.Rot.Weighted>
5.5592

> <Gold.Chemscore.Internal.Correction.Weighted>
   9.000000E+99

> <Gold.Protein.RotatedTorsions>
[ 6907 6896 6895 6894 ] final  162.19 input  -60.11 | X-H torsion
[ 7974 7965 7964 7962 ] final  132.67 input  175.53 | X-H torsion
[ 8008 7997 7996 7995 ] final -111.37 input   59.86 | X-H torsion
[ 10167 10162 10161 10158 ] final  -16.09 input  -65.29 | X-H torsion
[ 10718 10713 10712 10709 ] final -109.94 input   66.30 | X-H torsion
[ 10763 10752 10751 10750 ] final   91.39 input  -60.55 | X-H torsion
[ 11005 11000 10999 10996 ] final   65.74 input  -57.11 | X-H torsion

> <Gold.Protein.ActiveResidues>
 VAL166  LYS551  ARG553  GLY616  TRP617  ASP618  TYR619  PRO620  LYS621  CYS622 
 ASP623  PHE694  ASN695  SER759  ASP760  ASP761  ALA762  ILE779  LEU786  VAL792 
 PHE793  MET794  SER795  GLU796  ALA797  LYS798  CYS799  TRP800  GLU811  SER814 

> <Gold.Protein.RotatedAtoms>
  151.9442  133.3647  159.3975 H   0  0  0  0  0  0  0  0  0  0  0  0  # atno 6907 bound_to 6896
  150.6992  134.4408  159.5300 H   0  0  0  0  0  0  0  0  0  0  0  0  # atno 6908 bound_to 6896
  152.2070  134.8536  160.0552 H   0  0  0  0  0  0  0  0  0  0  0  0  # atno 6909 bound_to 6896
  144.9944  139.4374  143.5323 H   0  0  0  0  0  0  0  0  0  0  0  0  # atno 7974 bound_to 7965
  154.9888  140.0395  157.2310 H   0  0  0  0  0  0  0  0  0  0  0  0  # atno 8008 bound_to 7997
  154.7647  140.2791  155.6163 H   0  0  0  0  0  0  0  0  0  0  0  0  # atno 8009 bound_to 7997
  156.2910  140.2621  156.2434 H   0  0  0  0  0  0  0  0  0  0  0  0  # atno 8010 bound_to 7997
  140.7228  143.5152  150.9701 H   0  0  0  0  0  0  0  0  0  0  0  0  # atno 10167 bound_to 10162
  156.0564  130.5789  150.8168 H   0  0  0  0  0  0  0  0  0  0  0  0  # atno 10718 bound_to 10713
  153.2077  135.4399  155.0343 H   0  0  0  0  0  0  0  0  0  0  0  0  # atno 10763 bound_to 10752
  154.8183  135.3325  154.7115 H   0  0  0  0  0  0  0  0  0  0  0  0  # atno 10764 bound_to 10752
  153.7555  135.6995  153.4992 H   0  0  0  0  0  0  0  0  0  0  0  0  # atno 10765 bound_to 10752
  139.9875  134.6644  156.0150 H   0  0  0  0  0  0  0  0  0  0  0  0  # atno 11005 bound_to 11000
  146.3438  139.9295  142.8755 LP  0  0  0  0  0  0  0  0  0  0  0  0  # atno 17320 bound_to 7965
  145.2240  140.9947  143.4029 LP  0  0  0  0  0  0  0  0  0  0  0  0  # atno 17321 bound_to 7965
  139.8867  143.7004  152.3150 LP  0  0  0  0  0  0  0  0  0  0  0  0  # atno 17342 bound_to 10162
  139.7305  144.7583  151.0809 LP  0  0  0  0  0  0  0  0  0  0  0  0  # atno 17343 bound_to 10162
  157.5536  131.0944  150.9660 LP  0  0  0  0  0  0  0  0  0  0  0  0  # atno 17370 bound_to 10713
  156.9914  130.5564  149.5303 LP  0  0  0  0  0  0  0  0  0  0  0  0  # atno 17371 bound_to 10713
  141.1537  133.6545  156.4094 LP  0  0  0  0  0  0  0  0  0  0  0  0  # atno 17394 bound_to 11000
  140.4973  134.6519  157.5235 LP  0  0  0  0  0  0  0  0  0  0  0  0  # atno 17395 bound_to 11000

$$$$
