AV-unprocessed.smi:1840|AV-procd|sdf|7489|dock1
  -GOLD-   22720 9183D 1   1.00000     0.00000
 Structure written by MMmdl.
 43 44  0  0  0  0  0  0  0  0  1 V2000
  143.8852  136.7138  152.3155 C   0  0  0  0  0  0  0  0  0  0  0  0
  145.1094  135.7967  152.1793 C   0  0  1  0  0  0  0  0  0  0  0  0
  145.2362  135.2241  150.7543 C   0  0  0  0  0  0  0  0  0  0  0  0
  145.1284  133.7758  150.7312 N   0  0  0  0  0  0  0  0  0  0  0  0
  143.9898  133.0015  150.6534 C   0  0  0  0  0  0  0  0  0  0  0  0
  144.3866  131.6951  150.6466 C   0  0  0  0  0  0  0  0  0  0  0  0
  145.8052  131.7728  150.7278 C   0  0  0  0  0  0  0  0  0  0  0  0
  146.2461  133.0194  150.7787 N   0  0  0  0  0  0  0  0  0  0  0  0
  146.3207  136.5365  152.5282 N   0  0  0  0  0  0  0  0  0  0  0  0
  146.4371  137.4051  153.5418 C   0  0  0  0  0  0  0  0  0  0  0  0
  145.5124  137.7235  154.2894 O   0  0  0  0  0  0  0  0  0  0  0  0
  147.6895  137.8723  153.6467 N   0  0  0  0  0  0  0  0  0  0  0  0
  148.1689  138.8223  154.6496 C   0  0  2  0  0  0  0  0  0  0  0  0
  147.4308  140.1611  154.4515 C   0  0  0  0  0  0  0  0  0  0  0  0
  147.9272  141.2349  155.4301 C   0  0  0  0  0  0  0  0  0  0  0  0
  149.4440  141.4290  155.3067 C   0  0  0  0  0  0  0  0  0  0  0  0
  150.1866  140.1020  155.5237 C   0  0  0  0  0  0  0  0  0  0  0  0
  149.7063  139.0054  154.5507 C   0  0  1  0  0  0  0  0  0  0  0  0
  150.4806  137.6966  154.7912 C   0  0  0  0  0  0  0  0  0  0  0  0
  142.9661  136.1756  152.0820 H   0  0  0  0  0  0  0  0  0  0  0  0
  143.9512  137.5684  151.6416 H   0  0  0  0  0  0  0  0  0  0  0  0
  143.7913  137.0969  153.3323 H   0  0  0  0  0  0  0  0  0  0  0  0
  144.9788  134.9591  152.8672 H   0  0  0  0  0  0  0  0  0  0  0  0
  144.4551  135.6344  150.1122 H   0  0  0  0  0  0  0  0  0  0  0  0
  146.1889  135.5116  150.3070 H   0  0  0  0  0  0  0  0  0  0  0  0
  143.0042  133.4399  150.6045 H   0  0  0  0  0  0  0  0  0  0  0  0
  143.7591  130.8182  150.5909 H   0  0  0  0  0  0  0  0  0  0  0  0
  146.5230  130.9660  150.7504 H   0  0  0  0  0  0  0  0  0  0  0  0
  147.1414  136.3475  151.9717 H   0  0  0  0  0  0  0  0  0  0  0  0
  148.3728  137.5404  152.9819 H   0  0  0  0  0  0  0  0  0  0  0  0
  147.9297  138.4593  155.6511 H   0  0  0  0  0  0  0  0  0  0  0  0
  147.5720  140.5141  153.4287 H   0  0  0  0  0  0  0  0  0  0  0  0
  146.3575  140.0176  154.5821 H   0  0  0  0  0  0  0  0  0  0  0  0
  147.4140  142.1781  155.2403 H   0  0  0  0  0  0  0  0  0  0  0  0
  147.6760  140.9451  156.4511 H   0  0  0  0  0  0  0  0  0  0  0  0
  149.6849  141.8283  154.3207 H   0  0  0  0  0  0  0  0  0  0  0  0
  149.7842  142.1686  156.0320 H   0  0  0  0  0  0  0  0  0  0  0  0
  151.2582  140.2641  155.4028 H   0  0  0  0  0  0  0  0  0  0  0  0
  150.0404  139.7703  156.5525 H   0  0  0  0  0  0  0  0  0  0  0  0
  149.9415  139.3405  153.5392 H   0  0  0  0  0  0  0  0  0  0  0  0
  150.2483  137.2745  155.7694 H   0  0  0  0  0  0  0  0  0  0  0  0
  151.5571  137.8644  154.7489 H   0  0  0  0  0  0  0  0  0  0  0  0
  150.2443  136.9433  154.0395 H   0  0  0  0  0  0  0  0  0  0  0  0
  1  2  1  0  0  0  0
  1 20  1  0  0  0  0
  1 21  1  0  0  0  0
  1 22  1  0  0  0  0
  2  3  1  0  0  0  0
  2  9  1  0  0  0  0
  2 23  1  0  0  0  0
  3  4  1  0  0  0  0
  3 24  1  0  0  0  0
  3 25  1  0  0  0  0
  4  8  1  0  0  0  0
  4  5  1  0  0  0  0
  5  6  2  0  0  0  0
  5 26  1  0  0  0  0
  6  7  1  0  0  0  0
  6 27  1  0  0  0  0
  7  8  2  0  0  0  0
  7 28  1  0  0  0  0
  9 10  1  0  0  0  0
  9 29  1  0  0  0  0
 10 11  2  0  0  0  0
 10 12  1  0  0  0  0
 12 13  1  0  0  0  0
 12 30  1  0  0  0  0
 13 18  1  0  0  0  0
 13 14  1  0  0  0  0
 13 31  1  0  0  0  0
 14 15  1  0  0  0  0
 14 32  1  0  0  0  0
 14 33  1  0  0  0  0
 15 16  1  0  0  0  0
 15 34  1  0  0  0  0
 15 35  1  0  0  0  0
 16 17  1  0  0  0  0
 16 36  1  0  0  0  0
 16 37  1  0  0  0  0
 17 18  1  0  0  0  0
 17 38  1  0  0  0  0
 17 39  1  0  0  0  0
 18 19  1  0  0  0  0
 18 40  1  0  0  0  0
 19 41  1  0  0  0  0
 19 42  1  0  0  0  0
 19 43  1  0  0  0  0
M  END
> <s_m_source_file>
AV-unprocessed.smi

> <i_m_source_file_index>
1840

> <i_lp_mmshare_version>
43012

> <i_f3d_flags>
0

> <s_epik_input>
bjFbY0hdW2NIXVtjSF1uMVtDSDJdW0NAQEhdKFtDSDNdKVtOSF1DKD1PKVtOSF1bQ0BASF0yW0NIMl1bQ0gyXVtDSDJdW0NIMl1bQ0BIXTJbQ0gzXQ==

> <s_epik_cmdline>
J2VwaWtfcHl0aG9uJywgJy1waCcsICc3LjAnLCAnLXRuJywgJzgnLCAnLW1hJywgJzIwMCcsICctbWV0YWxfYmluZGluZycsICctaW1hZScsICc8aW5maWxlLm1hZT4nLCAnLW9tYWUnLCAnPG91dGZpbGUubWFlPic=

> <r_lp_tautomer_probability>
1

> <r_epik_Ionization_Penalty>
7.38659e-05

> <r_epik_Ionization_Penalty_Charging>
0

> <r_epik_Ionization_Penalty_Neutral>
7.38659e-05

> <r_epik_State_Penalty>
-0

> <r_epik_Charging_Adjusted_Penalty>
0

> <i_epik_Tot_Q>
0

> <i_epik_Tot_abs_Q>
0

> <r_epik_Metal_State_Penalty>
-0

> <b_epik_Metal_Only>
0

> <s_lp_Force_Field>
OPLS_2005

> <r_lp_Energy>
8.744

> <b_lp_Chiralities_Consistent>
1

> <s_lp_Variant>
AV-unprocessed.smi:1840-2

> <Gold.Version>
5.8.1

> <Gold.Id.Protein>
6NUR|6NUR_protein|mol2

> <Gold.PLP.Fitness>
43.9170

> <Gold.PLP.PLP>
-34.8052

> <Gold.PLP.part.hbond>
-2.0000

> <Gold.PLP.part.metal>
0.0000

> <Gold.PLP.part.buried>
-3.8334

> <Gold.PLP.part.nonpolar>
-29.7423

> <Gold.PLP.part.repulsive>
0.3450

> <Gold.PLP.ligand.clash>
0.0000

> <Gold.PLP.ligand.torsion>
1.3738

> <Gold.PLP.Chemscore.Hbond>
1.9360

> <Gold.PLP.Chemscore.CHOScore>
2.0000

> <Gold.PLP.Chemscore.Metal>
0.0000

> <Gold.Chemscore.Hbonds>
donor molecule, donor type, donor heavy atom, donor atom, acceptor molecule, acceptor atom, score
      L1  H     9    29       P1  7948  1.00
      L1  H    12    30       P1  7948  1.00
      L1  C     5    26       P1 10186  1.00
      L1  C     7    28       P1 10747  1.00

> <Gold.PLP.Chemscore.Internal.Correction>
0.0514

> <Gold.Rescore>
     Score         DG    S(hbond)    S(metal)    S(lipo)     H(rot)  DE(clash)    DE(int)     intcor
     14.91     -17.75       1.90        0.00      84.76       1.56       0.02       2.82       ----

> <Gold.Chemscore.Fitness>
14.9101

> <Gold.Chemscore.DG>
-17.7491

> <Gold.Chemscore.ZeroCoef>
-5.4800

> <Gold.Chemscore.Hbond>
1.8980

> <Gold.Chemscore.Metal>
0.0000

> <Gold.Chemscore.Lipo>
84.7624

> <Gold.Chemscore.Internal_Hbond>
0.0000

> <Gold.Chemscore.DEClash>
0.0166

> <Gold.Chemscore.DEInternal>
2.8224

> <Gold.Chemscore.Rot>
1.5576

> <Gold.Chemscore.Internal.Correction>
   9.000000E+99

> <Gold.Chemscore.Hbonds>
donor molecule, donor type, donor heavy atom, donor atom, acceptor molecule, acceptor atom, score
      L1  H     9    29       P1  7948  0.94
      L1  H    12    30       P1  7948  0.94

> <Gold.Chemscore.Hbond.Weighted>
-6.3394

> <Gold.Chemscore.Metal.Weighted>
-0.0000

> <Gold.Chemscore.Lipo.Weighted>
-9.9172

> <Gold.Chemscore.Internal_Hbond.Weighted>
0.0000

> <Gold.Chemscore.DEClash.Weighted>
0.0166

> <Gold.Chemscore.DEInternal.Weighted>
2.8224

> <Gold.Chemscore.Rot.Weighted>
3.9875

> <Gold.Chemscore.Internal.Correction.Weighted>
   9.000000E+99

> <Gold.Protein.RotatedTorsions>
[ 6907 6896 6895 6894 ] final  -51.60 input  -60.11 | X-H torsion
[ 7974 7965 7964 7962 ] final -149.19 input  175.53 | X-H torsion
[ 8008 7997 7996 7995 ] final   20.14 input   59.86 | X-H torsion
[ 10167 10162 10161 10158 ] final  -25.50 input  -65.29 | X-H torsion
[ 10718 10713 10712 10709 ] final -118.22 input   66.30 | X-H torsion
[ 10763 10752 10751 10750 ] final  142.52 input  -60.55 | X-H torsion
[ 11005 11000 10999 10996 ] final  -95.18 input  -57.11 | X-H torsion

> <Gold.Protein.ActiveResidues>
 VAL166  LYS551  ARG553  GLY616  TRP617  ASP618  TYR619  PRO620  LYS621  CYS622 
 ASP623  PHE694  ASN695  SER759  ASP760  ASP761  ALA762  ILE779  LEU786  VAL792 
 PHE793  MET794  SER795  GLU796  ALA797  LYS798  CYS799  TRP800  GLU811  SER814 

> <Gold.Protein.RotatedAtoms>
  150.8596  134.7944  159.7072 H   0  0  0  0  0  0  0  0  0  0  0  0  # atno 6907 bound_to 6896
  152.4637  134.5122  159.9767 H   0  0  0  0  0  0  0  0  0  0  0  0  # atno 6908 bound_to 6896
  151.5228  133.3425  159.2940 H   0  0  0  0  0  0  0  0  0  0  0  0  # atno 6909 bound_to 6896
  144.7982  140.5097  143.5725 H   0  0  0  0  0  0  0  0  0  0  0  0  # atno 7974 bound_to 7965
  154.9312  140.3040  155.5167 H   0  0  0  0  0  0  0  0  0  0  0  0  # atno 8008 bound_to 7997
  156.3003  140.2353  156.4308 H   0  0  0  0  0  0  0  0  0  0  0  0  # atno 8009 bound_to 7997
  154.8236  140.0422  157.1417 H   0  0  0  0  0  0  0  0  0  0  0  0  # atno 8010 bound_to 7997
  140.7286  143.4260  151.0876 H   0  0  0  0  0  0  0  0  0  0  0  0  # atno 10167 bound_to 10162
  156.1090  130.6234  150.9263 H   0  0  0  0  0  0  0  0  0  0  0  0  # atno 10718 bound_to 10713
  153.9571  135.2964  155.3435 H   0  0  0  0  0  0  0  0  0  0  0  0  # atno 10763 bound_to 10752
  154.7395  135.5031  153.9101 H   0  0  0  0  0  0  0  0  0  0  0  0  # atno 10764 bound_to 10752
  153.0965  135.6722  153.9863 H   0  0  0  0  0  0  0  0  0  0  0  0  # atno 10765 bound_to 10752
  141.1449  133.8008  157.0399 H   0  0  0  0  0  0  0  0  0  0  0  0  # atno 11005 bound_to 11000
  145.5618  139.1480  143.3337 LP  0  0  0  0  0  0  0  0  0  0  0  0  # atno 17320 bound_to 7965
  146.2257  140.5754  142.8997 LP  0  0  0  0  0  0  0  0  0  0  0  0  # atno 17321 bound_to 7965
  139.7911  143.8217  152.3152 LP  0  0  0  0  0  0  0  0  0  0  0  0  # atno 17342 bound_to 10162
  139.8201  144.7299  150.9583 LP  0  0  0  0  0  0  0  0  0  0  0  0  # atno 17343 bound_to 10162
  157.6270  131.0925  150.8515 LP  0  0  0  0  0  0  0  0  0  0  0  0  # atno 17370 bound_to 10713
  156.8629  130.5119  149.5302 LP  0  0  0  0  0  0  0  0  0  0  0  0  # atno 17371 bound_to 10713
  140.0699  134.9708  157.1450 LP  0  0  0  0  0  0  0  0  0  0  0  0  # atno 17394 bound_to 11000
  140.3726  134.2374  155.7177 LP  0  0  0  0  0  0  0  0  0  0  0  0  # atno 17395 bound_to 11000

$$$$
