AV-unprocessed.smi:1093|AV-procd|sdf|4743|dock2
  -GOLD-   22720 3273D 1   1.00000     0.00000
 Structure written by MMmdl.
 47 48  0  0  0  0  0  0  0  0  2 V2000
  144.2640  133.8754  150.8283 C   0  0  0  0  0  0  0  0  0  0  0  0
  145.4395  134.8631  150.8027 C   0  0  0  0  0  0  0  0  0  0  0  0
  146.4583  134.5540  151.8366 N   0  3  2  0  0  0  0  0  0  0  0  0
  147.1114  133.2373  151.6158 C   0  0  0  0  0  0  0  0  0  0  0  0
  148.2660  133.0143  152.6087 C   0  0  0  0  0  0  0  0  0  0  0  0
  147.7971  133.1817  154.0645 C   0  0  0  0  0  0  0  0  0  0  0  0
  147.0790  134.5290  154.2605 C   0  0  1  0  0  0  0  0  0  0  0  0
  148.0431  135.6256  154.1580 N   0  0  0  0  0  0  0  0  0  0  0  0
  148.3230  136.5080  155.1277 C   0  0  0  0  0  0  0  0  0  0  0  0
  147.7915  136.4850  156.2371 O   0  0  0  0  0  0  0  0  0  0  0  0
  149.2526  137.3915  154.7266 N   0  0  0  0  0  0  0  0  0  0  0  0
  149.7607  138.5229  155.4209 C   0  0  0  0  0  0  0  0  0  0  0  0
  150.1492  139.7342  154.8036 C   0  0  0  0  0  0  0  0  0  0  0  0
  150.6629  140.7745  155.6013 C   0  0  0  0  0  0  0  0  0  0  0  0
  150.7850  140.5835  157.0001 C   0  0  0  0  0  0  0  0  0  0  0  0
  151.2969  141.5977  157.8415 N   0  0  0  0  0  0  0  0  0  0  0  0
  151.2879  142.9868  157.3938 C   0  0  0  0  0  0  0  0  0  0  0  0
  151.8255  141.2615  159.1577 C   0  0  0  0  0  0  0  0  0  0  0  0
  150.4195  139.4160  157.5836 N   0  0  0  0  0  0  0  0  0  0  0  0
  149.9281  138.4216  156.8158 C   0  0  0  0  0  0  0  0  0  0  0  0
  145.9395  134.6657  153.2257 C   0  0  0  0  0  0  0  0  0  0  0  0
  143.4916  134.1816  150.1224 H   0  0  0  0  0  0  0  0  0  0  0  0
  143.8072  133.8320  151.8174 H   0  0  0  0  0  0  0  0  0  0  0  0
  144.5679  132.8657  150.5544 H   0  0  0  0  0  0  0  0  0  0  0  0
  145.9017  134.8900  149.8150 H   0  0  0  0  0  0  0  0  0  0  0  0
  145.0363  135.8606  150.9820 H   0  0  0  0  0  0  0  0  0  0  0  0
  146.3705  132.4422  151.7141 H   0  0  0  0  0  0  0  0  0  0  0  0
  147.5013  133.1829  150.5986 H   0  0  0  0  0  0  0  0  0  0  0  0
  148.6892  132.0193  152.4678 H   0  0  0  0  0  0  0  0  0  0  0  0
  149.0701  133.7197  152.3960 H   0  0  0  0  0  0  0  0  0  0  0  0
  147.1146  132.3691  154.3173 H   0  0  0  0  0  0  0  0  0  0  0  0
  148.6427  133.0937  154.7478 H   0  0  0  0  0  0  0  0  0  0  0  0
  146.6520  134.5482  155.2649 H   0  0  0  0  0  0  0  0  0  0  0  0
  148.5425  135.7107  153.2846 H   0  0  0  0  0  0  0  0  0  0  0  0
  149.6662  137.2225  153.8212 H   0  0  0  0  0  0  0  0  0  0  0  0
  150.0807  139.8850  153.7379 H   0  0  0  0  0  0  0  0  0  0  0  0
  150.9574  141.6957  155.1217 H   0  0  0  0  0  0  0  0  0  0  0  0
  150.2692  143.3155  157.1853 H   0  0  0  0  0  0  0  0  0  0  0  0
  151.8816  143.1005  156.4863 H   0  0  0  0  0  0  0  0  0  0  0  0
  151.7040  143.6524  158.1501 H   0  0  0  0  0  0  0  0  0  0  0  0
  151.0520  140.8050  159.7762 H   0  0  0  0  0  0  0  0  0  0  0  0
  152.1872  142.1479  159.6788 H   0  0  0  0  0  0  0  0  0  0  0  0
  152.6599  140.5651  159.0696 H   0  0  0  0  0  0  0  0  0  0  0  0
  149.6591  137.5139  157.3360 H   0  0  0  0  0  0  0  0  0  0  0  0
  145.4260  135.6156  153.3669 H   0  0  0  0  0  0  0  0  0  0  0  0
  145.1898  133.8906  153.3940 H   0  0  0  0  0  0  0  0  0  0  0  0
  147.1835  135.2499  151.7371 H   0  0  0  0  0  0  0  0  0  0  0  0
  1  2  1  0  0  0  0
  1 22  1  0  0  0  0
  1 23  1  0  0  0  0
  1 24  1  0  0  0  0
  2  3  1  0  0  0  0
  2 25  1  0  0  0  0
  2 26  1  0  0  0  0
  3 21  1  0  0  0  0
  3  4  1  0  0  0  0
  3 47  1  0  0  0  0
  4  5  1  0  0  0  0
  4 27  1  0  0  0  0
  4 28  1  0  0  0  0
  5  6  1  0  0  0  0
  5 29  1  0  0  0  0
  5 30  1  0  0  0  0
  6  7  1  0  0  0  0
  6 31  1  0  0  0  0
  6 32  1  0  0  0  0
  7  8  1  0  0  0  0
  7 21  1  0  0  0  0
  7 33  1  0  0  0  0
  8  9  1  0  0  0  0
  8 34  1  0  0  0  0
  9 10  2  0  0  0  0
  9 11  1  0  0  0  0
 11 12  1  0  0  0  0
 11 35  1  0  0  0  0
 12 20  1  0  0  0  0
 12 13  2  0  0  0  0
 13 14  1  0  0  0  0
 13 36  1  0  0  0  0
 14 15  2  0  0  0  0
 14 37  1  0  0  0  0
 15 16  1  0  0  0  0
 15 19  1  0  0  0  0
 16 17  1  0  0  0  0
 16 18  1  0  0  0  0
 17 38  1  0  0  0  0
 17 39  1  0  0  0  0
 17 40  1  0  0  0  0
 18 41  1  0  0  0  0
 18 42  1  0  0  0  0
 18 43  1  0  0  0  0
 19 20  2  0  0  0  0
 20 44  1  0  0  0  0
 21 45  1  0  0  0  0
 21 46  1  0  0  0  0
M  CHG  1   3   1
M  END
> <s_m_source_file>
AV-unprocessed.smi

> <i_m_source_file_index>
1093

> <i_lp_mmshare_version>
43012

> <i_f3d_flags>
0

> <s_epik_input>
W0NIM11bQ0gyXU4xW0NIMl1bQ0gyXVtDSDJdW0NASF0oW0NIMl0xKVtOSF1DKD1PKVtOSF1jMltjSF1bY0hdYyhOKFtDSDNdKVtDSDNdKW5bY0hdMg==

> <s_epik_cmdline>
J2VwaWtfcHl0aG9uJywgJy1waCcsICc3LjAnLCAnLXRuJywgJzgnLCAnLW1hJywgJzIwMCcsICctbWV0YWxfYmluZGluZycsICctaW1hZScsICc8aW5maWxlLm1hZT4nLCAnLW9tYWUnLCAnPG91dGZpbGUubWFlPic=

> <r_lp_tautomer_probability>
1

> <r_epik_Ionization_Penalty>
0.489418

> <r_epik_Ionization_Penalty_Charging>
0.00268196

> <r_epik_Ionization_Penalty_Neutral>
0.486736

> <r_epik_State_Penalty>
0.491157

> <r_epik_Charging_Adjusted_Penalty>
0.493839

> <i_epik_Tot_Q>
1

> <i_epik_Tot_abs_Q>
1

> <r_epik_Metal_State_Penalty>
0.266953

> <b_epik_Metal_Only>
0

> <s_lp_Force_Field>
OPLS_2005

> <r_lp_Energy>
27.714

> <b_lp_Chiralities_Consistent>
1

> <s_lp_Variant>
AV-unprocessed.smi:1093-6

> <Gold.Version>
5.8.1

> <Gold.Id.Protein>
6NUR|6NUR_protein|mol2

> <Gold.PLP.Fitness>
40.3504

> <Gold.PLP.PLP>
-31.3126

> <Gold.PLP.part.hbond>
-2.8240

> <Gold.PLP.part.metal>
0.0000

> <Gold.PLP.part.buried>
-2.8040

> <Gold.PLP.part.nonpolar>
-25.5389

> <Gold.PLP.part.repulsive>
0.0560

> <Gold.PLP.ligand.clash>
0.0000

> <Gold.PLP.ligand.torsion>
0.4427

> <Gold.PLP.Chemscore.Hbond>
3.2990

> <Gold.PLP.Chemscore.CHOScore>
0.0000

> <Gold.PLP.Chemscore.Metal>
0.0000

> <Gold.Chemscore.Hbonds>
donor molecule, donor type, donor heavy atom, donor atom, acceptor molecule, acceptor atom, score
      L1  H     3    47       P1  7948  2.00
      L1  H     8    34       P1  7948  1.00
      L1  H    11    35       P1  7948  0.27

> <Gold.PLP.Chemscore.Internal.Correction>
0.0262

> <Gold.Rescore>
     Score         DG    S(hbond)    S(metal)    S(lipo)     H(rot)  DE(clash)    DE(int)     intcor
     16.67     -18.24       2.18        0.00      72.76       1.18       0.02       1.54       ----

> <Gold.Chemscore.Fitness>
16.6719

> <Gold.Chemscore.DG>
-18.2361

> <Gold.Chemscore.ZeroCoef>
-5.4800

> <Gold.Chemscore.Hbond>
2.1781

> <Gold.Chemscore.Metal>
0.0000

> <Gold.Chemscore.Lipo>
72.7602

> <Gold.Chemscore.Internal_Hbond>
0.0000

> <Gold.Chemscore.DEClash>
0.0214

> <Gold.Chemscore.DEInternal>
1.5429

> <Gold.Chemscore.Rot>
1.1842

> <Gold.Chemscore.Internal.Correction>
   9.000000E+99

> <Gold.Chemscore.Hbonds>
donor molecule, donor type, donor heavy atom, donor atom, acceptor molecule, acceptor atom, score
      L1  H     3    47       P1  7948  0.95
      L1  H     8    34       P1  7948  0.95
      L1  H    11    35       P1  7948  0.22

> <Gold.Chemscore.Hbond.Weighted>
-7.2749

> <Gold.Chemscore.Metal.Weighted>
-0.0000

> <Gold.Chemscore.Lipo.Weighted>
-8.5129

> <Gold.Chemscore.Internal_Hbond.Weighted>
0.0000

> <Gold.Chemscore.DEClash.Weighted>
0.0214

> <Gold.Chemscore.DEInternal.Weighted>
1.5429

> <Gold.Chemscore.Rot.Weighted>
3.0317

> <Gold.Chemscore.Internal.Correction.Weighted>
   9.000000E+99

> <Gold.Protein.RotatedTorsions>
[ 6907 6896 6895 6894 ] final   70.54 input  -60.11 | X-H torsion
[ 7974 7965 7964 7962 ] final  149.24 input  175.53 | X-H torsion
[ 8008 7997 7996 7995 ] final   92.44 input   59.86 | X-H torsion
[ 10167 10162 10161 10158 ] final  -51.72 input  -65.29 | X-H torsion
[ 10718 10713 10712 10709 ] final  -57.62 input   66.30 | X-H torsion
[ 10763 10752 10751 10750 ] final   10.41 input  -60.55 | X-H torsion
[ 11005 11000 10999 10996 ] final   64.60 input  -57.11 | X-H torsion

> <Gold.Protein.ActiveResidues>
 VAL166  LYS551  ARG553  GLY616  TRP617  ASP618  TYR619  PRO620  LYS621  CYS622 
 ASP623  PHE694  ASN695  SER759  ASP760  ASP761  ALA762  ILE779  LEU786  VAL792 
 PHE793  MET794  SER795  GLU796  ALA797  LYS798  CYS799  TRP800  GLU811  SER814 

> <Gold.Protein.RotatedAtoms>
  152.4755  134.4854  159.9678 H   0  0  0  0  0  0  0  0  0  0  0  0  # atno 6907 bound_to 6896
  151.4871  133.3527  159.2855 H   0  0  0  0  0  0  0  0  0  0  0  0  # atno 6908 bound_to 6896
  150.8791  134.8206  159.7273 H   0  0  0  0  0  0  0  0  0  0  0  0  # atno 6909 bound_to 6896
  144.8453  139.6255  143.5998 H   0  0  0  0  0  0  0  0  0  0  0  0  # atno 7974 bound_to 7965
  156.0354  140.3325  155.7185 H   0  0  0  0  0  0  0  0  0  0  0  0  # atno 8008 bound_to 7997
  155.5824  140.0638  157.2797 H   0  0  0  0  0  0  0  0  0  0  0  0  # atno 8009 bound_to 7997
  154.4370  140.1841  156.0978 H   0  0  0  0  0  0  0  0  0  0  0  0  # atno 8010 bound_to 7997
  140.6574  143.2609  151.4544 H   0  0  0  0  0  0  0  0  0  0  0  0  # atno 10167 bound_to 10162
  156.1197  130.4167  150.0465 H   0  0  0  0  0  0  0  0  0  0  0  0  # atno 10718 bound_to 10713
  153.2035  135.6859  153.8202 H   0  0  0  0  0  0  0  0  0  0  0  0  # atno 10763 bound_to 10752
  153.7460  135.3231  155.3313 H   0  0  0  0  0  0  0  0  0  0  0  0  # atno 10764 bound_to 10752
  154.8184  135.4669  154.0811 H   0  0  0  0  0  0  0  0  0  0  0  0  # atno 10765 bound_to 10752
  139.9948  134.6535  156.0029 H   0  0  0  0  0  0  0  0  0  0  0  0  # atno 11005 bound_to 11000
  146.2738  139.6703  142.9277 LP  0  0  0  0  0  0  0  0  0  0  0  0  # atno 17320 bound_to 7965
  145.4610  141.0433  143.2751 LP  0  0  0  0  0  0  0  0  0  0  0  0  # atno 17321 bound_to 7965
  139.5799  144.1732  152.1954 LP  0  0  0  0  0  0  0  0  0  0  0  0  # atno 17342 bound_to 10162
  140.1055  144.5503  150.6960 LP  0  0  0  0  0  0  0  0  0  0  0  0  # atno 17343 bound_to 10162
  156.8407  130.9425  151.3632 LP  0  0  0  0  0  0  0  0  0  0  0  0  # atno 17370 bound_to 10713
  157.6380  130.8782  149.9395 LP  0  0  0  0  0  0  0  0  0  0  0  0  # atno 17371 bound_to 10713
  141.1595  133.6540  156.4272 LP  0  0  0  0  0  0  0  0  0  0  0  0  # atno 17394 bound_to 11000
  140.4839  134.6638  157.5183 LP  0  0  0  0  0  0  0  0  0  0  0  0  # atno 17395 bound_to 11000

$$$$
