AV-unprocessed.smi:1794|AV-procd|sdf|7234|dock2
  -GOLD-   22720 8483D 1   1.00000     0.00000
 Structure written by MMmdl.
 55 57  0  0  0  0  0  0  0  0  2 V2000
  151.4285  144.4894  158.0594 C   0  0  0  0  0  0  0  0  0  0  0  0
  151.0159  143.9961  159.4669 C   0  0  0  0  0  0  0  0  0  0  0  0
  150.4820  145.2273  160.2443 C   0  0  0  0  0  0  0  0  0  0  0  0
  149.8042  143.0339  159.2862 C   0  0  0  0  0  0  0  0  0  0  0  0
  148.5880  143.7449  158.8934 N   0  0  0  0  0  0  0  0  0  0  0  0
  147.3809  143.6091  159.4591 C   0  0  0  0  0  0  0  0  0  0  0  0
  147.1203  142.7868  160.3370 O   0  0  0  0  0  0  0  0  0  0  0  0
  146.5131  144.5052  158.9627 N   0  0  0  0  0  0  0  0  0  0  0  0
  145.1821  144.7566  159.3975 C   0  0  0  0  0  0  0  0  0  0  0  0
  144.7111  144.3162  160.6602 C   0  0  0  0  0  0  0  0  0  0  0  0
  143.3829  144.5848  161.0431 C   0  0  0  0  0  0  0  0  0  0  0  0
  142.5439  145.2805  160.1542 C   0  0  0  0  0  0  0  0  0  0  0  0
  143.0184  145.6721  158.9532 N   0  3  0  0  0  0  0  0  0  0  0  0
  144.2874  145.4437  158.5332 C   0  0  0  0  0  0  0  0  0  0  0  0
  144.6711  145.8785  157.2475 N   0  0  0  0  0  0  0  0  0  0  0  0
  143.9517  145.2216  156.1594 C   0  0  0  0  0  0  0  0  0  0  0  0
  143.7305  146.2852  155.0815 C   0  0  0  0  0  0  0  0  0  0  0  0
  143.7226  147.5857  155.8755 C   0  0  0  0  0  0  0  0  0  0  0  0
  144.7566  147.3104  156.9653 C   0  0  0  0  0  0  0  0  0  0  0  0
  152.1324  143.3373  160.2014 N   0  0  0  0  0  0  0  0  0  0  0  0
  152.6356  142.1000  159.5943 C   0  0  0  0  0  0  0  0  0  0  0  0
  153.8670  141.5527  160.3377 C   0  0  0  0  0  0  0  0  0  0  0  0
  153.5549  141.3513  161.7112 O   0  0  0  0  0  0  0  0  0  0  0  0
  153.1100  142.5422  162.3492 C   0  0  0  0  0  0  0  0  0  0  0  0
  151.8672  143.0795  161.6217 C   0  0  0  0  0  0  0  0  0  0  0  0
  150.5984  144.9932  157.5628 H   0  0  0  0  0  0  0  0  0  0  0  0
  151.7301  143.6689  157.4085 H   0  0  0  0  0  0  0  0  0  0  0  0
  152.2520  145.2021  158.0977 H   0  0  0  0  0  0  0  0  0  0  0  0
  149.5581  145.6075  159.8072 H   0  0  0  0  0  0  0  0  0  0  0  0
  151.1863  146.0593  160.2306 H   0  0  0  0  0  0  0  0  0  0  0  0
  150.2749  144.9896  161.2884 H   0  0  0  0  0  0  0  0  0  0  0  0
  150.0183  142.3101  158.4987 H   0  0  0  0  0  0  0  0  0  0  0  0
  149.6415  142.4257  160.1765 H   0  0  0  0  0  0  0  0  0  0  0  0
  148.6963  144.4472  158.1765 H   0  0  0  0  0  0  0  0  0  0  0  0
  146.8929  145.1737  158.3088 H   0  0  0  0  0  0  0  0  0  0  0  0
  145.3474  143.7667  161.3376 H   0  0  0  0  0  0  0  0  0  0  0  0
  143.0132  144.2572  162.0037 H   0  0  0  0  0  0  0  0  0  0  0  0
  141.5128  145.5271  160.3618 H   0  0  0  0  0  0  0  0  0  0  0  0
  144.5162  144.3747  155.7680 H   0  0  0  0  0  0  0  0  0  0  0  0
  142.9902  144.8473  156.5156 H   0  0  0  0  0  0  0  0  0  0  0  0
  144.5694  146.2853  154.3841 H   0  0  0  0  0  0  0  0  0  0  0  0
  142.8155  146.1267  154.5099 H   0  0  0  0  0  0  0  0  0  0  0  0
  143.9652  148.4593  155.2698 H   0  0  0  0  0  0  0  0  0  0  0  0
  142.7404  147.7429  156.3235 H   0  0  0  0  0  0  0  0  0  0  0  0
  144.6140  147.9548  157.8327 H   0  0  0  0  0  0  0  0  0  0  0  0
  145.7584  147.5118  156.5840 H   0  0  0  0  0  0  0  0  0  0  0  0
  151.8566  141.3374  159.5897 H   0  0  0  0  0  0  0  0  0  0  0  0
  152.9252  142.2642  158.5581 H   0  0  0  0  0  0  0  0  0  0  0  0
  154.1814  140.6044  159.9019 H   0  0  0  0  0  0  0  0  0  0  0  0
  154.7088  142.2410  160.2474 H   0  0  0  0  0  0  0  0  0  0  0  0
  152.8741  142.3214  163.3900 H   0  0  0  0  0  0  0  0  0  0  0  0
  153.9080  143.2864  162.3513 H   0  0  0  0  0  0  0  0  0  0  0  0
  151.5432  143.9820  162.1334 H   0  0  0  0  0  0  0  0  0  0  0  0
  151.0604  142.3540  161.7280 H   0  0  0  0  0  0  0  0  0  0  0  0
  142.3844  146.1652  158.3241 H   0  0  0  0  0  0  0  0  0  0  0  0
  1  2  1  0  0  0  0
  1 26  1  0  0  0  0
  1 27  1  0  0  0  0
  1 28  1  0  0  0  0
  2  3  1  0  0  0  0
  2  4  1  0  0  0  0
  2 20  1  0  0  0  0
  3 29  1  0  0  0  0
  3 30  1  0  0  0  0
  3 31  1  0  0  0  0
  4  5  1  0  0  0  0
  4 32  1  0  0  0  0
  4 33  1  0  0  0  0
  5  6  1  0  0  0  0
  5 34  1  0  0  0  0
  6  7  2  0  0  0  0
  6  8  1  0  0  0  0
  8  9  1  0  0  0  0
  8 35  1  0  0  0  0
  9 14  1  0  0  0  0
  9 10  2  0  0  0  0
 10 11  1  0  0  0  0
 10 36  1  0  0  0  0
 11 12  2  0  0  0  0
 11 37  1  0  0  0  0
 12 13  1  0  0  0  0
 12 38  1  0  0  0  0
 13 14  2  0  0  0  0
 13 55  1  0  0  0  0
 14 15  1  0  0  0  0
 15 19  1  0  0  0  0
 15 16  1  0  0  0  0
 16 17  1  0  0  0  0
 16 39  1  0  0  0  0
 16 40  1  0  0  0  0
 17 18  1  0  0  0  0
 17 41  1  0  0  0  0
 17 42  1  0  0  0  0
 18 19  1  0  0  0  0
 18 43  1  0  0  0  0
 18 44  1  0  0  0  0
 19 45  1  0  0  0  0
 19 46  1  0  0  0  0
 20 25  1  0  0  0  0
 20 21  1  0  0  0  0
 21 22  1  0  0  0  0
 21 47  1  0  0  0  0
 21 48  1  0  0  0  0
 22 23  1  0  0  0  0
 22 49  1  0  0  0  0
 22 50  1  0  0  0  0
 23 24  1  0  0  0  0
 24 25  1  0  0  0  0
 24 51  1  0  0  0  0
 24 52  1  0  0  0  0
 25 53  1  0  0  0  0
 25 54  1  0  0  0  0
M  CHG  1  13   1
M  END
> <s_m_source_file>
AV-unprocessed.smi

> <i_m_source_file_index>
1794

> <i_lp_mmshare_version>
43012

> <i_f3d_flags>
0

> <s_epik_input>
W0NIMl0xW0NIMl1PW0NIMl1bQ0gyXU4xQyhbQ0gzXSkoW0NIM10pW0NIMl1bTkhdQyg9TylbTkhdYzJbY0hdW2NIXVtjSF1uYzJOM1tDSDJdW0NIMl1bQ0gyXVtDSDJdMw==

> <s_epik_cmdline>
J2VwaWtfcHl0aG9uJywgJy1waCcsICc3LjAnLCAnLXRuJywgJzgnLCAnLW1hJywgJzIwMCcsICctbWV0YWxfYmluZGluZycsICctaW1hZScsICc8aW5maWxlLm1hZT4nLCAnLW9tYWUnLCAnPG91dGZpbGUubWFlPic=

> <r_epik_Ionization_Penalty>
1.36967

> <r_epik_Ionization_Penalty_Charging>
1.10366

> <r_epik_Ionization_Penalty_Neutral>
0.266011

> <r_epik_State_Penalty>
1.45237

> <r_epik_Charging_Adjusted_Penalty>
2.55603

> <i_epik_Tot_Q>
1

> <i_epik_Tot_abs_Q>
1

> <r_epik_Metal_State_Penalty>
1.53539

> <b_epik_Metal_Only>
0

> <s_lp_Force_Field>
OPLS_2005

> <r_lp_Energy>
75.8074

> <b_lp_Chiralities_Consistent>
1

> <s_lp_Variant>
AV-unprocessed.smi:1794-3

> <Gold.Version>
5.8.1

> <Gold.Id.Protein>
6NUR|6NUR_protein|mol2

> <Gold.PLP.Fitness>
51.6394

> <Gold.PLP.PLP>
-41.7658

> <Gold.PLP.part.hbond>
-4.2841

> <Gold.PLP.part.metal>
0.0000

> <Gold.PLP.part.buried>
-2.7463

> <Gold.PLP.part.nonpolar>
-36.1830

> <Gold.PLP.part.repulsive>
0.2755

> <Gold.PLP.ligand.clash>
0.0000

> <Gold.PLP.ligand.torsion>
0.4420

> <Gold.PLP.Chemscore.Hbond>
3.5120

> <Gold.PLP.Chemscore.CHOScore>
0.0000

> <Gold.PLP.Chemscore.Metal>
0.0000

> <Gold.Chemscore.Hbonds>
donor molecule, donor type, donor heavy atom, donor atom, acceptor molecule, acceptor atom, score
      L1  H     5    34       P1  8029  0.93
      L1  H     8    35       P1  8029  1.00
      P1  H  6933  6944       L1     7  0.88
      P1  H  6934  6946       L1     7  0.78

> <Gold.PLP.Chemscore.Internal.Correction>
0.2215

> <Gold.Rescore>
     Score         DG    S(hbond)    S(metal)    S(lipo)     H(rot)  DE(clash)    DE(int)     intcor
     23.87     -26.05       3.00        0.00     124.85       1.58       0.39       1.79       ----

> <Gold.Chemscore.Fitness>
23.8653

> <Gold.Chemscore.DG>
-26.0511

> <Gold.Chemscore.ZeroCoef>
-5.4800

> <Gold.Chemscore.Hbond>
2.9966

> <Gold.Chemscore.Metal>
0.0000

> <Gold.Chemscore.Lipo>
124.8483

> <Gold.Chemscore.Internal_Hbond>
0.0000

> <Gold.Chemscore.DEClash>
0.3946

> <Gold.Chemscore.DEInternal>
1.7911

> <Gold.Chemscore.Rot>
1.5800

> <Gold.Chemscore.Internal.Correction>
   9.000000E+99

> <Gold.Chemscore.Hbonds>
donor molecule, donor type, donor heavy atom, donor atom, acceptor molecule, acceptor atom, score
      L1  H     5    34       P1  8029  0.27
      L1  H     8    35       P1  8029  0.98
      P1  H  6933  6944       L1     7  0.80
      P1  H  6934  6946       L1     7  0.77

> <Gold.Chemscore.Hbond.Weighted>
-10.0087

> <Gold.Chemscore.Metal.Weighted>
-0.0000

> <Gold.Chemscore.Lipo.Weighted>
-14.6073

> <Gold.Chemscore.Internal_Hbond.Weighted>
0.0000

> <Gold.Chemscore.DEClash.Weighted>
0.3946

> <Gold.Chemscore.DEInternal.Weighted>
1.7911

> <Gold.Chemscore.Rot.Weighted>
4.0449

> <Gold.Chemscore.Internal.Correction.Weighted>
   9.000000E+99

> <Gold.Protein.RotatedTorsions>
[ 6907 6896 6895 6894 ] final   67.69 input  -60.11 | X-H torsion
[ 7974 7965 7964 7962 ] final  122.82 input  175.53 | X-H torsion
[ 8008 7997 7996 7995 ] final  119.70 input   59.86 | X-H torsion
[ 10167 10162 10161 10158 ] final -175.46 input  -65.29 | X-H torsion
[ 10718 10713 10712 10709 ] final   67.36 input   66.30 | X-H torsion
[ 10763 10752 10751 10750 ] final   29.55 input  -60.55 | X-H torsion
[ 11005 11000 10999 10996 ] final -140.82 input  -57.11 | X-H torsion

> <Gold.Protein.ActiveResidues>
 VAL166  LYS551  ARG553  GLY616  TRP617  ASP618  TYR619  PRO620  LYS621  CYS622 
 ASP623  PHE694  ASN695  SER759  ASP760  ASP761  ALA762  ILE779  LEU786  VAL792 
 PHE793  MET794  SER795  GLU796  ALA797  LYS798  CYS799  TRP800  GLU811  SER814 

> <Gold.Protein.RotatedAtoms>
  152.4569  134.5271  159.9799 H   0  0  0  0  0  0  0  0  0  0  0  0  # atno 6907 bound_to 6896
  151.5330  133.3440  159.2929 H   0  0  0  0  0  0  0  0  0  0  0  0  # atno 6908 bound_to 6896
  150.8517  134.7874  159.7076 H   0  0  0  0  0  0  0  0  0  0  0  0  # atno 6909 bound_to 6896
  145.1031  139.3504  143.4801 H   0  0  0  0  0  0  0  0  0  0  0  0  # atno 7974 bound_to 7965
  156.2608  140.2847  156.1032 H   0  0  0  0  0  0  0  0  0  0  0  0  # atno 8008 bound_to 7997
  155.1337  140.0394  157.2798 H   0  0  0  0  0  0  0  0  0  0  0  0  # atno 8009 bound_to 7997
  154.6581  140.2560  155.7145 H   0  0  0  0  0  0  0  0  0  0  0  0  # atno 8010 bound_to 7997
  139.5580  144.1941  152.1191 H   0  0  0  0  0  0  0  0  0  0  0  0  # atno 10167 bound_to 10162
  157.6225  130.9317  150.0232 H   0  0  0  0  0  0  0  0  0  0  0  0  # atno 10718 bound_to 10713
  153.0424  135.6486  154.0907 H   0  0  0  0  0  0  0  0  0  0  0  0  # atno 10763 bound_to 10752
  154.0611  135.2888  155.3326 H   0  0  0  0  0  0  0  0  0  0  0  0  # atno 10764 bound_to 10752
  154.6657  135.5375  153.8139 H   0  0  0  0  0  0  0  0  0  0  0  0  # atno 10765 bound_to 10752
  140.8385  134.2431  157.4822 H   0  0  0  0  0  0  0  0  0  0  0  0  # atno 11005 bound_to 11000
  146.3529  140.0917  142.8612 LP  0  0  0  0  0  0  0  0  0  0  0  0  # atno 17320 bound_to 7965
  145.0932  140.9298  143.4756 LP  0  0  0  0  0  0  0  0  0  0  0  0  # atno 17321 bound_to 7965
  140.1449  144.5168  150.6722 LP  0  0  0  0  0  0  0  0  0  0  0  0  # atno 17342 bound_to 10162
  140.6856  143.2348  151.5270 LP  0  0  0  0  0  0  0  0  0  0  0  0  # atno 17343 bound_to 10162
  156.1379  130.3642  149.9628 LP  0  0  0  0  0  0  0  0  0  0  0  0  # atno 17370 bound_to 10713
  156.7675  130.9174  151.3643 LP  0  0  0  0  0  0  0  0  0  0  0  0  # atno 17371 bound_to 10713
  139.8703  134.9623  156.4424 LP  0  0  0  0  0  0  0  0  0  0  0  0  # atno 17394 bound_to 11000
  140.8921  133.7840  155.9584 LP  0  0  0  0  0  0  0  0  0  0  0  0  # atno 17395 bound_to 11000

$$$$
