#       Name:                AV-unprocessed.smi:72
#       Creating user name   scv26
#       Creation time:       Thu Mar 26 17:09:19 2020


#       File generated by GOLD software.
#

@<TRIPOS>MOLECULE
AV-unprocessed.smi:72
    41    42     1
SMALL
NO_CHARGES


@<TRIPOS>ATOM
      1 ****        -5.1314  -0.0757  -0.1755 N.pl3          1 S1                 0.0000
      2 ****        -3.7721  -0.3061  -0.2054 C.2            1 S1                 0.0000
      3 ****        -2.9900   0.6632  -0.8468 N.2            1 S1                 0.0000
      4 ****        -1.7115   0.4560  -0.8690 C.2            1 S1                 0.0000
      5 ****        -1.1219  -0.7148  -0.2371 N.am           1 S1                 0.0000
      6 ****         0.3723  -1.0021  -0.2614 C.3            1 S1                 0.0000
      7 ****         1.0328  -0.0337  -1.0242 O.3            1 S1                 0.0000
      8 ****         1.5602   0.9759  -0.1689 C.3            1 S1                 0.0000
      9 ****         2.6199   1.8245  -0.8929 C.3            1 S1                 0.0000
     10 ****         1.9907   2.8389  -1.6466 O.3            1 S1                 0.0000
     11 ****         2.0617   0.1504   1.0196 C.3            1 S1                 0.0000
     12 ****         3.3435  -0.3939   0.7452 O.3            1 S1                 0.0000
     13 ****         0.9794  -0.9224   1.1579 C.3            1 S1                 0.0000
     14 ****         1.4999  -2.1572   1.6132 O.3            1 S1                 0.0000
     15 ****        -1.9842  -1.6768   0.3600 C.2            1 S1                 0.0000
     16 ****        -1.5181  -2.7049   0.8506 O.2            1 S1                 0.0000
     17 ****        -3.3565  -1.4013   0.3620 N.2            1 S1                 0.0000
     18 ****         0.4666  -1.9770  -0.7432 H              1 S1                 0.0000
     19 ****         0.7501   1.6168   0.1843 H              1 S1                 0.0000
     20 ****         2.1409   0.7568   1.9225 H              1 S1                 0.0000
     21 ****         0.2193  -0.5754   1.8596 H              1 S1                 0.0000
     22 ****        -5.7921  -0.7053   0.2563 H              1 S1                 0.0000
     23 ****        -5.5658   0.7412  -0.5792 H              1 S1                 0.0000
     24 ****        -1.0172   1.1388  -1.3584 H              1 S1                 0.0000
     25 ****         3.2702   2.3134  -0.1669 H              1 S1                 0.0000
     26 ****         3.2510   1.2113  -1.5370 H              1 S1                 0.0000
     27 ****         2.6580   3.3500  -2.0782 H              1 S1                 0.0000
     28 ****         3.5984  -0.9349   1.4771 H              1 S1                 0.0000
     29 ****         2.1473  -2.4531   0.9912 H              1 S1                 0.0000
     30 ****        -3.3981   1.4741  -1.2663 LP             1 S1                 0.0000
     31 ****         0.3878   0.3794  -1.6672 LP             1 S1                 0.0000
     32 ****         1.7801  -0.4631  -1.5313 LP             1 S1                 0.0000
     33 ****         1.4553   3.4267  -1.0401 LP             1 S1                 0.0000
     34 ****         1.3873   2.4267  -2.3293 LP             1 S1                 0.0000
     35 ****         4.0060   0.3453   0.6239 LP             1 S1                 0.0000
     36 ****         3.3051  -0.9469  -0.0871 LP             1 S1                 0.0000
     37 ****         0.7635  -2.8303   1.6811 LP             1 S1                 0.0000
     38 ****         1.9238  -2.0353   2.5106 LP             1 S1                 0.0000
     39 ****        -0.5314  -2.8658   0.8302 LP             1 S1                 0.0000
     40 ****        -2.1262  -3.3792   1.2695 LP             1 S1                 0.0000
     41 ****        -4.0036  -2.0322   0.7900 LP             1 S1                 0.0000
@<TRIPOS>BOND
    1    1    2 1     
    2    1   22 1     
    3    1   23 1     
    4    2   17 2     
    5    2    3 1     
    6    3    4 2     
    7    4    5 1     
    8    4   24 1     
    9    5    6 1     
   10    5   15 am    
   11    6   18 1     
   12    6   13 1     
   13    6    7 1     
   14    7    8 1     
   15    8   19 1     
   16    8    9 1     
   17    8   11 1     
   18    9   10 1     
   19    9   25 1     
   20    9   26 1     
   21   10   27 1     
   22   11   20 1     
   23   11   12 1     
   24   11   13 1     
   25   12   28 1     
   26   13   21 1     
   27   13   14 1     
   28   14   29 1     
   29   15   16 2     
   30   15   17 1     
   31    3   30 1     
   32    7   31 1     
   33    7   32 1     
   34   10   33 1     
   35   10   34 1     
   36   12   35 1     
   37   12   36 1     
   38   14   37 1     
   39   14   38 1     
   40   16   39 1     
   41   16   40 1     
   42   17   41 1     
@<TRIPOS>SUBSTRUCTURE
      1 S1             1
@<TRIPOS>SET
LONE_PAIRS      STATIC     ATOMS    <user>   **** ""
12 30 31 32 33 34 35 36 37 38 39 40 41
DONOR_HYDROGENS      STATIC     ATOMS    <user>   **** ""
5 22 23 27 28 29
ATOM$BLUE        STATIC     ATOMS    COLORGROUP SYSTEM
12 30 31 32 33 34 35 36 37 38 39 40 41
ATOM$RED        STATIC     ATOMS    COLORGROUP SYSTEM
5 22 23 27 28 29
