AV-unprocessed.smi:1872|AV-procd|sdf|7604|dock6
  -GOLD-   22720 9323D 1   1.00000     0.00000
 Structure written by MMmdl.
 39 41  0  0  0  0  0  0  0  0  1 V2000
  154.4477  135.0379  159.1557 C   0  0  0  0  0  0  0  0  0  0  0  0
  154.5589  135.3689  160.6106 C   0  0  0  0  0  0  0  0  0  0  0  0
  155.0293  134.4984  161.5039 N   0  0  0  0  0  0  0  0  0  0  0  0
  154.9608  135.2109  162.6859 C   0  0  0  0  0  0  0  0  0  0  0  0
  155.3175  134.8417  164.0028 C   0  0  0  0  0  0  0  0  0  0  0  0
  155.1563  135.7519  165.0679 C   0  0  0  0  0  0  0  0  0  0  0  0
  154.6368  137.0413  164.8325 C   0  0  0  0  0  0  0  0  0  0  0  0
  154.2754  137.4296  163.5282 C   0  0  0  0  0  0  0  0  0  0  0  0
  154.4390  136.5177  162.4681 C   0  0  0  0  0  0  0  0  0  0  0  0
  154.1887  136.5776  161.1003 N   0  0  0  0  0  0  0  0  0  0  0  0
  153.6457  137.7134  160.3676 C   0  0  0  0  0  0  0  0  0  0  0  0
  154.6712  138.8476  160.1690 C   0  0  1  0  0  0  0  0  0  0  0  0
  155.3747  138.6612  158.9555 O   0  0  0  0  0  0  0  0  0  0  0  0
  153.9997  140.2101  160.2473 C   0  0  0  0  0  0  0  0  0  0  0  0
  154.3404  141.1014  161.2856 C   0  0  0  0  0  0  0  0  0  0  0  0
  153.7149  142.3597  161.3757 C   0  0  0  0  0  0  0  0  0  0  0  0
  152.7340  142.7430  160.4391 C   0  0  0  0  0  0  0  0  0  0  0  0
  152.1677  143.9902  160.5756 O   0  0  0  0  0  0  0  0  0  0  0  0
  151.3045  144.4385  159.6252 C   0  0  0  0  0  0  0  0  0  0  0  0
  150.6633  145.5446  160.0737 F   0  0  0  0  0  0  0  0  0  0  0  0
  151.9769  144.7834  158.4995 F   0  0  0  0  0  0  0  0  0  0  0  0
  152.3985  141.8509  159.3925 C   0  0  0  0  0  0  0  0  0  0  0  0
  153.0228  140.5919  159.3022 C   0  0  0  0  0  0  0  0  0  0  0  0
  154.7770  134.0149  158.9703 H   0  0  0  0  0  0  0  0  0  0  0  0
  155.0714  135.7096  158.5655 H   0  0  0  0  0  0  0  0  0  0  0  0
  153.4143  135.1285  158.8226 H   0  0  0  0  0  0  0  0  0  0  0  0
  155.7159  133.8562  164.1936 H   0  0  0  0  0  0  0  0  0  0  0  0
  155.4322  135.4590  166.0704 H   0  0  0  0  0  0  0  0  0  0  0  0
  154.5150  137.7320  165.6541 H   0  0  0  0  0  0  0  0  0  0  0  0
  153.8740  138.4152  163.3448 H   0  0  0  0  0  0  0  0  0  0  0  0
  153.2825  137.3608  159.4014 H   0  0  0  0  0  0  0  0  0  0  0  0
  152.7695  138.0854  160.8994 H   0  0  0  0  0  0  0  0  0  0  0  0
  155.4162  138.7951  160.9632 H   0  0  0  0  0  0  0  0  0  0  0  0
  155.8956  137.8762  159.0290 H   0  0  0  0  0  0  0  0  0  0  0  0
  155.0825  140.8224  162.0194 H   0  0  0  0  0  0  0  0  0  0  0  0
  153.9862  143.0347  162.1740 H   0  0  0  0  0  0  0  0  0  0  0  0
  150.5481  143.6916  159.3825 H   0  0  0  0  0  0  0  0  0  0  0  0
  151.6645  142.1209  158.6479 H   0  0  0  0  0  0  0  0  0  0  0  0
  152.7468  139.9205  158.5023 H   0  0  0  0  0  0  0  0  0  0  0  0
  1  2  1  0  0  0  0
  1 24  1  0  0  0  0
  1 25  1  0  0  0  0
  1 26  1  0  0  0  0
  2 10  1  0  0  0  0
  2  3  2  0  0  0  0
  3  4  1  0  0  0  0
  4  9  2  0  0  0  0
  4  5  1  0  0  0  0
  5  6  2  0  0  0  0
  5 27  1  0  0  0  0
  6  7  1  0  0  0  0
  6 28  1  0  0  0  0
  7  8  2  0  0  0  0
  7 29  1  0  0  0  0
  8  9  1  0  0  0  0
  8 30  1  0  0  0  0
  9 10  1  0  0  0  0
 10 11  1  0  0  0  0
 11 12  1  0  0  0  0
 11 31  1  0  0  0  0
 11 32  1  0  0  0  0
 12 13  1  0  0  0  0
 12 14  1  0  0  0  0
 12 33  1  0  0  0  0
 13 34  1  0  0  0  0
 14 23  1  0  0  0  0
 14 15  2  0  0  0  0
 15 16  1  0  0  0  0
 15 35  1  0  0  0  0
 16 17  2  0  0  0  0
 16 36  1  0  0  0  0
 17 18  1  0  0  0  0
 17 22  1  0  0  0  0
 18 19  1  0  0  0  0
 19 20  1  0  0  0  0
 19 21  1  0  0  0  0
 19 37  1  0  0  0  0
 22 23  2  0  0  0  0
 22 38  1  0  0  0  0
 23 39  1  0  0  0  0
M  END
> <s_m_source_file>
AV-unprocessed.smi

> <i_m_source_file_index>
1872

> <i_lp_mmshare_version>
43012

> <i_f3d_flags>
0

> <s_epik_input>
W2NIXTFbY0hdW2NIXVtjSF1jKGMxMiluKGMobjIpW0NIM10pW0NIMl1bQ0BIXShbT0hdKWMzW2NIXVtjSF1jKE9bQ0hdKEYpRilbY0hdW2NIXTM=

> <s_epik_cmdline>
J2VwaWtfcHl0aG9uJywgJy1waCcsICc3LjAnLCAnLXRuJywgJzgnLCAnLW1hJywgJzIwMCcsICctbWV0YWxfYmluZGluZycsICctaW1hZScsICc8aW5maWxlLm1hZT4nLCAnLW9tYWUnLCAnPG91dGZpbGUubWFlPic=

> <r_lp_tautomer_probability>
1

> <r_epik_Ionization_Penalty>
0.129663

> <r_epik_Ionization_Penalty_Charging>
0

> <r_epik_Ionization_Penalty_Neutral>
0.129663

> <r_epik_State_Penalty>
0.119073

> <r_epik_Charging_Adjusted_Penalty>
0.119073

> <i_epik_Tot_Q>
0

> <i_epik_Tot_abs_Q>
0

> <r_epik_Metal_State_Penalty>
0.000131867

> <b_epik_Metal_Only>
0

> <s_lp_Force_Field>
OPLS_2005

> <r_lp_Energy>
11.3105

> <b_lp_Chiralities_Consistent>
1

> <s_lp_Variant>
AV-unprocessed.smi:1872-2

> <Gold.Version>
5.8.1

> <Gold.Id.Protein>
6NUR|6NUR_protein|mol2

> <Gold.PLP.Fitness>
52.1165

> <Gold.PLP.PLP>
-50.5708

> <Gold.PLP.part.hbond>
-1.0000

> <Gold.PLP.part.metal>
0.0000

> <Gold.PLP.part.buried>
-4.6274

> <Gold.PLP.part.nonpolar>
-45.1406

> <Gold.PLP.part.repulsive>
0.0936

> <Gold.PLP.ligand.clash>
0.0000

> <Gold.PLP.ligand.torsion>
0.7507

> <Gold.PLP.Chemscore.Hbond>
1.0000

> <Gold.PLP.Chemscore.CHOScore>
0.0000

> <Gold.PLP.Chemscore.Metal>
0.0000

> <Gold.Chemscore.Hbonds>
donor molecule, donor type, donor heavy atom, donor atom, acceptor molecule, acceptor atom, score
      P1  H  7997  8010       L1    13  0.84

> <Gold.PLP.Chemscore.Internal.Correction>
0.0470

> <Gold.Rescore>
     Score         DG    S(hbond)    S(metal)    S(lipo)     H(rot)  DE(clash)    DE(int)     intcor
     16.97     -18.15       0.97        0.00     129.98       2.25       0.05       1.13       ----

> <Gold.Chemscore.Fitness>
16.9718

> <Gold.Chemscore.DG>
-18.1531

> <Gold.Chemscore.ZeroCoef>
-5.4800

> <Gold.Chemscore.Hbond>
0.9686

> <Gold.Chemscore.Metal>
0.0000

> <Gold.Chemscore.Lipo>
129.9800

> <Gold.Chemscore.Internal_Hbond>
0.0000

> <Gold.Chemscore.DEClash>
0.0544

> <Gold.Chemscore.DEInternal>
1.1269

> <Gold.Chemscore.Rot>
2.2538

> <Gold.Chemscore.Internal.Correction>
   9.000000E+99

> <Gold.Chemscore.Hbonds>
donor molecule, donor type, donor heavy atom, donor atom, acceptor molecule, acceptor atom, score
      P1  H  7997  8010       L1    13  0.82

> <Gold.Chemscore.Hbond.Weighted>
-3.2351

> <Gold.Chemscore.Metal.Weighted>
-0.0000

> <Gold.Chemscore.Lipo.Weighted>
-15.2077

> <Gold.Chemscore.Internal_Hbond.Weighted>
0.0000

> <Gold.Chemscore.DEClash.Weighted>
0.0544

> <Gold.Chemscore.DEInternal.Weighted>
1.1269

> <Gold.Chemscore.Rot.Weighted>
5.7697

> <Gold.Chemscore.Internal.Correction.Weighted>
   9.000000E+99

> <Gold.Protein.RotatedTorsions>
[ 6907 6896 6895 6894 ] final  162.60 input  -60.11 | X-H torsion
[ 7974 7965 7964 7962 ] final  -81.73 input  175.53 | X-H torsion
[ 8008 7997 7996 7995 ] final  -18.22 input   59.86 | X-H torsion
[ 10167 10162 10161 10158 ] final   -3.60 input  -65.29 | X-H torsion
[ 10718 10713 10712 10709 ] final    5.43 input   66.30 | X-H torsion
[ 10763 10752 10751 10750 ] final   42.79 input  -60.55 | X-H torsion
[ 11005 11000 10999 10996 ] final    5.45 input  -57.11 | X-H torsion

> <Gold.Protein.ActiveResidues>
 VAL166  LYS551  ARG553  GLY616  TRP617  ASP618  TYR619  PRO620  LYS621  CYS622 
 ASP623  PHE694  ASN695  SER759  ASP760  ASP761  ALA762  ILE779  LEU786  VAL792 
 PHE793  MET794  SER795  GLU796  ALA797  LYS798  CYS799  TRP800  GLU811  SER814 

> <Gold.Protein.RotatedAtoms>
  151.9379  133.3629  159.3954 H   0  0  0  0  0  0  0  0  0  0  0  0  # atno 6907 bound_to 6896
  150.7004  134.4469  159.5327 H   0  0  0  0  0  0  0  0  0  0  0  0  # atno 6908 bound_to 6896
  152.2121  134.8491  160.0547 H   0  0  0  0  0  0  0  0  0  0  0  0  # atno 6909 bound_to 6896
  145.5427  140.9507  143.1542 H   0  0  0  0  0  0  0  0  0  0  0  0  # atno 7974 bound_to 7965
  154.4922  140.2121  155.9525 H   0  0  0  0  0  0  0  0  0  0  0  0  # atno 8008 bound_to 7997
  156.1320  140.3195  155.8332 H   0  0  0  0  0  0  0  0  0  0  0  0  # atno 8009 bound_to 7997
  155.4278  140.0501  157.3011 H   0  0  0  0  0  0  0  0  0  0  0  0  # atno 8010 bound_to 7997
  140.6896  143.6521  150.8341 H   0  0  0  0  0  0  0  0  0  0  0  0  # atno 10167 bound_to 10162
  156.9073  130.5743  149.5647 H   0  0  0  0  0  0  0  0  0  0  0  0  # atno 10718 bound_to 10713
  152.9875  135.6121  154.3006 H   0  0  0  0  0  0  0  0  0  0  0  0  # atno 10763 bound_to 10752
  154.2727  135.2779  155.2733 H   0  0  0  0  0  0  0  0  0  0  0  0  # atno 10764 bound_to 10752
  154.5108  135.5841  153.6660 H   0  0  0  0  0  0  0  0  0  0  0  0  # atno 10765 bound_to 10752
  140.5706  134.0106  155.8007 H   0  0  0  0  0  0  0  0  0  0  0  0  # atno 11005 bound_to 11000
  144.7569  139.7053  143.7250 LP  0  0  0  0  0  0  0  0  0  0  0  0  # atno 17320 bound_to 7965
  146.1970  139.5242  142.9768 LP  0  0  0  0  0  0  0  0  0  0  0  0  # atno 17321 bound_to 7965
  140.0232  143.5520  152.2791 LP  0  0  0  0  0  0  0  0  0  0  0  0  # atno 17342 bound_to 10162
  139.6286  144.7641  151.2584 LP  0  0  0  0  0  0  0  0  0  0  0  0  # atno 17343 bound_to 10162
  156.0552  130.5615  150.9077 LP  0  0  0  0  0  0  0  0  0  0  0  0  # atno 17370 bound_to 10713
  157.5989  131.0942  150.8994 LP  0  0  0  0  0  0  0  0  0  0  0  0  # atno 17371 bound_to 10713
  141.1058  133.9695  157.2999 LP  0  0  0  0  0  0  0  0  0  0  0  0  # atno 17394 bound_to 11000
  139.9364  135.0196  156.8568 LP  0  0  0  0  0  0  0  0  0  0  0  0  # atno 17395 bound_to 11000

$$$$
