AV-unprocessed.smi:3348|AV-procd|sdf|12930|dock2
  -GOLD-   2272019353D 1   1.00000     0.00000
 Structure written by MMmdl.
 46 47  0  0  0  0  0  0  0  0  1 V2000
  146.8519  142.2287  154.2103 C   0  0  0  0  0  0  0  0  0  0  0  0
  147.8576  141.2262  154.8024 C   0  0  1  0  0  0  0  0  0  0  0  0
  148.2926  140.1426  153.7856 C   0  0  0  0  0  0  0  0  0  0  0  0
  149.4362  139.3664  154.2302 N   0  0  0  0  0  0  0  0  0  0  0  0
  149.4666  138.0590  154.6681 C   0  0  0  0  0  0  0  0  0  0  0  0
  150.7639  137.7630  154.9737 C   0  0  0  0  0  0  0  0  0  0  0  0
  151.4630  138.9670  154.6804 C   0  0  0  0  0  0  0  0  0  0  0  0
  150.6665  139.9239  154.2325 N   0  0  0  0  0  0  0  0  0  0  0  0
  149.0076  141.9620  155.3362 N   0  0  0  0  0  0  0  0  0  0  0  0
  149.7273  141.3007  156.4236 C   0  0  0  0  0  0  0  0  0  0  0  0
  151.1241  141.9051  156.5964 C   0  0  0  0  0  0  0  0  0  0  0  0
  151.6676  141.4510  157.8275 O   0  0  0  0  0  0  0  0  0  0  0  0
  152.2472  142.4699  158.6341 C   0  0  1  0  0  0  0  0  0  0  0  0
  151.2527  143.6408  158.7931 C   0  0  0  0  0  0  0  0  0  0  0  0
  151.7754  144.7009  159.7735 C   0  0  0  0  0  0  0  0  0  0  0  0
  152.1046  144.0762  161.1361 C   0  0  0  0  0  0  0  0  0  0  0  0
  153.1045  142.9203  160.9839 C   0  0  0  0  0  0  0  0  0  0  0  0
  152.5911  141.8446  160.0057 C   0  0  2  0  0  0  0  0  0  0  0  0
  153.6126  140.7033  159.8731 C   0  0  0  0  0  0  0  0  0  0  0  0
  145.9244  141.7405  153.9109 H   0  0  0  0  0  0  0  0  0  0  0  0
  147.2627  142.7316  153.3343 H   0  0  0  0  0  0  0  0  0  0  0  0
  146.5867  142.9946  154.9399 H   0  0  0  0  0  0  0  0  0  0  0  0
  147.3539  140.7258  155.6306 H   0  0  0  0  0  0  0  0  0  0  0  0
  147.4675  139.4538  153.5979 H   0  0  0  0  0  0  0  0  0  0  0  0
  148.5515  140.5887  152.8251 H   0  0  0  0  0  0  0  0  0  0  0  0
  148.5720  137.4567  154.7281 H   0  0  0  0  0  0  0  0  0  0  0  0
  151.1538  136.8286  155.3488 H   0  0  0  0  0  0  0  0  0  0  0  0
  152.5187  139.1721  154.7781 H   0  0  0  0  0  0  0  0  0  0  0  0
  148.7058  142.8802  155.6469 H   0  0  0  0  0  0  0  0  0  0  0  0
  149.1718  141.3822  157.3587 H   0  0  0  0  0  0  0  0  0  0  0  0
  149.8337  140.2378  156.2095 H   0  0  0  0  0  0  0  0  0  0  0  0
  151.7629  141.5720  155.7773 H   0  0  0  0  0  0  0  0  0  0  0  0
  151.0759  142.9931  156.5497 H   0  0  0  0  0  0  0  0  0  0  0  0
  153.1706  142.8313  158.1769 H   0  0  0  0  0  0  0  0  0  0  0  0
  151.0572  144.1145  157.8317 H   0  0  0  0  0  0  0  0  0  0  0  0
  150.2946  143.2598  159.1487 H   0  0  0  0  0  0  0  0  0  0  0  0
  152.6678  145.1735  159.3612 H   0  0  0  0  0  0  0  0  0  0  0  0
  151.0341  145.4911  159.8957 H   0  0  0  0  0  0  0  0  0  0  0  0
  152.5120  144.8352  161.8045 H   0  0  0  0  0  0  0  0  0  0  0  0
  151.1894  143.7100  161.6034 H   0  0  0  0  0  0  0  0  0  0  0  0
  154.0596  143.3127  160.6316 H   0  0  0  0  0  0  0  0  0  0  0  0
  153.2959  142.4749  161.9607 H   0  0  0  0  0  0  0  0  0  0  0  0
  151.6759  141.4224  160.4237 H   0  0  0  0  0  0  0  0  0  0  0  0
  154.5507  141.0586  159.4459 H   0  0  0  0  0  0  0  0  0  0  0  0
  153.2366  139.9055  159.2324 H   0  0  0  0  0  0  0  0  0  0  0  0
  153.8356  140.2619  160.8448 H   0  0  0  0  0  0  0  0  0  0  0  0
  1  2  1  0  0  0  0
  1 20  1  0  0  0  0
  1 21  1  0  0  0  0
  1 22  1  0  0  0  0
  2  3  1  0  0  0  0
  2  9  1  0  0  0  0
  2 23  1  0  0  0  0
  3  4  1  0  0  0  0
  3 24  1  0  0  0  0
  3 25  1  0  0  0  0
  4  8  1  0  0  0  0
  4  5  1  0  0  0  0
  5  6  2  0  0  0  0
  5 26  1  0  0  0  0
  6  7  1  0  0  0  0
  6 27  1  0  0  0  0
  7  8  2  0  0  0  0
  7 28  1  0  0  0  0
  9 10  1  0  0  0  0
  9 29  1  0  0  0  0
 10 11  1  0  0  0  0
 10 30  1  0  0  0  0
 10 31  1  0  0  0  0
 11 12  1  0  0  0  0
 11 32  1  0  0  0  0
 11 33  1  0  0  0  0
 12 13  1  0  0  0  0
 13 18  1  0  0  0  0
 13 14  1  0  0  0  0
 13 34  1  0  0  0  0
 14 15  1  0  0  0  0
 14 35  1  0  0  0  0
 14 36  1  0  0  0  0
 15 16  1  0  0  0  0
 15 37  1  0  0  0  0
 15 38  1  0  0  0  0
 16 17  1  0  0  0  0
 16 39  1  0  0  0  0
 16 40  1  0  0  0  0
 17 18  1  0  0  0  0
 17 41  1  0  0  0  0
 17 42  1  0  0  0  0
 18 19  1  0  0  0  0
 18 43  1  0  0  0  0
 19 44  1  0  0  0  0
 19 45  1  0  0  0  0
 19 46  1  0  0  0  0
M  END
> <s_m_source_file>
AV-unprocessed.smi

> <i_m_source_file_index>
3348

> <i_lp_mmshare_version>
43012

> <i_f3d_flags>
0

> <s_epik_input>
bjFbY0hdW2NIXVtjSF1uMVtDSDJdW0NAQEhdKFtDSDNdKVtOSF1bQ0gyXVtDSDJdT1tDQEBIXTJbQ0gyXVtDSDJdW0NIMl1bQ0gyXVtDQEhdMltDSDNd

> <s_epik_cmdline>
J2VwaWtfcHl0aG9uJywgJy1waCcsICc3LjAnLCAnLXRuJywgJzgnLCAnLW1hJywgJzIwMCcsICctbWV0YWxfYmluZGluZycsICctaW1hZScsICc8aW5maWxlLm1hZT4nLCAnLW9tYWUnLCAnPG91dGZpbGUubWFlPic=

> <r_lp_tautomer_probability>
1

> <r_epik_Ionization_Penalty>
2.46945

> <r_epik_Ionization_Penalty_Charging>
0

> <r_epik_Ionization_Penalty_Neutral>
2.46945

> <r_epik_State_Penalty>
2.6322

> <r_epik_Charging_Adjusted_Penalty>
2.6322

> <i_epik_Tot_Q>
0

> <i_epik_Tot_abs_Q>
0

> <r_epik_Metal_State_Penalty>
2.63217

> <b_epik_Metal_Only>
0

> <s_lp_Force_Field>
OPLS_2005

> <r_lp_Energy>
15.3902

> <b_lp_Chiralities_Consistent>
1

> <s_lp_Variant>
AV-unprocessed.smi:3348-16

> <Gold.Version>
5.8.1

> <Gold.Id.Protein>
6NUR|6NUR_protein|mol2

> <Gold.PLP.Fitness>
50.8369

> <Gold.PLP.PLP>
-46.5428

> <Gold.PLP.part.hbond>
-1.9868

> <Gold.PLP.part.metal>
0.0000

> <Gold.PLP.part.buried>
-4.9589

> <Gold.PLP.part.nonpolar>
-39.7113

> <Gold.PLP.part.repulsive>
0.1308

> <Gold.PLP.ligand.clash>
0.0000

> <Gold.PLP.ligand.torsion>
0.9928

> <Gold.PLP.Chemscore.Hbond>
2.0000

> <Gold.PLP.Chemscore.CHOScore>
0.0000

> <Gold.PLP.Chemscore.Metal>
0.0000

> <Gold.Chemscore.Hbonds>
donor molecule, donor type, donor heavy atom, donor atom, acceptor molecule, acceptor atom, score
      L1  H     9    29       P1  8028  1.00
      P1  H  7989  7998       L1     8  1.00

> <Gold.PLP.Chemscore.Internal.Correction>
0.2797

> <Gold.Rescore>
     Score         DG    S(hbond)    S(metal)    S(lipo)     H(rot)  DE(clash)    DE(int)     intcor
     19.32     -21.24       1.77        0.00     121.76       1.72       0.23       1.69       ----

> <Gold.Chemscore.Fitness>
19.3208

> <Gold.Chemscore.DG>
-21.2379

> <Gold.Chemscore.ZeroCoef>
-5.4800

> <Gold.Chemscore.Hbond>
1.7738

> <Gold.Chemscore.Metal>
0.0000

> <Gold.Chemscore.Lipo>
121.7601

> <Gold.Chemscore.Internal_Hbond>
0.0000

> <Gold.Chemscore.DEClash>
0.2294

> <Gold.Chemscore.DEInternal>
1.6878

> <Gold.Chemscore.Rot>
1.7237

> <Gold.Chemscore.Internal.Correction>
   9.000000E+99

> <Gold.Chemscore.Hbonds>
donor molecule, donor type, donor heavy atom, donor atom, acceptor molecule, acceptor atom, score
      L1  H     9    29       P1  8028  0.95
      P1  H  7989  7998       L1     8  0.37

> <Gold.Chemscore.Hbond.Weighted>
-5.9246

> <Gold.Chemscore.Metal.Weighted>
-0.0000

> <Gold.Chemscore.Lipo.Weighted>
-14.2459

> <Gold.Chemscore.Internal_Hbond.Weighted>
0.0000

> <Gold.Chemscore.DEClash.Weighted>
0.2294

> <Gold.Chemscore.DEInternal.Weighted>
1.6878

> <Gold.Chemscore.Rot.Weighted>
4.4126

> <Gold.Chemscore.Internal.Correction.Weighted>
   9.000000E+99

> <Gold.Protein.RotatedTorsions>
[ 6907 6896 6895 6894 ] final -178.80 input  -60.11 | X-H torsion
[ 7974 7965 7964 7962 ] final -136.12 input  175.53 | X-H torsion
[ 8008 7997 7996 7995 ] final  -17.33 input   59.86 | X-H torsion
[ 10167 10162 10161 10158 ] final -139.99 input  -65.29 | X-H torsion
[ 10718 10713 10712 10709 ] final  -24.27 input   66.30 | X-H torsion
[ 10763 10752 10751 10750 ] final   89.91 input  -60.55 | X-H torsion
[ 11005 11000 10999 10996 ] final  127.71 input  -57.11 | X-H torsion

> <Gold.Protein.ActiveResidues>
 VAL166  LYS551  ARG553  GLY616  TRP617  ASP618  TYR619  PRO620  LYS621  CYS622 
 ASP623  PHE694  ASN695  SER759  ASP760  ASP761  ALA762  ILE779  LEU786  VAL792 
 PHE793  MET794  SER795  GLU796  ALA797  LYS798  CYS799  TRP800  GLU811  SER814 

> <Gold.Protein.RotatedAtoms>
  151.6430  133.3325  159.3134 H   0  0  0  0  0  0  0  0  0  0  0  0  # atno 6907 bound_to 6896
  150.7998  134.7088  159.6601 H   0  0  0  0  0  0  0  0  0  0  0  0  # atno 6908 bound_to 6896
  152.4089  134.6163  160.0090 H   0  0  0  0  0  0  0  0  0  0  0  0  # atno 6909 bound_to 6896
  144.8954  140.6699  143.5119 H   0  0  0  0  0  0  0  0  0  0  0  0  # atno 7974 bound_to 7965
  154.4986  140.2145  155.9394 H   0  0  0  0  0  0  0  0  0  0  0  0  # atno 8008 bound_to 7997
  156.1404  140.3180  155.8454 H   0  0  0  0  0  0  0  0  0  0  0  0  # atno 8009 bound_to 7997
  155.4131  140.0492  157.3021 H   0  0  0  0  0  0  0  0  0  0  0  0  # atno 8010 bound_to 7997
  139.8325  143.7428  152.2665 H   0  0  0  0  0  0  0  0  0  0  0  0  # atno 10167 bound_to 10162
  156.4799  130.4543  149.6818 H   0  0  0  0  0  0  0  0  0  0  0  0  # atno 10718 bound_to 10713
  153.1921  135.4453  155.0162 H   0  0  0  0  0  0  0  0  0  0  0  0  # atno 10763 bound_to 10752
  154.8096  135.3289  154.7342 H   0  0  0  0  0  0  0  0  0  0  0  0  # atno 10764 bound_to 10752
  153.7795  135.6978  153.4946 H   0  0  0  0  0  0  0  0  0  0  0  0  # atno 10765 bound_to 10752
  139.9522  134.9620  156.8894 H   0  0  0  0  0  0  0  0  0  0  0  0  # atno 11005 bound_to 11000
  145.3709  139.1659  143.4332 LP  0  0  0  0  0  0  0  0  0  0  0  0  # atno 17320 bound_to 7965
  146.3078  140.3781  142.8681 LP  0  0  0  0  0  0  0  0  0  0  0  0  # atno 17321 bound_to 7965
  139.7640  144.7497  151.0322 LP  0  0  0  0  0  0  0  0  0  0  0  0  # atno 17342 bound_to 10162
  140.7805  143.4719  151.0135 LP  0  0  0  0  0  0  0  0  0  0  0  0  # atno 17343 bound_to 10162
  156.3532  130.7443  151.2405 LP  0  0  0  0  0  0  0  0  0  0  0  0  # atno 17370 bound_to 10713
  157.7484  131.0371  150.4440 LP  0  0  0  0  0  0  0  0  0  0  0  0  # atno 17371 bound_to 10713
  140.5693  134.0459  155.7425 LP  0  0  0  0  0  0  0  0  0  0  0  0  # atno 17394 bound_to 11000
  141.1186  133.9498  157.2773 LP  0  0  0  0  0  0  0  0  0  0  0  0  # atno 17395 bound_to 11000

$$$$
