AV-unprocessed.smi:2973|AV-procd|sdf|11347|dock6
  -GOLD-   2272016263D 1   1.00000     0.00000
 Structure written by MMmdl.
 48 50  0  0  0  0  0  0  0  0  2 V2000
  150.4188  142.0033  158.3299 C   0  0  0  0  0  0  0  0  0  0  0  0
  151.5125  141.2418  159.1117 C   0  0  2  0  0  0  0  0  0  0  0  0
  152.6899  142.1769  159.4631 C   0  0  0  0  0  0  0  0  0  0  0  0
  153.7367  141.4729  160.3395 C   0  0  0  0  0  0  0  0  0  0  0  0
  154.2571  140.1982  159.6632 C   0  0  0  0  0  0  0  0  0  0  0  0
  153.1030  139.2441  159.3090 C   0  0  0  0  0  0  0  0  0  0  0  0
  152.0122  139.9211  158.4384 C   0  0  2  0  0  0  0  0  0  0  0  0
  152.5169  140.1545  157.0943 N   0  5  0  0  0  0  0  0  0  0  0  0
  151.7906  139.4238  156.2175 C   0  0  0  0  0  0  0  0  0  0  0  0
  151.9332  139.3854  154.9961 O   0  0  0  0  0  0  0  0  0  0  0  0
  150.8343  138.7186  156.8518 N   0  0  0  0  0  0  0  0  0  0  0  0
  149.8431  137.8524  156.1939 C   0  0  0  0  0  0  0  0  0  0  0  0
  150.4059  136.5395  155.6210 C   0  0  0  0  0  0  0  0  0  0  0  0
  151.3856  136.5848  154.8774 O   0  0  0  0  0  0  0  0  0  0  0  0
  149.8007  135.3863  155.9533 N   0  0  0  0  0  0  0  0  0  0  0  0
  150.1831  134.0629  155.4778 C   0  0  0  0  0  0  0  0  0  0  0  0
  150.4615  133.1040  156.6475 C   0  0  0  0  0  0  0  0  0  0  0  0
  150.8780  131.7239  156.1757 C   0  0  0  0  0  0  0  0  0  0  0  0
  150.0161  130.9478  155.3715 C   0  0  0  0  0  0  0  0  0  0  0  0
  150.4512  129.6742  154.9562 C   0  0  0  0  0  0  0  0  0  0  0  0
  151.7248  129.2282  155.3588 C   0  0  0  0  0  0  0  0  0  0  0  0
  152.5107  130.0801  156.1605 C   0  0  0  0  0  0  0  0  0  0  0  0
  152.1038  131.3035  156.5623 N   0  0  0  0  0  0  0  0  0  0  0  0
  150.8779  138.9426  158.1697 C   0  0  0  0  0  0  0  0  0  0  0  0
  150.1396  138.4715  159.0360 O   0  0  0  0  0  0  0  0  0  0  0  0
  150.7767  142.3325  157.3541 H   0  0  0  0  0  0  0  0  0  0  0  0
  150.0983  142.8906  158.8758 H   0  0  0  0  0  0  0  0  0  0  0  0
  149.5310  141.3915  158.1711 H   0  0  0  0  0  0  0  0  0  0  0  0
  151.0566  140.9586  160.0621 H   0  0  0  0  0  0  0  0  0  0  0  0
  153.1628  142.5387  158.5493 H   0  0  0  0  0  0  0  0  0  0  0  0
  152.3209  143.0600  159.9857 H   0  0  0  0  0  0  0  0  0  0  0  0
  154.5664  142.1502  160.5427 H   0  0  0  0  0  0  0  0  0  0  0  0
  153.2979  141.2221  161.3059 H   0  0  0  0  0  0  0  0  0  0  0  0
  154.8096  140.4622  158.7607 H   0  0  0  0  0  0  0  0  0  0  0  0
  154.9666  139.6934  160.3192 H   0  0  0  0  0  0  0  0  0  0  0  0
  153.5022  138.3598  158.8091 H   0  0  0  0  0  0  0  0  0  0  0  0
  152.6567  138.8852  160.2379 H   0  0  0  0  0  0  0  0  0  0  0  0
  149.0486  137.6049  156.8996 H   0  0  0  0  0  0  0  0  0  0  0  0
  149.3523  138.3956  155.3847 H   0  0  0  0  0  0  0  0  0  0  0  0
  148.9996  135.4367  156.5670 H   0  0  0  0  0  0  0  0  0  0  0  0
  149.4058  133.6595  154.8267 H   0  0  0  0  0  0  0  0  0  0  0  0
  151.0779  134.1727  154.8643 H   0  0  0  0  0  0  0  0  0  0  0  0
  151.2467  133.5121  157.2857 H   0  0  0  0  0  0  0  0  0  0  0  0
  149.5758  133.0096  157.2773 H   0  0  0  0  0  0  0  0  0  0  0  0
  149.0449  131.3189  155.0781 H   0  0  0  0  0  0  0  0  0  0  0  0
  149.8191  129.0514  154.3407 H   0  0  0  0  0  0  0  0  0  0  0  0
  152.0906  128.2569  155.0604 H   0  0  0  0  0  0  0  0  0  0  0  0
  153.4922  129.7703  156.4879 H   0  0  0  0  0  0  0  0  0  0  0  0
  1  2  1  0  0  0  0
  1 26  1  0  0  0  0
  1 27  1  0  0  0  0
  1 28  1  0  0  0  0
  2  7  1  0  0  0  0
  2  3  1  0  0  0  0
  2 29  1  0  0  0  0
  3  4  1  0  0  0  0
  3 30  1  0  0  0  0
  3 31  1  0  0  0  0
  4  5  1  0  0  0  0
  4 32  1  0  0  0  0
  4 33  1  0  0  0  0
  5  6  1  0  0  0  0
  5 34  1  0  0  0  0
  5 35  1  0  0  0  0
  6  7  1  0  0  0  0
  6 36  1  0  0  0  0
  6 37  1  0  0  0  0
  7 24  1  0  0  0  0
  7  8  1  0  0  0  0
  8  9  1  0  0  0  0
  9 10  2  0  0  0  0
  9 11  1  0  0  0  0
 11 12  1  0  0  0  0
 11 24  1  0  0  0  0
 12 13  1  0  0  0  0
 12 38  1  0  0  0  0
 12 39  1  0  0  0  0
 13 14  2  0  0  0  0
 13 15  1  0  0  0  0
 15 16  1  0  0  0  0
 15 40  1  0  0  0  0
 16 17  1  0  0  0  0
 16 41  1  0  0  0  0
 16 42  1  0  0  0  0
 17 18  1  0  0  0  0
 17 43  1  0  0  0  0
 17 44  1  0  0  0  0
 18 23  1  0  0  0  0
 18 19  2  0  0  0  0
 19 20  1  0  0  0  0
 19 45  1  0  0  0  0
 20 21  2  0  0  0  0
 20 46  1  0  0  0  0
 21 22  1  0  0  0  0
 21 47  1  0  0  0  0
 22 23  2  0  0  0  0
 22 48  1  0  0  0  0
 24 25  2  0  0  0  0
M  CHG  1   8  -1
M  END
> <s_m_source_file>
AV-unprocessed.smi

> <i_m_source_file_index>
2973

> <i_lp_mmshare_version>
43012

> <i_f3d_flags>
0

> <s_epik_input>
W0NIMl0xW0NIMl1bQ0gyXVtDSDJdW0NAQEhdKFtDSDNdKVtDQF0xMltOSF1DKD1PKU4oQzI9TylbQ0gyXUMoPU8pW05IXVtDSDJdW0NIMl1jM1tjSF1bY0hdW2NIXVtjSF1uMw==

> <s_epik_cmdline>
J2VwaWtfcHl0aG9uJywgJy1waCcsICc3LjAnLCAnLXRuJywgJzgnLCAnLW1hJywgJzIwMCcsICctbWV0YWxfYmluZGluZycsICctaW1hZScsICc8aW5maWxlLm1hZT4nLCAnLW9tYWUnLCAnPG91dGZpbGUubWFlPic=

> <r_lp_tautomer_probability>
1

> <r_epik_Ionization_Penalty>
6.04175

> <r_epik_Ionization_Penalty_Charging>
6.01728

> <r_epik_Ionization_Penalty_Neutral>
0.0244696

> <r_epik_State_Penalty>
6.03712

> <r_epik_Charging_Adjusted_Penalty>
12.0544

> <i_epik_Tot_Q>
-1

> <i_epik_Tot_abs_Q>
1

> <r_epik_Metal_State_Penalty>
2.01153

> <b_epik_Metal_Only>
1

> <s_lp_Force_Field>
OPLS_2005

> <r_lp_Energy>
17.3345

> <b_lp_Chiralities_Consistent>
1

> <s_lp_Variant>
AV-unprocessed.smi:2973-11

> <Gold.Version>
5.8.1

> <Gold.Id.Protein>
6NUR|6NUR_protein|mol2

> <Gold.PLP.Fitness>
52.6966

> <Gold.PLP.PLP>
-41.1053

> <Gold.PLP.part.hbond>
-3.2204

> <Gold.PLP.part.metal>
0.0000

> <Gold.PLP.part.buried>
-5.1759

> <Gold.PLP.part.nonpolar>
-32.5412

> <Gold.PLP.part.repulsive>
0.2533

> <Gold.PLP.ligand.clash>
0.0000

> <Gold.PLP.ligand.torsion>
0.1842

> <Gold.PLP.Chemscore.Hbond>
3.9760

> <Gold.PLP.Chemscore.CHOScore>
0.0000

> <Gold.PLP.Chemscore.Metal>
0.0000

> <Gold.Chemscore.Hbonds>
donor molecule, donor type, donor heavy atom, donor atom, acceptor molecule, acceptor atom, score
      P1  H  7989  7998       L1    10  0.76
      P1  H  7997  8009       L1     8  2.00
      P1  H 10752 10764       L1    14  1.00

> <Gold.PLP.Chemscore.Internal.Correction>
0.0317

> <Gold.Rescore>
     Score         DG    S(hbond)    S(metal)    S(lipo)     H(rot)  DE(clash)    DE(int)     intcor
     19.24     -21.07       2.85        0.00      91.30       1.81       0.23       1.59       ----

> <Gold.Chemscore.Fitness>
19.2432

> <Gold.Chemscore.DG>
-21.0658

> <Gold.Chemscore.ZeroCoef>
-5.4800

> <Gold.Chemscore.Hbond>
2.8546

> <Gold.Chemscore.Metal>
0.0000

> <Gold.Chemscore.Lipo>
91.3020

> <Gold.Chemscore.Internal_Hbond>
0.0000

> <Gold.Chemscore.DEClash>
0.2304

> <Gold.Chemscore.DEInternal>
1.5922

> <Gold.Chemscore.Rot>
1.8090

> <Gold.Chemscore.Internal.Correction>
   9.000000E+99

> <Gold.Chemscore.Hbonds>
donor molecule, donor type, donor heavy atom, donor atom, acceptor molecule, acceptor atom, score
      P1  H  7989  7998       L1    10  0.72
      P1  H  7997  8009       L1     8  0.57
      P1  H 10752 10764       L1    14  1.00

> <Gold.Chemscore.Hbond.Weighted>
-9.5345

> <Gold.Chemscore.Metal.Weighted>
-0.0000

> <Gold.Chemscore.Lipo.Weighted>
-10.6823

> <Gold.Chemscore.Internal_Hbond.Weighted>
0.0000

> <Gold.Chemscore.DEClash.Weighted>
0.2304

> <Gold.Chemscore.DEInternal.Weighted>
1.5922

> <Gold.Chemscore.Rot.Weighted>
4.6310

> <Gold.Chemscore.Internal.Correction.Weighted>
   9.000000E+99

> <Gold.Protein.RotatedTorsions>
[ 6907 6896 6895 6894 ] final  -23.47 input  -60.11 | X-H torsion
[ 7974 7965 7964 7962 ] final  131.05 input  175.53 | X-H torsion
[ 8008 7997 7996 7995 ] final -168.79 input   59.86 | X-H torsion
[ 10167 10162 10161 10158 ] final   73.49 input  -65.29 | X-H torsion
[ 10718 10713 10712 10709 ] final  -45.43 input   66.30 | X-H torsion
[ 10763 10752 10751 10750 ] final  -63.56 input  -60.55 | X-H torsion
[ 11005 11000 10999 10996 ] final    2.10 input  -57.11 | X-H torsion

> <Gold.Protein.ActiveResidues>
 VAL166  LYS551  ARG553  GLY616  TRP617  ASP618  TYR619  PRO620  LYS621  CYS622 
 ASP623  PHE694  ASN695  SER759  ASP760  ASP761  ALA762  ILE779  LEU786  VAL792 
 PHE793  MET794  SER795  GLU796  ALA797  LYS798  CYS799  TRP800  GLU811  SER814 

> <Gold.Protein.RotatedAtoms>
  151.2036  135.0452  159.8881 H   0  0  0  0  0  0  0  0  0  0  0  0  # atno 6907 bound_to 6896
  152.5430  134.0823  159.8251 H   0  0  0  0  0  0  0  0  0  0  0  0  # atno 6908 bound_to 6896
  151.0967  133.5227  159.2644 H   0  0  0  0  0  0  0  0  0  0  0  0  # atno 6909 bound_to 6896
  145.0114  139.4217  143.5243 H   0  0  0  0  0  0  0  0  0  0  0  0  # atno 7974 bound_to 7965
  155.8962  140.1033  157.1383 H   0  0  0  0  0  0  0  0  0  0  0  0  # atno 8008 bound_to 7997
  154.4021  140.1301  156.4443 H   0  0  0  0  0  0  0  0  0  0  0  0  # atno 8009 bound_to 7997
  155.7476  140.3465  155.5137 H   0  0  0  0  0  0  0  0  0  0  0  0  # atno 8010 bound_to 7997
  140.0239  144.5518  150.7559 H   0  0  0  0  0  0  0  0  0  0  0  0  # atno 10167 bound_to 10162
  156.2284  130.4171  149.8905 H   0  0  0  0  0  0  0  0  0  0  0  0  # atno 10718 bound_to 10713
  154.3168  135.6204  153.5490 H   0  0  0  0  0  0  0  0  0  0  0  0  # atno 10763 bound_to 10752
  152.9824  135.5714  154.5114 H   0  0  0  0  0  0  0  0  0  0  0  0  # atno 10764 bound_to 10752
  154.4775  135.2862  155.1572 H   0  0  0  0  0  0  0  0  0  0  0  0  # atno 10765 bound_to 10752
  140.6080  133.9774  155.8164 H   0  0  0  0  0  0  0  0  0  0  0  0  # atno 11005 bound_to 11000
  146.3470  139.9560  142.8723 LP  0  0  0  0  0  0  0  0  0  0  0  0  # atno 17320 bound_to 7965
  145.2018  140.9858  143.4151 LP  0  0  0  0  0  0  0  0  0  0  0  0  # atno 17321 bound_to 7965
  140.7331  143.2713  151.3881 LP  0  0  0  0  0  0  0  0  0  0  0  0  # atno 17342 bound_to 10162
  139.6121  144.1078  152.2309 LP  0  0  0  0  0  0  0  0  0  0  0  0  # atno 17343 bound_to 10162
  156.6528  130.8750  151.3534 LP  0  0  0  0  0  0  0  0  0  0  0  0  # atno 17370 bound_to 10713
  157.7121  130.9453  150.1127 LP  0  0  0  0  0  0  0  0  0  0  0  0  # atno 17371 bound_to 10713
  141.0827  134.0038  157.3361 LP  0  0  0  0  0  0  0  0  0  0  0  0  # atno 17394 bound_to 11000
  139.9204  135.0200  156.8042 LP  0  0  0  0  0  0  0  0  0  0  0  0  # atno 17395 bound_to 11000

$$$$
