AV-unprocessed.smi:2222|AV-procd|sdf|8985|dock1
  -GOLD-   2272012193D 1   1.00000     0.00000
 Structure written by MMmdl.
 34 35  0  0  0  0  0  0  0  0  1 V2000
  146.5657  141.9111  153.9976 C   0  0  0  0  0  0  0  0  0  0  0  0
  147.7557  141.9974  154.7676 O   0  0  0  0  0  0  0  0  0  0  0  0
  148.6465  140.9429  154.7150 C   0  0  0  0  0  0  0  0  0  0  0  0
  148.3880  139.7305  154.0261 C   0  0  0  0  0  0  0  0  0  0  0  0
  149.3586  138.7139  154.0283 C   0  0  0  0  0  0  0  0  0  0  0  0
  150.5593  138.9433  154.7235 C   0  0  0  0  0  0  0  0  0  0  0  0
  151.6492  137.8933  154.7685 C   0  0  0  0  0  0  0  0  0  0  0  0
  150.8166  140.0913  155.3815 N   0  0  0  0  0  0  0  0  0  0  0  0
  149.8889  141.0803  155.3867 C   0  0  0  0  0  0  0  0  0  0  0  0
  150.0856  142.3199  156.0542 N   0  0  0  0  0  0  0  0  0  0  0  0
  150.9137  142.6052  157.0787 C   0  0  0  0  0  0  0  0  0  0  0  0
  151.6299  141.7847  157.6499 O   0  0  0  0  0  0  0  0  0  0  0  0
  150.8754  143.8892  157.4786 N   0  0  0  0  0  0  0  0  0  0  0  0
  151.6267  144.5048  158.5311 C   0  0  2  0  0  0  0  0  0  0  0  0
  153.0810  144.1033  158.6463 C   0  0  0  0  0  0  0  0  0  0  0  0
  152.0935  143.6387  159.6829 C   0  0  1  0  0  0  0  0  0  0  0  0
  152.1610  144.1886  161.0910 C   0  0  0  0  0  0  0  0  0  0  0  0
  145.9767  142.8163  154.1445 H   0  0  0  0  0  0  0  0  0  0  0  0
  145.9510  141.0645  154.3060 H   0  0  0  0  0  0  0  0  0  0  0  0
  146.7849  141.8303  152.9320 H   0  0  0  0  0  0  0  0  0  0  0  0
  147.4644  139.5590  153.4948 H   0  0  0  0  0  0  0  0  0  0  0  0
  149.1819  137.7837  153.5088 H   0  0  0  0  0  0  0  0  0  0  0  0
  151.3183  136.9596  154.3133 H   0  0  0  0  0  0  0  0  0  0  0  0
  151.9346  137.6850  155.8001 H   0  0  0  0  0  0  0  0  0  0  0  0
  152.5315  138.2420  154.2311 H   0  0  0  0  0  0  0  0  0  0  0  0
  149.5345  143.0881  155.7007 H   0  0  0  0  0  0  0  0  0  0  0  0
  150.1916  144.4787  157.0261 H   0  0  0  0  0  0  0  0  0  0  0  0
  151.4257  145.5523  158.7510 H   0  0  0  0  0  0  0  0  0  0  0  0
  153.4627  143.3581  157.9511 H   0  0  0  0  0  0  0  0  0  0  0  0
  153.7916  144.8763  158.9323 H   0  0  0  0  0  0  0  0  0  0  0  0
  151.8148  142.5874  159.6385 H   0  0  0  0  0  0  0  0  0  0  0  0
  152.4421  145.2421  161.0832 H   0  0  0  0  0  0  0  0  0  0  0  0
  152.8984  143.6361  161.6735 H   0  0  0  0  0  0  0  0  0  0  0  0
  151.1901  144.0920  161.5765 H   0  0  0  0  0  0  0  0  0  0  0  0
  1  2  1  0  0  0  0
  1 18  1  0  0  0  0
  1 19  1  0  0  0  0
  1 20  1  0  0  0  0
  2  3  1  0  0  0  0
  3  9  1  0  0  0  0
  3  4  2  0  0  0  0
  4  5  1  0  0  0  0
  4 21  1  0  0  0  0
  5  6  2  0  0  0  0
  5 22  1  0  0  0  0
  6  7  1  0  0  0  0
  6  8  1  0  0  0  0
  7 23  1  0  0  0  0
  7 24  1  0  0  0  0
  7 25  1  0  0  0  0
  8  9  2  0  0  0  0
  9 10  1  0  0  0  0
 10 11  1  0  0  0  0
 10 26  1  0  0  0  0
 11 12  2  0  0  0  0
 11 13  1  0  0  0  0
 13 14  1  0  0  0  0
 13 27  1  0  0  0  0
 14 16  1  0  0  0  0
 14 15  1  0  0  0  0
 14 28  1  0  0  0  0
 15 16  1  0  0  0  0
 15 29  1  0  0  0  0
 15 30  1  0  0  0  0
 16 17  1  0  0  0  0
 16 31  1  0  0  0  0
 17 32  1  0  0  0  0
 17 33  1  0  0  0  0
 17 34  1  0  0  0  0
M  END
> <s_m_source_file>
AV-unprocessed.smi

> <i_m_source_file_index>
2222

> <i_lp_mmshare_version>
43012

> <i_f3d_flags>
0

> <s_epik_input>
W0NIM11PYzFbY0hdW2NIXWMoW0NIM10pbmMxW05IXUMoPU8pW05IXVtDQEBIXTJbQ0gyXVtDQEhdMltDSDNd

> <s_epik_cmdline>
J2VwaWtfcHl0aG9uJywgJy1waCcsICc3LjAnLCAnLXRuJywgJzgnLCAnLW1hJywgJzIwMCcsICctbWV0YWxfYmluZGluZycsICctaW1hZScsICc8aW5maWxlLm1hZT4nLCAnLW9tYWUnLCAnPG91dGZpbGUubWFlPic=

> <r_lp_tautomer_probability>
1

> <r_epik_Ionization_Penalty>
6.59103e-05

> <r_epik_Ionization_Penalty_Charging>
0

> <r_epik_Ionization_Penalty_Neutral>
6.59103e-05

> <r_epik_State_Penalty>
-0

> <r_epik_Charging_Adjusted_Penalty>
0

> <i_epik_Tot_Q>
0

> <i_epik_Tot_abs_Q>
0

> <r_epik_Metal_State_Penalty>
-0

> <b_epik_Metal_Only>
0

> <s_lp_Force_Field>
OPLS_2005

> <r_lp_Energy>
33.3795

> <b_lp_Chiralities_Consistent>
1

> <s_lp_Variant>
AV-unprocessed.smi:2222-1

> <Gold.Version>
5.8.1

> <Gold.Id.Protein>
6NUR|6NUR_protein|mol2

> <Gold.PLP.Fitness>
45.5549

> <Gold.PLP.PLP>
-39.9847

> <Gold.PLP.part.hbond>
-2.7161

> <Gold.PLP.part.metal>
0.0000

> <Gold.PLP.part.buried>
-3.8658

> <Gold.PLP.part.nonpolar>
-34.5515

> <Gold.PLP.part.repulsive>
0.8839

> <Gold.PLP.ligand.clash>
0.0000

> <Gold.PLP.ligand.torsion>
0.4563

> <Gold.PLP.Chemscore.Hbond>
2.1398

> <Gold.PLP.Chemscore.CHOScore>
0.0000

> <Gold.PLP.Chemscore.Metal>
0.0000

> <Gold.Chemscore.Hbonds>
donor molecule, donor type, donor heavy atom, donor atom, acceptor molecule, acceptor atom, score
      L1  H    10    26       P1  8028  1.00
      L1  H    13    27       P1  8028  1.00
      P1  H  7989  7998       L1     8  0.12

> <Gold.PLP.Chemscore.Internal.Correction>
0.0635

> <Gold.Rescore>
     Score         DG    S(hbond)    S(metal)    S(lipo)     H(rot)  DE(clash)    DE(int)     intcor
     16.26     -19.35       1.77        0.00      94.69       1.22       0.21       2.88       ----

> <Gold.Chemscore.Fitness>
16.2640

> <Gold.Chemscore.DG>
-19.3486

> <Gold.Chemscore.ZeroCoef>
-5.4800

> <Gold.Chemscore.Hbond>
1.7681

> <Gold.Chemscore.Metal>
0.0000

> <Gold.Chemscore.Lipo>
94.6859

> <Gold.Chemscore.Internal_Hbond>
0.0000

> <Gold.Chemscore.DEClash>
0.2069

> <Gold.Chemscore.DEInternal>
2.8777

> <Gold.Chemscore.Rot>
1.2168

> <Gold.Chemscore.Internal.Correction>
   9.000000E+99

> <Gold.Chemscore.Hbonds>
donor molecule, donor type, donor heavy atom, donor atom, acceptor molecule, acceptor atom, score
      L1  H    10    26       P1  8028  0.99
      L1  H    13    27       P1  8028  0.67

> <Gold.Chemscore.Hbond.Weighted>
-5.9053

> <Gold.Chemscore.Metal.Weighted>
-0.0000

> <Gold.Chemscore.Lipo.Weighted>
-11.0782

> <Gold.Chemscore.Internal_Hbond.Weighted>
0.0000

> <Gold.Chemscore.DEClash.Weighted>
0.2069

> <Gold.Chemscore.DEInternal.Weighted>
2.8777

> <Gold.Chemscore.Rot.Weighted>
3.1150

> <Gold.Chemscore.Internal.Correction.Weighted>
   9.000000E+99

> <Gold.Protein.RotatedTorsions>
[ 6907 6896 6895 6894 ] final  -50.39 input  -60.11 | X-H torsion
[ 7974 7965 7964 7962 ] final   -3.90 input  175.53 | X-H torsion
[ 8008 7997 7996 7995 ] final  -55.69 input   59.86 | X-H torsion
[ 10167 10162 10161 10158 ] final  -59.33 input  -65.29 | X-H torsion
[ 10718 10713 10712 10709 ] final   15.73 input   66.30 | X-H torsion
[ 10763 10752 10751 10750 ] final   22.52 input  -60.55 | X-H torsion
[ 11005 11000 10999 10996 ] final  -22.57 input  -57.11 | X-H torsion

> <Gold.Protein.ActiveResidues>
 VAL166  LYS551  ARG553  GLY616  TRP617  ASP618  TYR619  PRO620  LYS621  CYS622 
 ASP623  PHE694  ASN695  SER759  ASP760  ASP761  ALA762  ILE779  LEU786  VAL792 
 PHE793  MET794  SER795  GLU796  ALA797  LYS798  CYS799  TRP800  GLU811  SER814 

> <Gold.Protein.RotatedAtoms>
  150.8712  134.8086  159.7155 H   0  0  0  0  0  0  0  0  0  0  0  0  # atno 6907 bound_to 6896
  152.4716  134.4944  159.9715 H   0  0  0  0  0  0  0  0  0  0  0  0  # atno 6908 bound_to 6896
  151.5032  133.3461  159.2908 H   0  0  0  0  0  0  0  0  0  0  0  0  # atno 6909 bound_to 6896
  146.2382  140.1791  142.8332 H   0  0  0  0  0  0  0  0  0  0  0  0  # atno 7974 bound_to 7965
  154.4203  140.1147  156.5517 H   0  0  0  0  0  0  0  0  0  0  0  0  # atno 8008 bound_to 7997
  155.6403  140.3496  155.4694 H   0  0  0  0  0  0  0  0  0  0  0  0  # atno 8009 bound_to 7997
  155.9876  140.1173  157.0658 H   0  0  0  0  0  0  0  0  0  0  0  0  # atno 8010 bound_to 7997
  140.6142  143.2397  151.5638 H   0  0  0  0  0  0  0  0  0  0  0  0  # atno 10167 bound_to 10162
  157.0578  130.6296  149.5780 H   0  0  0  0  0  0  0  0  0  0  0  0  # atno 10718 bound_to 10713
  153.0909  135.6646  153.9856 H   0  0  0  0  0  0  0  0  0  0  0  0  # atno 10763 bound_to 10752
  153.9453  135.2989  155.3442 H   0  0  0  0  0  0  0  0  0  0  0  0  # atno 10764 bound_to 10752
  154.7323  135.5117  153.9057 H   0  0  0  0  0  0  0  0  0  0  0  0  # atno 10765 bound_to 10752
  140.8670  133.7747  156.0141 H   0  0  0  0  0  0  0  0  0  0  0  0  # atno 11005 bound_to 11000
  144.9949  140.8580  143.5317 LP  0  0  0  0  0  0  0  0  0  0  0  0  # atno 17320 bound_to 7965
  145.1802  139.2356  143.5296 LP  0  0  0  0  0  0  0  0  0  0  0  0  # atno 17321 bound_to 7965
  139.5385  144.2714  152.1302 LP  0  0  0  0  0  0  0  0  0  0  0  0  # atno 17342 bound_to 10162
  140.1919  144.4743  150.6474 LP  0  0  0  0  0  0  0  0  0  0  0  0  # atno 17343 bound_to 10162
  155.9988  130.5062  150.7583 LP  0  0  0  0  0  0  0  0  0  0  0  0  # atno 17370 bound_to 10713
  157.4979  131.0916  151.0349 LP  0  0  0  0  0  0  0  0  0  0  0  0  # atno 17371 bound_to 10713
  140.8617  134.2832  157.5231 LP  0  0  0  0  0  0  0  0  0  0  0  0  # atno 17394 bound_to 11000
  139.8710  134.9522  156.4107 LP  0  0  0  0  0  0  0  0  0  0  0  0  # atno 17395 bound_to 11000

$$$$
