AV-unprocessed.smi:904|AV-procd|sdf|4098|dock8
  -GOLD-   22720 1593D 1   1.00000     0.00000
 Structure written by MMmdl.
 42 43  0  0  0  0  0  0  0  0  1 V2000
  153.5188  141.8325  162.3242 C   0  0  0  0  0  0  0  0  0  0  0  0
  152.9934  142.7464  161.2538 C   0  0  0  0  0  0  0  0  0  0  0  0
  152.5352  143.9400  161.5926 N   0  0  0  0  0  0  0  0  0  0  0  0
  152.1559  144.5064  160.4295 N   0  0  0  0  0  0  0  0  0  0  0  0
  151.5974  145.8445  160.4400 C   0  0  0  0  0  0  0  0  0  0  0  0
  152.3808  143.6711  159.3527 C   0  0  0  0  0  0  0  0  0  0  0  0
  152.0544  144.0721  157.9502 C   0  0  0  0  0  0  0  0  0  0  0  0
  152.9206  142.5142  159.8480 C   0  0  0  0  0  0  0  0  0  0  0  0
  153.3484  141.2801  159.0940 C   0  0  0  0  0  0  0  0  0  0  0  0
  152.1188  140.5720  158.5264 C   0  0  0  0  0  0  0  0  0  0  0  0
  151.5566  139.6936  159.1803 O   0  0  0  0  0  0  0  0  0  0  0  0
  151.7126  140.9675  157.3099 N   0  0  0  0  0  0  0  0  0  0  0  0
  150.5511  140.4509  156.5944 C   0  0  2  0  0  0  0  0  0  0  0  0
  150.9891  139.6663  155.3415 C   0  0  0  0  0  0  0  0  0  0  0  0
  149.7769  139.1720  154.5327 C   0  0  0  0  0  0  0  0  0  0  0  0
  148.8118  140.3155  154.1669 C   0  0  2  0  0  0  0  0  0  0  0  0
  149.4058  141.1609  153.2016 O   0  0  0  0  0  0  0  0  0  0  0  0
  148.4061  141.1338  155.4073 C   0  0  0  0  0  0  0  0  0  0  0  0
  149.6258  141.6193  156.2100 C   0  0  0  0  0  0  0  0  0  0  0  0
  154.6048  141.8985  162.3919 H   0  0  0  0  0  0  0  0  0  0  0  0
  153.2608  140.7940  162.1176 H   0  0  0  0  0  0  0  0  0  0  0  0
  153.1089  142.0826  163.3034 H   0  0  0  0  0  0  0  0  0  0  0  0
  150.6844  145.8676  159.8445 H   0  0  0  0  0  0  0  0  0  0  0  0
  152.3180  146.5442  160.0160 H   0  0  0  0  0  0  0  0  0  0  0  0
  151.3584  146.1540  161.4584 H   0  0  0  0  0  0  0  0  0  0  0  0
  152.4984  143.3854  157.2296 H   0  0  0  0  0  0  0  0  0  0  0  0
  152.4337  145.0705  157.7316 H   0  0  0  0  0  0  0  0  0  0  0  0
  150.9760  144.0761  157.7911 H   0  0  0  0  0  0  0  0  0  0  0  0
  154.0303  141.5244  158.2788 H   0  0  0  0  0  0  0  0  0  0  0  0
  153.8918  140.5880  159.7380 H   0  0  0  0  0  0  0  0  0  0  0  0
  152.2398  141.6966  156.8517 H   0  0  0  0  0  0  0  0  0  0  0  0
  149.9954  139.7821  157.2547 H   0  0  0  0  0  0  0  0  0  0  0  0
  151.6154  140.2982  154.7102 H   0  0  0  0  0  0  0  0  0  0  0  0
  151.6051  138.8133  155.6281 H   0  0  0  0  0  0  0  0  0  0  0  0
  150.1119  138.6558  153.6324 H   0  0  0  0  0  0  0  0  0  0  0  0
  149.2388  138.4303  155.1244 H   0  0  0  0  0  0  0  0  0  0  0  0
  147.9158  139.8937  153.7104 H   0  0  0  0  0  0  0  0  0  0  0  0
  149.8793  140.6250  152.5834 H   0  0  0  0  0  0  0  0  0  0  0  0
  147.7871  141.9826  155.1151 H   0  0  0  0  0  0  0  0  0  0  0  0
  147.7838  140.5135  156.0534 H   0  0  0  0  0  0  0  0  0  0  0  0
  149.2886  142.1391  157.1076 H   0  0  0  0  0  0  0  0  0  0  0  0
  150.1800  142.3523  155.6218 H   0  0  0  0  0  0  0  0  0  0  0  0
  1  2  1  0  0  0  0
  1 20  1  0  0  0  0
  1 21  1  0  0  0  0
  1 22  1  0  0  0  0
  2  8  1  0  0  0  0
  2  3  2  0  0  0  0
  3  4  1  0  0  0  0
  4  5  1  0  0  0  0
  4  6  1  0  0  0  0
  5 23  1  0  0  0  0
  5 24  1  0  0  0  0
  5 25  1  0  0  0  0
  6  7  1  0  0  0  0
  6  8  2  0  0  0  0
  7 26  1  0  0  0  0
  7 27  1  0  0  0  0
  7 28  1  0  0  0  0
  8  9  1  0  0  0  0
  9 10  1  0  0  0  0
  9 29  1  0  0  0  0
  9 30  1  0  0  0  0
 10 11  2  0  0  0  0
 10 12  1  0  0  0  0
 12 13  1  0  0  0  0
 12 31  1  0  0  0  0
 13 19  1  0  0  0  0
 13 14  1  0  0  0  0
 13 32  1  0  0  0  0
 14 15  1  0  0  0  0
 14 33  1  0  0  0  0
 14 34  1  0  0  0  0
 15 16  1  0  0  0  0
 15 35  1  0  0  0  0
 15 36  1  0  0  0  0
 16 17  1  0  0  0  0
 16 18  1  0  0  0  0
 16 37  1  0  0  0  0
 17 38  1  0  0  0  0
 18 19  1  0  0  0  0
 18 39  1  0  0  0  0
 18 40  1  0  0  0  0
 19 41  1  0  0  0  0
 19 42  1  0  0  0  0
M  END
> <s_m_source_file>
AV-unprocessed.smi

> <i_m_source_file_index>
904

> <i_lp_mmshare_version>
43012

> <i_f3d_flags>
0

> <s_epik_input>
W0NIM11jMW5uKFtDSDNdKWMoW0NIM10pYzFbQ0gyXUMoPU8pW05IXVtDQEBIXTJbQ0gyXVtDSDJdW0NAQEhdKFtPSF0pW0NIMl1bQ0gyXTI=

> <s_epik_cmdline>
J2VwaWtfcHl0aG9uJywgJy1waCcsICc3LjAnLCAnLXRuJywgJzgnLCAnLW1hJywgJzIwMCcsICctbWV0YWxfYmluZGluZycsICctaW1hZScsICc8aW5maWxlLm1hZT4nLCAnLW9tYWUnLCAnPG91dGZpbGUubWFlPic=

> <r_lp_tautomer_probability>
1

> <r_epik_Ionization_Penalty>
0.00340889

> <r_epik_Ionization_Penalty_Charging>
0

> <r_epik_Ionization_Penalty_Neutral>
0.00340889

> <r_epik_State_Penalty>
0.00241397

> <r_epik_Charging_Adjusted_Penalty>
0.00241397

> <i_epik_Tot_Q>
0

> <i_epik_Tot_abs_Q>
0

> <r_epik_Metal_State_Penalty>
-0

> <b_epik_Metal_Only>
0

> <s_lp_Force_Field>
OPLS_2005

> <r_lp_Energy>
4.71478

> <b_lp_Chiralities_Consistent>
1

> <s_lp_Variant>
AV-unprocessed.smi:904-2

> <Gold.Version>
5.8.1

> <Gold.Id.Protein>
6NUR|6NUR_protein|mol2

> <Gold.PLP.Fitness>
47.6300

> <Gold.PLP.PLP>
-44.7263

> <Gold.PLP.part.hbond>
-2.1162

> <Gold.PLP.part.metal>
0.0000

> <Gold.PLP.part.buried>
-0.9741

> <Gold.PLP.part.nonpolar>
-40.9755

> <Gold.PLP.part.repulsive>
0.2330

> <Gold.PLP.ligand.clash>
0.0000

> <Gold.PLP.ligand.torsion>
0.4765

> <Gold.PLP.Chemscore.Hbond>
1.2844

> <Gold.PLP.Chemscore.CHOScore>
0.0000

> <Gold.PLP.Chemscore.Metal>
0.0000

> <Gold.Chemscore.Hbonds>
donor molecule, donor type, donor heavy atom, donor atom, acceptor molecule, acceptor atom, score
      L1  H    17    38       P1  7957  0.74
      P1  H  8011  8017       L1    17  0.40

> <Gold.PLP.Chemscore.Internal.Correction>
0.0035

> <Gold.Rescore>
     Score         DG    S(hbond)    S(metal)    S(lipo)     H(rot)  DE(clash)    DE(int)     intcor
     17.15     -17.78       0.99        0.00     117.04       1.84       0.17       0.46       ----

> <Gold.Chemscore.Fitness>
17.1488

> <Gold.Chemscore.DG>
-17.7785

> <Gold.Chemscore.ZeroCoef>
-5.4800

> <Gold.Chemscore.Hbond>
0.9932

> <Gold.Chemscore.Metal>
0.0000

> <Gold.Chemscore.Lipo>
117.0351

> <Gold.Chemscore.Internal_Hbond>
0.0000

> <Gold.Chemscore.DEClash>
0.1674

> <Gold.Chemscore.DEInternal>
0.4623

> <Gold.Chemscore.Rot>
1.8406

> <Gold.Chemscore.Internal.Correction>
   9.000000E+99

> <Gold.Chemscore.Hbonds>
donor molecule, donor type, donor heavy atom, donor atom, acceptor molecule, acceptor atom, score
      L1  H    17    38       P1  7957  0.70
      P1  H  8011  8017       L1    17  0.01

> <Gold.Chemscore.Hbond.Weighted>
-3.3172

> <Gold.Chemscore.Metal.Weighted>
-0.0000

> <Gold.Chemscore.Lipo.Weighted>
-13.6931

> <Gold.Chemscore.Internal_Hbond.Weighted>
0.0000

> <Gold.Chemscore.DEClash.Weighted>
0.1674

> <Gold.Chemscore.DEInternal.Weighted>
0.4623

> <Gold.Chemscore.Rot.Weighted>
4.7118

> <Gold.Chemscore.Internal.Correction.Weighted>
   9.000000E+99

> <Gold.Protein.RotatedTorsions>
[ 6907 6896 6895 6894 ] final    7.48 input  -60.11 | X-H torsion
[ 7974 7965 7964 7962 ] final -134.98 input  175.53 | X-H torsion
[ 8008 7997 7996 7995 ] final   23.86 input   59.86 | X-H torsion
[ 10167 10162 10161 10158 ] final  -40.82 input  -65.29 | X-H torsion
[ 10718 10713 10712 10709 ] final  145.95 input   66.30 | X-H torsion
[ 10763 10752 10751 10750 ] final   60.71 input  -60.55 | X-H torsion
[ 11005 11000 10999 10996 ] final  -58.77 input  -57.11 | X-H torsion

> <Gold.Protein.ActiveResidues>
 VAL166  LYS551  ARG553  GLY616  TRP617  ASP618  TYR619  PRO620  LYS621  CYS622 
 ASP623  PHE694  ASN695  SER759  ASP760  ASP761  ALA762  ILE779  LEU786  VAL792 
 PHE793  MET794  SER795  GLU796  ALA797  LYS798  CYS799  TRP800  GLU811  SER814 

> <Gold.Protein.RotatedAtoms>
  151.6905  135.0947  160.0232 H   0  0  0  0  0  0  0  0  0  0  0  0  # atno 6907 bound_to 6896
  152.3781  133.6504  159.6148 H   0  0  0  0  0  0  0  0  0  0  0  0  # atno 6908 bound_to 6896
  150.7725  133.9076  159.3401 H   0  0  0  0  0  0  0  0  0  0  0  0  # atno 6909 bound_to 6896
  144.9054  140.6826  143.5058 H   0  0  0  0  0  0  0  0  0  0  0  0  # atno 7974 bound_to 7965
  154.9873  140.3109  155.4921 H   0  0  0  0  0  0  0  0  0  0  0  0  # atno 8008 bound_to 7997
  156.2945  140.2255  156.4916 H   0  0  0  0  0  0  0  0  0  0  0  0  # atno 8009 bound_to 7997
  154.7735  140.0451  157.1058 H   0  0  0  0  0  0  0  0  0  0  0  0  # atno 8010 bound_to 7997
  140.7022  143.3131  151.2978 H   0  0  0  0  0  0  0  0  0  0  0  0  # atno 10167 bound_to 10162
  157.3391  131.0933  151.1098 H   0  0  0  0  0  0  0  0  0  0  0  0  # atno 10718 bound_to 10713
  152.9929  135.5526  154.5918 H   0  0  0  0  0  0  0  0  0  0  0  0  # atno 10763 bound_to 10752
  154.5278  135.2811  155.1209 H   0  0  0  0  0  0  0  0  0  0  0  0  # atno 10764 bound_to 10752
  154.2536  135.6394  153.5302 H   0  0  0  0  0  0  0  0  0  0  0  0  # atno 10765 bound_to 10752
  141.1221  133.6613  156.4970 H   0  0  0  0  0  0  0  0  0  0  0  0  # atno 11005 bound_to 11000
  145.3545  139.1697  143.4417 LP  0  0  0  0  0  0  0  0  0  0  0  0  # atno 17320 bound_to 7965
  146.3131  140.3600  142.8664 LP  0  0  0  0  0  0  0  0  0  0  0  0  # atno 17321 bound_to 7965
  139.6560  144.0275  152.2660 LP  0  0  0  0  0  0  0  0  0  0  0  0  # atno 17342 bound_to 10162
  139.9827  144.6417  150.7886 LP  0  0  0  0  0  0  0  0  0  0  0  0  # atno 17343 bound_to 10162
  157.2317  130.6528  149.5852 LP  0  0  0  0  0  0  0  0  0  0  0  0  # atno 17370 bound_to 10713
  155.9705  130.4596  150.6044 LP  0  0  0  0  0  0  0  0  0  0  0  0  # atno 17371 bound_to 10713
  140.4476  134.6958  157.5023 LP  0  0  0  0  0  0  0  0  0  0  0  0  # atno 17394 bound_to 11000
  140.0187  134.6580  155.9272 LP  0  0  0  0  0  0  0  0  0  0  0  0  # atno 17395 bound_to 11000

$$$$
