AV-unprocessed.smi:1308|AV-procd|sdf|5438|dock10
  -GOLD-   22720 5 03D 1   1.00000     0.00000
 Structure written by MMmdl.
 45 45  0  0  0  0  0  0  0  0  1 V2000
  143.7195  141.3699  158.1206 C   0  0  0  0  0  0  0  0  0  0  0  0
  144.7034  141.4760  156.9754 C   0  0  0  0  0  0  0  0  0  0  0  0
  144.5944  142.3251  156.0078 N   0  0  0  0  0  0  0  0  0  0  0  0
  145.5757  142.3367  155.0074 C   0  0  0  0  0  0  0  0  0  0  0  0
  145.3933  143.3895  153.9282 C   0  0  0  0  0  0  0  0  0  0  0  0
  146.6326  141.4718  155.0299 C   0  0  0  0  0  0  0  0  0  0  0  0
  147.7484  141.4952  153.9836 C   0  0  0  0  0  0  0  0  0  0  0  0
  149.1456  141.2367  154.5478 C   0  0  0  0  0  0  0  0  0  0  0  0
  149.9242  140.4896  153.9566 O   0  0  0  0  0  0  0  0  0  0  0  0
  149.4579  141.9120  155.6649 N   0  0  0  0  0  0  0  0  0  0  0  0
  150.7979  142.0833  156.2181 C   0  0  2  0  0  0  0  0  0  0  0  0
  151.5157  140.7274  156.2533 C   0  0  0  0  0  0  0  0  0  0  0  0
  150.6954  142.7180  157.6203 C   0  0  0  0  0  0  0  0  0  0  0  0
  152.0422  142.7754  158.3721 C   0  0  0  0  0  0  0  0  0  0  0  0
  151.9292  143.1445  159.8640 C   0  0  0  0  0  0  0  0  0  0  0  0
  151.6946  144.6498  160.0780 C   0  0  0  0  0  0  0  0  0  0  0  0
  153.1853  142.6919  160.6241 C   0  0  0  0  0  0  0  0  0  0  0  0
  146.7412  140.5001  156.1357 C   0  0  0  0  0  0  0  0  0  0  0  0
  147.6526  139.6836  156.2586 O   0  0  0  0  0  0  0  0  0  0  0  0
  145.7545  140.5648  157.0573 N   0  0  0  0  0  0  0  0  0  0  0  0
  145.7868  139.9239  157.8367 H   0  0  0  0  0  0  0  0  0  0  0  0
  143.6996  142.3028  158.6844 H   0  0  0  0  0  0  0  0  0  0  0  0
  143.9831  140.5622  158.8047 H   0  0  0  0  0  0  0  0  0  0  0  0
  142.7169  141.1788  157.7374 H   0  0  0  0  0  0  0  0  0  0  0  0
  145.3604  142.9302  152.9404 H   0  0  0  0  0  0  0  0  0  0  0  0
  146.2128  144.1079  153.9528 H   0  0  0  0  0  0  0  0  0  0  0  0
  144.4633  143.9418  154.0682 H   0  0  0  0  0  0  0  0  0  0  0  0
  147.5545  140.7735  153.1894 H   0  0  0  0  0  0  0  0  0  0  0  0
  147.7464  142.4649  153.4854 H   0  0  0  0  0  0  0  0  0  0  0  0
  148.7292  142.4713  156.0848 H   0  0  0  0  0  0  0  0  0  0  0  0
  151.3849  142.7524  155.5869 H   0  0  0  0  0  0  0  0  0  0  0  0
  152.5270  140.8296  156.6477 H   0  0  0  0  0  0  0  0  0  0  0  0
  151.5946  140.2988  155.2536 H   0  0  0  0  0  0  0  0  0  0  0  0
  150.9843  140.0117  156.8817 H   0  0  0  0  0  0  0  0  0  0  0  0
  150.2826  143.7222  157.5215 H   0  0  0  0  0  0  0  0  0  0  0  0
  149.9794  142.1523  158.2174 H   0  0  0  0  0  0  0  0  0  0  0  0
  152.5234  141.8009  158.2800 H   0  0  0  0  0  0  0  0  0  0  0  0
  152.7145  143.4857  157.8922 H   0  0  0  0  0  0  0  0  0  0  0  0
  151.0798  142.6055  160.2856 H   0  0  0  0  0  0  0  0  0  0  0  0
  152.4950  145.2424  159.6338 H   0  0  0  0  0  0  0  0  0  0  0  0
  151.6545  144.8917  161.1403 H   0  0  0  0  0  0  0  0  0  0  0  0
  150.7529  144.9791  159.6405 H   0  0  0  0  0  0  0  0  0  0  0  0
  154.0780  143.1914  160.2455 H   0  0  0  0  0  0  0  0  0  0  0  0
  153.3394  141.6168  160.5268 H   0  0  0  0  0  0  0  0  0  0  0  0
  153.1044  142.9156  161.6882 H   0  0  0  0  0  0  0  0  0  0  0  0
  1  2  1  0  0  0  0
  1 22  1  0  0  0  0
  1 23  1  0  0  0  0
  1 24  1  0  0  0  0
  2 20  1  0  0  0  0
  2  3  2  0  0  0  0
  3  4  1  0  0  0  0
  4  5  1  0  0  0  0
  4  6  2  0  0  0  0
  5 25  1  0  0  0  0
  5 26  1  0  0  0  0
  5 27  1  0  0  0  0
  6  7  1  0  0  0  0
  6 18  1  0  0  0  0
  7  8  1  0  0  0  0
  7 28  1  0  0  0  0
  7 29  1  0  0  0  0
  8  9  2  0  0  0  0
  8 10  1  0  0  0  0
 10 11  1  0  0  0  0
 10 30  1  0  0  0  0
 11 12  1  0  0  0  0
 11 13  1  0  0  0  0
 11 31  1  0  0  0  0
 12 32  1  0  0  0  0
 12 33  1  0  0  0  0
 12 34  1  0  0  0  0
 13 14  1  0  0  0  0
 13 35  1  0  0  0  0
 13 36  1  0  0  0  0
 14 15  1  0  0  0  0
 14 37  1  0  0  0  0
 14 38  1  0  0  0  0
 15 16  1  0  0  0  0
 15 17  1  0  0  0  0
 15 39  1  0  0  0  0
 16 40  1  0  0  0  0
 16 41  1  0  0  0  0
 16 42  1  0  0  0  0
 17 43  1  0  0  0  0
 17 44  1  0  0  0  0
 17 45  1  0  0  0  0
 18 19  2  0  0  0  0
 18 20  1  0  0  0  0
 20 21  1  0  0  0  0
M  END
> <s_m_source_file>
AV-unprocessed.smi

> <i_m_source_file_index>
1308

> <i_lp_mmshare_version>
43012

> <i_f3d_flags>
0

> <s_epik_input>
W0NIM11jMW5jKFtDSDNdKWMoYyg9TylbbkhdMSlbQ0gyXUMoPU8pW05IXVtDQEhdKFtDSDNdKVtDSDJdW0NIMl1bQ0hdKFtDSDNdKVtDSDNd

> <s_epik_cmdline>
J2VwaWtfcHl0aG9uJywgJy1waCcsICc3LjAnLCAnLXRuJywgJzgnLCAnLW1hJywgJzIwMCcsICctbWV0YWxfYmluZGluZycsICctaW1hZScsICc8aW5maWxlLm1hZT4nLCAnLW9tYWUnLCAnPG91dGZpbGUubWFlPic=

> <r_lp_tautomer_probability>
0.839158

> <r_epik_Ionization_Penalty>
0.000390633

> <r_epik_Ionization_Penalty_Charging>
0.00035831

> <r_epik_Ionization_Penalty_Neutral>
3.23235e-05

> <r_epik_State_Penalty>
0.0470222

> <r_epik_Charging_Adjusted_Penalty>
0.0473805

> <i_epik_Tot_Q>
0

> <i_epik_Tot_abs_Q>
0

> <r_epik_Metal_State_Penalty>
0.223807

> <b_epik_Metal_Only>
0

> <s_lp_Force_Field>
OPLS_2005

> <r_lp_Energy>
5.21456

> <b_lp_Chiralities_Consistent>
1

> <s_lp_Variant>
AV-unprocessed.smi:1308-1

> <Gold.Version>
5.8.1

> <Gold.Id.Protein>
6NUR|6NUR_protein|mol2

> <Gold.PLP.Fitness>
42.4116

> <Gold.PLP.PLP>
-39.9422

> <Gold.PLP.part.hbond>
-2.0000

> <Gold.PLP.part.metal>
0.0000

> <Gold.PLP.part.buried>
-5.7252

> <Gold.PLP.part.nonpolar>
-33.0371

> <Gold.PLP.part.repulsive>
1.4514

> <Gold.PLP.ligand.clash>
0.0000

> <Gold.PLP.ligand.torsion>
0.8577

> <Gold.PLP.Chemscore.Hbond>
1.3760

> <Gold.PLP.Chemscore.CHOScore>
0.0000

> <Gold.PLP.Chemscore.Metal>
0.0000

> <Gold.Chemscore.Hbonds>
donor molecule, donor type, donor heavy atom, donor atom, acceptor molecule, acceptor atom, score
      L1  H    10    30       P1  8028  0.11
      P1  H  7989  7998       L1     9  0.69

> <Gold.PLP.Chemscore.Internal.Correction>
0.0568

> <Gold.Rescore>
     Score         DG    S(hbond)    S(metal)    S(lipo)     H(rot)  DE(clash)    DE(int)     intcor
     12.43     -16.36       1.38        0.00      97.06       1.98       0.39       3.54       ----

> <Gold.Chemscore.Fitness>
12.4261

> <Gold.Chemscore.DG>
-16.3556

> <Gold.Chemscore.ZeroCoef>
-5.4800

> <Gold.Chemscore.Hbond>
1.3764

> <Gold.Chemscore.Metal>
0.0000

> <Gold.Chemscore.Lipo>
97.0605

> <Gold.Chemscore.Internal_Hbond>
0.0000

> <Gold.Chemscore.DEClash>
0.3922

> <Gold.Chemscore.DEInternal>
3.5373

> <Gold.Chemscore.Rot>
1.9835

> <Gold.Chemscore.Internal.Correction>
   9.000000E+99

> <Gold.Chemscore.Hbonds>
donor molecule, donor type, donor heavy atom, donor atom, acceptor molecule, acceptor atom, score
      L1  H    10    30       P1  8028  0.11
      P1  H  7989  7998       L1     9  0.70

> <Gold.Chemscore.Hbond.Weighted>
-4.5973

> <Gold.Chemscore.Metal.Weighted>
-0.0000

> <Gold.Chemscore.Lipo.Weighted>
-11.3561

> <Gold.Chemscore.Internal_Hbond.Weighted>
0.0000

> <Gold.Chemscore.DEClash.Weighted>
0.3922

> <Gold.Chemscore.DEInternal.Weighted>
3.5373

> <Gold.Chemscore.Rot.Weighted>
5.0778

> <Gold.Chemscore.Internal.Correction.Weighted>
   9.000000E+99

> <Gold.Protein.RotatedTorsions>
[ 6907 6896 6895 6894 ] final -142.33 input  -60.11 | X-H torsion
[ 7974 7965 7964 7962 ] final   -1.31 input  175.53 | X-H torsion
[ 8008 7997 7996 7995 ] final -125.24 input   59.86 | X-H torsion
[ 10167 10162 10161 10158 ] final   -2.45 input  -65.29 | X-H torsion
[ 10718 10713 10712 10709 ] final  117.58 input   66.30 | X-H torsion
[ 10763 10752 10751 10750 ] final -129.24 input  -60.55 | X-H torsion
[ 11005 11000 10999 10996 ] final   67.82 input  -57.11 | X-H torsion

> <Gold.Protein.ActiveResidues>
 VAL166  LYS551  ARG553  GLY616  TRP617  ASP618  TYR619  PRO620  LYS621  CYS622 
 ASP623  PHE694  ASN695  SER759  ASP760  ASP761  ALA762  ILE779  LEU786  VAL792 
 PHE793  MET794  SER795  GLU796  ALA797  LYS798  CYS799  TRP800  GLU811  SER814 

> <Gold.Protein.RotatedAtoms>
  151.0856  133.5355  159.2617 H   0  0  0  0  0  0  0  0  0  0  0  0  # atno 6907 bound_to 6896
  151.2242  135.0529  159.8972 H   0  0  0  0  0  0  0  0  0  0  0  0  # atno 6908 bound_to 6896
  152.5428  134.0655  159.8224 H   0  0  0  0  0  0  0  0  0  0  0  0  # atno 6909 bound_to 6896
  146.2418  140.1402  142.8336 H   0  0  0  0  0  0  0  0  0  0  0  0  # atno 7974 bound_to 7965
  155.2100  140.0418  157.2932 H   0  0  0  0  0  0  0  0  0  0  0  0  # atno 8008 bound_to 7997
  154.6018  140.2454  155.7754 H   0  0  0  0  0  0  0  0  0  0  0  0  # atno 8009 bound_to 7997
  156.2325  140.2933  156.0236 H   0  0  0  0  0  0  0  0  0  0  0  0  # atno 8010 bound_to 7997
  140.6851  143.6656  150.8229 H   0  0  0  0  0  0  0  0  0  0  0  0  # atno 10167 bound_to 10162
  157.6087  131.1039  150.7634 H   0  0  0  0  0  0  0  0  0  0  0  0  # atno 10718 bound_to 10713
  154.8757  135.3902  154.3887 H   0  0  0  0  0  0  0  0  0  0  0  0  # atno 10763 bound_to 10752
  153.4626  135.7029  153.6046 H   0  0  0  0  0  0  0  0  0  0  0  0  # atno 10764 bound_to 10752
  153.4538  135.3827  155.2268 H   0  0  0  0  0  0  0  0  0  0  0  0  # atno 10765 bound_to 10752
  139.9748  134.6840  156.0375 H   0  0  0  0  0  0  0  0  0  0  0  0  # atno 11005 bound_to 11000
  145.0253  140.8827  143.5142 LP  0  0  0  0  0  0  0  0  0  0  0  0  # atno 17320 bound_to 7965
  145.1457  139.2545  143.5467 LP  0  0  0  0  0  0  0  0  0  0  0  0  # atno 17321 bound_to 7965
  140.0362  143.5393  152.2738 LP  0  0  0  0  0  0  0  0  0  0  0  0  # atno 17342 bound_to 10162
  139.6204  144.7628  151.2754 LP  0  0  0  0  0  0  0  0  0  0  0  0  # atno 17343 bound_to 10162
  156.8017  130.4923  149.5369 LP  0  0  0  0  0  0  0  0  0  0  0  0  # atno 17370 bound_to 10713
  156.1182  130.6091  151.0154 LP  0  0  0  0  0  0  0  0  0  0  0  0  # atno 17371 bound_to 10713
  141.1426  133.6562  156.3773 LP  0  0  0  0  0  0  0  0  0  0  0  0  # atno 17394 bound_to 11000
  140.5218  134.6297  157.5320 LP  0  0  0  0  0  0  0  0  0  0  0  0  # atno 17395 bound_to 11000

$$$$
