AV-unprocessed.smi:1340|AV-procd|sdf|5504|dock4
  -GOLD-   22720 5 83D 1   1.00000     0.00000
 Structure written by MMmdl.
 40 41  0  0  0  0  0  0  0  0  1 V2000
  152.6968  142.7165  161.3313 C   0  0  0  0  0  0  0  0  0  0  0  0
  152.1767  143.7417  160.3178 C   0  0  0  0  0  0  0  0  0  0  0  0
  152.3366  143.2649  158.8635 C   0  0  0  0  0  0  0  0  0  0  0  0
  151.2147  142.3211  158.3898 C   0  0  1  0  0  0  0  0  0  0  0  0
  151.0808  142.3338  156.8579 C   0  0  0  0  0  0  0  0  0  0  0  0
  151.4642  140.9608  158.8625 N   0  0  0  0  0  0  0  0  0  0  0  0
  150.6573  139.9064  158.6649 C   0  0  0  0  0  0  0  0  0  0  0  0
  149.5987  139.9766  158.0387 O   0  0  0  0  0  0  0  0  0  0  0  0
  151.1363  138.5742  159.2548 C   0  0  0  0  0  0  0  0  0  0  0  0
  150.0922  137.5011  159.1253 C   0  0  0  0  0  0  0  0  0  0  0  0
  149.7690  136.8012  157.9883 C   0  0  0  0  0  0  0  0  0  0  0  0
  148.4990  135.6435  158.2717 S   0  0  0  0  0  0  0  0  0  0  0  0
  148.4560  136.1552  159.9616 C   0  0  0  0  0  0  0  0  0  0  0  0
  147.5963  135.6439  160.9787 N   0  0  0  0  0  0  0  0  0  0  0  0
  147.0024  134.3141  160.8835 C   0  0  0  0  0  0  0  0  0  0  0  0
  146.1822  134.1868  162.1635 C   0  0  0  0  0  0  0  0  0  0  0  0
  146.4196  135.4589  162.8040 N   0  0  0  0  0  0  0  0  0  0  0  0
  147.2239  136.2699  162.1129 C   0  0  0  0  0  0  0  0  0  0  0  0
  147.5462  137.3969  162.4841 O   0  0  0  0  0  0  0  0  0  0  0  0
  149.3407  137.1184  160.2418 N   0  0  0  0  0  0  0  0  0  0  0  0
  152.5735  143.0817  162.3511 H   0  0  0  0  0  0  0  0  0  0  0  0
  153.7568  142.5132  161.1770 H   0  0  0  0  0  0  0  0  0  0  0  0
  152.1581  141.7722  161.2485 H   0  0  0  0  0  0  0  0  0  0  0  0
  151.1275  143.9480  160.5310 H   0  0  0  0  0  0  0  0  0  0  0  0
  152.7104  144.6829  160.4548 H   0  0  0  0  0  0  0  0  0  0  0  0
  152.3622  144.1381  158.2099 H   0  0  0  0  0  0  0  0  0  0  0  0
  153.3030  142.7723  158.7471 H   0  0  0  0  0  0  0  0  0  0  0  0
  150.2757  142.6778  158.8176 H   0  0  0  0  0  0  0  0  0  0  0  0
  150.8855  143.3415  156.4905 H   0  0  0  0  0  0  0  0  0  0  0  0
  150.2576  141.7009  156.5251 H   0  0  0  0  0  0  0  0  0  0  0  0
  151.9914  141.9754  156.3767 H   0  0  0  0  0  0  0  0  0  0  0  0
  152.3157  140.8115  159.3842 H   0  0  0  0  0  0  0  0  0  0  0  0
  152.0507  138.2803  158.7388 H   0  0  0  0  0  0  0  0  0  0  0  0
  151.4061  138.7145  160.3028 H   0  0  0  0  0  0  0  0  0  0  0  0
  150.1969  136.9015  157.0019 H   0  0  0  0  0  0  0  0  0  0  0  0
  146.3717  134.2359  159.9968 H   0  0  0  0  0  0  0  0  0  0  0  0
  147.7779  133.5487  160.8289 H   0  0  0  0  0  0  0  0  0  0  0  0
  145.1196  134.0515  161.9589 H   0  0  0  0  0  0  0  0  0  0  0  0
  146.5308  133.3689  162.7948 H   0  0  0  0  0  0  0  0  0  0  0  0
  146.0083  135.7015  163.6939 H   0  0  0  0  0  0  0  0  0  0  0  0
  1  2  1  0  0  0  0
  1 21  1  0  0  0  0
  1 22  1  0  0  0  0
  1 23  1  0  0  0  0
  2  3  1  0  0  0  0
  2 24  1  0  0  0  0
  2 25  1  0  0  0  0
  3  4  1  0  0  0  0
  3 26  1  0  0  0  0
  3 27  1  0  0  0  0
  4  5  1  0  0  0  0
  4  6  1  0  0  0  0
  4 28  1  0  0  0  0
  5 29  1  0  0  0  0
  5 30  1  0  0  0  0
  5 31  1  0  0  0  0
  6  7  1  0  0  0  0
  6 32  1  0  0  0  0
  7  8  2  0  0  0  0
  7  9  1  0  0  0  0
  9 10  1  0  0  0  0
  9 33  1  0  0  0  0
  9 34  1  0  0  0  0
 10 20  1  0  0  0  0
 10 11  2  0  0  0  0
 11 12  1  0  0  0  0
 11 35  1  0  0  0  0
 12 13  1  0  0  0  0
 13 14  1  0  0  0  0
 13 20  2  0  0  0  0
 14 18  1  0  0  0  0
 14 15  1  0  0  0  0
 15 16  1  0  0  0  0
 15 36  1  0  0  0  0
 15 37  1  0  0  0  0
 16 17  1  0  0  0  0
 16 38  1  0  0  0  0
 16 39  1  0  0  0  0
 17 18  1  0  0  0  0
 17 40  1  0  0  0  0
 18 19  2  0  0  0  0
M  END
> <s_m_source_file>
AV-unprocessed.smi

> <i_m_source_file_index>
1340

> <i_lp_mmshare_version>
43012

> <i_f3d_flags>
0

> <s_epik_input>
W0NIM11bQ0gyXVtDSDJdW0NASF0oW0NIM10pW05IXUMoPU8pW0NIMl1jMVtjSF1zYyhuMSlOMltDSDJdW0NIMl1bTkhdQzI9Tw==

> <s_epik_cmdline>
J2VwaWtfcHl0aG9uJywgJy1waCcsICc3LjAnLCAnLXRuJywgJzgnLCAnLW1hJywgJzIwMCcsICctbWV0YWxfYmluZGluZycsICctaW1hZScsICc8aW5maWxlLm1hZT4nLCAnLW9tYWUnLCAnPG91dGZpbGUubWFlPic=

> <r_lp_tautomer_probability>
1

> <r_epik_Ionization_Penalty>
0.00012151

> <r_epik_Ionization_Penalty_Charging>
0

> <r_epik_Ionization_Penalty_Neutral>
0.00012151

> <r_epik_State_Penalty>
-0

> <r_epik_Charging_Adjusted_Penalty>
0

> <i_epik_Tot_Q>
0

> <i_epik_Tot_abs_Q>
0

> <r_epik_Metal_State_Penalty>
-0

> <b_epik_Metal_Only>
0

> <s_lp_Force_Field>
OPLS_2005

> <r_lp_Energy>
32.5305

> <b_lp_Chiralities_Consistent>
1

> <s_lp_Variant>
AV-unprocessed.smi:1340-2

> <Gold.Version>
5.8.1

> <Gold.Id.Protein>
6NUR|6NUR_protein|mol2

> <Gold.PLP.Fitness>
40.9725

> <Gold.PLP.PLP>
-39.6720

> <Gold.PLP.part.hbond>
-2.1609

> <Gold.PLP.part.metal>
0.0000

> <Gold.PLP.part.buried>
-7.1545

> <Gold.PLP.part.nonpolar>
-31.0925

> <Gold.PLP.part.repulsive>
0.2828

> <Gold.PLP.ligand.clash>
0.0000

> <Gold.PLP.ligand.torsion>
0.8447

> <Gold.PLP.Chemscore.Hbond>
0.9784

> <Gold.PLP.Chemscore.CHOScore>
0.0000

> <Gold.PLP.Chemscore.Metal>
0.0000

> <Gold.Chemscore.Hbonds>
donor molecule, donor type, donor heavy atom, donor atom, acceptor molecule, acceptor atom, score
      P1  H  6931  6943       L1    19  0.74
      P1  H  6934  6947       L1    19  0.20

> <Gold.PLP.Chemscore.Internal.Correction>
0.0545

> <Gold.Rescore>
     Score         DG    S(hbond)    S(metal)    S(lipo)     H(rot)  DE(clash)    DE(int)     intcor
     11.24     -13.45       0.97        0.00      82.44       1.92       0.00       2.21       ----

> <Gold.Chemscore.Fitness>
11.2431

> <Gold.Chemscore.DG>
-13.4528

> <Gold.Chemscore.ZeroCoef>
-5.4800

> <Gold.Chemscore.Hbond>
0.9690

> <Gold.Chemscore.Metal>
0.0000

> <Gold.Chemscore.Lipo>
82.4395

> <Gold.Chemscore.Internal_Hbond>
0.0000

> <Gold.Chemscore.DEClash>
0.0000

> <Gold.Chemscore.DEInternal>
2.2097

> <Gold.Chemscore.Rot>
1.9176

> <Gold.Chemscore.Internal.Correction>
   9.000000E+99

> <Gold.Chemscore.Hbonds>
donor molecule, donor type, donor heavy atom, donor atom, acceptor molecule, acceptor atom, score
      P1  H  6931  6943       L1    19  0.74
      P1  H  6934  6947       L1    19  0.18

> <Gold.Chemscore.Hbond.Weighted>
-3.2364

> <Gold.Chemscore.Metal.Weighted>
-0.0000

> <Gold.Chemscore.Lipo.Weighted>
-9.6454

> <Gold.Chemscore.Internal_Hbond.Weighted>
0.0000

> <Gold.Chemscore.DEClash.Weighted>
0.0000

> <Gold.Chemscore.DEInternal.Weighted>
2.2097

> <Gold.Chemscore.Rot.Weighted>
4.9091

> <Gold.Chemscore.Internal.Correction.Weighted>
   9.000000E+99

> <Gold.Protein.RotatedTorsions>
[ 6907 6896 6895 6894 ] final -148.21 input  -60.11 | X-H torsion
[ 7974 7965 7964 7962 ] final   91.74 input  175.53 | X-H torsion
[ 8008 7997 7996 7995 ] final  -14.35 input   59.86 | X-H torsion
[ 10167 10162 10161 10158 ] final  -25.75 input  -65.29 | X-H torsion
[ 10718 10713 10712 10709 ] final  135.33 input   66.30 | X-H torsion
[ 10763 10752 10751 10750 ] final   21.58 input  -60.55 | X-H torsion
[ 11005 11000 10999 10996 ] final  118.71 input  -57.11 | X-H torsion

> <Gold.Protein.ActiveResidues>
 VAL166  LYS551  ARG553  GLY616  TRP617  ASP618  TYR619  PRO620  LYS621  CYS622 
 ASP623  PHE694  ASN695  SER759  ASP760  ASP761  ALA762  ILE779  LEU786  VAL792 
 PHE793  MET794  SER795  GLU796  ALA797  LYS798  CYS799  TRP800  GLU811  SER814 

> <Gold.Protein.RotatedAtoms>
  151.1667  133.4810  159.2593 H   0  0  0  0  0  0  0  0  0  0  0  0  # atno 6907 bound_to 6896
  151.1398  135.0173  159.8631 H   0  0  0  0  0  0  0  0  0  0  0  0  # atno 6908 bound_to 6896
  152.5462  134.1561  159.8592 H   0  0  0  0  0  0  0  0  0  0  0  0  # atno 6909 bound_to 6896
  145.5016  139.2276  143.2774 H   0  0  0  0  0  0  0  0  0  0  0  0  # atno 7974 bound_to 7965
  154.5217  140.2225  155.8963 H   0  0  0  0  0  0  0  0  0  0  0  0  # atno 8008 bound_to 7997
  156.1669  140.3130  155.8870 H   0  0  0  0  0  0  0  0  0  0  0  0  # atno 8009 bound_to 7997
  155.3637  140.0462  157.3037 H   0  0  0  0  0  0  0  0  0  0  0  0  # atno 8010 bound_to 7997
  140.7285  143.4237  151.0910 H   0  0  0  0  0  0  0  0  0  0  0  0  # atno 10167 bound_to 10162
  157.4582  131.1071  150.9952 H   0  0  0  0  0  0  0  0  0  0  0  0  # atno 10718 bound_to 10713
  153.0984  135.6666  153.9720 H   0  0  0  0  0  0  0  0  0  0  0  0  # atno 10763 bound_to 10752
  153.9297  135.3005  155.3447 H   0  0  0  0  0  0  0  0  0  0  0  0  # atno 10764 bound_to 10752
  154.7403  135.5082  153.9186 H   0  0  0  0  0  0  0  0  0  0  0  0  # atno 10765 bound_to 10752
  139.9119  134.9622  156.7544 H   0  0  0  0  0  0  0  0  0  0  0  0  # atno 11005 bound_to 11000
  146.2222  140.5817  142.9012 LP  0  0  0  0  0  0  0  0  0  0  0  0  # atno 17320 bound_to 7965
  144.7777  140.5774  143.6627 LP  0  0  0  0  0  0  0  0  0  0  0  0  # atno 17321 bound_to 7965
  139.7886  143.8251  152.3148 LP  0  0  0  0  0  0  0  0  0  0  0  0  # atno 17342 bound_to 10162
  139.8227  144.7289  150.9552 LP  0  0  0  0  0  0  0  0  0  0  0  0  # atno 17343 bound_to 10162
  157.0759  130.5883  149.5411 LP  0  0  0  0  0  0  0  0  0  0  0  0  # atno 17370 bound_to 10713
  156.0016  130.5097  150.7685 LP  0  0  0  0  0  0  0  0  0  0  0  0  # atno 17371 bound_to 10713
  140.6748  133.9527  155.7876 LP  0  0  0  0  0  0  0  0  0  0  0  0  # atno 17394 bound_to 11000
  141.0552  134.0426  157.3731 LP  0  0  0  0  0  0  0  0  0  0  0  0  # atno 17395 bound_to 11000

$$$$
