AV-unprocessed.smi:3133|AV-procd|sdf|11939|dock5
  -GOLD-   2272017323D 1   1.00000     0.00000
 Structure written by MMmdl.
 32 33  0  0  0  0  0  0  0  0  1 V2000
  150.5417  138.3880  158.4356 C   0  0  0  0  0  0  0  0  0  0  0  0
  151.8517  138.5838  157.6452 C   0  0  2  0  0  0  0  0  0  0  0  0
  152.6850  139.7761  158.1464 C   0  0  0  0  0  0  0  0  0  0  0  0
  153.7853  140.0280  157.6531 O   0  0  0  0  0  0  0  0  0  0  0  0
  152.1357  140.5136  159.1251 N   0  0  0  0  0  0  0  0  0  0  0  0
  152.7299  141.7059  159.7179 C   0  0  0  0  0  0  0  0  0  0  0  0
  151.8566  142.9455  159.4665 C   0  0  1  0  0  0  0  0  0  0  0  0
  152.1635  144.1134  160.4012 C   0  0  0  0  0  0  0  0  0  0  0  0
  151.6352  145.2839  159.6041 C   0  0  0  0  0  0  0  0  0  0  0  0
  152.0230  144.8941  158.1800 C   0  0  0  0  0  0  0  0  0  0  0  0
  152.0715  143.4694  158.1584 O   0  0  0  0  0  0  0  0  0  0  0  0
  151.6119  138.6892  156.2106 N   0  0  0  0  0  0  0  0  0  0  0  0
  151.0219  139.6593  155.5086 C   0  0  0  0  0  0  0  0  0  0  0  0
  150.9365  139.4094  154.2096 N   0  0  0  0  0  0  0  0  0  0  0  0
  151.5260  138.1773  154.1756 C   0  0  0  0  0  0  0  0  0  0  0  0
  151.9395  137.6952  155.3474 N   0  0  0  0  0  0  0  0  0  0  0  0
  150.7407  138.2421  159.4979 H   0  0  0  0  0  0  0  0  0  0  0  0
  150.0034  137.5085  158.0818 H   0  0  0  0  0  0  0  0  0  0  0  0
  149.8739  139.2450  158.3389 H   0  0  0  0  0  0  0  0  0  0  0  0
  152.4572  137.6896  157.8022 H   0  0  0  0  0  0  0  0  0  0  0  0
  151.2288  140.2382  159.4727 H   0  0  0  0  0  0  0  0  0  0  0  0
  152.8156  141.5317  160.7908 H   0  0  0  0  0  0  0  0  0  0  0  0
  153.7451  141.8666  159.3511 H   0  0  0  0  0  0  0  0  0  0  0  0
  150.7998  142.6879  159.5570 H   0  0  0  0  0  0  0  0  0  0  0  0
  151.6910  144.0121  161.3786 H   0  0  0  0  0  0  0  0  0  0  0  0
  153.2395  144.2180  160.5490 H   0  0  0  0  0  0  0  0  0  0  0  0
  150.5496  145.3391  159.6970 H   0  0  0  0  0  0  0  0  0  0  0  0
  152.0547  146.2413  159.9141 H   0  0  0  0  0  0  0  0  0  0  0  0
  151.3197  145.2785  157.4406 H   0  0  0  0  0  0  0  0  0  0  0  0
  153.0145  145.2763  157.9347 H   0  0  0  0  0  0  0  0  0  0  0  0
  150.6443  140.5663  155.9578 H   0  0  0  0  0  0  0  0  0  0  0  0
  151.6489  137.6171  153.2604 H   0  0  0  0  0  0  0  0  0  0  0  0
  1  2  1  0  0  0  0
  1 17  1  0  0  0  0
  1 18  1  0  0  0  0
  1 19  1  0  0  0  0
  2  3  1  0  0  0  0
  2 12  1  0  0  0  0
  2 20  1  0  0  0  0
  3  4  2  0  0  0  0
  3  5  1  0  0  0  0
  5  6  1  0  0  0  0
  5 21  1  0  0  0  0
  6  7  1  0  0  0  0
  6 22  1  0  0  0  0
  6 23  1  0  0  0  0
  7 11  1  0  0  0  0
  7  8  1  0  0  0  0
  7 24  1  0  0  0  0
  8  9  1  0  0  0  0
  8 25  1  0  0  0  0
  8 26  1  0  0  0  0
  9 10  1  0  0  0  0
  9 27  1  0  0  0  0
  9 28  1  0  0  0  0
 10 11  1  0  0  0  0
 10 29  1  0  0  0  0
 10 30  1  0  0  0  0
 12 16  1  0  0  0  0
 12 13  1  0  0  0  0
 13 14  2  0  0  0  0
 13 31  1  0  0  0  0
 14 15  1  0  0  0  0
 15 16  2  0  0  0  0
 15 32  1  0  0  0  0
M  END
> <s_m_source_file>
AV-unprocessed.smi

> <i_m_source_file_index>
3133

> <i_lp_mmshare_version>
43012

> <i_f3d_flags>
0

> <s_epik_input>
bjFbY0hdbltjSF1uMVtDQEhdKFtDSDNdKUMoPU8pW05IXVtDSDJdW0NAQEhdMltDSDJdW0NIMl1bQ0gyXU8y

> <s_epik_cmdline>
J2VwaWtfcHl0aG9uJywgJy1waCcsICc3LjAnLCAnLXRuJywgJzgnLCAnLW1hJywgJzIwMCcsICctbWV0YWxfYmluZGluZycsICctaW1hZScsICc8aW5maWxlLm1hZT4nLCAnLW9tYWUnLCAnPG91dGZpbGUubWFlPic=

> <r_lp_tautomer_probability>
1

> <r_epik_Ionization_Penalty>
1.2027e-05

> <r_epik_Ionization_Penalty_Charging>
0

> <r_epik_Ionization_Penalty_Neutral>
1.2027e-05

> <r_epik_State_Penalty>
-0

> <r_epik_Charging_Adjusted_Penalty>
0

> <i_epik_Tot_Q>
0

> <i_epik_Tot_abs_Q>
0

> <r_epik_Metal_State_Penalty>
-0

> <b_epik_Metal_Only>
0

> <s_lp_Force_Field>
OPLS_2005

> <r_lp_Energy>
23.186

> <b_lp_Chiralities_Consistent>
1

> <s_lp_Variant>
AV-unprocessed.smi:3133-3

> <Gold.Version>
5.8.1

> <Gold.Id.Protein>
6NUR|6NUR_protein|mol2

> <Gold.PLP.Fitness>
39.6244

> <Gold.PLP.PLP>
-31.3382

> <Gold.PLP.part.hbond>
-1.9309

> <Gold.PLP.part.metal>
0.0000

> <Gold.PLP.part.buried>
-4.1196

> <Gold.PLP.part.nonpolar>
-25.5645

> <Gold.PLP.part.repulsive>
0.4199

> <Gold.PLP.ligand.clash>
0.1874

> <Gold.PLP.ligand.torsion>
0.3254

> <Gold.PLP.Chemscore.Hbond>
2.0000

> <Gold.PLP.Chemscore.CHOScore>
1.0000

> <Gold.PLP.Chemscore.Metal>
0.0000

> <Gold.Chemscore.Hbonds>
donor molecule, donor type, donor heavy atom, donor atom, acceptor molecule, acceptor atom, score
      P1  H  7989  7998       L1    14  1.00
      L1  C    15    32       P1  7949  1.00

> <Gold.PLP.Chemscore.Internal.Correction>
0.1244

> <Gold.Rescore>
     Score         DG    S(hbond)    S(metal)    S(lipo)     H(rot)  DE(clash)    DE(int)     intcor
     13.65     -14.02       1.93        0.00      67.22       2.26       0.04       0.33       ----

> <Gold.Chemscore.Fitness>
13.6483

> <Gold.Chemscore.DG>
-14.0226

> <Gold.Chemscore.ZeroCoef>
-5.4800

> <Gold.Chemscore.Hbond>
1.9318

> <Gold.Chemscore.Metal>
0.0000

> <Gold.Chemscore.Lipo>
67.2234

> <Gold.Chemscore.Internal_Hbond>
0.0000

> <Gold.Chemscore.DEClash>
0.0414

> <Gold.Chemscore.DEInternal>
0.3328

> <Gold.Chemscore.Rot>
2.2558

> <Gold.Chemscore.Internal.Correction>
   9.000000E+99

> <Gold.Chemscore.Hbonds>
donor molecule, donor type, donor heavy atom, donor atom, acceptor molecule, acceptor atom, score
      P1  H  7989  7998       L1    14  0.39

> <Gold.Chemscore.Hbond.Weighted>
-6.4522

> <Gold.Chemscore.Metal.Weighted>
-0.0000

> <Gold.Chemscore.Lipo.Weighted>
-7.8651

> <Gold.Chemscore.Internal_Hbond.Weighted>
0.0000

> <Gold.Chemscore.DEClash.Weighted>
0.0414

> <Gold.Chemscore.DEInternal.Weighted>
0.3328

> <Gold.Chemscore.Rot.Weighted>
5.7747

> <Gold.Chemscore.Internal.Correction.Weighted>
   9.000000E+99

> <Gold.Protein.RotatedTorsions>
[ 6907 6896 6895 6894 ] final  -46.70 input  -60.11 | X-H torsion
[ 7974 7965 7964 7962 ] final  171.30 input  175.53 | X-H torsion
[ 8008 7997 7996 7995 ] final   42.74 input   59.86 | X-H torsion
[ 10167 10162 10161 10158 ] final  107.46 input  -65.29 | X-H torsion
[ 10718 10713 10712 10709 ] final  108.79 input   66.30 | X-H torsion
[ 10763 10752 10751 10750 ] final  124.37 input  -60.55 | X-H torsion
[ 11005 11000 10999 10996 ] final  -66.14 input  -57.11 | X-H torsion

> <Gold.Protein.ActiveResidues>
 VAL166  LYS551  ARG553  GLY616  TRP617  ASP618  TYR619  PRO620  LYS621  CYS622 
 ASP623  PHE694  ASN695  SER759  ASP760  ASP761  ALA762  ILE779  LEU786  VAL792 
 PHE793  MET794  SER795  GLU796  ALA797  LYS798  CYS799  TRP800  GLU811  SER814 

> <Gold.Protein.RotatedAtoms>
  150.9085  134.8501  159.7408 H   0  0  0  0  0  0  0  0  0  0  0  0  # atno 6907 bound_to 6896
  152.4931  134.4395  159.9549 H   0  0  0  0  0  0  0  0  0  0  0  0  # atno 6908 bound_to 6896
  151.4440  133.3596  159.2821 H   0  0  0  0  0  0  0  0  0  0  0  0  # atno 6909 bound_to 6896
  144.7299  139.9329  143.6425 H   0  0  0  0  0  0  0  0  0  0  0  0  # atno 7974 bound_to 7965
  155.2912  140.3379  155.4252 H   0  0  0  0  0  0  0  0  0  0  0  0  # atno 8008 bound_to 7997
  156.2045  140.1745  156.7869 H   0  0  0  0  0  0  0  0  0  0  0  0  # atno 8009 bound_to 7997
  154.5603  140.0688  156.8792 H   0  0  0  0  0  0  0  0  0  0  0  0  # atno 8010 bound_to 7997
  139.6925  144.7106  151.1324 H   0  0  0  0  0  0  0  0  0  0  0  0  # atno 10167 bound_to 10162
  157.6571  131.0901  150.6357 H   0  0  0  0  0  0  0  0  0  0  0  0  # atno 10718 bound_to 10713
  153.6603  135.3347  155.3125 H   0  0  0  0  0  0  0  0  0  0  0  0  # atno 10763 bound_to 10752
  154.8516  135.4362  154.1811 H   0  0  0  0  0  0  0  0  0  0  0  0  # atno 10764 bound_to 10752
  153.2776  135.7006  153.7493 H   0  0  0  0  0  0  0  0  0  0  0  0  # atno 10765 bound_to 10752
  141.1474  133.6694  156.6094 H   0  0  0  0  0  0  0  0  0  0  0  0  # atno 11005 bound_to 11000
  146.0843  139.3831  143.0445 LP  0  0  0  0  0  0  0  0  0  0  0  0  # atno 17320 bound_to 7965
  145.7798  140.9861  143.1105 LP  0  0  0  0  0  0  0  0  0  0  0  0  # atno 17321 bound_to 7965
  140.7687  143.5539  150.9174 LP  0  0  0  0  0  0  0  0  0  0  0  0  # atno 17342 bound_to 10162
  139.9217  143.6598  152.3095 LP  0  0  0  0  0  0  0  0  0  0  0  0  # atno 17343 bound_to 10162
  156.6663  130.4526  149.5671 LP  0  0  0  0  0  0  0  0  0  0  0  0  # atno 17370 bound_to 10713
  156.2030  130.6632  151.1188 LP  0  0  0  0  0  0  0  0  0  0  0  0  # atno 17371 bound_to 10713
  140.3626  134.7674  157.4544 LP  0  0  0  0  0  0  0  0  0  0  0  0  # atno 17394 bound_to 11000
  140.0773  134.5780  155.8577 LP  0  0  0  0  0  0  0  0  0  0  0  0  # atno 17395 bound_to 11000

$$$$
