#       Name:                AV-unprocessed.smi:1908
#       Creating user name   scv26
#       Creation time:       Fri Mar 27 09:47:33 2020


#       File generated by GOLD software.
#

@<TRIPOS>MOLECULE
AV-unprocessed.smi:1908
    34    34     1
SMALL
NO_CHARGES


@<TRIPOS>ATOM
      1 ****        -2.9884  -1.8921   1.4032 C.3            1 S1                 0.0000
      2 ****        -2.4792  -1.1078   0.1869 C.3            1 S1                 0.0000
      3 ****        -3.0285  -1.6794  -1.1292 C.3            1 S1                 0.0000
      4 ****        -1.0196  -1.1198   0.1774 N.am           1 S1                 0.0000
      5 ****        -0.2366  -0.1648  -0.3478 C.2            1 S1                 0.0000
      6 ****        -0.6776   0.8371  -0.9126 O.2            1 S1                 0.0000
      7 ****         1.2764  -0.3986  -0.2449 C.3            1 S1                 0.0000
      8 ****         2.0260   0.8428   0.0061 N.am           1 S1                 0.0000
      9 ****         2.6128   1.4887  -1.0965 C.2            1 S1                 0.0000
     10 ****         3.3102   2.6327  -0.9611 C.2            1 S1                 0.0000
     11 ****         3.4495   3.2024   0.3733 C.2            1 S1                 0.0000
     12 ****         4.0860   4.2447   0.5160 O.2            1 S1                 0.0000
     13 ****         2.8587   2.5405   1.4109 N.pl3          1 S1                -1.0000
     14 ****         2.1508   1.3783   1.2580 C.2            1 S1                 0.0000
     15 ****         1.6235   0.7981   2.2080 O.2            1 S1                 0.0000
     16 ****        -4.0775  -1.8737   1.4527 H              1 S1                 0.0000
     17 ****        -2.6102  -1.4638   2.3321 H              1 S1                 0.0000
     18 ****        -2.6746  -2.9357   1.3645 H              1 S1                 0.0000
     19 ****        -2.8268  -0.0784   0.2898 H              1 S1                 0.0000
     20 ****        -4.1186  -1.6674  -1.1358 H              1 S1                 0.0000
     21 ****        -2.7064  -2.7104  -1.2789 H              1 S1                 0.0000
     22 ****        -2.6901  -1.0956  -1.9859 H              1 S1                 0.0000
     23 ****        -0.5677  -1.9067   0.6201 H              1 S1                 0.0000
     24 ****         1.4903  -1.1315   0.5356 H              1 S1                 0.0000
     25 ****         1.6102  -0.8640  -1.1730 H              1 S1                 0.0000
     26 ****         2.4560   1.0056  -2.0496 H              1 S1                 0.0000
     27 ****         3.7521   3.1187  -1.8184 H              1 S1                 0.0000
     28 ****        -1.6652   0.9694  -0.9974 LP             1 S1                 0.0000
     29 ****        -0.0481   1.5182  -1.2864 LP             1 S1                 0.0000
     30 ****         4.5000   4.6904  -0.2777 LP             1 S1                 0.0000
     31 ****         4.1896   4.6467   1.4257 LP             1 S1                 0.0000
     32 ****         2.9475   2.9242   2.3301 LP             1 S1                 0.0000
     33 ****         1.1149  -0.0495   2.0563 LP             1 S1                 0.0000
     34 ****         1.7040   1.1746   3.1309 LP             1 S1                 0.0000
@<TRIPOS>BOND
    1    1    2 1     
    2    1   16 1     
    3    1   17 1     
    4    1   18 1     
    5    2    3 1     
    6    2    4 1     
    7    2   19 1     
    8    3   20 1     
    9    3   21 1     
   10    3   22 1     
   11    4    5 am    
   12    4   23 1     
   13    5    6 2     
   14    5    7 1     
   15    7    8 1     
   16    7   24 1     
   17    7   25 1     
   18    8   14 am    
   19    8    9 1     
   20    9   10 2     
   21    9   26 1     
   22   10   11 1     
   23   10   27 1     
   24   11   12 2     
   25   11   13 1     
   26   13   14 1     
   27   14   15 2     
   28    6   28 1     
   29    6   29 1     
   30   12   30 1     
   31   12   31 1     
   32   13   32 1     
   33   15   33 1     
   34   15   34 1     
@<TRIPOS>SUBSTRUCTURE
      1 S1             1
@<TRIPOS>SET
LONE_PAIRS      STATIC     ATOMS    <user>   **** ""
7 28 29 30 31 32 33 34
DONOR_HYDROGENS      STATIC     ATOMS    <user>   **** ""
1 23
ATOM$BLUE        STATIC     ATOMS    COLORGROUP SYSTEM
7 28 29 30 31 32 33 34
ATOM$RED        STATIC     ATOMS    COLORGROUP SYSTEM
1 23
