#       Name:                AV-unprocessed.smi:1679
#       Creating user name   scv26
#       Creation time:       Fri Mar 27 07:47:27 2020


#       File generated by GOLD software.
#

@<TRIPOS>MOLECULE
AV-unprocessed.smi:1679
    53    54     1
SMALL
NO_CHARGES


@<TRIPOS>ATOM
      1 ****        -2.7431   0.1848   3.6325 C.3            1 S1                 0.0000
      2 ****        -3.1251   0.6365   2.2133 C.3            1 S1                 0.0000
      3 ****        -4.6307   0.9603   2.1341 C.3            1 S1                 0.0000
      4 ****        -5.0450   1.4067   0.7241 C.3            1 S1                 0.0000
      5 ****        -4.6685   0.3475  -0.3205 C.3            1 S1                 0.0000
      6 ****        -3.1678   0.0269  -0.2614 C.3            1 S1                 0.0000
      7 ****        -2.7350  -0.4179   1.1523 C.3            1 S1                 0.0000
      8 ****        -1.3210  -0.5661   1.1808 O.3            1 S1                 0.0000
      9 ****        -0.8549  -1.8349   0.7447 C.3            1 S1                 0.0000
     10 ****         0.6771  -1.8218   0.7290 C.3            1 S1                 0.0000
     11 ****         1.1691  -0.9028  -0.2879 N.am           1 S1                 0.0000
     12 ****         2.4639  -0.6963  -0.5647 C.2            1 S1                 0.0000
     13 ****         3.3773  -1.2753   0.0254 O.2            1 S1                 0.0000
     14 ****         2.7560   0.3331  -1.6664 C.3            1 S1                 0.0000
     15 ****         4.1735   0.3907  -2.0526 N.am           1 S1                 0.0000
     16 ****         5.0150   1.3326  -1.4778 C.2            1 S1                 0.0000
     17 ****         6.3308   1.4394  -1.7785 C.2            1 S1                 0.0000
     18 ****         6.9417   0.5393  -2.7505 C.2            1 S1                 0.0000
     19 ****         8.1226   0.5583  -3.0904 O.2            1 S1                 0.0000
     20 ****         6.0639  -0.3968  -3.3038 N.am           1 S1                 0.0000
     21 ****         4.7071  -0.5133  -2.9971 C.2            1 S1                 0.0000
     22 ****         4.0226  -1.3792  -3.5409 O.2            1 S1                 0.0000
     23 ****         6.4429  -1.0440  -3.9798 H              1 S1                 0.0000
     24 ****        -3.2485  -0.7427   3.9032 H              1 S1                 0.0000
     25 ****        -3.0158   0.9392   4.3708 H              1 S1                 0.0000
     26 ****        -1.6696   0.0162   3.7209 H              1 S1                 0.0000
     27 ****        -2.5748   1.5537   1.9981 H              1 S1                 0.0000
     28 ****        -5.2127   0.0835   2.4215 H              1 S1                 0.0000
     29 ****        -4.8812   1.7435   2.8504 H              1 S1                 0.0000
     30 ****        -6.1186   1.5948   0.6934 H              1 S1                 0.0000
     31 ****        -4.5574   2.3516   0.4805 H              1 S1                 0.0000
     32 ****        -5.2457  -0.5616  -0.1471 H              1 S1                 0.0000
     33 ****        -4.9348   0.6983  -1.3179 H              1 S1                 0.0000
     34 ****        -2.9373  -0.7456  -0.9946 H              1 S1                 0.0000
     35 ****        -2.5982   0.9094  -0.5563 H              1 S1                 0.0000
     36 ****        -3.2215  -1.3617   1.4069 H              1 S1                 0.0000
     37 ****        -1.2089  -2.6053   1.4309 H              1 S1                 0.0000
     38 ****        -1.2366  -2.0811  -0.2465 H              1 S1                 0.0000
     39 ****         1.0622  -1.5340   1.7084 H              1 S1                 0.0000
     40 ****         1.0507  -2.8246   0.5161 H              1 S1                 0.0000
     41 ****         0.4782  -0.3816  -0.8080 H              1 S1                 0.0000
     42 ****         2.1325   0.1164  -2.5362 H              1 S1                 0.0000
     43 ****         2.4256   1.3118  -1.3148 H              1 S1                 0.0000
     44 ****         4.6061   2.0180  -0.7490 H              1 S1                 0.0000
     45 ****         6.9344   2.1948  -1.2966 H              1 S1                 0.0000
     46 ****        -1.0107  -0.4252   2.1210 LP             1 S1                 0.0000
     47 ****        -0.9212   0.1341   0.5894 LP             1 S1                 0.0000
     48 ****         3.1673  -1.9340   0.7479 LP             1 S1                 0.0000
     49 ****         4.3286  -1.0866  -0.2181 LP             1 S1                 0.0000
     50 ****         8.7470   1.2298  -2.6913 LP             1 S1                 0.0000
     51 ****         8.4591  -0.0977  -3.7659 LP             1 S1                 0.0000
     52 ****         3.0510  -1.4612  -3.3187 LP             1 S1                 0.0000
     53 ****         4.4378  -2.0009  -4.2050 LP             1 S1                 0.0000
@<TRIPOS>BOND
    1    1    2 1     
    2    1   24 1     
    3    1   25 1     
    4    1   26 1     
    5    2    7 1     
    6    2    3 1     
    7    2   27 1     
    8    3    4 1     
    9    3   28 1     
   10    3   29 1     
   11    4    5 1     
   12    4   30 1     
   13    4   31 1     
   14    5    6 1     
   15    5   32 1     
   16    5   33 1     
   17    6    7 1     
   18    6   34 1     
   19    6   35 1     
   20    7    8 1     
   21    7   36 1     
   22    8    9 1     
   23    9   10 1     
   24    9   37 1     
   25    9   38 1     
   26   10   11 1     
   27   10   39 1     
   28   10   40 1     
   29   11   12 am    
   30   11   41 1     
   31   12   13 2     
   32   12   14 1     
   33   14   15 1     
   34   14   42 1     
   35   14   43 1     
   36   15   21 1     
   37   15   16 1     
   38   16   17 2     
   39   16   44 1     
   40   17   18 1     
   41   17   45 1     
   42   18   19 2     
   43   18   20 1     
   44   20   23 1     
   45   20   21 1     
   46   21   22 2     
   47    8   46 1     
   48    8   47 1     
   49   13   48 1     
   50   13   49 1     
   51   19   50 1     
   52   19   51 1     
   53   22   52 1     
   54   22   53 1     
@<TRIPOS>SUBSTRUCTURE
      1 S1             1
@<TRIPOS>SET
LONE_PAIRS      STATIC     ATOMS    <user>   **** ""
8 46 47 48 49 50 51 52 53
DONOR_HYDROGENS      STATIC     ATOMS    <user>   **** ""
2 41 23
ATOM$BLUE        STATIC     ATOMS    COLORGROUP SYSTEM
8 46 47 48 49 50 51 52 53
ATOM$RED        STATIC     ATOMS    COLORGROUP SYSTEM
2 41 23
