AV-unprocessed.smi:3017|AV-procd|sdf|11476|dock7
  -GOLD-   2272016413D 1   1.00000     0.00000
 Structure written by MMmdl.
 37 38  0  0  0  0  0  0  0  0  1 V2000
  151.9018  144.3107  161.7193 C   0  0  0  0  0  0  0  0  0  0  0  0
  152.7571  143.2578  161.0003 C   0  0  1  0  0  0  0  0  0  0  0  0
  153.2549  142.1738  161.9754 C   0  0  0  0  0  0  0  0  0  0  0  0
  154.1120  141.1211  161.2551 C   0  0  0  0  0  0  0  0  0  0  0  0
  153.3487  140.4891  160.0809 C   0  0  0  0  0  0  0  0  0  0  0  0
  152.8482  141.5639  159.0947 C   0  0  1  0  0  0  0  0  0  0  0  0
  152.0344  140.9741  158.0893 O   0  0  0  0  0  0  0  0  0  0  0  0
  151.7045  141.8483  157.0160 C   0  0  0  0  0  0  0  0  0  0  0  0
  150.9224  141.0884  155.9418 C   0  0  0  0  0  0  0  0  0  0  0  0
  151.5021  140.2240  155.2849 O   0  0  0  0  0  0  0  0  0  0  0  0
  149.6311  141.4331  155.7743 N   0  0  0  0  0  0  0  0  0  0  0  0
  148.6856  140.8801  154.8711 C   0  0  0  0  0  0  0  0  0  0  0  0
  147.5920  141.7139  154.5378 C   0  0  0  0  0  0  0  0  0  0  0  0
  146.6085  141.3258  153.6957 N   0  0  0  0  0  0  0  0  0  0  0  0
  146.7143  140.0848  153.1748 C   0  0  0  0  0  0  0  0  0  0  0  0
  147.7969  139.2409  153.4937 C   0  0  0  0  0  0  0  0  0  0  0  0
  148.7765  139.6354  154.3360 N   0  0  0  0  0  0  0  0  0  0  0  0
  151.9930  142.6137  159.8266 C   0  0  0  0  0  0  0  0  0  0  0  0
  151.0022  143.8674  162.1477 H   0  0  0  0  0  0  0  0  0  0  0  0
  151.5905  145.0985  161.0327 H   0  0  0  0  0  0  0  0  0  0  0  0
  152.4589  144.7820  162.5296 H   0  0  0  0  0  0  0  0  0  0  0  0
  153.6301  143.7696  160.5926 H   0  0  0  0  0  0  0  0  0  0  0  0
  153.8360  142.6302  162.7776 H   0  0  0  0  0  0  0  0  0  0  0  0
  152.4033  141.6851  162.4512 H   0  0  0  0  0  0  0  0  0  0  0  0
  155.0287  141.5846  160.8882 H   0  0  0  0  0  0  0  0  0  0  0  0
  154.4178  140.3466  161.9590 H   0  0  0  0  0  0  0  0  0  0  0  0
  153.9960  139.7726  159.5758 H   0  0  0  0  0  0  0  0  0  0  0  0
  152.4996  139.9215  160.4636 H   0  0  0  0  0  0  0  0  0  0  0  0
  153.6987  142.0737  158.6376 H   0  0  0  0  0  0  0  0  0  0  0  0
  151.0945  142.6768  157.3781 H   0  0  0  0  0  0  0  0  0  0  0  0
  152.6032  142.2690  156.5643 H   0  0  0  0  0  0  0  0  0  0  0  0
  149.2842  142.1632  156.3795 H   0  0  0  0  0  0  0  0  0  0  0  0
  147.5010  142.7069  154.9536 H   0  0  0  0  0  0  0  0  0  0  0  0
  145.9330  139.7631  152.5023 H   0  0  0  0  0  0  0  0  0  0  0  0
  147.8766  138.2488  153.0746 H   0  0  0  0  0  0  0  0  0  0  0  0
  151.0786  142.1471  160.1966 H   0  0  0  0  0  0  0  0  0  0  0  0
  151.6816  143.3840  159.1202 H   0  0  0  0  0  0  0  0  0  0  0  0
  1  2  1  0  0  0  0
  1 19  1  0  0  0  0
  1 20  1  0  0  0  0
  1 21  1  0  0  0  0
  2 18  1  0  0  0  0
  2  3  1  0  0  0  0
  2 22  1  0  0  0  0
  3  4  1  0  0  0  0
  3 23  1  0  0  0  0
  3 24  1  0  0  0  0
  4  5  1  0  0  0  0
  4 25  1  0  0  0  0
  4 26  1  0  0  0  0
  5  6  1  0  0  0  0
  5 27  1  0  0  0  0
  5 28  1  0  0  0  0
  6  7  1  0  0  0  0
  6 18  1  0  0  0  0
  6 29  1  0  0  0  0
  7  8  1  0  0  0  0
  8  9  1  0  0  0  0
  8 30  1  0  0  0  0
  8 31  1  0  0  0  0
  9 10  2  0  0  0  0
  9 11  1  0  0  0  0
 11 12  1  0  0  0  0
 11 32  1  0  0  0  0
 12 17  1  0  0  0  0
 12 13  2  0  0  0  0
 13 14  1  0  0  0  0
 13 33  1  0  0  0  0
 14 15  2  0  0  0  0
 15 16  1  0  0  0  0
 15 34  1  0  0  0  0
 16 17  2  0  0  0  0
 16 35  1  0  0  0  0
 18 36  1  0  0  0  0
 18 37  1  0  0  0  0
M  END
> <s_m_source_file>
AV-unprocessed.smi

> <i_m_source_file_index>
3017

> <i_lp_mmshare_version>
43012

> <i_f3d_flags>
0

> <s_epik_input>
W0NIM11bQ0BASF0xW0NIMl1bQ0gyXVtDSDJdW0NASF0oW0NIMl0xKU9bQ0gyXUMoPU8pW05IXWMyW2NIXW5bY0hdW2NIXW4y

> <s_epik_cmdline>
J2VwaWtfcHl0aG9uJywgJy1waCcsICc3LjAnLCAnLXRuJywgJzgnLCAnLW1hJywgJzIwMCcsICctbWV0YWxfYmluZGluZycsICctaW1hZScsICc8aW5maWxlLm1hZT4nLCAnLW9tYWUnLCAnPG91dGZpbGUubWFlPic=

> <r_lp_tautomer_probability>
1

> <r_epik_Ionization_Penalty>
2.89243e-06

> <r_epik_Ionization_Penalty_Charging>
0

> <r_epik_Ionization_Penalty_Neutral>
2.89243e-06

> <r_epik_State_Penalty>
-0

> <r_epik_Charging_Adjusted_Penalty>
0

> <i_epik_Tot_Q>
0

> <i_epik_Tot_abs_Q>
0

> <r_epik_Metal_State_Penalty>
-0

> <b_epik_Metal_Only>
0

> <s_lp_Force_Field>
OPLS_2005

> <r_lp_Energy>
20.2083

> <b_lp_Chiralities_Consistent>
1

> <s_lp_Variant>
AV-unprocessed.smi:3017-2

> <Gold.Version>
5.8.1

> <Gold.Id.Protein>
6NUR|6NUR_protein|mol2

> <Gold.PLP.Fitness>
45.9705

> <Gold.PLP.PLP>
-34.6866

> <Gold.PLP.part.hbond>
-1.0000

> <Gold.PLP.part.metal>
0.0000

> <Gold.PLP.part.buried>
-2.3854

> <Gold.PLP.part.nonpolar>
-31.5818

> <Gold.PLP.part.repulsive>
0.4748

> <Gold.PLP.ligand.clash>
0.0000

> <Gold.PLP.ligand.torsion>
0.2250

> <Gold.PLP.Chemscore.Hbond>
0.9920

> <Gold.PLP.Chemscore.CHOScore>
2.9146

> <Gold.PLP.Chemscore.Metal>
0.0000

> <Gold.Chemscore.Hbonds>
donor molecule, donor type, donor heavy atom, donor atom, acceptor molecule, acceptor atom, score
      P1  H  7989  7998       L1    10  0.98
      L1  C    13    33       P1  8028  1.00
      L1  C    15    34       P1 10175  0.96
      L1  C    16    35       P1  7948  0.89

> <Gold.PLP.Chemscore.Internal.Correction>
0.0139

> <Gold.Rescore>
     Score         DG    S(hbond)    S(metal)    S(lipo)     H(rot)  DE(clash)    DE(int)     intcor
     12.98     -16.23       0.86        0.00     100.48       1.51       1.79       1.46       ----

> <Gold.Chemscore.Fitness>
12.9850

> <Gold.Chemscore.DG>
-16.2317

> <Gold.Chemscore.ZeroCoef>
-5.4800

> <Gold.Chemscore.Hbond>
0.8581

> <Gold.Chemscore.Metal>
0.0000

> <Gold.Chemscore.Lipo>
100.4814

> <Gold.Chemscore.Internal_Hbond>
0.0000

> <Gold.Chemscore.DEClash>
1.7910

> <Gold.Chemscore.DEInternal>
1.4558

> <Gold.Chemscore.Rot>
1.5119

> <Gold.Chemscore.Internal.Correction>
   9.000000E+99

> <Gold.Chemscore.Hbonds>
donor molecule, donor type, donor heavy atom, donor atom, acceptor molecule, acceptor atom, score
      P1  H  7989  7998       L1    10  0.56

> <Gold.Chemscore.Hbond.Weighted>
-2.8660

> <Gold.Chemscore.Metal.Weighted>
-0.0000

> <Gold.Chemscore.Lipo.Weighted>
-11.7563

> <Gold.Chemscore.Internal_Hbond.Weighted>
0.0000

> <Gold.Chemscore.DEClash.Weighted>
1.7910

> <Gold.Chemscore.DEInternal.Weighted>
1.4558

> <Gold.Chemscore.Rot.Weighted>
3.8706

> <Gold.Chemscore.Internal.Correction.Weighted>
   9.000000E+99

> <Gold.Protein.RotatedTorsions>
[ 6907 6896 6895 6894 ] final  -83.02 input  -60.11 | X-H torsion
[ 7974 7965 7964 7962 ] final   76.80 input  175.53 | X-H torsion
[ 8008 7997 7996 7995 ] final  -51.38 input   59.86 | X-H torsion
[ 10167 10162 10161 10158 ] final -133.79 input  -65.29 | X-H torsion
[ 10718 10713 10712 10709 ] final  -71.43 input   66.30 | X-H torsion
[ 10763 10752 10751 10750 ] final -175.94 input  -60.55 | X-H torsion
[ 11005 11000 10999 10996 ] final   -2.13 input  -57.11 | X-H torsion

> <Gold.Protein.ActiveResidues>
 VAL166  LYS551  ARG553  GLY616  TRP617  ASP618  TYR619  PRO620  LYS621  CYS622 
 ASP623  PHE694  ASN695  SER759  ASP760  ASP761  ALA762  ILE779  LEU786  VAL792 
 PHE793  MET794  SER795  GLU796  ALA797  LYS798  CYS799  TRP800  GLU811  SER814 

> <Gold.Protein.RotatedAtoms>
  150.6890  134.3576  159.4935 H   0  0  0  0  0  0  0  0  0  0  0  0  # atno 6907 bound_to 6896
  152.1409  134.9060  160.0563 H   0  0  0  0  0  0  0  0  0  0  0  0  # atno 6908 bound_to 6896
  152.0194  133.3858  159.4289 H   0  0  0  0  0  0  0  0  0  0  0  0  # atno 6909 bound_to 6896
  145.6982  139.2574  143.1720 H   0  0  0  0  0  0  0  0  0  0  0  0  # atno 7974 bound_to 7965
  154.4082  140.1249  156.4819 H   0  0  0  0  0  0  0  0  0  0  0  0  # atno 8008 bound_to 7997
  155.7076  140.3494  155.4940 H   0  0  0  0  0  0  0  0  0  0  0  0  # atno 8009 bound_to 7997
  155.9329  140.1073  157.1108 H   0  0  0  0  0  0  0  0  0  0  0  0  # atno 8010 bound_to 7997
  139.8946  143.6681  152.2606 H   0  0  0  0  0  0  0  0  0  0  0  0  # atno 10167 bound_to 10162
  156.0363  130.4351  150.2443 H   0  0  0  0  0  0  0  0  0  0  0  0  # atno 10718 bound_to 10713
  154.5784  135.2834  155.0758 H   0  0  0  0  0  0  0  0  0  0  0  0  # atno 10763 bound_to 10752
  154.2103  135.6409  153.5117 H   0  0  0  0  0  0  0  0  0  0  0  0  # atno 10764 bound_to 10752
  153.0080  135.5490  154.6430 H   0  0  0  0  0  0  0  0  0  0  0  0  # atno 10765 bound_to 10752
  140.6550  133.9371  155.8402 H   0  0  0  0  0  0  0  0  0  0  0  0  # atno 11005 bound_to 11000
  146.0821  140.7752  142.9636 LP  0  0  0  0  0  0  0  0  0  0  0  0  # atno 17320 bound_to 7965
  144.6976  140.3506  143.7182 LP  0  0  0  0  0  0  0  0  0  0  0  0  # atno 17321 bound_to 7965
  139.7079  144.7625  151.1162 LP  0  0  0  0  0  0  0  0  0  0  0  0  # atno 17342 bound_to 10162
  140.7719  143.5370  150.9357 LP  0  0  0  0  0  0  0  0  0  0  0  0  # atno 17343 bound_to 10162
  157.0542  131.0071  151.3244 LP  0  0  0  0  0  0  0  0  0  0  0  0  # atno 17370 bound_to 10713
  157.5118  130.7943  149.7713 LP  0  0  0  0  0  0  0  0  0  0  0  0  # atno 17371 bound_to 10713
  141.0508  134.0487  157.3786 LP  0  0  0  0  0  0  0  0  0  0  0  0  # atno 17394 bound_to 11000
  139.9032  135.0172  156.7368 LP  0  0  0  0  0  0  0  0  0  0  0  0  # atno 17395 bound_to 11000

$$$$
