AV-unprocessed.smi:1260|AV-procd|sdf|5299|dock2
  -GOLD-   22720 4413D 1   1.00000     0.00000
 Structure written by MMmdl.
 37 39  0  0  0  0  0  0  0  0  2 V2000
  152.4997  140.1402  157.0124 O   0  0  0  0  0  0  0  0  0  0  0  0
  151.8996  139.4323  156.2032 C   0  0  0  0  0  0  0  0  0  0  0  0
  152.5039  138.1084  155.7259 C   0  0  0  0  0  0  0  0  0  0  0  0
  151.7561  136.9647  156.2168 N   0  0  0  0  0  0  0  0  0  0  0  0
  151.3551  136.6416  157.4482 C   0  0  0  0  0  0  0  0  0  0  0  0
  150.6908  135.4961  157.4613 N   0  0  0  0  0  0  0  0  0  0  0  0
  150.6998  135.1120  156.1307 N   0  0  0  0  0  0  0  0  0  0  0  0
  151.3295  135.9801  155.3873 N   0  0  0  0  0  0  0  0  0  0  0  0
  150.7078  139.7646  155.6840 N   0  0  0  0  0  0  0  0  0  0  0  0
  149.9663  140.9793  156.0136 C   0  0  2  0  0  0  0  0  0  0  0  0
  149.1346  140.8550  157.2840 C   0  0  0  0  0  0  0  0  0  0  0  0
  148.1252  142.0003  157.1529 C   0  0  0  0  0  0  0  0  0  0  0  0
  147.9648  142.2695  155.7024 N   0  3  2  0  0  0  0  0  0  0  0  0
  146.5563  142.2078  155.2278 C   0  0  0  0  0  0  0  0  0  0  0  0
  146.4969  142.0933  153.6975 C   0  0  0  0  0  0  0  0  0  0  0  0
  147.1720  140.7999  153.2031 C   0  0  0  0  0  0  0  0  0  0  0  0
  148.2205  140.2645  154.1975 C   0  0  0  0  0  0  0  0  0  0  0  0
  148.9303  141.4119  154.9577 C   0  0  2  0  0  0  0  0  0  0  0  0
  152.5194  138.0659  154.6359 H   0  0  0  0  0  0  0  0  0  0  0  0
  153.5378  138.0391  156.0674 H   0  0  0  0  0  0  0  0  0  0  0  0
  151.5491  137.2396  158.3265 H   0  0  0  0  0  0  0  0  0  0  0  0
  150.2846  139.1326  155.0196 H   0  0  0  0  0  0  0  0  0  0  0  0
  150.6765  141.7957  156.1623 H   0  0  0  0  0  0  0  0  0  0  0  0
  148.6082  139.8995  157.2998 H   0  0  0  0  0  0  0  0  0  0  0  0
  149.7336  140.9243  158.1926 H   0  0  0  0  0  0  0  0  0  0  0  0
  147.1848  141.7629  157.6525 H   0  0  0  0  0  0  0  0  0  0  0  0
  148.5196  142.9040  157.6189 H   0  0  0  0  0  0  0  0  0  0  0  0
  146.0464  141.3499  155.6697 H   0  0  0  0  0  0  0  0  0  0  0  0
  146.0272  143.0984  155.5684 H   0  0  0  0  0  0  0  0  0  0  0  0
  145.4637  142.1312  153.3509 H   0  0  0  0  0  0  0  0  0  0  0  0
  146.9973  142.9572  153.2577 H   0  0  0  0  0  0  0  0  0  0  0  0
  146.4215  140.0275  153.0310 H   0  0  0  0  0  0  0  0  0  0  0  0
  147.6371  140.9905  152.2353 H   0  0  0  0  0  0  0  0  0  0  0  0
  147.7321  139.6042  154.9156 H   0  0  0  0  0  0  0  0  0  0  0  0
  148.9366  139.6460  153.6563 H   0  0  0  0  0  0  0  0  0  0  0  0
  149.4287  142.0361  154.2141 H   0  0  0  0  0  0  0  0  0  0  0  0
  148.2756  143.2195  155.5561 H   0  0  0  0  0  0  0  0  0  0  0  0
  1  2  2  0  0  0  0
  2  3  1  0  0  0  0
  2  9  1  0  0  0  0
  3  4  1  0  0  0  0
  3 19  1  0  0  0  0
  3 20  1  0  0  0  0
  4  8  1  0  0  0  0
  4  5  1  0  0  0  0
  5  6  2  0  0  0  0
  5 21  1  0  0  0  0
  6  7  1  0  0  0  0
  7  8  2  0  0  0  0
  9 10  1  0  0  0  0
  9 22  1  0  0  0  0
 10 18  1  0  0  0  0
 10 11  1  0  0  0  0
 10 23  1  0  0  0  0
 11 12  1  0  0  0  0
 11 24  1  0  0  0  0
 11 25  1  0  0  0  0
 12 13  1  0  0  0  0
 12 26  1  0  0  0  0
 12 27  1  0  0  0  0
 13 18  1  0  0  0  0
 13 14  1  0  0  0  0
 13 37  1  0  0  0  0
 14 15  1  0  0  0  0
 14 28  1  0  0  0  0
 14 29  1  0  0  0  0
 15 16  1  0  0  0  0
 15 30  1  0  0  0  0
 15 31  1  0  0  0  0
 16 17  1  0  0  0  0
 16 32  1  0  0  0  0
 16 33  1  0  0  0  0
 17 18  1  0  0  0  0
 17 34  1  0  0  0  0
 17 35  1  0  0  0  0
 18 36  1  0  0  0  0
M  CHG  1  13   1
M  END
> <s_m_source_file>
AV-unprocessed.smi

> <i_m_source_file_index>
1260

> <i_lp_mmshare_version>
43012

> <i_f3d_flags>
0

> <s_epik_input>
bjFubltjSF1uMVtDSDJdQyg9TylbTkhdW0NASF0oW0NIMl1bQ0gyXTIpW0NAQEhdKE4yMylbQ0gyXVtDSDJdW0NIMl1bQ0gyXTM=

> <s_epik_cmdline>
J2VwaWtfcHl0aG9uJywgJy1waCcsICc3LjAnLCAnLXRuJywgJzgnLCAnLW1hJywgJzIwMCcsICctbWV0YWxfYmluZGluZycsICctaW1hZScsICc8aW5maWxlLm1hZT4nLCAnLW9tYWUnLCAnPG91dGZpbGUubWFlPic=

> <r_lp_tautomer_probability>
1

> <r_epik_Ionization_Penalty>
0.00234324

> <r_epik_Ionization_Penalty_Charging>
0.00233897

> <r_epik_Ionization_Penalty_Neutral>
4.26861e-06

> <r_epik_State_Penalty>
0.00161477

> <r_epik_Charging_Adjusted_Penalty>
0.00395374

> <i_epik_Tot_Q>
1

> <i_epik_Tot_abs_Q>
1

> <r_epik_Metal_State_Penalty>
-0

> <b_epik_Metal_Only>
0

> <s_lp_Force_Field>
OPLS_2005

> <r_lp_Energy>
44.1786

> <b_lp_Chiralities_Consistent>
1

> <s_lp_Variant>
AV-unprocessed.smi:1260-7

> <Gold.Version>
5.8.1

> <Gold.Id.Protein>
6NUR|6NUR_protein|mol2

> <Gold.PLP.Fitness>
38.3689

> <Gold.PLP.PLP>
-26.7905

> <Gold.PLP.part.hbond>
-4.0000

> <Gold.PLP.part.metal>
0.0000

> <Gold.PLP.part.buried>
-3.6700

> <Gold.PLP.part.nonpolar>
-19.5794

> <Gold.PLP.part.repulsive>
0.2828

> <Gold.PLP.ligand.clash>
0.0000

> <Gold.PLP.ligand.torsion>
0.4751

> <Gold.PLP.Chemscore.Hbond>
4.1755

> <Gold.PLP.Chemscore.CHOScore>
0.0000

> <Gold.PLP.Chemscore.Metal>
0.0000

> <Gold.Chemscore.Hbonds>
donor molecule, donor type, donor heavy atom, donor atom, acceptor molecule, acceptor atom, score
      L1  H    13    37       P1  8028  2.00
      P1  H  6896  6909       L1     6  0.18
      P1  H  7997  8009       L1     1  1.00
      P1  H 10752 10763       L1     8  1.00

> <Gold.PLP.Chemscore.Internal.Correction>
0.0021

> <Gold.Rescore>
     Score         DG    S(hbond)    S(metal)    S(lipo)     H(rot)  DE(clash)    DE(int)     intcor
     14.78     -15.39       2.72        0.00      50.31       1.98       0.04       0.58       ----

> <Gold.Chemscore.Fitness>
14.7758

> <Gold.Chemscore.DG>
-15.3946

> <Gold.Chemscore.ZeroCoef>
-5.4800

> <Gold.Chemscore.Hbond>
2.7204

> <Gold.Chemscore.Metal>
0.0000

> <Gold.Chemscore.Lipo>
50.3101

> <Gold.Chemscore.Internal_Hbond>
0.0000

> <Gold.Chemscore.DEClash>
0.0354

> <Gold.Chemscore.DEInternal>
0.5834

> <Gold.Chemscore.Rot>
1.9757

> <Gold.Chemscore.Internal.Correction>
   9.000000E+99

> <Gold.Chemscore.Hbonds>
donor molecule, donor type, donor heavy atom, donor atom, acceptor molecule, acceptor atom, score
      L1  H    13    37       P1  8028  0.91
      P1  H  6896  6909       L1     6  0.16
      P1  H  7997  8009       L1     1  0.77
      P1  H 10752 10763       L1     8  0.25

> <Gold.Chemscore.Hbond.Weighted>
-9.0861

> <Gold.Chemscore.Metal.Weighted>
-0.0000

> <Gold.Chemscore.Lipo.Weighted>
-5.8863

> <Gold.Chemscore.Internal_Hbond.Weighted>
0.0000

> <Gold.Chemscore.DEClash.Weighted>
0.0354

> <Gold.Chemscore.DEInternal.Weighted>
0.5834

> <Gold.Chemscore.Rot.Weighted>
5.0578

> <Gold.Chemscore.Internal.Correction.Weighted>
   9.000000E+99

> <Gold.Protein.RotatedTorsions>
[ 6907 6896 6895 6894 ] final   33.77 input  -60.11 | X-H torsion
[ 7974 7965 7964 7962 ] final  122.75 input  175.53 | X-H torsion
[ 8008 7997 7996 7995 ] final  172.94 input   59.86 | X-H torsion
[ 10167 10162 10161 10158 ] final  154.50 input  -65.29 | X-H torsion
[ 10718 10713 10712 10709 ] final -173.22 input   66.30 | X-H torsion
[ 10763 10752 10751 10750 ] final   50.68 input  -60.55 | X-H torsion
[ 11005 11000 10999 10996 ] final  -95.81 input  -57.11 | X-H torsion

> <Gold.Protein.ActiveResidues>
 VAL166  LYS551  ARG553  GLY616  TRP617  ASP618  TYR619  PRO620  LYS621  CYS622 
 ASP623  PHE694  ASN695  SER759  ASP760  ASP761  ALA762  ILE779  LEU786  VAL792 
 PHE793  MET794  SER795  GLU796  ALA797  LYS798  CYS799  TRP800  GLU811  SER814 

> <Gold.Protein.RotatedAtoms>
  152.0932  134.9393  160.0571 H   0  0  0  0  0  0  0  0  0  0  0  0  # atno 6907 bound_to 6896
  152.0637  133.4069  159.4437 H   0  0  0  0  0  0  0  0  0  0  0  0  # atno 6908 bound_to 6896
  150.6837  134.3092  159.4782 H   0  0  0  0  0  0  0  0  0  0  0  0  # atno 6909 bound_to 6896
  145.1039  139.3499  143.4798 H   0  0  0  0  0  0  0  0  0  0  0  0  # atno 7974 bound_to 7965
  156.1124  140.1473  156.9319 H   0  0  0  0  0  0  0  0  0  0  0  0  # atno 8008 bound_to 7997
  154.4777  140.0889  156.7344 H   0  0  0  0  0  0  0  0  0  0  0  0  # atno 8009 bound_to 7997
  155.4572  140.3437  155.4310 H   0  0  0  0  0  0  0  0  0  0  0  0  # atno 8010 bound_to 7997
  139.4823  144.5181  151.7919 H   0  0  0  0  0  0  0  0  0  0  0  0  # atno 10167 bound_to 10162
  156.7671  130.9435  151.3119 H   0  0  0  0  0  0  0  0  0  0  0  0  # atno 10718 bound_to 10713
  152.9784  135.5871  154.4292 H   0  0  0  0  0  0  0  0  0  0  0  0  # atno 10763 bound_to 10752
  154.3907  135.2768  155.2158 H   0  0  0  0  0  0  0  0  0  0  0  0  # atno 10764 bound_to 10752
  154.4031  135.6099  153.5963 H   0  0  0  0  0  0  0  0  0  0  0  0  # atno 10765 bound_to 10752
  141.1431  133.8052  157.0486 H   0  0  0  0  0  0  0  0  0  0  0  0  # atno 11005 bound_to 11000
  146.3529  140.0929  142.8611 LP  0  0  0  0  0  0  0  0  0  0  0  0  # atno 17320 bound_to 7965
  145.0924  140.9293  143.4761 LP  0  0  0  0  0  0  0  0  0  0  0  0  # atno 17321 bound_to 7965
  140.4692  144.1611  150.5916 LP  0  0  0  0  0  0  0  0  0  0  0  0  # atno 17342 bound_to 10162
  140.4401  143.2530  151.9484 LP  0  0  0  0  0  0  0  0  0  0  0  0  # atno 17343 bound_to 10162
  157.6708  130.9049  150.0036 LP  0  0  0  0  0  0  0  0  0  0  0  0  # atno 17370 bound_to 10713
  156.1302  130.3643  149.9744 LP  0  0  0  0  0  0  0  0  0  0  0  0  # atno 17371 bound_to 10713
  140.0647  134.9736  157.1364 LP  0  0  0  0  0  0  0  0  0  0  0  0  # atno 17394 bound_to 11000
  140.3798  134.2300  155.7172 LP  0  0  0  0  0  0  0  0  0  0  0  0  # atno 17395 bound_to 11000

$$$$
