AV-unprocessed.smi:21|AV-procd|sdf|167|dock8
  -GOLD-   2262015413D 1   1.00000     0.00000
 Structure written by MMmdl.
 61 64  0  0  0  0  0  0  0  0  1 V2000
  152.4800  143.3808  162.0622 C   0  0  0  0  0  0  0  0  0  0  0  0
  151.9121  143.8414  160.8468 O   0  0  0  0  0  0  0  0  0  0  0  0
  152.5553  143.3242  159.6907 C   0  0  1  0  0  0  0  0  0  0  0  0
  152.6372  141.7915  159.7656 C   0  0  0  0  0  0  0  0  0  0  0  0
  151.8122  141.2976  158.5660 C   0  0  2  0  0  0  0  0  0  0  0  0
  152.2732  139.9281  158.0228 C   0  0  0  0  0  0  0  0  0  0  0  0
  151.4940  138.8165  158.5740 N   0  0  0  0  0  0  0  0  0  0  0  0
  152.2152  137.7604  159.2732 C   0  0  0  0  0  0  0  0  0  0  0  0
  150.2019  138.6184  158.1842 C   0  0  0  0  0  0  0  0  0  0  0  0
  149.6261  139.5472  157.3749 N   0  0  0  0  0  0  0  0  0  0  0  0
  148.3656  139.4091  156.9576 C   0  0  0  0  0  0  0  0  0  0  0  0
  147.5021  138.4314  157.2284 N   0  0  0  0  0  0  0  0  0  0  0  0
  148.0609  137.4927  158.0427 C   0  0  0  0  0  0  0  0  0  0  0  0
  149.3901  137.5026  158.5604 C   0  0  0  0  0  0  0  0  0  0  0  0
  149.5891  136.3611  159.3317 N   0  0  0  0  0  0  0  0  0  0  0  0
  148.4529  135.7238  159.2779 C   0  0  0  0  0  0  0  0  0  0  0  0
  147.4700  136.3451  158.5438 N   0  0  0  0  0  0  0  0  0  0  0  0
  146.1225  135.8534  158.3121 C   0  0  0  0  0  0  0  0  0  0  0  0
  145.2783  135.6086  159.5950 C   0  0  1  0  0  0  0  0  0  0  0  0
  144.7787  136.9697  160.1383 C   0  0  0  0  0  0  0  0  0  0  0  0
  145.7904  137.6402  160.8617 O   0  0  0  0  0  0  0  0  0  0  0  0
  144.0947  134.6176  159.3781 C   0  0  1  0  0  0  0  0  0  0  0  0
  143.1686  134.4151  160.5715 C   0  0  0  0  0  0  0  0  0  0  0  0
  141.8633  133.9185  159.9515 C   0  0  0  0  0  0  0  0  0  0  0  0
  141.9142  134.2720  158.5759 O   0  0  0  0  0  0  0  0  0  0  0  0
  143.0643  135.0677  158.3364 C   0  0  0  0  0  0  0  0  0  0  0  0
  151.8801  142.3857  157.6035 N   0  0  0  0  0  0  0  0  0  0  0  0
  150.8685  142.3118  156.5575 C   0  0  0  0  0  0  0  0  0  0  0  0
  151.7377  143.5772  158.4169 C   0  0  0  0  0  0  0  0  0  0  0  0
  153.5637  143.7303  159.5927 H   0  0  0  0  0  0  0  0  0  0  0  0
  150.7764  141.2058  158.8984 H   0  0  0  0  0  0  0  0  0  0  0  0
  151.9308  143.8029  162.9037 H   0  0  0  0  0  0  0  0  0  0  0  0
  153.5231  143.6838  162.1588 H   0  0  0  0  0  0  0  0  0  0  0  0
  152.4231  142.2943  162.1365 H   0  0  0  0  0  0  0  0  0  0  0  0
  153.6790  141.4824  159.6729 H   0  0  0  0  0  0  0  0  0  0  0  0
  152.2589  141.3929  160.7077 H   0  0  0  0  0  0  0  0  0  0  0  0
  152.1432  139.9016  156.9411 H   0  0  0  0  0  0  0  0  0  0  0  0
  153.3445  139.8024  158.1791 H   0  0  0  0  0  0  0  0  0  0  0  0
  151.6251  137.3689  160.1024 H   0  0  0  0  0  0  0  0  0  0  0  0
  153.1507  138.1385  159.6859 H   0  0  0  0  0  0  0  0  0  0  0  0
  152.4576  136.9435  158.5930 H   0  0  0  0  0  0  0  0  0  0  0  0
  147.9956  140.1960  156.3171 H   0  0  0  0  0  0  0  0  0  0  0  0
  148.2977  134.7830  159.7856 H   0  0  0  0  0  0  0  0  0  0  0  0
  145.6340  136.5835  157.6665 H   0  0  0  0  0  0  0  0  0  0  0  0
  146.1853  134.9318  157.7320 H   0  0  0  0  0  0  0  0  0  0  0  0
  145.9256  135.1831  160.3624 H   0  0  0  0  0  0  0  0  0  0  0  0
  144.4317  137.6082  159.3254 H   0  0  0  0  0  0  0  0  0  0  0  0
  143.9439  136.8447  160.8264 H   0  0  0  0  0  0  0  0  0  0  0  0
  145.4096  138.0010  161.6479 H   0  0  0  0  0  0  0  0  0  0  0  0
  144.4876  133.6473  159.0705 H   0  0  0  0  0  0  0  0  0  0  0  0
  143.5498  133.7025  161.3006 H   0  0  0  0  0  0  0  0  0  0  0  0
  142.9955  135.3632  161.0824 H   0  0  0  0  0  0  0  0  0  0  0  0
  141.7789  132.8345  160.0309 H   0  0  0  0  0  0  0  0  0  0  0  0
  140.9935  134.3621  160.4370 H   0  0  0  0  0  0  0  0  0  0  0  0
  142.8024  136.1178  158.4763 H   0  0  0  0  0  0  0  0  0  0  0  0
  143.4087  134.9338  157.3107 H   0  0  0  0  0  0  0  0  0  0  0  0
  150.9303  143.1821  155.9036 H   0  0  0  0  0  0  0  0  0  0  0  0
  149.8631  142.2763  156.9792 H   0  0  0  0  0  0  0  0  0  0  0  0
  151.0091  141.4267  155.9377 H   0  0  0  0  0  0  0  0  0  0  0  0
  150.6886  143.7177  158.6835 H   0  0  0  0  0  0  0  0  0  0  0  0
  152.0652  144.4700  157.8836 H   0  0  0  0  0  0  0  0  0  0  0  0
  1  2  1  0  0  0  0
  1 32  1  0  0  0  0
  1 33  1  0  0  0  0
  1 34  1  0  0  0  0
  2  3  1  0  0  0  0
  3 30  1  0  0  0  0
  3 29  1  0  0  0  0
  3  4  1  0  0  0  0
  4  5  1  0  0  0  0
  4 35  1  0  0  0  0
  4 36  1  0  0  0  0
  5 31  1  0  0  0  0
  5  6  1  0  0  0  0
  5 27  1  0  0  0  0
  6  7  1  0  0  0  0
  6 37  1  0  0  0  0
  6 38  1  0  0  0  0
  7  8  1  0  0  0  0
  7  9  1  0  0  0  0
  8 39  1  0  0  0  0
  8 40  1  0  0  0  0
  8 41  1  0  0  0  0
  9 14  1  0  0  0  0
  9 10  2  0  0  0  0
 10 11  1  0  0  0  0
 11 12  2  0  0  0  0
 11 42  1  0  0  0  0
 12 13  1  0  0  0  0
 13 17  1  0  0  0  0
 13 14  2  0  0  0  0
 14 15  1  0  0  0  0
 15 16  2  0  0  0  0
 16 17  1  0  0  0  0
 16 43  1  0  0  0  0
 17 18  1  0  0  0  0
 18 19  1  0  0  0  0
 18 44  1  0  0  0  0
 18 45  1  0  0  0  0
 19 20  1  0  0  0  0
 19 22  1  0  0  0  0
 19 46  1  0  0  0  0
 20 21  1  0  0  0  0
 20 47  1  0  0  0  0
 20 48  1  0  0  0  0
 21 49  1  0  0  0  0
 22 26  1  0  0  0  0
 22 23  1  0  0  0  0
 22 50  1  0  0  0  0
 23 24  1  0  0  0  0
 23 51  1  0  0  0  0
 23 52  1  0  0  0  0
 24 25  1  0  0  0  0
 24 53  1  0  0  0  0
 24 54  1  0  0  0  0
 25 26  1  0  0  0  0
 26 55  1  0  0  0  0
 26 56  1  0  0  0  0
 27 28  1  0  0  0  0
 27 29  1  0  0  0  0
 28 57  1  0  0  0  0
 28 58  1  0  0  0  0
 28 59  1  0  0  0  0
 29 60  1  0  0  0  0
 29 61  1  0  0  0  0
M  END
> <s_m_source_file>
AV-unprocessed.smi

> <i_m_source_file_index>
21

> <i_lp_mmshare_version>
43012

> <i_f3d_flags>
0

> <s_epik_input>
W0NIM11PW0NASF0xW0NIMl1bQ0BIXShOKFtDSDNdKVtDSDJdMSlbQ0gyXU4oW0NIM10pYyhuW2NIXW4yKWMoYzIzKW5bY0hdbjNbQ0gyXVtDQEhdKFtDSDJdW09IXSlbQ0BASF00W0NIMl1bQ0gyXU9bQ0gyXTQ=

> <s_epik_cmdline>
J2VwaWtfcHl0aG9uJywgJy1waCcsICc3LjAnLCAnLXRuJywgJzgnLCAnLW1hJywgJzIwMCcsICctbWV0YWxfYmluZGluZycsICctaW1hZScsICc8aW5maWxlLm1hZT4nLCAnLW9tYWUnLCAnPG91dGZpbGUubWFlPic=

> <r_lp_tautomer_probability>
1

> <r_epik_Ionization_Penalty>
2.17574

> <r_epik_Ionization_Penalty_Charging>
0

> <r_epik_Ionization_Penalty_Neutral>
2.17574

> <r_epik_State_Penalty>
2.31336

> <r_epik_Charging_Adjusted_Penalty>
2.31336

> <i_epik_Tot_Q>
0

> <i_epik_Tot_abs_Q>
0

> <r_epik_Metal_State_Penalty>
2.31025

> <b_epik_Metal_Only>
0

> <s_lp_Force_Field>
OPLS_2005

> <r_lp_Energy>
70.7714

> <b_lp_Chiralities_Consistent>
1

> <s_lp_Variant>
AV-unprocessed.smi:21-47

> <Gold.Version>
5.8.1

> <Gold.Id.Protein>
6NUR|6NUR_protein|mol2

> <Gold.PLP.Fitness>
47.8036

> <Gold.PLP.PLP>
-40.3631

> <Gold.PLP.part.hbond>
-3.0000

> <Gold.PLP.part.metal>
0.0000

> <Gold.PLP.part.buried>
-7.5191

> <Gold.PLP.part.nonpolar>
-29.2072

> <Gold.PLP.part.repulsive>
0.1463

> <Gold.PLP.ligand.clash>
0.0000

> <Gold.PLP.ligand.torsion>
1.0755

> <Gold.PLP.Chemscore.Hbond>
2.9913

> <Gold.PLP.Chemscore.CHOScore>
0.0000

> <Gold.PLP.Chemscore.Metal>
0.0000

> <Gold.Chemscore.Hbonds>
donor molecule, donor type, donor heavy atom, donor atom, acceptor molecule, acceptor atom, score
      P1  H  6896  6907       L1    15  1.00
      P1  H  6934  6947       L1    21  0.40
      P1  H 11000 11005       L1    25  0.83

> <Gold.PLP.Chemscore.Internal.Correction>
0.6177

> <Gold.Rescore>
     Score         DG    S(hbond)    S(metal)    S(lipo)     H(rot)  DE(clash)    DE(int)     intcor
     11.09     -15.37       2.25        0.00      86.04       3.00       0.14       4.15       ----

> <Gold.Chemscore.Fitness>
11.0888

> <Gold.Chemscore.DG>
-15.3725

> <Gold.Chemscore.ZeroCoef>
-5.4800

> <Gold.Chemscore.Hbond>
2.2496

> <Gold.Chemscore.Metal>
0.0000

> <Gold.Chemscore.Lipo>
86.0402

> <Gold.Chemscore.Internal_Hbond>
0.0000

> <Gold.Chemscore.DEClash>
0.1361

> <Gold.Chemscore.DEInternal>
4.1477

> <Gold.Chemscore.Rot>
3.0031

> <Gold.Chemscore.Internal.Correction>
   9.000000E+99

> <Gold.Chemscore.Hbonds>
donor molecule, donor type, donor heavy atom, donor atom, acceptor molecule, acceptor atom, score
      P1  H  6896  6907       L1    15  0.34
      P1  H  6934  6947       L1    21  0.01
      P1  H 11000 11005       L1    25  0.75

> <Gold.Chemscore.Hbond.Weighted>
-7.5138

> <Gold.Chemscore.Metal.Weighted>
-0.0000

> <Gold.Chemscore.Lipo.Weighted>
-10.0667

> <Gold.Chemscore.Internal_Hbond.Weighted>
0.0000

> <Gold.Chemscore.DEClash.Weighted>
0.1361

> <Gold.Chemscore.DEInternal.Weighted>
4.1477

> <Gold.Chemscore.Rot.Weighted>
7.6880

> <Gold.Chemscore.Internal.Correction.Weighted>
   9.000000E+99

> <Gold.Protein.RotatedTorsions>
[ 6907 6896 6895 6894 ] final  -46.32 input  -60.11 | X-H torsion
[ 7974 7965 7964 7962 ] final  134.87 input  175.53 | X-H torsion
[ 8008 7997 7996 7995 ] final  108.95 input   59.86 | X-H torsion
[ 10167 10162 10161 10158 ] final  -19.77 input  -65.29 | X-H torsion
[ 10718 10713 10712 10709 ] final   73.70 input   66.30 | X-H torsion
[ 10763 10752 10751 10750 ] final  -27.08 input  -60.55 | X-H torsion
[ 11005 11000 10999 10996 ] final -126.38 input  -57.11 | X-H torsion

> <Gold.Protein.ActiveResidues>
 VAL166  LYS551  ARG553  GLY616  TRP617  ASP618  TYR619  PRO620  LYS621  CYS622 
 ASP623  PHE694  ASN695  SER759  ASP760  ASP761  ALA762  ILE779  LEU786  VAL792 
 PHE793  MET794  SER795  GLU796  ALA797  LYS798  CYS799  TRP800  GLU811  SER814 

> <Gold.Protein.RotatedAtoms>
  150.9125  134.8542  159.7434 H   0  0  0  0  0  0  0  0  0  0  0  0  # atno 6907 bound_to 6896
  152.4951  134.4339  159.9531 H   0  0  0  0  0  0  0  0  0  0  0  0  # atno 6908 bound_to 6896
  151.4380  133.3612  159.2813 H   0  0  0  0  0  0  0  0  0  0  0  0  # atno 6909 bound_to 6896
  144.9721  139.4595  143.5428 H   0  0  0  0  0  0  0  0  0  0  0  0  # atno 7974 bound_to 7965
  156.1942  140.3067  155.9393 H   0  0  0  0  0  0  0  0  0  0  0  0  # atno 8008 bound_to 7997
  155.3104  140.0451  157.3051 H   0  0  0  0  0  0  0  0  0  0  0  0  # atno 8009 bound_to 7997
  154.5489  140.2285  155.8527 H   0  0  0  0  0  0  0  0  0  0  0  0  # atno 8010 bound_to 7997
  140.7271  143.4787  151.0147 H   0  0  0  0  0  0  0  0  0  0  0  0  # atno 10167 bound_to 10162
  157.6559  130.9641  150.1106 H   0  0  0  0  0  0  0  0  0  0  0  0  # atno 10718 bound_to 10713
  153.7262  135.6941  153.5000 H   0  0  0  0  0  0  0  0  0  0  0  0  # atno 10763 bound_to 10752
  153.2168  135.4383  155.0442 H   0  0  0  0  0  0  0  0  0  0  0  0  # atno 10764 bound_to 10752
  154.8268  135.3450  154.6794 H   0  0  0  0  0  0  0  0  0  0  0  0  # atno 10765 bound_to 10752
  140.9686  134.0837  157.3894 H   0  0  0  0  0  0  0  0  0  0  0  0  # atno 11005 bound_to 11000
  146.3385  139.8939  142.8805 LP  0  0  0  0  0  0  0  0  0  0  0  0  # atno 17320 bound_to 7965
  145.2544  141.0055  143.3862 LP  0  0  0  0  0  0  0  0  0  0  0  0  # atno 17321 bound_to 7965
  139.8484  143.7471  152.3179 LP  0  0  0  0  0  0  0  0  0  0  0  0  # atno 17342 bound_to 10162
  139.7644  144.7496  151.0316 LP  0  0  0  0  0  0  0  0  0  0  0  0  # atno 17343 bound_to 10162
  156.2004  130.3660  149.8796 LP  0  0  0  0  0  0  0  0  0  0  0  0  # atno 17370 bound_to 10713
  156.6701  130.8817  151.3561 LP  0  0  0  0  0  0  0  0  0  0  0  0  # atno 17371 bound_to 10713
  139.8903  135.0111  156.6731 LP  0  0  0  0  0  0  0  0  0  0  0  0  # atno 17394 bound_to 11000
  140.7363  133.9016  155.8246 LP  0  0  0  0  0  0  0  0  0  0  0  0  # atno 17395 bound_to 11000

$$$$
