AV-unprocessed.smi:1971|AV-procd|sdf|7971|dock9
  -GOLD-   2272010143D 1   1.00000     0.00000
 Structure written by MMmdl.
 43 44  0  0  0  0  0  0  0  0  3 V2000
  143.5812  132.6886  150.7919 C   0  0  0  0  0  0  0  0  0  0  0  0
  144.7594  132.7344  151.7758 C   0  0  0  0  0  0  0  0  0  0  0  0
  145.8553  133.5702  151.2792 N   0  0  0  0  0  0  0  0  0  0  0  0
  145.6682  135.0130  151.4706 C   0  0  0  0  0  0  0  0  0  0  0  0
  145.7647  135.4238  152.9550 C   0  0  0  0  0  0  0  0  0  0  0  0
  147.0728  135.0087  153.5187 N   0  3  0  0  0  0  0  0  0  0  0  0
  147.3292  135.5287  154.8923 C   0  0  1  0  0  0  0  0  0  0  0  0
  146.5230  134.7891  155.9825 C   0  0  0  0  0  0  0  0  0  0  0  0
  148.8471  135.5550  155.1849 C   0  0  0  0  0  0  0  0  0  0  0  0
  149.5361  136.6226  154.4675 N   0  0  0  0  0  0  0  0  0  0  0  0
  150.4773  137.4281  154.9792 C   0  0  0  0  0  0  0  0  0  0  0  0
  150.8106  137.3101  156.1607 O   0  0  0  0  0  0  0  0  0  0  0  0
  150.9766  138.3134  154.0884 N   0  5  0  0  0  0  0  0  0  0  0  0
  150.7345  139.6259  154.2375 C   0  0  0  0  0  0  0  0  0  0  0  0
  151.3788  140.3880  155.1288 N   0  0  0  0  0  0  0  0  0  0  0  0
  150.9759  141.7245  155.1107 C   0  0  0  0  0  0  0  0  0  0  0  0
  150.0079  141.9878  154.1781 C   0  0  0  0  0  0  0  0  0  0  0  0
  149.5707  140.5563  153.2899 S   0  0  0  0  0  0  0  0  0  0  0  0
  147.2772  133.5491  153.3309 C   0  0  0  0  0  0  0  0  0  0  0  0
  147.1536  133.1819  151.8371 C   0  0  0  0  0  0  0  0  0  0  0  0
  142.8367  131.9649  151.1236 H   0  0  0  0  0  0  0  0  0  0  0  0
  143.9090  132.3896  149.7957 H   0  0  0  0  0  0  0  0  0  0  0  0
  143.0771  133.6512  150.7093 H   0  0  0  0  0  0  0  0  0  0  0  0
  144.4174  133.0582  152.7580 H   0  0  0  0  0  0  0  0  0  0  0  0
  145.1318  131.7166  151.8992 H   0  0  0  0  0  0  0  0  0  0  0  0
  146.4389  135.5359  150.9026 H   0  0  0  0  0  0  0  0  0  0  0  0
  144.7181  135.3369  151.0475 H   0  0  0  0  0  0  0  0  0  0  0  0
  145.6655  136.5074  153.0251 H   0  0  0  0  0  0  0  0  0  0  0  0
  144.9444  134.9999  153.5339 H   0  0  0  0  0  0  0  0  0  0  0  0
  146.9938  136.5665  154.8969 H   0  0  0  0  0  0  0  0  0  0  0  0
  146.6113  135.2942  156.9448 H   0  0  0  0  0  0  0  0  0  0  0  0
  146.8743  133.7669  156.1232 H   0  0  0  0  0  0  0  0  0  0  0  0
  145.4605  134.7504  155.7432 H   0  0  0  0  0  0  0  0  0  0  0  0
  149.0306  135.7119  156.2473 H   0  0  0  0  0  0  0  0  0  0  0  0
  149.3011  134.5951  154.9330 H   0  0  0  0  0  0  0  0  0  0  0  0
  149.2912  136.7561  153.4971 H   0  0  0  0  0  0  0  0  0  0  0  0
  151.4339  142.4213  155.7967 H   0  0  0  0  0  0  0  0  0  0  0  0
  149.5289  142.9302  153.9595 H   0  0  0  0  0  0  0  0  0  0  0  0
  148.2677  133.2632  153.6833 H   0  0  0  0  0  0  0  0  0  0  0  0
  146.5597  132.9786  153.9208 H   0  0  0  0  0  0  0  0  0  0  0  0
  147.3105  132.1120  151.6949 H   0  0  0  0  0  0  0  0  0  0  0  0
  147.9402  133.6835  151.2719 H   0  0  0  0  0  0  0  0  0  0  0  0
  147.7621  135.4618  152.9358 H   0  0  0  0  0  0  0  0  0  0  0  0
  1  2  1  0  0  0  0
  1 21  1  0  0  0  0
  1 22  1  0  0  0  0
  1 23  1  0  0  0  0
  2  3  1  0  0  0  0
  2 24  1  0  0  0  0
  2 25  1  0  0  0  0
  3 20  1  0  0  0  0
  3  4  1  0  0  0  0
  4  5  1  0  0  0  0
  4 26  1  0  0  0  0
  4 27  1  0  0  0  0
  5  6  1  0  0  0  0
  5 28  1  0  0  0  0
  5 29  1  0  0  0  0
  6  7  1  0  0  0  0
  6 19  1  0  0  0  0
  6 43  1  0  0  0  0
  7  8  1  0  0  0  0
  7  9  1  0  0  0  0
  7 30  1  0  0  0  0
  8 31  1  0  0  0  0
  8 32  1  0  0  0  0
  8 33  1  0  0  0  0
  9 10  1  0  0  0  0
  9 34  1  0  0  0  0
  9 35  1  0  0  0  0
 10 11  1  0  0  0  0
 10 36  1  0  0  0  0
 11 12  2  0  0  0  0
 11 13  1  0  0  0  0
 13 14  1  0  0  0  0
 14 18  1  0  0  0  0
 14 15  2  0  0  0  0
 15 16  1  0  0  0  0
 16 17  2  0  0  0  0
 16 37  1  0  0  0  0
 17 18  1  0  0  0  0
 17 38  1  0  0  0  0
 19 20  1  0  0  0  0
 19 39  1  0  0  0  0
 19 40  1  0  0  0  0
 20 41  1  0  0  0  0
 20 42  1  0  0  0  0
M  CHG  1   6   1
M  CHG  1  13  -1
M  END
> <s_m_source_file>
AV-unprocessed.smi

> <i_m_source_file_index>
1971

> <i_lp_mmshare_version>
43012

> <i_f3d_flags>
0

> <s_epik_input>
W0NIM11bQ0gyXU4xW0NIMl1bQ0gyXU4oW0NIMl1bQ0gyXTEpW0NASF0oW0NIM10pW0NIMl1bTkhdQyg9TylbTkhdYzJuW2NIXVtjSF1zMg==

> <s_epik_cmdline>
J2VwaWtfcHl0aG9uJywgJy1waCcsICc3LjAnLCAnLXRuJywgJzgnLCAnLW1hJywgJzIwMCcsICctbWV0YWxfYmluZGluZycsICctaW1hZScsICc8aW5maWxlLm1hZT4nLCAnLW9tYWUnLCAnPG91dGZpbGUubWFlPic=

> <r_epik_Ionization_Penalty>
6.3441

> <r_epik_Ionization_Penalty_Charging>
5.51153

> <r_epik_Ionization_Penalty_Neutral>
0.832567

> <r_epik_State_Penalty>
6.33945

> <r_epik_Charging_Adjusted_Penalty>
11.851

> <i_epik_Tot_Q>
0

> <i_epik_Tot_abs_Q>
2

> <r_epik_Metal_State_Penalty>
2.34542

> <b_epik_Metal_Only>
1

> <s_lp_Force_Field>
OPLS_2005

> <r_lp_Energy>
10.682

> <b_lp_Chiralities_Consistent>
1

> <s_lp_Variant>
AV-unprocessed.smi:1971-10

> <Gold.Version>
5.8.1

> <Gold.Id.Protein>
6NUR|6NUR_protein|mol2

> <Gold.PLP.Fitness>
43.5148

> <Gold.PLP.PLP>
-32.6518

> <Gold.PLP.part.hbond>
-3.8632

> <Gold.PLP.part.metal>
0.0000

> <Gold.PLP.part.buried>
-2.7249

> <Gold.PLP.part.nonpolar>
-25.4778

> <Gold.PLP.part.repulsive>
0.4518

> <Gold.PLP.ligand.clash>
0.0000

> <Gold.PLP.ligand.torsion>
2.0731

> <Gold.PLP.Chemscore.Hbond>
3.9280

> <Gold.PLP.Chemscore.CHOScore>
1.0000

> <Gold.PLP.Chemscore.Metal>
0.0000

> <Gold.Chemscore.Hbonds>
donor molecule, donor type, donor heavy atom, donor atom, acceptor molecule, acceptor atom, score
      L1  H     6    43       P1  7948  2.00
      L1  H    10    36       P1  7948  1.00
      L1  C    17    38       P1  8028  0.95

> <Gold.PLP.Chemscore.Internal.Correction>
0.2252

> <Gold.Rescore>
     Score         DG    S(hbond)    S(metal)    S(lipo)     H(rot)  DE(clash)    DE(int)     intcor
     14.35     -16.74       2.48        0.00      63.67       1.75       0.02       2.37       ----

> <Gold.Chemscore.Fitness>
14.3479

> <Gold.Chemscore.DG>
-16.7359

> <Gold.Chemscore.ZeroCoef>
-5.4800

> <Gold.Chemscore.Hbond>
2.4815

> <Gold.Chemscore.Metal>
0.0000

> <Gold.Chemscore.Lipo>
63.6681

> <Gold.Chemscore.Internal_Hbond>
0.0000

> <Gold.Chemscore.DEClash>
0.0208

> <Gold.Chemscore.DEInternal>
2.3672

> <Gold.Chemscore.Rot>
1.7505

> <Gold.Chemscore.Internal.Correction>
   9.000000E+99

> <Gold.Chemscore.Hbonds>
donor molecule, donor type, donor heavy atom, donor atom, acceptor molecule, acceptor atom, score
      L1  H     6    43       P1  7948  1.00
      L1  H    10    36       P1  7948  0.94

> <Gold.Chemscore.Hbond.Weighted>
-8.2881

> <Gold.Chemscore.Metal.Weighted>
-0.0000

> <Gold.Chemscore.Lipo.Weighted>
-7.4492

> <Gold.Chemscore.Internal_Hbond.Weighted>
0.0000

> <Gold.Chemscore.DEClash.Weighted>
0.0208

> <Gold.Chemscore.DEInternal.Weighted>
2.3672

> <Gold.Chemscore.Rot.Weighted>
4.4813

> <Gold.Chemscore.Internal.Correction.Weighted>
   9.000000E+99

> <Gold.Protein.RotatedTorsions>
[ 6907 6896 6895 6894 ] final   98.70 input  -60.11 | X-H torsion
[ 7974 7965 7964 7962 ] final  146.90 input  175.53 | X-H torsion
[ 8008 7997 7996 7995 ] final  142.85 input   59.86 | X-H torsion
[ 10167 10162 10161 10158 ] final  -33.00 input  -65.29 | X-H torsion
[ 10718 10713 10712 10709 ] final  159.95 input   66.30 | X-H torsion
[ 10763 10752 10751 10750 ] final  -31.16 input  -60.55 | X-H torsion
[ 11005 11000 10999 10996 ] final  -68.81 input  -57.11 | X-H torsion

> <Gold.Protein.ActiveResidues>
 VAL166  LYS551  ARG553  GLY616  TRP617  ASP618  TYR619  PRO620  LYS621  CYS622 
 ASP623  PHE694  ASN695  SER759  ASP760  ASP761  ALA762  ILE779  LEU786  VAL792 
 PHE793  MET794  SER795  GLU796  ALA797  LYS798  CYS799  TRP800  GLU811  SER814 

> <Gold.Protein.RotatedAtoms>
  152.5405  134.0540  159.8122 H   0  0  0  0  0  0  0  0  0  0  0  0  # atno 6907 bound_to 6896
  151.0678  133.5484  159.2636 H   0  0  0  0  0  0  0  0  0  0  0  0  # atno 6908 bound_to 6896
  151.2358  135.0579  159.9059 H   0  0  0  0  0  0  0  0  0  0  0  0  # atno 6909 bound_to 6896
  144.8634  139.5962  143.5920 H   0  0  0  0  0  0  0  0  0  0  0  0  # atno 7974 bound_to 7965
  156.2941  140.2278  156.4796 H   0  0  0  0  0  0  0  0  0  0  0  0  # atno 8008 bound_to 7997
  154.7865  140.0457  157.1189 H   0  0  0  0  0  0  0  0  0  0  0  0  # atno 8009 bound_to 7997
  154.9697  140.3065  155.4997 H   0  0  0  0  0  0  0  0  0  0  0  0  # atno 8010 bound_to 7997
  140.7212  143.3653  151.1883 H   0  0  0  0  0  0  0  0  0  0  0  0  # atno 10167 bound_to 10162
  157.1571  131.0578  151.2251 H   0  0  0  0  0  0  0  0  0  0  0  0  # atno 10718 bound_to 10713
  153.7928  135.6896  153.4868 H   0  0  0  0  0  0  0  0  0  0  0  0  # atno 10763 bound_to 10752
  153.1738  135.4532  154.9937 H   0  0  0  0  0  0  0  0  0  0  0  0  # atno 10764 bound_to 10752
  154.8038  135.3348  154.7423 H   0  0  0  0  0  0  0  0  0  0  0  0  # atno 10765 bound_to 10752
  141.1540  133.6749  156.6503 H   0  0  0  0  0  0  0  0  0  0  0  0  # atno 11005 bound_to 11000
  146.2878  139.7052  142.9183 LP  0  0  0  0  0  0  0  0  0  0  0  0  # atno 17320 bound_to 7965
  145.4268  141.0411  143.2933 LP  0  0  0  0  0  0  0  0  0  0  0  0  # atno 17321 bound_to 7965
  139.7213  143.9219  152.2986 LP  0  0  0  0  0  0  0  0  0  0  0  0  # atno 17342 bound_to 10162
  139.8976  144.6930  150.8700 LP  0  0  0  0  0  0  0  0  0  0  0  0  # atno 17343 bound_to 10162
  157.4166  130.7414  149.6881 LP  0  0  0  0  0  0  0  0  0  0  0  0  # atno 17370 bound_to 10713
  155.9760  130.4081  150.3809 LP  0  0  0  0  0  0  0  0  0  0  0  0  # atno 17371 bound_to 10713
  140.3325  134.7916  157.4337 LP  0  0  0  0  0  0  0  0  0  0  0  0  # atno 17394 bound_to 11000
  140.1005  134.5480  155.8358 LP  0  0  0  0  0  0  0  0  0  0  0  0  # atno 17395 bound_to 11000

$$$$
