AV-unprocessed.smi:33|AV-procd|sdf|208|dock6
  -GOLD-   2262015503D 1   1.00000     0.00000
 Structure written by MMmdl.
 67 72  0  0  0  0  0  0  0  0  1 V2000
  149.3846  142.0189  156.9370 O   0  0  0  0  0  0  0  0  0  0  0  0
  150.5123  141.9162  157.4242 C   0  0  0  0  0  0  0  0  0  0  0  0
  151.3682  140.9185  157.1264 O   0  0  0  0  0  0  0  0  0  0  0  0
  151.0566  139.9909  156.0985 C   0  0  0  0  0  0  0  0  0  0  0  0
  151.6600  138.6236  156.4586 C   0  0  1  0  0  0  0  0  0  0  0  0
  150.7185  137.9002  157.2580 O   0  0  0  0  0  0  0  0  0  0  0  0
  150.2403  136.7768  156.5774 C   0  0  1  0  0  0  0  0  0  0  0  0
  148.7666  136.6278  156.8057 N   0  0  0  0  0  0  0  0  0  0  0  0
  147.9196  137.5464  157.3853 C   0  0  0  0  0  0  0  0  0  0  0  0
  146.6684  137.1828  157.4701 N   0  0  0  0  0  0  0  0  0  0  0  0
  146.6496  135.9153  156.9038 C   0  0  0  0  0  0  0  0  0  0  0  0
  145.6311  134.9517  156.6726 C   0  0  0  0  0  0  0  0  0  0  0  0
  144.3354  135.1552  157.0068 N   0  0  0  0  0  0  0  0  0  0  0  0
  143.8861  134.6135  158.2978 C   0  0  0  0  0  0  0  0  0  0  0  0
  142.6904  134.3722  158.4740 O   0  0  0  0  0  0  0  0  0  0  0  0
  144.8776  134.3130  159.3858 C   0  0  0  0  0  0  0  0  0  0  0  0
  145.8622  135.2659  159.7275 C   0  0  0  0  0  0  0  0  0  0  0  0
  146.8026  134.9840  160.7375 C   0  0  0  0  0  0  0  0  0  0  0  0
  146.7771  133.7407  161.3975 C   0  0  0  0  0  0  0  0  0  0  0  0
  145.8163  132.7752  161.0413 C   0  0  0  0  0  0  0  0  0  0  0  0
  144.8742  133.0568  160.0330 C   0  0  0  0  0  0  0  0  0  0  0  0
  143.5053  135.9088  156.0555 C   0  0  0  0  0  0  0  0  0  0  0  0
  142.5174  136.5215  156.4651 O   0  0  0  0  0  0  0  0  0  0  0  0
  143.8846  135.9846  154.6033 C   0  0  0  0  0  0  0  0  0  0  0  0
  143.6681  137.1767  153.8776 C   0  0  0  0  0  0  0  0  0  0  0  0
  144.0115  137.2501  152.5137 C   0  0  0  0  0  0  0  0  0  0  0  0
  144.5552  136.1267  151.8620 C   0  0  0  0  0  0  0  0  0  0  0  0
  144.7460  134.9262  152.5719 C   0  0  0  0  0  0  0  0  0  0  0  0
  144.4036  134.8522  153.9359 C   0  0  0  0  0  0  0  0  0  0  0  0
  145.9821  133.7784  156.0856 N   0  0  0  0  0  0  0  0  0  0  0  0
  147.2552  133.5648  155.7422 C   0  0  0  0  0  0  0  0  0  0  0  0
  148.3060  134.3736  155.8935 N   0  0  0  0  0  0  0  0  0  0  0  0
  147.9596  135.5529  156.4852 C   0  0  0  0  0  0  0  0  0  0  0  0
  150.6126  136.9389  155.0989 C   0  0  1  0  0  0  0  0  0  0  0  0
  149.6362  137.6358  154.3444 O   0  0  0  0  0  0  0  0  0  0  0  0
  151.9058  137.7181  155.2462 C   0  0  1  0  0  0  0  0  0  0  0  0
  152.2845  138.3496  154.1335 F   0  0  0  0  0  0  0  0  0  0  0  0
  151.0676  142.8784  158.4190 C   0  0  0  0  0  0  0  0  0  0  0  0
  152.2993  142.5876  159.0509 C   0  0  0  0  0  0  0  0  0  0  0  0
  152.8513  143.4793  159.9910 C   0  0  0  0  0  0  0  0  0  0  0  0
  152.1779  144.6723  160.3118 C   0  0  0  0  0  0  0  0  0  0  0  0
  150.9515  144.9726  159.6910 C   0  0  0  0  0  0  0  0  0  0  0  0
  150.3986  144.0828  158.7494 C   0  0  0  0  0  0  0  0  0  0  0  0
  149.9794  139.9067  155.9566 H   0  0  0  0  0  0  0  0  0  0  0  0
  151.4783  140.3573  155.1622 H   0  0  0  0  0  0  0  0  0  0  0  0
  152.5880  138.7695  157.0128 H   0  0  0  0  0  0  0  0  0  0  0  0
  150.6833  135.8841  157.0218 H   0  0  0  0  0  0  0  0  0  0  0  0
  148.2630  138.5047  157.7472 H   0  0  0  0  0  0  0  0  0  0  0  0
  145.8907  136.2235  159.2277 H   0  0  0  0  0  0  0  0  0  0  0  0
  147.5444  135.7218  161.0048 H   0  0  0  0  0  0  0  0  0  0  0  0
  147.4989  133.5253  162.1713 H   0  0  0  0  0  0  0  0  0  0  0  0
  145.8024  131.8175  161.5401 H   0  0  0  0  0  0  0  0  0  0  0  0
  144.1448  132.3063  159.7642 H   0  0  0  0  0  0  0  0  0  0  0  0
  143.2519  138.0453  154.3674 H   0  0  0  0  0  0  0  0  0  0  0  0
  143.8569  138.1687  151.9673 H   0  0  0  0  0  0  0  0  0  0  0  0
  144.8191  136.1841  150.8162 H   0  0  0  0  0  0  0  0  0  0  0  0
  145.1543  134.0610  152.0708 H   0  0  0  0  0  0  0  0  0  0  0  0
  144.5509  133.9240  154.4693 H   0  0  0  0  0  0  0  0  0  0  0  0
  147.4625  132.6112  155.2793 H   0  0  0  0  0  0  0  0  0  0  0  0
  150.7694  135.9590  154.6469 H   0  0  0  0  0  0  0  0  0  0  0  0
  149.3446  137.0758  153.6411 H   0  0  0  0  0  0  0  0  0  0  0  0
  152.7097  137.0209  155.4872 H   0  0  0  0  0  0  0  0  0  0  0  0
  152.8357  141.6787  158.8194 H   0  0  0  0  0  0  0  0  0  0  0  0
  153.7934  143.2478  160.4656 H   0  0  0  0  0  0  0  0  0  0  0  0
  152.6015  145.3559  161.0327 H   0  0  0  0  0  0  0  0  0  0  0  0
  150.4339  145.8881  159.9364 H   0  0  0  0  0  0  0  0  0  0  0  0
  149.4560  144.3443  158.2910 H   0  0  0  0  0  0  0  0  0  0  0  0
  1  2  2  0  0  0  0
  2  3  1  0  0  0  0
  2 38  1  0  0  0  0
  3  4  1  0  0  0  0
  4  5  1  0  0  0  0
  4 44  1  0  0  0  0
  4 45  1  0  0  0  0
  5 36  1  0  0  0  0
  5  6  1  0  0  0  0
  5 46  1  0  0  0  0
  6  7  1  0  0  0  0
  7  8  1  0  0  0  0
  7 34  1  0  0  0  0
  7 47  1  0  0  0  0
  8 33  1  0  0  0  0
  8  9  1  0  0  0  0
  9 10  2  0  0  0  0
  9 48  1  0  0  0  0
 10 11  1  0  0  0  0
 11 33  2  0  0  0  0
 11 12  1  0  0  0  0
 12 13  1  0  0  0  0
 12 30  2  0  0  0  0
 13 14  1  0  0  0  0
 13 22  1  0  0  0  0
 14 15  2  0  0  0  0
 14 16  1  0  0  0  0
 16 21  1  0  0  0  0
 16 17  2  0  0  0  0
 17 18  1  0  0  0  0
 17 49  1  0  0  0  0
 18 19  2  0  0  0  0
 18 50  1  0  0  0  0
 19 20  1  0  0  0  0
 19 51  1  0  0  0  0
 20 21  2  0  0  0  0
 20 52  1  0  0  0  0
 21 53  1  0  0  0  0
 22 23  2  0  0  0  0
 22 24  1  0  0  0  0
 24 29  1  0  0  0  0
 24 25  2  0  0  0  0
 25 26  1  0  0  0  0
 25 54  1  0  0  0  0
 26 27  2  0  0  0  0
 26 55  1  0  0  0  0
 27 28  1  0  0  0  0
 27 56  1  0  0  0  0
 28 29  2  0  0  0  0
 28 57  1  0  0  0  0
 29 58  1  0  0  0  0
 30 31  1  0  0  0  0
 31 32  2  0  0  0  0
 31 59  1  0  0  0  0
 32 33  1  0  0  0  0
 34 35  1  0  0  0  0
 34 36  1  0  0  0  0
 34 60  1  0  0  0  0
 35 61  1  0  0  0  0
 36 37  1  0  0  0  0
 36 62  1  0  0  0  0
 38 43  1  0  0  0  0
 38 39  2  0  0  0  0
 39 40  1  0  0  0  0
 39 63  1  0  0  0  0
 40 41  2  0  0  0  0
 40 64  1  0  0  0  0
 41 42  1  0  0  0  0
 41 65  1  0  0  0  0
 42 43  2  0  0  0  0
 42 66  1  0  0  0  0
 43 67  1  0  0  0  0
M  END
> <s_m_source_file>
AV-unprocessed.smi

> <i_m_source_file_index>
33

> <i_lp_mmshare_version>
43012

> <i_f3d_flags>
0

> <s_epik_input>
W2NIXTFbY0hdW2NIXVtjSF1bY0hdYzFDKD1PKU9bQ0gyXVtDQEBIXTJPW0NASF0oW0NAQEhdKFtPSF0pW0NAQEhdMkYpbihbY0hdbjMpYyhjMzQpbltjSF1uYzROKEMoPU8pYzVbY0hdW2NIXVtjSF1bY0hdW2NIXTUpQyg9TyljNltjSF1bY0hdW2NIXVtjSF1bY0hdNg==

> <s_epik_cmdline>
J2VwaWtfcHl0aG9uJywgJy1waCcsICc3LjAnLCAnLXRuJywgJzgnLCAnLW1hJywgJzIwMCcsICctbWV0YWxfYmluZGluZycsICctaW1hZScsICc8aW5maWxlLm1hZT4nLCAnLW9tYWUnLCAnPG91dGZpbGUubWFlPic=

> <r_lp_tautomer_probability>
1

> <r_epik_Ionization_Penalty>
0.00067664

> <r_epik_Ionization_Penalty_Charging>
0

> <r_epik_Ionization_Penalty_Neutral>
0.00067664

> <r_epik_State_Penalty>
0.000428095

> <r_epik_Charging_Adjusted_Penalty>
0.000428095

> <i_epik_Tot_Q>
0

> <i_epik_Tot_abs_Q>
0

> <r_epik_Metal_State_Penalty>
-0

> <b_epik_Metal_Only>
0

> <s_epik_Chemistry_Notes>
This compound has an ester and may undergo hydrolysis at high or low pH. This compound contains an acetal/aminal-like group ( X-CH(R)-Y where X, Y are N, S, or O) that may be acid/base labile, releasing an aldehyde.

> <s_lp_Force_Field>
OPLS_2005

> <r_lp_Energy>
79.915

> <b_lp_Chiralities_Consistent>
1

> <s_lp_Variant>
AV-unprocessed.smi:33-10

> <Gold.Version>
5.8.1

> <Gold.Id.Protein>
6NUR|6NUR_protein|mol2

> <Gold.PLP.Fitness>
47.6015

> <Gold.PLP.PLP>
-45.4278

> <Gold.PLP.part.hbond>
-2.5103

> <Gold.PLP.part.metal>
0.0000

> <Gold.PLP.part.buried>
-7.9253

> <Gold.PLP.part.nonpolar>
-34.7057

> <Gold.PLP.part.repulsive>
1.0338

> <Gold.PLP.ligand.clash>
0.0000

> <Gold.PLP.ligand.torsion>
4.1074

> <Gold.PLP.Chemscore.Hbond>
2.0000

> <Gold.PLP.Chemscore.CHOScore>
0.0000

> <Gold.PLP.Chemscore.Metal>
0.0000

> <Gold.Chemscore.Hbonds>
donor molecule, donor type, donor heavy atom, donor atom, acceptor molecule, acceptor atom, score
      L1  H    35    61       P1  7948  1.00
      P1  H 11000 11005       L1    15  1.00

> <Gold.PLP.Chemscore.Internal.Correction>
4.3886

> <Gold.Rescore>
     Score         DG    S(hbond)    S(metal)    S(lipo)     H(rot)  DE(clash)    DE(int)     intcor
     14.88     -20.73       1.93        0.00     130.63       2.52       0.10       5.76       ----

> <Gold.Chemscore.Fitness>
14.8779

> <Gold.Chemscore.DG>
-20.7310

> <Gold.Chemscore.ZeroCoef>
-5.4800

> <Gold.Chemscore.Hbond>
1.9253

> <Gold.Chemscore.Metal>
0.0000

> <Gold.Chemscore.Lipo>
130.6307

> <Gold.Chemscore.Internal_Hbond>
0.0000

> <Gold.Chemscore.DEClash>
0.0979

> <Gold.Chemscore.DEInternal>
5.7552

> <Gold.Chemscore.Rot>
2.5247

> <Gold.Chemscore.Internal.Correction>
   9.000000E+99

> <Gold.Chemscore.Hbonds>
donor molecule, donor type, donor heavy atom, donor atom, acceptor molecule, acceptor atom, score
      L1  H    35    61       P1  7948  0.94
      P1  H 11000 11005       L1    15  0.97

> <Gold.Chemscore.Hbond.Weighted>
-6.4305

> <Gold.Chemscore.Metal.Weighted>
-0.0000

> <Gold.Chemscore.Lipo.Weighted>
-15.2838

> <Gold.Chemscore.Internal_Hbond.Weighted>
0.0000

> <Gold.Chemscore.DEClash.Weighted>
0.0979

> <Gold.Chemscore.DEInternal.Weighted>
5.7552

> <Gold.Chemscore.Rot.Weighted>
6.4633

> <Gold.Chemscore.Internal.Correction.Weighted>
   9.000000E+99

> <Gold.Protein.RotatedTorsions>
[ 6907 6896 6895 6894 ] final  125.44 input  -60.11 | X-H torsion
[ 7974 7965 7964 7962 ] final  -22.65 input  175.53 | X-H torsion
[ 8008 7997 7996 7995 ] final -122.06 input   59.86 | X-H torsion
[ 10167 10162 10161 10158 ] final  164.61 input  -65.29 | X-H torsion
[ 10718 10713 10712 10709 ] final  165.06 input   66.30 | X-H torsion
[ 10763 10752 10751 10750 ] final -153.72 input  -60.55 | X-H torsion
[ 11005 11000 10999 10996 ] final -125.32 input  -57.11 | X-H torsion

> <Gold.Protein.ActiveResidues>
 VAL166  LYS551  ARG553  GLY616  TRP617  ASP618  TYR619  PRO620  LYS621  CYS622 
 ASP623  PHE694  ASN695  SER759  ASP760  ASP761  ALA762  ILE779  LEU786  VAL792 
 PHE793  MET794  SER795  GLU796  ALA797  LYS798  CYS799  TRP800  GLU811  SER814 

> <Gold.Protein.RotatedAtoms>
  152.3991  133.6791  159.6301 H   0  0  0  0  0  0  0  0  0  0  0  0  # atno 6907 bound_to 6896
  150.7885  133.8822  159.3298 H   0  0  0  0  0  0  0  0  0  0  0  0  # atno 6908 bound_to 6896
  151.6592  135.0993  160.0227 H   0  0  0  0  0  0  0  0  0  0  0  0  # atno 6909 bound_to 6896
  146.1663  140.4507  142.8550 H   0  0  0  0  0  0  0  0  0  0  0  0  # atno 7974 bound_to 7965
  155.1580  140.0405  157.2836 H   0  0  0  0  0  0  0  0  0  0  0  0  # atno 8008 bound_to 7997
  154.6356  140.2534  155.7355 H   0  0  0  0  0  0  0  0  0  0  0  0  # atno 8009 bound_to 7997
  156.2507  140.2866  156.0727 H   0  0  0  0  0  0  0  0  0  0  0  0  # atno 8010 bound_to 7997
  139.4892  144.4218  151.9177 H   0  0  0  0  0  0  0  0  0  0  0  0  # atno 10167 bound_to 10162
  157.0856  131.0404  151.2558 H   0  0  0  0  0  0  0  0  0  0  0  0  # atno 10718 bound_to 10713
  154.7908  135.3206  154.7781 H   0  0  0  0  0  0  0  0  0  0  0  0  # atno 10763 bound_to 10752
  153.8471  135.6865  153.4800 H   0  0  0  0  0  0  0  0  0  0  0  0  # atno 10764 bound_to 10752
  153.1577  135.4673  154.9669 H   0  0  0  0  0  0  0  0  0  0  0  0  # atno 10765 bound_to 10752
  140.9771  134.0725  157.3806 H   0  0  0  0  0  0  0  0  0  0  0  0  # atno 11005 bound_to 11000
  144.8098  140.6364  143.6423 LP  0  0  0  0  0  0  0  0  0  0  0  0  # atno 17320 bound_to 7965
  145.4458  139.1530  143.3945 LP  0  0  0  0  0  0  0  0  0  0  0  0  # atno 17321 bound_to 7965
  140.3662  144.2912  150.5926 LP  0  0  0  0  0  0  0  0  0  0  0  0  # atno 17342 bound_to 10162
  140.5359  143.2233  151.8163 LP  0  0  0  0  0  0  0  0  0  0  0  0  # atno 17343 bound_to 10162
  157.4764  130.7739  149.7372 LP  0  0  0  0  0  0  0  0  0  0  0  0  # atno 17370 bound_to 10713
  155.9912  130.3939  150.2996 LP  0  0  0  0  0  0  0  0  0  0  0  0  # atno 17371 bound_to 10713
  139.8935  135.0131  156.6901 LP  0  0  0  0  0  0  0  0  0  0  0  0  # atno 17394 bound_to 11000
  140.7242  133.9114  155.8167 LP  0  0  0  0  0  0  0  0  0  0  0  0  # atno 17395 bound_to 11000

$$$$
