#       Name:                AV-unprocessed.smi:245
#       Creating user name   scv26
#       Creation time:       Thu Mar 26 20:52:01 2020


#       File generated by GOLD software.
#

@<TRIPOS>MOLECULE
AV-unprocessed.smi:245
    64    68     1
SMALL
NO_CHARGES


@<TRIPOS>ATOM
      1 ****        -5.1527   0.6841  -2.9332 O.2            1 S1                 0.0000
      2 ****        -4.6509   0.6501  -1.8121 C.2            1 S1                 0.0000
      3 ****        -3.1184   0.6651  -1.6676 C.3            1 S1                 0.0000
      4 ****        -2.6134   0.6678  -0.2840 N.3            1 S1                 0.0000
      5 ****        -1.3055   1.0208  -0.2523 C.ar           1 S1                 0.0000
      6 ****        -0.9517   2.3028   0.0298 N.ar           1 S1                 0.0000
      7 ****         0.3377   2.6534   0.0407 C.ar           1 S1                 0.0000
      8 ****         1.4103   1.8988  -0.2079 N.ar           1 S1                 0.0000
      9 ****         1.0569   0.6154  -0.5072 C.ar           1 S1                 0.0000
     10 ****        -0.2679   0.0981  -0.5512 C.ar           1 S1                 0.0000
     11 ****        -0.2432  -1.2504  -0.8809 N.2            1 S1                 0.0000
     12 ****         1.0270  -1.5179  -1.0189 C.2            1 S1                 0.0000
     13 ****         1.8795  -0.4517  -0.8275 N.pl3          1 S1                 0.0000
     14 ****         3.3142  -0.4656  -0.8934 C.3            1 S1                 0.0000
     15 ****         4.0699  -1.3271  -1.9105 C.3            1 S1                 0.0000
     16 ****         5.1591  -1.6332  -0.8571 C.3            1 S1                 0.0000
     17 ****         5.5516  -3.1136  -0.7337 C.3            1 S1                 0.0000
     18 ****         6.1486  -3.5916  -1.9220 O.3            1 S1                 0.0000
     19 ****         6.4707  -0.8213  -0.9469 C.3            1 S1                 0.0000
     20 ****         6.2601   0.5748  -1.0088 O.3            1 S1                 0.0000
     21 ****         4.1320  -1.1596   0.1968 C.3            1 S1                 0.0000
     22 ****        -3.4952   1.1926   0.7662 C.3            1 S1                 0.0000
     23 ****        -2.9539   0.9804   2.2022 C.3            1 S1                 0.0000
     24 ****        -3.9315   1.5369   3.2515 C.3            1 S1                 0.0000
     25 ****        -5.3320   0.9215   3.1045 C.3            1 S1                 0.0000
     26 ****        -5.8695   1.0876   1.6741 C.3            1 S1                 0.0000
     27 ****        -4.8773   0.5125   0.6487 C.3            1 S1                 0.0000
     28 ****        -5.4078   0.6186  -0.7045 N.am           1 S1                 0.0000
     29 ****        -2.7244  -0.2113  -2.1838 H              1 S1                 0.0000
     30 ****        -2.7472   1.5404  -2.2047 H              1 S1                 0.0000
     31 ****         0.5388   3.6870   0.2808 H              1 S1                 0.0000
     32 ****         1.3746  -2.5109  -1.2629 H              1 S1                 0.0000
     33 ****         3.6276   0.5741  -0.9954 H              1 S1                 0.0000
     34 ****         3.5205  -2.2185  -2.2151 H              1 S1                 0.0000
     35 ****         4.4245  -0.7780  -2.7834 H              1 S1                 0.0000
     36 ****         6.2399  -3.2722   0.0972 H              1 S1                 0.0000
     37 ****         4.6767  -3.7324  -0.5313 H              1 S1                 0.0000
     38 ****         6.3565  -4.5063  -1.8070 H              1 S1                 0.0000
     39 ****         7.1080  -1.0211  -0.0850 H              1 S1                 0.0000
     40 ****         7.0443  -1.1021  -1.8307 H              1 S1                 0.0000
     41 ****         7.1004   1.0028  -1.0721 H              1 S1                 0.0000
     42 ****         4.5294  -0.4840   0.9549 H              1 S1                 0.0000
     43 ****         3.5857  -1.9822   0.6611 H              1 S1                 0.0000
     44 ****        -3.6184   2.2640   0.5941 H              1 S1                 0.0000
     45 ****        -2.7893  -0.0831   2.3814 H              1 S1                 0.0000
     46 ****        -1.9886   1.4662   2.3403 H              1 S1                 0.0000
     47 ****        -3.5471   1.3480   4.2541 H              1 S1                 0.0000
     48 ****        -3.9977   2.6206   3.1461 H              1 S1                 0.0000
     49 ****        -5.2911  -0.1390   3.3565 H              1 S1                 0.0000
     50 ****        -6.0179   1.3815   3.8163 H              1 S1                 0.0000
     51 ****        -6.8349   0.5877   1.5861 H              1 S1                 0.0000
     52 ****        -6.0462   2.1443   1.4685 H              1 S1                 0.0000
     53 ****        -4.7599  -0.5545   0.8476 H              1 S1                 0.0000
     54 ****        -6.4120   0.6280  -0.8100 H              1 S1                 0.0000
     55 ****        -6.1474   0.6888  -3.0358 LP             1 S1                 0.0000
     56 ****        -4.5664   0.7071  -3.7429 LP             1 S1                 0.0000
     57 ****        -2.6470  -0.2824   0.0257 LP             1 S1                 0.0000
     58 ****        -1.6565   2.9836   0.2292 LP             1 S1                 0.0000
     59 ****         2.3528   2.2317  -0.1785 LP             1 S1                 0.0000
     60 ****        -1.0187  -1.8725  -0.9878 LP             1 S1                 0.0000
     61 ****         6.9851  -3.0767  -2.1098 LP             1 S1                 0.0000
     62 ****         5.5124  -3.4839  -2.6859 LP             1 S1                 0.0000
     63 ****         5.7869   0.8814  -0.1829 LP             1 S1                 0.0000
     64 ****         5.7071   0.7972  -1.8117 LP             1 S1                 0.0000
@<TRIPOS>BOND
    1    1    2 2     
    2    2   28 am    
    3    2    3 1     
    4    3    4 1     
    5    3   29 1     
    6    3   30 1     
    7    4    5 1     
    8    4   22 1     
    9    5   10 ar    
   10    5    6 ar    
   11    6    7 ar    
   12    7    8 ar    
   13    7   31 1     
   14    8    9 ar    
   15    9   13 1     
   16    9   10 ar    
   17   10   11 1     
   18   11   12 2     
   19   12   13 1     
   20   12   32 1     
   21   13   14 1     
   22   14   21 1     
   23   14   15 1     
   24   14   33 1     
   25   15   16 1     
   26   15   34 1     
   27   15   35 1     
   28   16   17 1     
   29   16   19 1     
   30   16   21 1     
   31   17   18 1     
   32   17   36 1     
   33   17   37 1     
   34   18   38 1     
   35   19   20 1     
   36   19   39 1     
   37   19   40 1     
   38   20   41 1     
   39   21   42 1     
   40   21   43 1     
   41   22   27 1     
   42   22   23 1     
   43   22   44 1     
   44   23   24 1     
   45   23   45 1     
   46   23   46 1     
   47   24   25 1     
   48   24   47 1     
   49   24   48 1     
   50   25   26 1     
   51   25   49 1     
   52   25   50 1     
   53   26   27 1     
   54   26   51 1     
   55   26   52 1     
   56   27   28 1     
   57   27   53 1     
   58   28   54 1     
   59    1   55 1     
   60    1   56 1     
   61    4   57 1     
   62    6   58 1     
   63    8   59 1     
   64   11   60 1     
   65   18   61 1     
   66   18   62 1     
   67   20   63 1     
   68   20   64 1     
@<TRIPOS>SUBSTRUCTURE
      1 S1             1
@<TRIPOS>SET
LONE_PAIRS      STATIC     ATOMS    <user>   **** ""
10 55 56 57 58 59 60 61 62 63 64
DONOR_HYDROGENS      STATIC     ATOMS    <user>   **** ""
3 38 41 54
ATOM$BLUE        STATIC     ATOMS    COLORGROUP SYSTEM
10 55 56 57 58 59 60 61 62 63 64
ATOM$RED        STATIC     ATOMS    COLORGROUP SYSTEM
3 38 41 54
