AV-unprocessed.smi:1436|AV-procd|sdf|5859|dock4
  -GOLD-   22720 5533D 1   1.00000     0.00000
 Structure written by MMmdl.
 43 44  0  0  0  0  0  0  0  0  1 V2000
  145.4984  130.5030  151.5894 C   0  0  0  0  0  0  0  0  0  0  0  0
  144.9369  131.7586  150.9873 C   0  0  0  0  0  0  0  0  0  0  0  0
  144.0823  131.6691  149.9825 N   0  0  0  0  0  0  0  0  0  0  0  0
  143.7650  132.9842  149.6320 O   0  0  0  0  0  0  0  0  0  0  0  0
  144.4511  133.8247  150.4469 C   0  0  0  0  0  0  0  0  0  0  0  0
  144.2562  135.2831  150.2053 C   0  0  0  0  0  0  0  0  0  0  0  0
  145.2135  133.1133  151.3333 C   0  0  0  0  0  0  0  0  0  0  0  0
  146.1469  133.6245  152.4038 C   0  0  0  0  0  0  0  0  0  0  0  0
  145.6192  134.9504  152.9526 C   0  0  0  0  0  0  0  0  0  0  0  0
  144.5649  134.9803  153.5865 O   0  0  0  0  0  0  0  0  0  0  0  0
  146.3776  136.0336  152.7208 N   0  0  0  0  0  0  0  0  0  0  0  0
  146.1444  137.3713  153.2567 C   0  0  2  0  0  0  0  0  0  0  0  0
  146.1274  138.4057  152.1213 C   0  0  0  0  0  0  0  0  0  0  0  0
  147.1302  137.7323  154.3973 C   0  0  0  0  0  0  0  0  0  0  0  0
  148.1727  138.7206  154.0962 N   0  0  0  0  0  0  0  0  0  0  0  0
  147.7737  140.0436  154.5677 C   0  0  0  0  0  0  0  0  0  0  0  0
  148.8412  141.1114  154.2753 C   0  0  0  0  0  0  0  0  0  0  0  0
  150.0734  140.7252  154.8734 O   0  0  0  0  0  0  0  0  0  0  0  0
  150.5330  139.4619  154.4065 C   0  0  0  0  0  0  0  0  0  0  0  0
  149.4694  138.3859  154.6831 C   0  0  0  0  0  0  0  0  0  0  0  0
  146.3585  130.1513  151.0194 H   0  0  0  0  0  0  0  0  0  0  0  0
  144.7581  129.7026  151.6063 H   0  0  0  0  0  0  0  0  0  0  0  0
  145.8269  130.6680  152.6154 H   0  0  0  0  0  0  0  0  0  0  0  0
  144.5389  135.5429  149.1851 H   0  0  0  0  0  0  0  0  0  0  0  0
  144.8633  135.8820  150.8836 H   0  0  0  0  0  0  0  0  0  0  0  0
  143.2126  135.5627  150.3493 H   0  0  0  0  0  0  0  0  0  0  0  0
  146.2455  132.9175  153.2277 H   0  0  0  0  0  0  0  0  0  0  0  0
  147.1540  133.7724  152.0125 H   0  0  0  0  0  0  0  0  0  0  0  0
  147.2227  135.9059  152.1834 H   0  0  0  0  0  0  0  0  0  0  0  0
  145.1427  137.3652  153.6904 H   0  0  0  0  0  0  0  0  0  0  0  0
  145.9236  139.4050  152.5067 H   0  0  0  0  0  0  0  0  0  0  0  0
  145.3542  138.1708  151.3890 H   0  0  0  0  0  0  0  0  0  0  0  0
  147.0817  138.4398  151.5947 H   0  0  0  0  0  0  0  0  0  0  0  0
  146.5210  138.1269  155.2117 H   0  0  0  0  0  0  0  0  0  0  0  0
  147.5864  136.8263  154.7991 H   0  0  0  0  0  0  0  0  0  0  0  0
  146.8359  140.3376  154.0950 H   0  0  0  0  0  0  0  0  0  0  0  0
  147.5839  140.0117  155.6418 H   0  0  0  0  0  0  0  0  0  0  0  0
  148.9739  141.2429  153.2004 H   0  0  0  0  0  0  0  0  0  0  0  0
  148.5345  142.0755  154.6813 H   0  0  0  0  0  0  0  0  0  0  0  0
  150.7537  139.5194  153.3396 H   0  0  0  0  0  0  0  0  0  0  0  0
  151.4650  139.2102  154.9131 H   0  0  0  0  0  0  0  0  0  0  0  0
  149.3645  138.2496  155.7604 H   0  0  0  0  0  0  0  0  0  0  0  0
  149.8368  137.4456  154.2776 H   0  0  0  0  0  0  0  0  0  0  0  0
  1  2  1  0  0  0  0
  1 21  1  0  0  0  0
  1 22  1  0  0  0  0
  1 23  1  0  0  0  0
  2  7  1  0  0  0  0
  2  3  2  0  0  0  0
  3  4  1  0  0  0  0
  4  5  1  0  0  0  0
  5  6  1  0  0  0  0
  5  7  2  0  0  0  0
  6 24  1  0  0  0  0
  6 25  1  0  0  0  0
  6 26  1  0  0  0  0
  7  8  1  0  0  0  0
  8  9  1  0  0  0  0
  8 27  1  0  0  0  0
  8 28  1  0  0  0  0
  9 10  2  0  0  0  0
  9 11  1  0  0  0  0
 11 12  1  0  0  0  0
 11 29  1  0  0  0  0
 12 13  1  0  0  0  0
 12 14  1  0  0  0  0
 12 30  1  0  0  0  0
 13 31  1  0  0  0  0
 13 32  1  0  0  0  0
 13 33  1  0  0  0  0
 14 15  1  0  0  0  0
 14 34  1  0  0  0  0
 14 35  1  0  0  0  0
 15 20  1  0  0  0  0
 15 16  1  0  0  0  0
 16 17  1  0  0  0  0
 16 36  1  0  0  0  0
 16 37  1  0  0  0  0
 17 18  1  0  0  0  0
 17 38  1  0  0  0  0
 17 39  1  0  0  0  0
 18 19  1  0  0  0  0
 19 20  1  0  0  0  0
 19 40  1  0  0  0  0
 19 41  1  0  0  0  0
 20 42  1  0  0  0  0
 20 43  1  0  0  0  0
M  END
> <s_m_source_file>
AV-unprocessed.smi

> <i_m_source_file_index>
1436

> <i_lp_mmshare_version>
43012

> <i_f3d_flags>
0

> <s_epik_input>
W0NIM11jMW5vYyhbQ0gzXSljMVtDSDJdQyg9TylbTkhdW0NASF0oW0NIM10pW0NIMl1OMltDSDJdW0NIMl1PW0NIMl1bQ0gyXTI=

> <s_epik_cmdline>
J2VwaWtfcHl0aG9uJywgJy1waCcsICc3LjAnLCAnLXRuJywgJzgnLCAnLW1hJywgJzIwMCcsICctbWV0YWxfYmluZGluZycsICctaW1hZScsICc8aW5maWxlLm1hZT4nLCAnLW9tYWUnLCAnPG91dGZpbGUubWFlPic=

> <r_epik_Ionization_Penalty>
0.234179

> <r_epik_Ionization_Penalty_Charging>
0

> <r_epik_Ionization_Penalty_Neutral>
0.234179

> <r_epik_State_Penalty>
0.224936

> <r_epik_Charging_Adjusted_Penalty>
0.224936

> <i_epik_Tot_Q>
0

> <i_epik_Tot_abs_Q>
0

> <r_epik_Metal_State_Penalty>
0.224936

> <b_epik_Metal_Only>
0

> <s_lp_Force_Field>
OPLS_2005

> <r_lp_Energy>
20.5604

> <b_lp_Chiralities_Consistent>
1

> <s_lp_Variant>
AV-unprocessed.smi:1436-1

> <Gold.Version>
5.8.1

> <Gold.Id.Protein>
6NUR|6NUR_protein|mol2

> <Gold.PLP.Fitness>
33.0491

> <Gold.PLP.PLP>
-31.9009

> <Gold.PLP.part.hbond>
-3.0000

> <Gold.PLP.part.metal>
0.0000

> <Gold.PLP.part.buried>
-3.7546

> <Gold.PLP.part.nonpolar>
-26.5220

> <Gold.PLP.part.repulsive>
1.0469

> <Gold.PLP.ligand.clash>
0.0000

> <Gold.PLP.ligand.torsion>
1.7063

> <Gold.PLP.Chemscore.Hbond>
1.5023

> <Gold.PLP.Chemscore.CHOScore>
0.0000

> <Gold.PLP.Chemscore.Metal>
0.0000

> <Gold.Chemscore.Hbonds>
donor molecule, donor type, donor heavy atom, donor atom, acceptor molecule, acceptor atom, score
      L1  H    11    29       P1  7948  1.00
      P1  H 10785 10796       L1     3  0.49

> <Gold.PLP.Chemscore.Internal.Correction>
0.0538

> <Gold.Rescore>
     Score         DG    S(hbond)    S(metal)    S(lipo)     H(rot)  DE(clash)    DE(int)     intcor
     14.37     -16.52       1.55        0.00      87.57       1.71       0.52       1.63       ----

> <Gold.Chemscore.Fitness>
14.3739

> <Gold.Chemscore.DG>
-16.5160

> <Gold.Chemscore.ZeroCoef>
-5.4800

> <Gold.Chemscore.Hbond>
1.5508

> <Gold.Chemscore.Metal>
0.0000

> <Gold.Chemscore.Lipo>
87.5675

> <Gold.Chemscore.Internal_Hbond>
0.0000

> <Gold.Chemscore.DEClash>
0.5160

> <Gold.Chemscore.DEInternal>
1.6261

> <Gold.Chemscore.Rot>
1.7145

> <Gold.Chemscore.Internal.Correction>
   9.000000E+99

> <Gold.Chemscore.Hbonds>
donor molecule, donor type, donor heavy atom, donor atom, acceptor molecule, acceptor atom, score
      L1  H    11    29       P1  7948  0.97
      P1  H 10785 10796       L1     3  0.46

> <Gold.Chemscore.Hbond.Weighted>
-5.1797

> <Gold.Chemscore.Metal.Weighted>
-0.0000

> <Gold.Chemscore.Lipo.Weighted>
-10.2454

> <Gold.Chemscore.Internal_Hbond.Weighted>
0.0000

> <Gold.Chemscore.DEClash.Weighted>
0.5160

> <Gold.Chemscore.DEInternal.Weighted>
1.6261

> <Gold.Chemscore.Rot.Weighted>
4.3891

> <Gold.Chemscore.Internal.Correction.Weighted>
   9.000000E+99

> <Gold.Protein.RotatedTorsions>
[ 6907 6896 6895 6894 ] final   61.48 input  -60.11 | X-H torsion
[ 7974 7965 7964 7962 ] final -100.07 input  175.53 | X-H torsion
[ 8008 7997 7996 7995 ] final   23.59 input   59.86 | X-H torsion
[ 10167 10162 10161 10158 ] final -131.28 input  -65.29 | X-H torsion
[ 10718 10713 10712 10709 ] final  -69.40 input   66.30 | X-H torsion
[ 10763 10752 10751 10750 ] final   12.20 input  -60.55 | X-H torsion
[ 11005 11000 10999 10996 ] final  -23.36 input  -57.11 | X-H torsion

> <Gold.Protein.ActiveResidues>
 VAL166  LYS551  ARG553  GLY616  TRP617  ASP618  TYR619  PRO620  LYS621  CYS622 
 ASP623  PHE694  ASN695  SER759  ASP760  ASP761  ALA762  ILE779  LEU786  VAL792 
 PHE793  MET794  SER795  GLU796  ALA797  LYS798  CYS799  TRP800  GLU811  SER814 

> <Gold.Protein.RotatedAtoms>
  152.4092  134.6153  160.0036 H   0  0  0  0  0  0  0  0  0  0  0  0  # atno 6907 bound_to 6896
  151.6335  133.3325  159.3122 H   0  0  0  0  0  0  0  0  0  0  0  0  # atno 6908 bound_to 6896
  150.7984  134.7102  159.6644 H   0  0  0  0  0  0  0  0  0  0  0  0  # atno 6909 bound_to 6896
  145.2993  140.9373  143.2833 H   0  0  0  0  0  0  0  0  0  0  0  0  # atno 7974 bound_to 7965
  154.9833  140.3105  155.4937 H   0  0  0  0  0  0  0  0  0  0  0  0  # atno 8008 bound_to 7997
  156.2950  140.2262  156.4873 H   0  0  0  0  0  0  0  0  0  0  0  0  # atno 8009 bound_to 7997
  154.7769  140.0448  157.1084 H   0  0  0  0  0  0  0  0  0  0  0  0  # atno 8010 bound_to 7997
  139.9206  143.6387  152.2554 H   0  0  0  0  0  0  0  0  0  0  0  0  # atno 10167 bound_to 10162
  156.0457  130.4312  150.2141 H   0  0  0  0  0  0  0  0  0  0  0  0  # atno 10718 bound_to 10713
  153.1847  135.6833  153.8431 H   0  0  0  0  0  0  0  0  0  0  0  0  # atno 10763 bound_to 10752
  153.7751  135.3190  155.3359 H   0  0  0  0  0  0  0  0  0  0  0  0  # atno 10764 bound_to 10752
  154.8081  135.4735  154.0541 H   0  0  0  0  0  0  0  0  0  0  0  0  # atno 10765 bound_to 10752
  140.8744  133.7697  156.0226 H   0  0  0  0  0  0  0  0  0  0  0  0  # atno 11005 bound_to 11000
  144.9107  139.4532  143.6588 LP  0  0  0  0  0  0  0  0  0  0  0  0  # atno 17320 bound_to 7965
  146.3158  139.7913  142.8985 LP  0  0  0  0  0  0  0  0  0  0  0  0  # atno 17321 bound_to 7965
  139.6865  144.7651  151.1515 LP  0  0  0  0  0  0  0  0  0  0  0  0  # atno 17342 bound_to 10162
  140.7663  143.5650  150.9058 LP  0  0  0  0  0  0  0  0  0  0  0  0  # atno 17343 bound_to 10162
  157.0231  130.9985  151.3334 LP  0  0  0  0  0  0  0  0  0  0  0  0  # atno 17370 bound_to 10713
  157.5330  130.8070  149.7939 LP  0  0  0  0  0  0  0  0  0  0  0  0  # atno 17371 bound_to 10713
  140.8535  134.2926  157.5265 LP  0  0  0  0  0  0  0  0  0  0  0  0  # atno 17394 bound_to 11000
  139.8714  134.9480  156.3984 LP  0  0  0  0  0  0  0  0  0  0  0  0  # atno 17395 bound_to 11000

$$$$
