#       Name:                AV-unprocessed.smi:309
#       Creating user name   scv26
#       Creation time:       Thu Mar 26 22:19:34 2020


#       File generated by GOLD software.
#

@<TRIPOS>MOLECULE
AV-unprocessed.smi:309
    41    43     1
SMALL
NO_CHARGES


@<TRIPOS>ATOM
      1 ****        -1.5721   3.4202  -0.4841 O.3            1 S1                 0.0000
      2 ****        -1.6963   2.8648   0.8056 C.3            1 S1                 0.0000
      3 ****        -2.0426   1.4124   0.7670 C.2            1 S1                 0.0000
      4 ****        -3.3055   0.9000   0.7900 N.pl3          1 S1                 1.0000
      5 ****        -3.2529  -0.4930   0.7344 C.ar           1 S1                 0.0000
      6 ****        -4.2683  -1.4446   0.7350 C.ar           1 S1                 0.0000
      7 ****        -3.8692  -2.7957   0.6683 C.ar           1 S1                 0.0000
      8 ****        -2.5076  -3.1568   0.6040 C.ar           1 S1                 0.0000
      9 ****        -1.4877  -2.1827   0.6039 C.ar           1 S1                 0.0000
     10 ****        -1.8905  -0.8493   0.6702 C.ar           1 S1                 0.0000
     11 ****        -1.1800   0.3563   0.6898 N.pl3          1 S1                 0.0000
     12 ****         0.2906   0.3169   0.6291 C.3            1 S1                 0.0000
     13 ****         0.8341   0.1591  -0.8057 C.3            1 S1                 0.0000
     14 ****         0.3618   1.2216  -1.6122 O.3            1 S1                 0.0000
     15 ****         2.3571   0.0581  -0.8045 C.ar           1 S1                 0.0000
     16 ****         3.1334   1.2401  -0.7857 C.ar           1 S1                 0.0000
     17 ****         4.5397   1.1764  -0.7715 C.ar           1 S1                 0.0000
     18 ****         5.4688   2.6298  -0.7481 Cl             1 S1                 0.0000
     19 ****         5.1863  -0.0727  -0.7732 C.ar           1 S1                 0.0000
     20 ****         4.4244  -1.2554  -0.7826 C.ar           1 S1                 0.0000
     21 ****         3.0162  -1.1979  -0.7938 C.ar           1 S1                 0.0000
     22 ****         2.1363  -2.6864  -0.7818 Cl             1 S1                 0.0000
     23 ****        -0.8574   2.9872  -0.9273 H              1 S1                 0.0000
     24 ****        -0.7669   3.0135   1.3543 H              1 S1                 0.0000
     25 ****        -2.4732   3.4054   1.3467 H              1 S1                 0.0000
     26 ****        -5.3118  -1.1703   0.7845 H              1 S1                 0.0000
     27 ****        -4.6220  -3.5707   0.6666 H              1 S1                 0.0000
     28 ****        -2.2395  -4.2023   0.5543 H              1 S1                 0.0000
     29 ****        -0.4484  -2.4705   0.5558 H              1 S1                 0.0000
     30 ****         0.6721   1.2329   1.0803 H              1 S1                 0.0000
     31 ****         0.6376  -0.4983   1.2655 H              1 S1                 0.0000
     32 ****         0.4126  -0.7414  -1.2500 H              1 S1                 0.0000
     33 ****         0.6214   1.0567  -2.5062 H              1 S1                 0.0000
     34 ****         2.6514   2.2070  -0.7766 H              1 S1                 0.0000
     35 ****         6.2651  -0.1260  -0.7620 H              1 S1                 0.0000
     36 ****         4.9245  -2.2129  -0.7762 H              1 S1                 0.0000
     37 ****        -4.1420   1.4674   0.8378 H              1 S1                 0.0000
     38 ****        -1.3822   4.3995  -0.4135 LP             1 S1                 0.0000
     39 ****        -2.4204   3.2812  -0.9951 LP             1 S1                 0.0000
     40 ****         0.7581   2.0848  -1.2994 LP             1 S1                 0.0000
     41 ****        -0.6352   1.2721  -1.5541 LP             1 S1                 0.0000
@<TRIPOS>BOND
    1    1    2 1     
    2    1   23 1     
    3    2    3 1     
    4    2   24 1     
    5    2   25 1     
    6    3   11 1     
    7    3    4 2     
    8    4    5 1     
    9    4   37 1     
   10    5   10 ar    
   11    5    6 ar    
   12    6    7 ar    
   13    6   26 1     
   14    7    8 ar    
   15    7   27 1     
   16    8    9 ar    
   17    8   28 1     
   18    9   10 ar    
   19    9   29 1     
   20   10   11 1     
   21   11   12 1     
   22   12   13 1     
   23   12   30 1     
   24   12   31 1     
   25   13   14 1     
   26   13   15 1     
   27   13   32 1     
   28   14   33 1     
   29   15   21 ar    
   30   15   16 ar    
   31   16   17 ar    
   32   16   34 1     
   33   17   18 1     
   34   17   19 ar    
   35   19   20 ar    
   36   19   35 1     
   37   20   21 ar    
   38   20   36 1     
   39   21   22 1     
   40    1   38 1     
   41    1   39 1     
   42   14   40 1     
   43   14   41 1     
@<TRIPOS>SUBSTRUCTURE
      1 S1             1
@<TRIPOS>SET
LONE_PAIRS      STATIC     ATOMS    <user>   **** ""
4 38 39 40 41
DONOR_HYDROGENS      STATIC     ATOMS    <user>   **** ""
3 23 37 33
ATOM$BLUE        STATIC     ATOMS    COLORGROUP SYSTEM
4 38 39 40 41
ATOM$RED        STATIC     ATOMS    COLORGROUP SYSTEM
3 23 37 33
