AV-unprocessed.smi:3100|AV-procd|sdf|11805|dock7
  -GOLD-   2272017183D 1   1.00000     0.00000
 Structure written by MMmdl.
 28 29  0  0  0  0  0  0  0  0  1 V2000
  152.4199  143.7136  161.3892 C   0  0  0  0  0  0  0  0  0  0  0  0
  151.7420  143.9640  160.0383 C   0  0  1  0  0  0  0  0  0  0  0  0
  152.7115  144.2519  158.8978 C   0  0  0  0  0  0  0  0  0  0  0  0
  151.8531  143.9547  157.6851 C   0  0  0  0  0  0  0  0  0  0  0  0
  150.9067  142.8450  158.1776 C   0  0  1  0  0  0  0  0  0  0  0  0
  151.2349  141.4565  157.6160 C   0  0  0  0  0  0  0  0  0  0  0  0
  151.7007  140.5904  158.3577 O   0  0  0  0  0  0  0  0  0  0  0  0
  150.9655  141.2777  156.3096 N   0  0  0  0  0  0  0  0  0  0  0  0
  151.1783  140.1157  155.5220 C   0  0  0  0  0  0  0  0  0  0  0  0
  152.1887  139.2381  155.9813 C   0  0  0  0  0  0  0  0  0  0  0  0
  152.5047  138.0904  155.3410 N   0  0  0  0  0  0  0  0  0  0  0  0
  151.8028  137.8103  154.2223 C   0  0  0  0  0  0  0  0  0  0  0  0
  150.7928  138.6721  153.7501 C   0  0  0  0  0  0  0  0  0  0  0  0
  150.4820  139.8172  154.3953 N   0  0  0  0  0  0  0  0  0  0  0  0
  151.0632  142.7978  159.5953 O   0  0  0  0  0  0  0  0  0  0  0  0
  152.9715  144.5944  161.7191 H   0  0  0  0  0  0  0  0  0  0  0  0
  153.1207  142.8802  161.3315 H   0  0  0  0  0  0  0  0  0  0  0  0
  151.6825  143.4754  162.1559 H   0  0  0  0  0  0  0  0  0  0  0  0
  151.0186  144.7766  160.1237 H   0  0  0  0  0  0  0  0  0  0  0  0
  153.0965  145.2719  158.9102 H   0  0  0  0  0  0  0  0  0  0  0  0
  153.5582  143.5644  158.9322 H   0  0  0  0  0  0  0  0  0  0  0  0
  151.2728  144.8378  157.4144 H   0  0  0  0  0  0  0  0  0  0  0  0
  152.4504  143.6789  156.8146 H   0  0  0  0  0  0  0  0  0  0  0  0
  149.8754  143.1122  157.9412 H   0  0  0  0  0  0  0  0  0  0  0  0
  150.5663  142.0675  155.8236 H   0  0  0  0  0  0  0  0  0  0  0  0
  152.7528  139.4571  156.8764 H   0  0  0  0  0  0  0  0  0  0  0  0
  152.0462  136.8955  153.7024 H   0  0  0  0  0  0  0  0  0  0  0  0
  150.2339  138.4429  152.8548 H   0  0  0  0  0  0  0  0  0  0  0  0
  1  2  1  0  0  0  0
  1 16  1  0  0  0  0
  1 17  1  0  0  0  0
  1 18  1  0  0  0  0
  2 15  1  0  0  0  0
  2  3  1  0  0  0  0
  2 19  1  0  0  0  0
  3  4  1  0  0  0  0
  3 20  1  0  0  0  0
  3 21  1  0  0  0  0
  4  5  1  0  0  0  0
  4 22  1  0  0  0  0
  4 23  1  0  0  0  0
  5  6  1  0  0  0  0
  5 15  1  0  0  0  0
  5 24  1  0  0  0  0
  6  7  2  0  0  0  0
  6  8  1  0  0  0  0
  8  9  1  0  0  0  0
  8 25  1  0  0  0  0
  9 14  1  0  0  0  0
  9 10  2  0  0  0  0
 10 11  1  0  0  0  0
 10 26  1  0  0  0  0
 11 12  2  0  0  0  0
 12 13  1  0  0  0  0
 12 27  1  0  0  0  0
 13 14  2  0  0  0  0
 13 28  1  0  0  0  0
M  END
> <s_m_source_file>
AV-unprocessed.smi

> <i_m_source_file_index>
3100

> <i_lp_mmshare_version>
43012

> <i_f3d_flags>
0

> <s_epik_input>
W0NIM11bQ0BASF0xW0NIMl1bQ0gyXVtDQEhdKE8xKUMoPU8pW05IXWMyW2NIXW5bY0hdW2NIXW4y

> <s_epik_cmdline>
J2VwaWtfcHl0aG9uJywgJy1waCcsICc3LjAnLCAnLXRuJywgJzgnLCAnLW1hJywgJzIwMCcsICctbWV0YWxfYmluZGluZycsICctaW1hZScsICc8aW5maWxlLm1hZT4nLCAnLW9tYWUnLCAnPG91dGZpbGUubWFlPic=

> <r_lp_tautomer_probability>
1

> <r_epik_Ionization_Penalty>
2.81186e-06

> <r_epik_Ionization_Penalty_Charging>
0

> <r_epik_Ionization_Penalty_Neutral>
2.81186e-06

> <r_epik_State_Penalty>
-0

> <r_epik_Charging_Adjusted_Penalty>
0

> <i_epik_Tot_Q>
0

> <i_epik_Tot_abs_Q>
0

> <r_epik_Metal_State_Penalty>
-0

> <b_epik_Metal_Only>
0

> <s_lp_Force_Field>
OPLS_2005

> <r_lp_Energy>
25.9666

> <b_lp_Chiralities_Consistent>
1

> <s_lp_Variant>
AV-unprocessed.smi:3100-2

> <Gold.Version>
5.8.1

> <Gold.Id.Protein>
6NUR|6NUR_protein|mol2

> <Gold.PLP.Fitness>
41.7092

> <Gold.PLP.PLP>
-33.0565

> <Gold.PLP.part.hbond>
-1.7203

> <Gold.PLP.part.metal>
0.0000

> <Gold.PLP.part.buried>
-4.7171

> <Gold.PLP.part.nonpolar>
-27.0147

> <Gold.PLP.part.repulsive>
0.2416

> <Gold.PLP.ligand.clash>
0.0000

> <Gold.PLP.ligand.torsion>
0.3036

> <Gold.PLP.Chemscore.Hbond>
0.3600

> <Gold.PLP.Chemscore.CHOScore>
2.7240

> <Gold.PLP.Chemscore.Metal>
0.0000

> <Gold.Chemscore.Hbonds>
donor molecule, donor type, donor heavy atom, donor atom, acceptor molecule, acceptor atom, score
      P1  H  7989  7998       L1    14  0.32
      L1  C    12    27       P1  7949  0.97
      L1  C    13    28       P1  7948  0.56
      L1  C    13    28       P1  7957  0.92

> <Gold.PLP.Chemscore.Internal.Correction>
0.0076

> <Gold.Rescore>
     Score         DG    S(hbond)    S(metal)    S(lipo)     H(rot)  DE(clash)    DE(int)     intcor
     13.07     -15.01       0.69        0.00      83.64       1.00       0.32       1.62       ----

> <Gold.Chemscore.Fitness>
13.0712

> <Gold.Chemscore.DG>
-15.0086

> <Gold.Chemscore.ZeroCoef>
-5.4800

> <Gold.Chemscore.Hbond>
0.6895

> <Gold.Chemscore.Metal>
0.0000

> <Gold.Chemscore.Lipo>
83.6370

> <Gold.Chemscore.Internal_Hbond>
0.0000

> <Gold.Chemscore.DEClash>
0.3186

> <Gold.Chemscore.DEInternal>
1.6187

> <Gold.Chemscore.Rot>
1.0000

> <Gold.Chemscore.Internal.Correction>
   9.000000E+99

> <Gold.Chemscore.Hbond.Weighted>
-2.3030

> <Gold.Chemscore.Metal.Weighted>
-0.0000

> <Gold.Chemscore.Lipo.Weighted>
-9.7855

> <Gold.Chemscore.Internal_Hbond.Weighted>
0.0000

> <Gold.Chemscore.DEClash.Weighted>
0.3186

> <Gold.Chemscore.DEInternal.Weighted>
1.6187

> <Gold.Chemscore.Rot.Weighted>
2.5600

> <Gold.Chemscore.Internal.Correction.Weighted>
   9.000000E+99

> <Gold.Protein.RotatedTorsions>
[ 6907 6896 6895 6894 ] final -130.00 input  -60.11 | X-H torsion
[ 7974 7965 7964 7962 ] final  119.99 input  175.53 | X-H torsion
[ 8008 7997 7996 7995 ] final  151.80 input   59.86 | X-H torsion
[ 10167 10162 10161 10158 ] final  135.27 input  -65.29 | X-H torsion
[ 10718 10713 10712 10709 ] final -145.99 input   66.30 | X-H torsion
[ 10763 10752 10751 10750 ] final   14.43 input  -60.55 | X-H torsion
[ 11005 11000 10999 10996 ] final  104.72 input  -57.11 | X-H torsion

> <Gold.Protein.ActiveResidues>
 VAL166  LYS551  ARG553  GLY616  TRP617  ASP618  TYR619  PRO620  LYS621  CYS622 
 ASP623  PHE694  ASN695  SER759  ASP760  ASP761  ALA762  ILE779  LEU786  VAL792 
 PHE793  MET794  SER795  GLU796  ALA797  LYS798  CYS799  TRP800  GLU811  SER814 

> <Gold.Protein.RotatedAtoms>
  150.9349  133.6723  159.2802 H   0  0  0  0  0  0  0  0  0  0  0  0  # atno 6907 bound_to 6896
  151.4132  135.0986  159.9601 H   0  0  0  0  0  0  0  0  0  0  0  0  # atno 6908 bound_to 6896
  152.5043  133.8818  159.7405 H   0  0  0  0  0  0  0  0  0  0  0  0  # atno 6909 bound_to 6896
  145.1365  139.3294  143.4638 H   0  0  0  0  0  0  0  0  0  0  0  0  # atno 7974 bound_to 7965
  156.2658  140.2038  156.6232 H   0  0  0  0  0  0  0  0  0  0  0  0  # atno 8008 bound_to 7997
  154.6740  140.0547  157.0220 H   0  0  0  0  0  0  0  0  0  0  0  0  # atno 8009 bound_to 7997
  155.1096  140.3214  155.4528 H   0  0  0  0  0  0  0  0  0  0  0  0  # atno 8010 bound_to 7997
  139.5223  144.6525  151.5259 H   0  0  0  0  0  0  0  0  0  0  0  0  # atno 10167 bound_to 10162
  156.3893  130.7877  151.2078 H   0  0  0  0  0  0  0  0  0  0  0  0  # atno 10718 bound_to 10713
  153.1622  135.6798  153.8726 H   0  0  0  0  0  0  0  0  0  0  0  0  # atno 10763 bound_to 10752
  153.8117  135.3142  155.3402 H   0  0  0  0  0  0  0  0  0  0  0  0  # atno 10764 bound_to 10752
  154.7940  135.4818  154.0208 H   0  0  0  0  0  0  0  0  0  0  0  0  # atno 10765 bound_to 10752
  139.8794  134.9310  156.5404 H   0  0  0  0  0  0  0  0  0  0  0  0  # atno 11005 bound_to 11000
  146.3509  140.1385  142.8595 LP  0  0  0  0  0  0  0  0  0  0  0  0  # atno 17320 bound_to 7965
  145.0579  140.9066  143.4956 LP  0  0  0  0  0  0  0  0  0  0  0  0  # atno 17321 bound_to 7965
  140.6336  143.9027  150.6628 LP  0  0  0  0  0  0  0  0  0  0  0  0  # atno 17342 bound_to 10162
  140.2339  143.3715  152.1543 LP  0  0  0  0  0  0  0  0  0  0  0  0  # atno 17343 bound_to 10162
  157.7498  131.0320  150.4208 LP  0  0  0  0  0  0  0  0  0  0  0  0  # atno 17370 bound_to 10713
  156.4466  130.4003  149.6662 LP  0  0  0  0  0  0  0  0  0  0  0  0  # atno 17371 bound_to 10713
  140.8315  133.8275  155.8988 LP  0  0  0  0  0  0  0  0  0  0  0  0  # atno 17394 bound_to 11000
  140.9324  134.2004  157.4854 LP  0  0  0  0  0  0  0  0  0  0  0  0  # atno 17395 bound_to 11000

$$$$
