AV-unprocessed.smi:2189|AV-procd|sdf|8887|dock1
  -GOLD-   2272012 83D 1   1.00000     0.00000
 Structure written by MMmdl.
 39 41  0  0  0  0  0  0  0  0  3 V2000
  150.7841  140.5292  154.9933 O   0  0  0  0  0  0  0  0  0  0  0  0
  151.0236  140.1555  156.1489 C   0  0  0  0  0  0  0  0  0  0  0  0
  150.8572  138.8808  156.6186 N   0  5  0  0  0  0  0  0  0  0  0  0
  151.1240  137.6520  155.8677 C   0  0  0  0  0  0  0  0  0  0  0  0
  149.8053  136.8852  155.6249 C   0  0  0  0  0  0  0  0  0  0  0  0
  149.9736  135.3873  155.3862 C   0  0  0  0  0  0  0  0  0  0  0  0
  150.5787  134.5420  156.3441 C   0  0  0  0  0  0  0  0  0  0  0  0
  150.7034  133.1643  156.0722 C   0  0  0  0  0  0  0  0  0  0  0  0
  150.2287  132.6574  154.8451 C   0  0  0  0  0  0  0  0  0  0  0  0
  149.6392  133.5431  153.9203 C   0  0  0  0  0  0  0  0  0  0  0  0
  149.5368  134.8568  154.2180 N   0  3  0  0  0  0  0  0  0  0  0  0
  151.5004  141.1442  157.1325 C   0  0  0  0  0  0  0  0  0  0  0  0
  150.9780  142.3979  157.0936 C   0  0  0  0  0  0  0  0  0  0  0  0
  151.3792  143.4176  158.0303 C   0  0  0  0  0  0  0  0  0  0  0  0
  152.3135  143.1064  158.9351 C   0  0  0  0  0  0  0  0  0  0  0  0
  152.9138  141.8505  159.0129 N   0  0  0  0  0  0  0  0  0  0  0  0
  153.9828  141.6880  159.9922 C   0  0  0  0  0  0  0  0  0  0  0  0
  153.8716  140.3385  160.6780 C   0  0  0  0  0  0  0  0  0  0  0  0
  154.1201  139.0903  159.3648 S   0  0  0  0  0  0  0  0  0  0  0  0
  155.4534  139.3029  158.7798 O   0  0  0  0  0  0  0  0  0  0  0  0
  153.7775  137.7716  159.9187 O   0  0  0  0  0  0  0  0  0  0  0  0
  152.9511  139.5695  158.2653 N   0  0  0  0  0  0  0  0  0  0  0  0
  152.5077  140.7901  158.1539 C   0  0  0  0  0  0  0  0  0  0  0  0
  151.5983  137.8370  154.9029 H   0  0  0  0  0  0  0  0  0  0  0  0
  151.8103  137.0030  156.4116 H   0  0  0  0  0  0  0  0  0  0  0  0
  149.1488  137.0225  156.4847 H   0  0  0  0  0  0  0  0  0  0  0  0
  149.2770  137.3219  154.7761 H   0  0  0  0  0  0  0  0  0  0  0  0
  150.9314  134.9454  157.2822 H   0  0  0  0  0  0  0  0  0  0  0  0
  151.1562  132.5047  156.7976 H   0  0  0  0  0  0  0  0  0  0  0  0
  150.3133  131.6049  154.6177 H   0  0  0  0  0  0  0  0  0  0  0  0
  149.2465  133.2430  152.9600 H   0  0  0  0  0  0  0  0  0  0  0  0
  150.2460  142.6708  156.3468 H   0  0  0  0  0  0  0  0  0  0  0  0
  150.9373  144.4027  158.0022 H   0  0  0  0  0  0  0  0  0  0  0  0
  152.6557  143.8278  159.6626 H   0  0  0  0  0  0  0  0  0  0  0  0
  154.9476  141.7946  159.4954 H   0  0  0  0  0  0  0  0  0  0  0  0
  153.9338  142.4712  160.7494 H   0  0  0  0  0  0  0  0  0  0  0  0
  154.6395  140.2047  161.4394 H   0  0  0  0  0  0  0  0  0  0  0  0
  152.8941  140.1907  161.1386 H   0  0  0  0  0  0  0  0  0  0  0  0
  149.0996  135.4787  153.5377 H   0  0  0  0  0  0  0  0  0  0  0  0
  1  2  2  0  0  0  0
  2  3  1  0  0  0  0
  2 12  1  0  0  0  0
  3  4  1  0  0  0  0
  4  5  1  0  0  0  0
  4 24  1  0  0  0  0
  4 25  1  0  0  0  0
  5  6  1  0  0  0  0
  5 26  1  0  0  0  0
  5 27  1  0  0  0  0
  6 11  1  0  0  0  0
  6  7  2  0  0  0  0
  7  8  1  0  0  0  0
  7 28  1  0  0  0  0
  8  9  2  0  0  0  0
  8 29  1  0  0  0  0
  9 10  1  0  0  0  0
  9 30  1  0  0  0  0
 10 11  2  0  0  0  0
 10 31  1  0  0  0  0
 11 39  1  0  0  0  0
 12 23  1  0  0  0  0
 12 13  2  0  0  0  0
 13 14  1  0  0  0  0
 13 32  1  0  0  0  0
 14 15  2  0  0  0  0
 14 33  1  0  0  0  0
 15 16  1  0  0  0  0
 15 34  1  0  0  0  0
 16 23  1  0  0  0  0
 16 17  1  0  0  0  0
 17 18  1  0  0  0  0
 17 35  1  0  0  0  0
 17 36  1  0  0  0  0
 18 19  1  0  0  0  0
 18 37  1  0  0  0  0
 18 38  1  0  0  0  0
 19 20  2  0  0  0  0
 19 21  2  0  0  0  0
 19 22  1  0  0  0  0
 22 23  2  0  0  0  0
M  CHG  1   3  -1
M  CHG  1  11   1
M  END
> <s_m_source_file>
AV-unprocessed.smi

> <i_m_source_file_index>
2189

> <i_lp_mmshare_version>
43012

> <i_f3d_flags>
0

> <s_epik_input>
W0NIMl0xW0NIMl1TKD1PKSg9TylOPUMoTjEyKUMoPVtDSF1bQ0hdPVtDSF0yKUMoPU8pW05IXVtDSDJdW0NIMl1jM1tjSF1bY0hdW2NIXVtjSF1uMw==

> <s_epik_cmdline>
J2VwaWtfcHl0aG9uJywgJy1waCcsICc3LjAnLCAnLXRuJywgJzgnLCAnLW1hJywgJzIwMCcsICctbWV0YWxfYmluZGluZycsICctaW1hZScsICc8aW5maWxlLm1hZT4nLCAnLW9tYWUnLCAnPG91dGZpbGUubWFlPic=

> <r_epik_Ionization_Penalty>
6.52844

> <r_epik_Ionization_Penalty_Charging>
6.52844

> <r_epik_Ionization_Penalty_Neutral>
1.18271e-13

> <r_epik_State_Penalty>
7.49351

> <r_epik_Charging_Adjusted_Penalty>
14.0219

> <i_epik_Tot_Q>
0

> <i_epik_Tot_abs_Q>
2

> <r_epik_Metal_State_Penalty>
3.53414

> <b_epik_Metal_Only>
1

> <s_lp_Force_Field>
OPLS_2005

> <r_lp_Energy>
35.7172

> <b_lp_Chiralities_Consistent>
1

> <s_lp_Variant>
AV-unprocessed.smi:2189-4

> <Gold.Version>
5.8.1

> <Gold.Id.Protein>
6NUR|6NUR_protein|mol2

> <Gold.PLP.Fitness>
50.9632

> <Gold.PLP.PLP>
-40.1887

> <Gold.PLP.part.hbond>
-3.5114

> <Gold.PLP.part.metal>
0.0000

> <Gold.PLP.part.buried>
-5.3631

> <Gold.PLP.part.nonpolar>
-31.5016

> <Gold.PLP.part.repulsive>
0.0954

> <Gold.PLP.ligand.clash>
0.0000

> <Gold.PLP.ligand.torsion>
0.9767

> <Gold.PLP.Chemscore.Hbond>
4.0000

> <Gold.PLP.Chemscore.CHOScore>
0.0000

> <Gold.PLP.Chemscore.Metal>
0.0000

> <Gold.Chemscore.Hbonds>
donor molecule, donor type, donor heavy atom, donor atom, acceptor molecule, acceptor atom, score
      L1  H    11    39       P1  7948  2.00
      P1  H  7989  7998       L1     1  1.00
      P1  H  7997  8010       L1    20  1.00

> <Gold.PLP.Chemscore.Internal.Correction>
0.7279

> <Gold.Rescore>
     Score         DG    S(hbond)    S(metal)    S(lipo)     H(rot)  DE(clash)    DE(int)     intcor
     18.64     -21.10       2.71        0.00      89.27       1.51       0.06       2.41       ----

> <Gold.Chemscore.Fitness>
18.6384

> <Gold.Chemscore.DG>
-21.1047

> <Gold.Chemscore.ZeroCoef>
-5.4800

> <Gold.Chemscore.Hbond>
2.7088

> <Gold.Chemscore.Metal>
0.0000

> <Gold.Chemscore.Lipo>
89.2750

> <Gold.Chemscore.Internal_Hbond>
0.0000

> <Gold.Chemscore.DEClash>
0.0584

> <Gold.Chemscore.DEInternal>
2.4079

> <Gold.Chemscore.Rot>
1.5109

> <Gold.Chemscore.Internal.Correction>
   9.000000E+99

> <Gold.Chemscore.Hbonds>
donor molecule, donor type, donor heavy atom, donor atom, acceptor molecule, acceptor atom, score
      L1  H    11    39       P1  7948  0.58
      P1  H  7989  7998       L1     1  0.95
      P1  H  7997  8010       L1    20  0.89

> <Gold.Chemscore.Hbond.Weighted>
-9.0476

> <Gold.Chemscore.Metal.Weighted>
-0.0000

> <Gold.Chemscore.Lipo.Weighted>
-10.4452

> <Gold.Chemscore.Internal_Hbond.Weighted>
0.0000

> <Gold.Chemscore.DEClash.Weighted>
0.0584

> <Gold.Chemscore.DEInternal.Weighted>
2.4079

> <Gold.Chemscore.Rot.Weighted>
3.8680

> <Gold.Chemscore.Internal.Correction.Weighted>
   9.000000E+99

> <Gold.Protein.RotatedTorsions>
[ 6907 6896 6895 6894 ] final  -54.10 input  -60.11 | X-H torsion
[ 7974 7965 7964 7962 ] final   92.07 input  175.53 | X-H torsion
[ 8008 7997 7996 7995 ] final  -20.82 input   59.86 | X-H torsion
[ 10167 10162 10161 10158 ] final   65.48 input  -65.29 | X-H torsion
[ 10718 10713 10712 10709 ] final -105.12 input   66.30 | X-H torsion
[ 10763 10752 10751 10750 ] final   59.06 input  -60.55 | X-H torsion
[ 11005 11000 10999 10996 ] final -162.39 input  -57.11 | X-H torsion

> <Gold.Protein.ActiveResidues>
 VAL166  LYS551  ARG553  GLY616  TRP617  ASP618  TYR619  PRO620  LYS621  CYS622 
 ASP623  PHE694  ASN695  SER759  ASP760  ASP761  ALA762  ILE779  LEU786  VAL792 
 PHE793  MET794  SER795  GLU796  ALA797  LYS798  CYS799  TRP800  GLU811  SER814 

> <Gold.Protein.RotatedAtoms>
  150.8368  134.7644  159.6898 H   0  0  0  0  0  0  0  0  0  0  0  0  # atno 6907 bound_to 6896
  152.4463  134.5484  159.9869 H   0  0  0  0  0  0  0  0  0  0  0  0  # atno 6908 bound_to 6896
  151.5633  133.3362  159.3011 H   0  0  0  0  0  0  0  0  0  0  0  0  # atno 6909 bound_to 6896
  145.4972  139.2276  143.2797 H   0  0  0  0  0  0  0  0  0  0  0  0  # atno 7974 bound_to 7965
  154.4745  140.2051  155.9912 H   0  0  0  0  0  0  0  0  0  0  0  0  # atno 8008 bound_to 7997
  156.1066  140.3235  155.7985 H   0  0  0  0  0  0  0  0  0  0  0  0  # atno 8009 bound_to 7997
  155.4706  140.0531  157.2971 H   0  0  0  0  0  0  0  0  0  0  0  0  # atno 8010 bound_to 7997
  140.1109  144.4819  150.6979 H   0  0  0  0  0  0  0  0  0  0  0  0  # atno 10167 bound_to 10162
  156.0332  130.5548  150.7494 H   0  0  0  0  0  0  0  0  0  0  0  0  # atno 10718 bound_to 10713
  152.9885  135.5585  154.5653 H   0  0  0  0  0  0  0  0  0  0  0  0  # atno 10763 bound_to 10752
  154.5064  135.2800  155.1381 H   0  0  0  0  0  0  0  0  0  0  0  0  # atno 10764 bound_to 10752
  154.2791  135.6348  153.5393 H   0  0  0  0  0  0  0  0  0  0  0  0  # atno 10765 bound_to 10752
  140.6097  134.4861  157.5214 H   0  0  0  0  0  0  0  0  0  0  0  0  # atno 11005 bound_to 11000
  146.2248  140.5770  142.9001 LP  0  0  0  0  0  0  0  0  0  0  0  0  # atno 17320 bound_to 7965
  144.7800  140.5821  143.6612 LP  0  0  0  0  0  0  0  0  0  0  0  0  # atno 17321 bound_to 7965
  140.6926  143.2385  151.5089 LP  0  0  0  0  0  0  0  0  0  0  0  0  # atno 17342 bound_to 10162
  139.5620  144.2134  152.1706 LP  0  0  0  0  0  0  0  0  0  0  0  0  # atno 17343 bound_to 10162
  157.5042  131.0921  151.0277 LP  0  0  0  0  0  0  0  0  0  0  0  0  # atno 17370 bound_to 10713
  157.0650  130.5841  149.5392 LP  0  0  0  0  0  0  0  0  0  0  0  0  # atno 17371 bound_to 10713
  139.9197  134.8174  156.1251 LP  0  0  0  0  0  0  0  0  0  0  0  0  # atno 17394 bound_to 11000
  141.0816  133.6752  156.2348 LP  0  0  0  0  0  0  0  0  0  0  0  0  # atno 17395 bound_to 11000

$$$$
