AV-unprocessed.smi:2927|AV-procd|sdf|11230|dock2
  -GOLD-   2272016123D 1   1.00000     0.00000
 Structure written by MMmdl.
 54 55  0  0  0  0  0  0  0  0  1 V2000
  149.4193  131.3669  158.5321 C   0  0  0  0  0  0  0  0  0  0  0  0
  149.3154  131.8370  157.0874 C   0  0  0  0  0  0  0  0  0  0  0  0
  149.4844  130.9481  156.0898 C   0  0  0  0  0  0  0  0  0  0  0  0
  149.3936  131.3115  154.6788 C   0  0  0  0  0  0  0  0  0  0  0  0
  149.5527  130.4696  153.7934 O   0  0  0  0  0  0  0  0  0  0  0  0
  149.1117  132.6241  154.4061 N   0  0  0  0  0  0  0  0  0  0  0  0
  148.9177  132.9993  152.9834 C   0  0  0  0  0  0  0  0  0  0  0  0
  147.4420  133.0436  152.5550 C   0  0  0  0  0  0  0  0  0  0  0  0
  146.6091  133.6616  153.2197 O   0  0  0  0  0  0  0  0  0  0  0  0
  147.1342  132.3629  151.4402 N   0  0  0  0  0  0  0  0  0  0  0  0
  145.8024  132.2644  150.8497 C   0  0  0  0  0  0  0  0  0  0  0  0
  144.9678  131.2010  151.5809 C   0  0  0  0  0  0  0  0  0  0  0  0
  145.9301  131.9558  149.3522 C   0  0  0  0  0  0  0  0  0  0  0  0
  148.9791  133.6036  155.4372 C   0  0  0  0  0  0  0  0  0  0  0  0
  148.7898  135.0605  154.9840 C   0  0  0  0  0  0  0  0  0  0  0  0
  149.0486  133.2278  156.7416 C   0  0  0  0  0  0  0  0  0  0  0  0
  148.9277  134.2087  157.8194 C   0  0  0  0  0  0  0  0  0  0  0  0
  149.7651  135.0926  158.0048 O   0  0  0  0  0  0  0  0  0  0  0  0
  147.8115  134.0879  158.5862 N   0  0  0  0  0  0  0  0  0  0  0  0
  146.8622  132.9694  158.4795 C   0  0  0  0  0  0  0  0  0  0  0  0
  147.5022  135.0846  159.6227 C   0  0  0  0  0  0  0  0  0  0  0  0
  146.8117  134.4457  160.8326 C   0  0  0  0  0  0  0  0  0  0  0  0
  146.2296  135.3680  161.9150 C   0  0  0  0  0  0  0  0  0  0  0  0
  147.4719  135.0908  162.7642 C   0  0  0  0  0  0  0  0  0  0  0  0
  147.6701  133.8158  161.9425 C   0  0  0  0  0  0  0  0  0  0  0  0
  149.5817  130.2904  158.5962 H   0  0  0  0  0  0  0  0  0  0  0  0
  148.5031  131.5970  159.0767 H   0  0  0  0  0  0  0  0  0  0  0  0
  150.2528  131.8593  159.0337 H   0  0  0  0  0  0  0  0  0  0  0  0
  149.6897  129.9152  156.3313 H   0  0  0  0  0  0  0  0  0  0  0  0
  149.3593  133.9782  152.7868 H   0  0  0  0  0  0  0  0  0  0  0  0
  149.4695  132.3499  152.3053 H   0  0  0  0  0  0  0  0  0  0  0  0
  147.8805  131.8821  150.9593 H   0  0  0  0  0  0  0  0  0  0  0  0
  145.2983  133.2276  150.9465 H   0  0  0  0  0  0  0  0  0  0  0  0
  143.9693  131.1231  151.1502 H   0  0  0  0  0  0  0  0  0  0  0  0
  144.8499  131.4473  152.6366 H   0  0  0  0  0  0  0  0  0  0  0  0
  145.4343  130.2173  151.5185 H   0  0  0  0  0  0  0  0  0  0  0  0
  144.9499  131.9121  148.8769 H   0  0  0  0  0  0  0  0  0  0  0  0
  146.4246  130.9984  149.1836 H   0  0  0  0  0  0  0  0  0  0  0  0
  146.5090  132.7255  148.8406 H   0  0  0  0  0  0  0  0  0  0  0  0
  149.1107  135.7815  155.7348 H   0  0  0  0  0  0  0  0  0  0  0  0
  147.7389  135.2560  154.7698 H   0  0  0  0  0  0  0  0  0  0  0  0
  149.3782  135.3056  154.1016 H   0  0  0  0  0  0  0  0  0  0  0  0
  146.3535  132.9826  157.5156 H   0  0  0  0  0  0  0  0  0  0  0  0
  146.0851  132.9965  159.2431 H   0  0  0  0  0  0  0  0  0  0  0  0
  147.3755  132.0126  158.5833 H   0  0  0  0  0  0  0  0  0  0  0  0
  148.4021  135.6117  159.9405 H   0  0  0  0  0  0  0  0  0  0  0  0
  146.8680  135.8659  159.2007 H   0  0  0  0  0  0  0  0  0  0  0  0
  146.0463  133.7354  160.5165 H   0  0  0  0  0  0  0  0  0  0  0  0
  146.1098  136.4095  161.6148 H   0  0  0  0  0  0  0  0  0  0  0  0
  145.3163  134.9714  162.3617 H   0  0  0  0  0  0  0  0  0  0  0  0
  148.2649  135.8235  162.6067 H   0  0  0  0  0  0  0  0  0  0  0  0
  147.2742  134.9260  163.8237 H   0  0  0  0  0  0  0  0  0  0  0  0
  147.1974  132.9435  162.3971 H   0  0  0  0  0  0  0  0  0  0  0  0
  148.7057  133.6116  161.6696 H   0  0  0  0  0  0  0  0  0  0  0  0
  1  2  1  0  0  0  0
  1 26  1  0  0  0  0
  1 27  1  0  0  0  0
  1 28  1  0  0  0  0
  2 16  1  0  0  0  0
  2  3  2  0  0  0  0
  3  4  1  0  0  0  0
  3 29  1  0  0  0  0
  4  5  2  0  0  0  0
  4  6  1  0  0  0  0
  6  7  1  0  0  0  0
  6 14  1  0  0  0  0
  7  8  1  0  0  0  0
  7 30  1  0  0  0  0
  7 31  1  0  0  0  0
  8  9  2  0  0  0  0
  8 10  1  0  0  0  0
 10 11  1  0  0  0  0
 10 32  1  0  0  0  0
 11 12  1  0  0  0  0
 11 13  1  0  0  0  0
 11 33  1  0  0  0  0
 12 34  1  0  0  0  0
 12 35  1  0  0  0  0
 12 36  1  0  0  0  0
 13 37  1  0  0  0  0
 13 38  1  0  0  0  0
 13 39  1  0  0  0  0
 14 15  1  0  0  0  0
 14 16  2  0  0  0  0
 15 40  1  0  0  0  0
 15 41  1  0  0  0  0
 15 42  1  0  0  0  0
 16 17  1  0  0  0  0
 17 18  2  0  0  0  0
 17 19  1  0  0  0  0
 19 20  1  0  0  0  0
 19 21  1  0  0  0  0
 20 43  1  0  0  0  0
 20 44  1  0  0  0  0
 20 45  1  0  0  0  0
 21 22  1  0  0  0  0
 21 46  1  0  0  0  0
 21 47  1  0  0  0  0
 22 25  1  0  0  0  0
 22 23  1  0  0  0  0
 22 48  1  0  0  0  0
 23 24  1  0  0  0  0
 23 49  1  0  0  0  0
 23 50  1  0  0  0  0
 24 25  1  0  0  0  0
 24 51  1  0  0  0  0
 24 52  1  0  0  0  0
 25 53  1  0  0  0  0
 25 54  1  0  0  0  0
M  END
> <s_m_source_file>
AV-unprocessed.smi

> <i_m_source_file_index>
2927

> <i_lp_mmshare_version>
43012

> <i_f3d_flags>
0

> <s_epik_input>
W0NIM11bQ0hdKFtDSDNdKVtOSF1DKD1PKVtDSDJdbihjKD1PKVtjSF1jMVtDSDNdKWMoW0NIM10pYzFDKD1PKU4oW0NIM10pW0NIMl1bQ0hdMltDSDJdW0NIMl1bQ0gyXTI=

> <s_epik_cmdline>
J2VwaWtfcHl0aG9uJywgJy1waCcsICc3LjAnLCAnLXRuJywgJzgnLCAnLW1hJywgJzIwMCcsICctbWV0YWxfYmluZGluZycsICctaW1hZScsICc8aW5maWxlLm1hZT4nLCAnLW9tYWUnLCAnPG91dGZpbGUubWFlPic=

> <r_lp_tautomer_probability>
1

> <r_epik_Ionization_Penalty>
4.54151e-08

> <r_epik_Ionization_Penalty_Charging>
2.47394e-08

> <r_epik_Ionization_Penalty_Neutral>
2.06757e-08

> <r_epik_State_Penalty>
-0

> <r_epik_Charging_Adjusted_Penalty>
2.47394e-08

> <i_epik_Tot_Q>
0

> <i_epik_Tot_abs_Q>
0

> <r_epik_Metal_State_Penalty>
-0

> <b_epik_Metal_Only>
0

> <s_lp_Force_Field>
OPLS_2005

> <r_lp_Energy>
49.3499

> <b_lp_Chiralities_Consistent>
1

> <s_lp_Variant>
AV-unprocessed.smi:2927-1

> <Gold.Version>
5.8.1

> <Gold.Id.Protein>
6NUR|6NUR_protein|mol2

> <Gold.PLP.Fitness>
43.0942

> <Gold.PLP.PLP>
-39.4908

> <Gold.PLP.part.hbond>
-2.0000

> <Gold.PLP.part.metal>
0.0000

> <Gold.PLP.part.buried>
-4.8561

> <Gold.PLP.part.nonpolar>
-32.8744

> <Gold.PLP.part.repulsive>
0.2480

> <Gold.PLP.ligand.clash>
0.0000

> <Gold.PLP.ligand.torsion>
2.5616

> <Gold.PLP.Chemscore.Hbond>
2.0000

> <Gold.PLP.Chemscore.CHOScore>
0.0000

> <Gold.PLP.Chemscore.Metal>
0.0000

> <Gold.Chemscore.Hbonds>
donor molecule, donor type, donor heavy atom, donor atom, acceptor molecule, acceptor atom, score
      L1  H    10    32       P1 10747  1.00
      P1  H  6896  6907       L1    18  1.00

> <Gold.PLP.Chemscore.Internal.Correction>
2.7266

> <Gold.Rescore>
     Score         DG    S(hbond)    S(metal)    S(lipo)     H(rot)  DE(clash)    DE(int)     intcor
     15.95     -18.40       1.97        0.00      89.67       1.62       0.02       2.43       ----

> <Gold.Chemscore.Fitness>
15.9492

> <Gold.Chemscore.DG>
-18.4027

> <Gold.Chemscore.ZeroCoef>
-5.4800

> <Gold.Chemscore.Hbond>
1.9676

> <Gold.Chemscore.Metal>
0.0000

> <Gold.Chemscore.Lipo>
89.6669

> <Gold.Chemscore.Internal_Hbond>
0.0000

> <Gold.Chemscore.DEClash>
0.0189

> <Gold.Chemscore.DEInternal>
2.4347

> <Gold.Chemscore.Rot>
1.6172

> <Gold.Chemscore.Internal.Correction>
   9.000000E+99

> <Gold.Chemscore.Hbonds>
donor molecule, donor type, donor heavy atom, donor atom, acceptor molecule, acceptor atom, score
      L1  H    10    32       P1 10747  1.00
      P1  H  6896  6907       L1    18  0.24

> <Gold.Chemscore.Hbond.Weighted>
-6.5717

> <Gold.Chemscore.Metal.Weighted>
-0.0000

> <Gold.Chemscore.Lipo.Weighted>
-10.4910

> <Gold.Chemscore.Internal_Hbond.Weighted>
0.0000

> <Gold.Chemscore.DEClash.Weighted>
0.0189

> <Gold.Chemscore.DEInternal.Weighted>
2.4347

> <Gold.Chemscore.Rot.Weighted>
4.1400

> <Gold.Chemscore.Internal.Correction.Weighted>
   9.000000E+99

> <Gold.Protein.RotatedTorsions>
[ 6907 6896 6895 6894 ] final  -83.27 input  -60.11 | X-H torsion
[ 7974 7965 7964 7962 ] final   24.44 input  175.53 | X-H torsion
[ 8008 7997 7996 7995 ] final   54.51 input   59.86 | X-H torsion
[ 10167 10162 10161 10158 ] final -170.52 input  -65.29 | X-H torsion
[ 10718 10713 10712 10709 ] final  149.63 input   66.30 | X-H torsion
[ 10763 10752 10751 10750 ] final  158.22 input  -60.55 | X-H torsion
[ 11005 11000 10999 10996 ] final   88.76 input  -57.11 | X-H torsion

> <Gold.Protein.ActiveResidues>
 VAL166  LYS551  ARG553  GLY616  TRP617  ASP618  TYR619  PRO620  LYS621  CYS622 
 ASP623  PHE694  ASN695  SER759  ASP760  ASP761  ALA762  ILE779  LEU786  VAL792 
 PHE793  MET794  SER795  GLU796  ALA797  LYS798  CYS799  TRP800  GLU811  SER814 

> <Gold.Protein.RotatedAtoms>
  150.6887  134.3537  159.4919 H   0  0  0  0  0  0  0  0  0  0  0  0  # atno 6907 bound_to 6896
  152.1375  134.9085  160.0565 H   0  0  0  0  0  0  0  0  0  0  0  0  # atno 6908 bound_to 6896
  152.0231  133.3872  159.4303 H   0  0  0  0  0  0  0  0  0  0  0  0  # atno 6909 bound_to 6896
  146.1937  139.7605  142.8813 H   0  0  0  0  0  0  0  0  0  0  0  0  # atno 7974 bound_to 7965
  155.4859  140.3470  155.4347 H   0  0  0  0  0  0  0  0  0  0  0  0  # atno 8008 bound_to 7997
  156.1008  140.1435  156.9498 H   0  0  0  0  0  0  0  0  0  0  0  0  # atno 8009 bound_to 7997
  154.4693  140.0906  156.7080 H   0  0  0  0  0  0  0  0  0  0  0  0  # atno 8010 bound_to 7997
  139.5857  144.1324  152.1572 H   0  0  0  0  0  0  0  0  0  0  0  0  # atno 10167 bound_to 10162
  157.2937  131.0858  151.1443 H   0  0  0  0  0  0  0  0  0  0  0  0  # atno 10718 bound_to 10713
  154.2126  135.2785  155.2953 H   0  0  0  0  0  0  0  0  0  0  0  0  # atno 10763 bound_to 10752
  154.5766  135.5602  153.7149 H   0  0  0  0  0  0  0  0  0  0  0  0  # atno 10764 bound_to 10752
  153.0060  135.6334  154.2265 H   0  0  0  0  0  0  0  0  0  0  0  0  # atno 10765 bound_to 10752
  139.8889  134.8508  156.3046 H   0  0  0  0  0  0  0  0  0  0  0  0  # atno 11005 bound_to 11000
  145.3711  141.0343  143.3231 LP  0  0  0  0  0  0  0  0  0  0  0  0  # atno 17320 bound_to 7965
  144.8538  139.5281  143.6844 LP  0  0  0  0  0  0  0  0  0  0  0  0  # atno 17321 bound_to 7965
  140.0887  144.5639  150.7070 LP  0  0  0  0  0  0  0  0  0  0  0  0  # atno 17342 bound_to 10162
  140.7129  143.2519  151.4526 LP  0  0  0  0  0  0  0  0  0  0  0  0  # atno 17343 bound_to 10162
  157.2829  130.6759  149.6075 LP  0  0  0  0  0  0  0  0  0  0  0  0  # atno 17370 bound_to 10713
  155.9668  130.4444  150.5460 LP  0  0  0  0  0  0  0  0  0  0  0  0  # atno 17371 bound_to 10713
  140.9890  133.7220  156.0786 LP  0  0  0  0  0  0  0  0  0  0  0  0  # atno 17394 bound_to 11000
  140.7649  134.3897  157.5519 LP  0  0  0  0  0  0  0  0  0  0  0  0  # atno 17395 bound_to 11000

$$$$
