#       Name:                AV-unprocessed.smi:35
#       Creating user name   scv26
#       Creation time:       Thu Mar 26 16:04:16 2020


#       File generated by GOLD software.
#

@<TRIPOS>MOLECULE
AV-unprocessed.smi:35
    41    42     1
SMALL
NO_CHARGES


@<TRIPOS>ATOM
      1 ****        -2.7939   4.5860  -0.8331 O.2            1 S1                 0.0000
      2 ****        -2.3686   3.4684  -0.5461 C.2            1 S1                 0.0000
      3 ****        -3.1865   2.4262  -0.2183 N.pl3          1 S1                -1.0000
      4 ****        -2.7095   1.1876   0.1036 C.2            1 S1                 0.0000
      5 ****        -3.4395   0.2331   0.3709 O.2            1 S1                 0.0000
      6 ****        -1.3040   0.9766   0.1189 N.am           1 S1                 0.0000
      7 ****        -0.7570  -0.3890   0.4738 C.3            1 S1                 0.0000
      8 ****         0.5042  -0.2320   1.0425 O.3            1 S1                 0.0000
      9 ****         1.2630  -1.4008   0.7781 C.3            1 S1                 0.0000
     10 ****         2.7609  -1.1045   0.9499 C.3            1 S1                 0.0000
     11 ****         3.1268  -1.2166   2.3089 O.3            1 S1                 0.0000
     12 ****         0.8684  -1.7372  -0.6644 C.3            1 S1                 0.0000
     13 ****         1.0161  -3.1241  -0.8982 O.3            1 S1                 0.0000
     14 ****        -0.6008  -1.3281  -0.7438 C.3            1 S1                 0.0000
     15 ****        -0.8790  -0.7195  -1.9923 O.3            1 S1                 0.0000
     16 ****        -0.4492   2.0084  -0.2292 C.2            1 S1                 0.0000
     17 ****        -0.9280   3.2260  -0.5550 C.2            1 S1                 0.0000
     18 ****         0.4075   4.6084  -1.0367 Br             1 S1                 0.0000
     19 ****        -1.4130  -0.8001   1.2431 H              1 S1                 0.0000
     20 ****         0.9353  -2.1971   1.4504 H              1 S1                 0.0000
     21 ****         3.3527  -1.8311   0.3924 H              1 S1                 0.0000
     22 ****         3.0161  -0.1162   0.5657 H              1 S1                 0.0000
     23 ****         4.0528  -1.0445   2.3858 H              1 S1                 0.0000
     24 ****         1.4744  -1.1609  -1.3662 H              1 S1                 0.0000
     25 ****         0.4713  -3.5903  -0.2826 H              1 S1                 0.0000
     26 ****        -1.2715  -2.1761  -0.5961 H              1 S1                 0.0000
     27 ****        -1.7664  -0.3938  -1.9721 H              1 S1                 0.0000
     28 ****         0.6173   1.8404  -0.2508 H              1 S1                 0.0000
     29 ****        -2.1554   5.3184  -1.0695 LP             1 S1                 0.0000
     30 ****        -3.7782   4.7624  -0.8300 LP             1 S1                 0.0000
     31 ****        -4.1753   2.5756  -0.2136 LP             1 S1                 0.0000
     32 ****        -4.4332   0.3448   0.3586 LP             1 S1                 0.0000
     33 ****        -3.0388  -0.6539   0.6004 LP             1 S1                 0.0000
     34 ****         0.4157  -0.1030   2.0302 LP             1 S1                 0.0000
     35 ****         0.9587   0.5636   0.6419 LP             1 S1                 0.0000
     36 ****         2.9271  -2.1399   2.6369 LP             1 S1                 0.0000
     37 ****         2.6140  -0.5518   2.8521 LP             1 S1                 0.0000
     38 ****         1.9721  -3.3881  -0.7704 LP             1 S1                 0.0000
     39 ****         0.7323  -3.3412  -1.8321 LP             1 S1                 0.0000
     40 ****        -0.7823  -1.3924  -2.7256 LP             1 S1                 0.0000
     41 ****        -0.2444   0.0374  -2.1485 LP             1 S1                 0.0000
@<TRIPOS>BOND
    1    1    2 2     
    2    2   17 1     
    3    2    3 1     
    4    3    4 1     
    5    4    5 2     
    6    4    6 am    
    7    6    7 1     
    8    6   16 1     
    9    7   14 1     
   10    7    8 1     
   11    7   19 1     
   12    8    9 1     
   13    9   10 1     
   14    9   12 1     
   15    9   20 1     
   16   10   11 1     
   17   10   21 1     
   18   10   22 1     
   19   11   23 1     
   20   12   13 1     
   21   12   14 1     
   22   12   24 1     
   23   13   25 1     
   24   14   15 1     
   25   14   26 1     
   26   15   27 1     
   27   16   17 2     
   28   16   28 1     
   29   17   18 1     
   30    1   29 1     
   31    1   30 1     
   32    3   31 1     
   33    5   32 1     
   34    5   33 1     
   35    8   34 1     
   36    8   35 1     
   37   11   36 1     
   38   11   37 1     
   39   13   38 1     
   40   13   39 1     
   41   15   40 1     
   42   15   41 1     
@<TRIPOS>SUBSTRUCTURE
      1 S1             1
@<TRIPOS>SET
LONE_PAIRS      STATIC     ATOMS    <user>   **** ""
13 29 30 31 32 33 34 35 36 37 38 39 40 41
DONOR_HYDROGENS      STATIC     ATOMS    <user>   **** ""
3 23 25 27
ATOM$BLUE        STATIC     ATOMS    COLORGROUP SYSTEM
13 29 30 31 32 33 34 35 36 37 38 39 40 41
ATOM$RED        STATIC     ATOMS    COLORGROUP SYSTEM
3 23 25 27
