AV-unprocessed.smi:686|AV-procd|sdf|3341|dock5
  -GOLD-   22720 0313D 1   1.00000     0.00000
 Structure written by MMmdl.
 41 42  0  0  0  0  0  0  0  0  2 V2000
  146.0647  137.2759  150.9537 C   0  0  0  0  0  0  0  0  0  0  0  0
  145.4420  135.9142  151.3020 C   0  0  2  0  0  0  0  0  0  0  0  0
  144.5826  135.2938  150.1976 C   0  0  0  0  0  0  0  0  0  0  0  0
  143.6601  134.3454  150.8712 N   0  3  1  0  0  0  0  0  0  0  0  0
  143.7262  132.9215  150.4374 C   0  0  0  0  0  0  0  0  0  0  0  0
  144.8794  132.1257  151.0855 C   0  0  0  0  0  0  0  0  0  0  0  0
  143.7633  132.8211  148.9042 C   0  0  0  0  0  0  0  0  0  0  0  0
  143.7505  134.5640  152.3373 C   0  0  0  0  0  0  0  0  0  0  0  0
  144.5321  135.8674  152.5356 C   0  0  2  0  0  0  0  0  0  0  0  0
  143.6097  137.0089  152.5864 N   0  0  0  0  0  0  0  0  0  0  0  0
  142.4712  137.1826  153.8722 S   0  0  0  0  0  0  0  0  0  0  0  0
  142.9820  136.4075  155.0130 O   0  0  0  0  0  0  0  0  0  0  0  0
  142.2016  138.6220  154.0109 O   0  0  0  0  0  0  0  0  0  0  0  0
  140.9688  136.3318  153.2050 C   0  0  0  0  0  0  0  0  0  0  0  0
  139.7727  136.6164  154.0678 C   0  0  0  0  0  0  0  0  0  0  0  0
  138.5269  137.1896  153.6898 C   0  0  0  0  0  0  0  0  0  0  0  0
  137.8198  137.2103  154.8574 C   0  0  0  0  0  0  0  0  0  0  0  0
  138.5595  136.6933  155.8706 O   0  0  0  0  0  0  0  0  0  0  0  0
  139.8045  136.3147  155.3560 N   0  0  0  0  0  0  0  0  0  0  0  0
  145.3061  138.0234  150.7200 H   0  0  0  0  0  0  0  0  0  0  0  0
  146.7198  137.1917  150.0866 H   0  0  0  0  0  0  0  0  0  0  0  0
  146.6633  137.6543  151.7823 H   0  0  0  0  0  0  0  0  0  0  0  0
  146.2646  135.2227  151.4920 H   0  0  0  0  0  0  0  0  0  0  0  0
  143.9698  136.0633  149.7263 H   0  0  0  0  0  0  0  0  0  0  0  0
  145.1879  134.8474  149.4092 H   0  0  0  0  0  0  0  0  0  0  0  0
  142.7901  132.4596  150.7557 H   0  0  0  0  0  0  0  0  0  0  0  0
  144.8183  131.0732  150.8071 H   0  0  0  0  0  0  0  0  0  0  0  0
  144.8510  132.1674  152.1737 H   0  0  0  0  0  0  0  0  0  0  0  0
  145.8590  132.4805  150.7664 H   0  0  0  0  0  0  0  0  0  0  0  0
  143.7192  131.7807  148.5803 H   0  0  0  0  0  0  0  0  0  0  0  0
  144.6753  133.2533  148.4916 H   0  0  0  0  0  0  0  0  0  0  0  0
  142.9156  133.3393  148.4548 H   0  0  0  0  0  0  0  0  0  0  0  0
  142.7596  134.5877  152.7927 H   0  0  0  0  0  0  0  0  0  0  0  0
  144.2970  133.7503  152.8137 H   0  0  0  0  0  0  0  0  0  0  0  0
  145.1160  135.8385  153.4564 H   0  0  0  0  0  0  0  0  0  0  0  0
  143.2964  137.3754  151.6878 H   0  0  0  0  0  0  0  0  0  0  0  0
  140.7946  136.6672  152.1834 H   0  0  0  0  0  0  0  0  0  0  0  0
  141.1765  135.2620  153.1609 H   0  0  0  0  0  0  0  0  0  0  0  0
  138.2035  137.5332  152.7187 H   0  0  0  0  0  0  0  0  0  0  0  0
  136.8261  137.5440  155.1178 H   0  0  0  0  0  0  0  0  0  0  0  0
  142.7345  134.6584  150.6150 H   0  0  0  0  0  0  0  0  0  0  0  0
  1  2  1  0  0  0  0
  1 20  1  0  0  0  0
  1 21  1  0  0  0  0
  1 22  1  0  0  0  0
  2  9  1  0  0  0  0
  2  3  1  0  0  0  0
  2 23  1  0  0  0  0
  3  4  1  0  0  0  0
  3 24  1  0  0  0  0
  3 25  1  0  0  0  0
  4  5  1  0  0  0  0
  4  8  1  0  0  0  0
  4 41  1  0  0  0  0
  5  6  1  0  0  0  0
  5  7  1  0  0  0  0
  5 26  1  0  0  0  0
  6 27  1  0  0  0  0
  6 28  1  0  0  0  0
  6 29  1  0  0  0  0
  7 30  1  0  0  0  0
  7 31  1  0  0  0  0
  7 32  1  0  0  0  0
  8  9  1  0  0  0  0
  8 33  1  0  0  0  0
  8 34  1  0  0  0  0
  9 10  1  0  0  0  0
  9 35  1  0  0  0  0
 10 11  1  0  0  0  0
 10 36  1  0  0  0  0
 11 12  2  0  0  0  0
 11 13  2  0  0  0  0
 11 14  1  0  0  0  0
 14 15  1  0  0  0  0
 14 37  1  0  0  0  0
 14 38  1  0  0  0  0
 15 19  2  0  0  0  0
 15 16  1  0  0  0  0
 16 17  2  0  0  0  0
 16 39  1  0  0  0  0
 17 18  1  0  0  0  0
 17 40  1  0  0  0  0
 18 19  1  0  0  0  0
M  CHG  1   4   1
M  END
> <s_m_source_file>
AV-unprocessed.smi

> <i_m_source_file_index>
686

> <i_lp_mmshare_version>
43012

> <i_f3d_flags>
0

> <s_epik_input>
W0NIM11bQ0BASF0xW0NIMl1OKFtDSF0oW0NIM10pW0NIM10pW0NIMl1bQ0BIXTFbTkhdUyg9TykoPU8pW0NIMl1jMltjSF1bY0hdb24y

> <s_epik_cmdline>
J2VwaWtfcHl0aG9uJywgJy1waCcsICc3LjAnLCAnLXRuJywgJzgnLCAnLW1hJywgJzIwMCcsICctbWV0YWxfYmluZGluZycsICctaW1hZScsICc8aW5maWxlLm1hZT4nLCAnLW9tYWUnLCAnPG91dGZpbGUubWFlPic=

> <r_epik_Ionization_Penalty>
0.00200818

> <r_epik_Ionization_Penalty_Charging>
0.000701289

> <r_epik_Ionization_Penalty_Neutral>
0.00130689

> <r_epik_State_Penalty>
0.00131314

> <r_epik_Charging_Adjusted_Penalty>
0.00201443

> <i_epik_Tot_Q>
1

> <i_epik_Tot_abs_Q>
1

> <r_epik_Metal_State_Penalty>
0.310831

> <b_epik_Metal_Only>
0

> <s_lp_Force_Field>
OPLS_2005

> <r_lp_Energy>
24.0056

> <b_lp_Chiralities_Consistent>
1

> <s_lp_Variant>
AV-unprocessed.smi:686-5

> <Gold.Version>
5.8.1

> <Gold.Id.Protein>
6NUR|6NUR_protein|mol2

> <Gold.PLP.Fitness>
42.1753

> <Gold.PLP.PLP>
-33.1254

> <Gold.PLP.part.hbond>
-3.0251

> <Gold.PLP.part.metal>
0.0000

> <Gold.PLP.part.buried>
-1.0519

> <Gold.PLP.part.nonpolar>
-30.5828

> <Gold.PLP.part.repulsive>
2.6475

> <Gold.PLP.ligand.clash>
0.0000

> <Gold.PLP.ligand.torsion>
0.9242

> <Gold.PLP.Chemscore.Hbond>
3.2375

> <Gold.PLP.Chemscore.CHOScore>
0.0000

> <Gold.PLP.Chemscore.Metal>
0.0000

> <Gold.Chemscore.Hbonds>
donor molecule, donor type, donor heavy atom, donor atom, acceptor molecule, acceptor atom, score
      L1  H     4    41       P1 10186  1.90
      L1  H    10    36       P1 10171  0.34
      P1  H 11000 11005       L1    19  1.00

> <Gold.PLP.Chemscore.Internal.Correction>
1.1859

> <Gold.Rescore>
     Score         DG    S(hbond)    S(metal)    S(lipo)     H(rot)  DE(clash)    DE(int)     intcor
     12.95     -16.62       1.38        0.00      92.21       1.66       2.65       1.02       ----

> <Gold.Chemscore.Fitness>
12.9454

> <Gold.Chemscore.DG>
-16.6229

> <Gold.Chemscore.ZeroCoef>
-5.4800

> <Gold.Chemscore.Hbond>
1.3760

> <Gold.Chemscore.Metal>
0.0000

> <Gold.Chemscore.Lipo>
92.2077

> <Gold.Chemscore.Internal_Hbond>
0.0000

> <Gold.Chemscore.DEClash>
2.6534

> <Gold.Chemscore.DEInternal>
1.0242

> <Gold.Chemscore.Rot>
1.6567

> <Gold.Chemscore.Internal.Correction>
   9.000000E+99

> <Gold.Chemscore.Hbonds>
donor molecule, donor type, donor heavy atom, donor atom, acceptor molecule, acceptor atom, score
      L1  H     4    41       P1 10186  0.19
      L1  H    10    36       P1 10171  0.29
      P1  H 11000 11005       L1    19  0.29

> <Gold.Chemscore.Hbond.Weighted>
-4.5959

> <Gold.Chemscore.Metal.Weighted>
-0.0000

> <Gold.Chemscore.Lipo.Weighted>
-10.7883

> <Gold.Chemscore.Internal_Hbond.Weighted>
0.0000

> <Gold.Chemscore.DEClash.Weighted>
2.6534

> <Gold.Chemscore.DEInternal.Weighted>
1.0242

> <Gold.Chemscore.Rot.Weighted>
4.2413

> <Gold.Chemscore.Internal.Correction.Weighted>
   9.000000E+99

> <Gold.Protein.RotatedTorsions>
[ 6907 6896 6895 6894 ] final  160.59 input  -60.11 | X-H torsion
[ 7974 7965 7964 7962 ] final   -8.37 input  175.53 | X-H torsion
[ 8008 7997 7996 7995 ] final  148.17 input   59.86 | X-H torsion
[ 10167 10162 10161 10158 ] final  -76.23 input  -65.29 | X-H torsion
[ 10718 10713 10712 10709 ] final   29.66 input   66.30 | X-H torsion
[ 10763 10752 10751 10750 ] final  -94.59 input  -60.55 | X-H torsion
[ 11005 11000 10999 10996 ] final   68.62 input  -57.11 | X-H torsion

> <Gold.Protein.ActiveResidues>
 VAL166  LYS551  ARG553  GLY616  TRP617  ASP618  TYR619  PRO620  LYS621  CYS622 
 ASP623  PHE694  ASN695  SER759  ASP760  ASP761  ALA762  ILE779  LEU786  VAL792 
 PHE793  MET794  SER795  GLU796  ALA797  LYS798  CYS799  TRP800  GLU811  SER814 

> <Gold.Protein.RotatedAtoms>
  151.9684  133.3717  159.4061 H   0  0  0  0  0  0  0  0  0  0  0  0  # atno 6907 bound_to 6896
  150.6953  134.4166  159.5195 H   0  0  0  0  0  0  0  0  0  0  0  0  # atno 6908 bound_to 6896
  152.1866  134.8708  160.0572 H   0  0  0  0  0  0  0  0  0  0  0  0  # atno 6909 bound_to 6896
  146.2282  140.2457  142.8345 H   0  0  0  0  0  0  0  0  0  0  0  0  # atno 7974 bound_to 7965
  156.2800  140.2136  156.5655 H   0  0  0  0  0  0  0  0  0  0  0  0  # atno 8008 bound_to 7997
  154.7178  140.0506  157.0634 H   0  0  0  0  0  0  0  0  0  0  0  0  # atno 8009 bound_to 7997
  155.0518  140.3157  155.4692 H   0  0  0  0  0  0  0  0  0  0  0  0  # atno 8010 bound_to 7997
  140.4875  143.2388  151.7960 H   0  0  0  0  0  0  0  0  0  0  0  0  # atno 10167 bound_to 10162
  157.2494  130.7108  149.6398 H   0  0  0  0  0  0  0  0  0  0  0  0  # atno 10718 bound_to 10713
  154.7070  135.5152  153.8609 H   0  0  0  0  0  0  0  0  0  0  0  0  # atno 10763 bound_to 10752
  153.0749  135.6613  154.0176 H   0  0  0  0  0  0  0  0  0  0  0  0  # atno 10764 bound_to 10752
  154.0025  135.3009  155.3380 H   0  0  0  0  0  0  0  0  0  0  0  0  # atno 10765 bound_to 10752
  139.9701  134.6915  156.0464 H   0  0  0  0  0  0  0  0  0  0  0  0  # atno 11005 bound_to 11000
  144.9450  140.8118  143.5607 LP  0  0  0  0  0  0  0  0  0  0  0  0  # atno 17320 bound_to 7965
  145.2413  139.2071  143.4991 LP  0  0  0  0  0  0  0  0  0  0  0  0  # atno 17321 bound_to 7965
  139.4845  144.4693  151.9445 LP  0  0  0  0  0  0  0  0  0  0  0  0  # atno 17342 bound_to 10162
  140.3779  144.2773  150.5912 LP  0  0  0  0  0  0  0  0  0  0  0  0  # atno 17343 bound_to 10162
  155.9667  130.4432  150.5413 LP  0  0  0  0  0  0  0  0  0  0  0  0  # atno 17370 bound_to 10713
  157.3294  131.0696  151.1872 LP  0  0  0  0  0  0  0  0  0  0  0  0  # atno 17371 bound_to 10713
  141.1381  133.6570  156.3650 LP  0  0  0  0  0  0  0  0  0  0  0  0  # atno 17394 bound_to 11000
  140.5312  134.6211  157.5350 LP  0  0  0  0  0  0  0  0  0  0  0  0  # atno 17395 bound_to 11000

$$$$
