AV-unprocessed.smi:645|AV-procd|sdf|3162|dock4
  -GOLD-   22720 0 83D 1   1.00000     0.00000
 Structure written by MMmdl.
 22 23  0  0  0  0  0  0  0  0  2 V2000
  152.5302  137.4535  158.4117 C   0  0  0  0  0  0  0  0  0  0  0  0
  151.0903  137.4097  157.8584 C   0  0  2  0  0  0  0  0  0  0  0  0
  150.8979  138.3573  156.6614 C   0  0  0  0  0  0  0  0  0  0  0  0
  150.5931  137.8788  155.3631 C   0  0  0  0  0  0  0  0  0  0  0  0
  150.4246  138.8055  154.3153 C   0  0  0  0  0  0  0  0  0  0  0  0
  150.5350  140.1403  154.4774 N   0  0  0  0  0  0  0  0  0  0  0  0
  150.8246  140.5987  155.7125 C   0  0  0  0  0  0  0  0  0  0  0  0
  151.0106  139.7578  156.8271 C   0  0  0  0  0  0  0  0  0  0  0  0
  150.1586  137.6536  158.9430 N   0  0  0  0  0  0  0  0  0  0  0  0
  149.3472  136.6159  159.1376 C   0  0  0  0  0  0  0  0  0  0  0  0
  148.4710  136.6335  159.9991 O   0  0  0  0  0  0  0  0  0  0  0  0
  149.6498  135.6232  158.2795 N   0  5  0  0  0  0  0  0  0  0  0  0
  150.6809  135.9770  157.4813 C   0  0  0  0  0  0  0  0  0  0  0  0
  151.2567  135.3310  156.6058 O   0  0  0  0  0  0  0  0  0  0  0  0
  153.2654  137.1631  157.6610 H   0  0  0  0  0  0  0  0  0  0  0  0
  152.6537  136.7783  159.2598 H   0  0  0  0  0  0  0  0  0  0  0  0
  152.7867  138.4568  158.7527 H   0  0  0  0  0  0  0  0  0  0  0  0
  150.4900  136.8249  155.1538 H   0  0  0  0  0  0  0  0  0  0  0  0
  150.1937  138.4632  153.3173 H   0  0  0  0  0  0  0  0  0  0  0  0
  150.9115  141.6701  155.8174 H   0  0  0  0  0  0  0  0  0  0  0  0
  151.2460  140.1866  157.7898 H   0  0  0  0  0  0  0  0  0  0  0  0
  150.1234  138.5188  159.4612 H   0  0  0  0  0  0  0  0  0  0  0  0
  1  2  1  0  0  0  0
  1 15  1  0  0  0  0
  1 16  1  0  0  0  0
  1 17  1  0  0  0  0
  2 13  1  0  0  0  0
  2  3  1  0  0  0  0
  2  9  1  0  0  0  0
  3  8  1  0  0  0  0
  3  4  2  0  0  0  0
  4  5  1  0  0  0  0
  4 18  1  0  0  0  0
  5  6  2  0  0  0  0
  5 19  1  0  0  0  0
  6  7  1  0  0  0  0
  7  8  2  0  0  0  0
  7 20  1  0  0  0  0
  8 21  1  0  0  0  0
  9 10  1  0  0  0  0
  9 22  1  0  0  0  0
 10 11  2  0  0  0  0
 10 12  1  0  0  0  0
 12 13  1  0  0  0  0
 13 14  2  0  0  0  0
M  CHG  1  12  -1
M  END
> <s_m_source_file>
AV-unprocessed.smi

> <i_m_source_file_index>
645

> <i_lp_mmshare_version>
43012

> <i_f3d_flags>
0

> <s_epik_input>
Tz1DMVtOSF1DKD1PKVtOSF1bQ0BAXTEoW0NIM10pYzJbY0hdW2NIXW5bY0hdW2NIXTI=

> <s_epik_cmdline>
J2VwaWtfcHl0aG9uJywgJy1waCcsICc3LjAnLCAnLXRuJywgJzgnLCAnLW1hJywgJzIwMCcsICctbWV0YWxfYmluZGluZycsICctaW1hZScsICc8aW5maWxlLm1hZT4nLCAnLW9tYWUnLCAnPG91dGZpbGUubWFlPic=

> <r_epik_Ionization_Penalty>
1.83307

> <r_epik_Ionization_Penalty_Charging>
1.82122

> <r_epik_Ionization_Penalty_Neutral>
0.0118514

> <r_epik_State_Penalty>
1.93645

> <r_epik_Charging_Adjusted_Penalty>
3.75767

> <i_epik_Tot_Q>
-1

> <i_epik_Tot_abs_Q>
1

> <r_epik_Metal_State_Penalty>
0.53507

> <b_epik_Metal_Only>
0

> <s_lp_Force_Field>
OPLS_2005

> <r_lp_Energy>
9.09868

> <b_lp_Chiralities_Consistent>
1

> <s_lp_Variant>
AV-unprocessed.smi:645-4

> <Gold.Version>
5.8.1

> <Gold.Id.Protein>
6NUR|6NUR_protein|mol2

> <Gold.PLP.Fitness>
28.4452

> <Gold.PLP.PLP>
-15.9330

> <Gold.PLP.part.hbond>
-2.9975

> <Gold.PLP.part.metal>
0.0000

> <Gold.PLP.part.buried>
-1.8937

> <Gold.PLP.part.nonpolar>
-11.1668

> <Gold.PLP.part.repulsive>
0.2959

> <Gold.PLP.ligand.clash>
0.0000

> <Gold.PLP.ligand.torsion>
0.1113

> <Gold.PLP.Chemscore.Hbond>
3.5900

> <Gold.PLP.Chemscore.CHOScore>
0.6276

> <Gold.PLP.Chemscore.Metal>
0.0000

> <Gold.Chemscore.Hbonds>
donor molecule, donor type, donor heavy atom, donor atom, acceptor molecule, acceptor atom, score
      P1  H  6896  6907       L1    12  1.36
      P1  H  7989  7998       L1     6  1.00
      L1  C     5    19       P1  7948  0.10
      L1  C     5    19       P1  7957  0.50

> <Gold.PLP.Chemscore.Internal.Correction>
0.0820

> <Gold.Rescore>
     Score         DG    S(hbond)    S(metal)    S(lipo)     H(rot)  DE(clash)    DE(int)     intcor
     11.53     -12.80       1.67        0.00      36.71       1.00       0.01       1.25       ----

> <Gold.Chemscore.Fitness>
11.5342

> <Gold.Chemscore.DG>
-12.7978

> <Gold.Chemscore.ZeroCoef>
-5.4800

> <Gold.Chemscore.Hbond>
1.6714

> <Gold.Chemscore.Metal>
0.0000

> <Gold.Chemscore.Lipo>
36.7113

> <Gold.Chemscore.Internal_Hbond>
0.0000

> <Gold.Chemscore.DEClash>
0.0149

> <Gold.Chemscore.DEInternal>
1.2487

> <Gold.Chemscore.Rot>
1.0000

> <Gold.Chemscore.Internal.Correction>
   9.000000E+99

> <Gold.Chemscore.Hbonds>
donor molecule, donor type, donor heavy atom, donor atom, acceptor molecule, acceptor atom, score
      P1  H  6896  6907       L1    12  0.02
      P1  H  7989  7998       L1     6  0.45
      P1  H 10752 10765       L1    14  0.05

> <Gold.Chemscore.Hbond.Weighted>
-5.5826

> <Gold.Chemscore.Metal.Weighted>
-0.0000

> <Gold.Chemscore.Lipo.Weighted>
-4.2952

> <Gold.Chemscore.Internal_Hbond.Weighted>
0.0000

> <Gold.Chemscore.DEClash.Weighted>
0.0149

> <Gold.Chemscore.DEInternal.Weighted>
1.2487

> <Gold.Chemscore.Rot.Weighted>
2.5600

> <Gold.Chemscore.Internal.Correction.Weighted>
   9.000000E+99

> <Gold.Protein.RotatedTorsions>
[ 6907 6896 6895 6894 ] final  -70.80 input  -60.11 | X-H torsion
[ 7974 7965 7964 7962 ] final -173.35 input  175.53 | X-H torsion
[ 8008 7997 7996 7995 ] final  131.16 input   59.86 | X-H torsion
[ 10167 10162 10161 10158 ] final    5.83 input  -65.29 | X-H torsion
[ 10718 10713 10712 10709 ] final -143.03 input   66.30 | X-H torsion
[ 10763 10752 10751 10750 ] final -158.34 input  -60.55 | X-H torsion
[ 11005 11000 10999 10996 ] final   65.79 input  -57.11 | X-H torsion

> <Gold.Protein.ActiveResidues>
 VAL166  LYS551  ARG553  GLY616  TRP617  ASP618  TYR619  PRO620  LYS621  CYS622 
 ASP623  PHE694  ASN695  SER759  ASP760  ASP761  ALA762  ILE779  LEU786  VAL792 
 PHE793  MET794  SER795  GLU796  ALA797  LYS798  CYS799  TRP800  GLU811  SER814 

> <Gold.Protein.RotatedAtoms>
  150.7241  134.5400  159.5742 H   0  0  0  0  0  0  0  0  0  0  0  0  # atno 6907 bound_to 6896
  152.2913  134.7715  160.0386 H   0  0  0  0  0  0  0  0  0  0  0  0  # atno 6908 bound_to 6896
  151.8328  133.3376  159.3655 H   0  0  0  0  0  0  0  0  0  0  0  0  # atno 6909 bound_to 6896
  144.7138  140.1635  143.6374 H   0  0  0  0  0  0  0  0  0  0  0  0  # atno 7974 bound_to 7965
  156.2966  140.2578  156.2880 H   0  0  0  0  0  0  0  0  0  0  0  0  # atno 8008 bound_to 7997
  154.9537  140.0394  157.2175 H   0  0  0  0  0  0  0  0  0  0  0  0  # atno 8009 bound_to 7997
  154.8011  140.2828  155.5925 H   0  0  0  0  0  0  0  0  0  0  0  0  # atno 8010 bound_to 7997
  140.6461  143.7658  150.7501 H   0  0  0  0  0  0  0  0  0  0  0  0  # atno 10167 bound_to 10162
  156.3531  130.7698  151.1854 H   0  0  0  0  0  0  0  0  0  0  0  0  # atno 10718 bound_to 10713
  154.7565  135.3106  154.8461 H   0  0  0  0  0  0  0  0  0  0  0  0  # atno 10763 bound_to 10752
  153.9233  135.6793  153.4751 H   0  0  0  0  0  0  0  0  0  0  0  0  # atno 10764 bound_to 10752
  153.1162  135.4843  154.9050 H   0  0  0  0  0  0  0  0  0  0  0  0  # atno 10765 bound_to 10752
  139.9872  134.6649  156.0155 H   0  0  0  0  0  0  0  0  0  0  0  0  # atno 11005 bound_to 11000
  145.9008  139.2429  143.1494 LP  0  0  0  0  0  0  0  0  0  0  0  0  # atno 17320 bound_to 7965
  145.9812  140.8681  143.0113 LP  0  0  0  0  0  0  0  0  0  0  0  0  # atno 17321 bound_to 7965
  140.1300  143.4535  152.2260 LP  0  0  0  0  0  0  0  0  0  0  0  0  # atno 17342 bound_to 10162
  139.5672  144.7442  151.3990 LP  0  0  0  0  0  0  0  0  0  0  0  0  # atno 17343 bound_to 10162
  157.7464  131.0422  150.4682 LP  0  0  0  0  0  0  0  0  0  0  0  0  # atno 17370 bound_to 10713
  156.4880  130.4089  149.6423 LP  0  0  0  0  0  0  0  0  0  0  0  0  # atno 17371 bound_to 10713
  141.1535  133.6545  156.4087 LP  0  0  0  0  0  0  0  0  0  0  0  0  # atno 17394 bound_to 11000
  140.4979  134.6513  157.5237 LP  0  0  0  0  0  0  0  0  0  0  0  0  # atno 17395 bound_to 11000

$$$$
