AV-unprocessed.smi:1102|AV-procd|sdf|4770|dock2
  -GOLD-   22720 3313D 1   1.00000     0.00000
 Structure written by MMmdl.
 39 40  0  0  0  0  0  0  0  0  1 V2000
  150.1383  144.8039  159.7058 C   0  0  0  0  0  0  0  0  0  0  0  0
  151.3542  144.2461  159.1267 N   0  0  0  0  0  0  0  0  0  0  0  0
  151.6387  144.4402  157.7086 C   0  0  0  0  0  0  0  0  0  0  0  0
  152.2153  143.4476  159.9140 C   0  0  0  0  0  0  0  0  0  0  0  0
  153.1878  142.6037  159.3225 C   0  0  0  0  0  0  0  0  0  0  0  0
  154.0241  141.8281  160.1484 C   0  0  0  0  0  0  0  0  0  0  0  0
  153.8769  141.9174  161.5515 C   0  0  0  0  0  0  0  0  0  0  0  0
  154.6447  141.1747  162.4888 N   0  0  0  0  0  0  0  0  0  0  0  0
  155.3597  140.0549  162.2859 C   0  0  0  0  0  0  0  0  0  0  0  0
  155.4936  139.4796  161.2059 O   0  0  0  0  0  0  0  0  0  0  0  0
  155.9382  139.6382  163.4209 N   0  0  0  0  0  0  0  0  0  0  0  0
  156.7810  138.4545  163.5456 C   0  0  0  0  0  0  0  0  0  0  0  0
  156.0192  137.2820  164.1854 C   0  0  1  0  0  0  0  0  0  0  0  0
  154.6508  137.0179  163.5602 C   0  0  0  0  0  0  0  0  0  0  0  0
  154.4112  135.5403  163.8325 C   0  0  0  0  0  0  0  0  0  0  0  0
  155.7823  135.0103  164.2625 C   0  0  0  0  0  0  0  0  0  0  0  0
  156.6948  136.0552  163.9581 O   0  0  0  0  0  0  0  0  0  0  0  0
  152.8730  142.7712  162.0475 C   0  0  0  0  0  0  0  0  0  0  0  0
  152.0703  143.5166  161.2600 N   0  0  0  0  0  0  0  0  0  0  0  0
  150.3808  145.4977  160.5111 H   0  0  0  0  0  0  0  0  0  0  0  0
  149.5043  144.0115  160.1048 H   0  0  0  0  0  0  0  0  0  0  0  0
  149.5580  145.3493  158.9614 H   0  0  0  0  0  0  0  0  0  0  0  0
  152.6263  144.8819  157.5717 H   0  0  0  0  0  0  0  0  0  0  0  0
  150.9109  145.1051  157.2438 H   0  0  0  0  0  0  0  0  0  0  0  0
  151.6085  143.4876  157.1789 H   0  0  0  0  0  0  0  0  0  0  0  0
  153.3069  142.5301  158.2522 H   0  0  0  0  0  0  0  0  0  0  0  0
  154.7472  141.1739  159.6876 H   0  0  0  0  0  0  0  0  0  0  0  0
  154.6974  141.5722  163.4152 H   0  0  0  0  0  0  0  0  0  0  0  0
  155.7760  140.1707  164.2631 H   0  0  0  0  0  0  0  0  0  0  0  0
  157.1609  138.1672  162.5637 H   0  0  0  0  0  0  0  0  0  0  0  0
  157.6504  138.7132  164.1504 H   0  0  0  0  0  0  0  0  0  0  0  0
  155.9060  137.4334  165.2607 H   0  0  0  0  0  0  0  0  0  0  0  0
  153.8714  137.6584  163.9738 H   0  0  0  0  0  0  0  0  0  0  0  0
  154.6877  137.1872  162.4832 H   0  0  0  0  0  0  0  0  0  0  0  0
  153.6749  135.3911  164.6229 H   0  0  0  0  0  0  0  0  0  0  0  0
  154.0482  135.0362  162.9364 H   0  0  0  0  0  0  0  0  0  0  0  0
  155.8006  134.8214  165.3369 H   0  0  0  0  0  0  0  0  0  0  0  0
  156.0554  134.0875  163.7502 H   0  0  0  0  0  0  0  0  0  0  0  0
  152.7087  142.8652  163.1111 H   0  0  0  0  0  0  0  0  0  0  0  0
  1  2  1  0  0  0  0
  1 20  1  0  0  0  0
  1 21  1  0  0  0  0
  1 22  1  0  0  0  0
  2  3  1  0  0  0  0
  2  4  1  0  0  0  0
  3 23  1  0  0  0  0
  3 24  1  0  0  0  0
  3 25  1  0  0  0  0
  4 19  1  0  0  0  0
  4  5  2  0  0  0  0
  5  6  1  0  0  0  0
  5 26  1  0  0  0  0
  6  7  2  0  0  0  0
  6 27  1  0  0  0  0
  7  8  1  0  0  0  0
  7 18  1  0  0  0  0
  8  9  1  0  0  0  0
  8 28  1  0  0  0  0
  9 10  2  0  0  0  0
  9 11  1  0  0  0  0
 11 12  1  0  0  0  0
 11 29  1  0  0  0  0
 12 13  1  0  0  0  0
 12 30  1  0  0  0  0
 12 31  1  0  0  0  0
 13 17  1  0  0  0  0
 13 14  1  0  0  0  0
 13 32  1  0  0  0  0
 14 15  1  0  0  0  0
 14 33  1  0  0  0  0
 14 34  1  0  0  0  0
 15 16  1  0  0  0  0
 15 35  1  0  0  0  0
 15 36  1  0  0  0  0
 16 17  1  0  0  0  0
 16 37  1  0  0  0  0
 16 38  1  0  0  0  0
 18 19  2  0  0  0  0
 18 39  1  0  0  0  0
M  END
> <s_m_source_file>
AV-unprocessed.smi

> <i_m_source_file_index>
1102

> <i_lp_mmshare_version>
43012

> <i_f3d_flags>
0

> <s_epik_input>
W0NIM11OKFtDSDNdKWMxW2NIXVtjSF1jKFtjSF1uMSlbTkhdQyg9TylbTkhdW0NIMl1bQ0BASF0yW0NIMl1bQ0gyXVtDSDJdTzI=

> <s_epik_cmdline>
J2VwaWtfcHl0aG9uJywgJy1waCcsICc3LjAnLCAnLXRuJywgJzgnLCAnLW1hJywgJzIwMCcsICctbWV0YWxfYmluZGluZycsICctaW1hZScsICc8aW5maWxlLm1hZT4nLCAnLW9tYWUnLCAnPG91dGZpbGUubWFlPic=

> <r_lp_tautomer_probability>
1

> <r_epik_Ionization_Penalty>
0.605145

> <r_epik_Ionization_Penalty_Charging>
0

> <r_epik_Ionization_Penalty_Neutral>
0.605145

> <r_epik_State_Penalty>
0.618734

> <r_epik_Charging_Adjusted_Penalty>
0.618734

> <i_epik_Tot_Q>
0

> <i_epik_Tot_abs_Q>
0

> <r_epik_Metal_State_Penalty>
0.302184

> <b_epik_Metal_Only>
0

> <s_lp_Force_Field>
OPLS_2005

> <r_lp_Energy>
20.895

> <b_lp_Chiralities_Consistent>
1

> <s_lp_Variant>
AV-unprocessed.smi:1102-4

> <Gold.Version>
5.8.1

> <Gold.Id.Protein>
6NUR|6NUR_protein|mol2

> <Gold.PLP.Fitness>
43.7078

> <Gold.PLP.PLP>
-44.4807

> <Gold.PLP.part.hbond>
-1.0000

> <Gold.PLP.part.metal>
0.0000

> <Gold.PLP.part.buried>
-5.5531

> <Gold.PLP.part.nonpolar>
-37.8683

> <Gold.PLP.part.repulsive>
0.1769

> <Gold.PLP.ligand.clash>
0.0000

> <Gold.PLP.ligand.torsion>
0.4088

> <Gold.PLP.Chemscore.Hbond>
0.0000

> <Gold.PLP.Chemscore.CHOScore>
0.0000

> <Gold.PLP.Chemscore.Metal>
0.0000

> <Gold.PLP.Chemscore.Internal.Correction>
0.0446

> <Gold.Rescore>
     Score         DG    S(hbond)    S(metal)    S(lipo)     H(rot)  DE(clash)    DE(int)     intcor
     13.13     -14.42       0.00        0.00     103.01       1.21       0.02       1.28       ----

> <Gold.Chemscore.Fitness>
13.1275

> <Gold.Chemscore.DG>
-14.4223

> <Gold.Chemscore.ZeroCoef>
-5.4800

> <Gold.Chemscore.Hbond>
0.0000

> <Gold.Chemscore.Metal>
0.0000

> <Gold.Chemscore.Lipo>
103.0056

> <Gold.Chemscore.Internal_Hbond>
0.0000

> <Gold.Chemscore.DEClash>
0.0191

> <Gold.Chemscore.DEInternal>
1.2757

> <Gold.Chemscore.Rot>
1.2146

> <Gold.Chemscore.Internal.Correction>
   9.000000E+99

> <Gold.Chemscore.Hbond.Weighted>
-0.0000

> <Gold.Chemscore.Metal.Weighted>
-0.0000

> <Gold.Chemscore.Lipo.Weighted>
-12.0517

> <Gold.Chemscore.Internal_Hbond.Weighted>
0.0000

> <Gold.Chemscore.DEClash.Weighted>
0.0191

> <Gold.Chemscore.DEInternal.Weighted>
1.2757

> <Gold.Chemscore.Rot.Weighted>
3.1093

> <Gold.Chemscore.Internal.Correction.Weighted>
   9.000000E+99

> <Gold.Protein.RotatedTorsions>
[ 6907 6896 6895 6894 ] final  -54.59 input  -60.11 | X-H torsion
[ 7974 7965 7964 7962 ] final  -32.71 input  175.53 | X-H torsion
[ 8008 7997 7996 7995 ] final  136.26 input   59.86 | X-H torsion
[ 10167 10162 10161 10158 ] final  138.56 input  -65.29 | X-H torsion
[ 10718 10713 10712 10709 ] final  169.09 input   66.30 | X-H torsion
[ 10763 10752 10751 10750 ] final   17.77 input  -60.55 | X-H torsion
[ 11005 11000 10999 10996 ] final  -50.66 input  -57.11 | X-H torsion

> <Gold.Protein.ActiveResidues>
 VAL166  LYS551  ARG553  GLY616  TRP617  ASP618  TYR619  PRO620  LYS621  CYS622 
 ASP623  PHE694  ASN695  SER759  ASP760  ASP761  ALA762  ILE779  LEU786  VAL792 
 PHE793  MET794  SER795  GLU796  ALA797  LYS798  CYS799  TRP800  GLU811  SER814 

> <Gold.Protein.RotatedAtoms>
  150.8325  134.7584  159.6865 H   0  0  0  0  0  0  0  0  0  0  0  0  # atno 6907 bound_to 6896
  152.4427  134.5555  159.9889 H   0  0  0  0  0  0  0  0  0  0  0  0  # atno 6908 bound_to 6896
  151.5712  133.3352  159.3026 H   0  0  0  0  0  0  0  0  0  0  0  0  # atno 6909 bound_to 6896
  146.0968  140.5827  142.8839 H   0  0  0  0  0  0  0  0  0  0  0  0  # atno 7974 bound_to 7965
  156.3004  140.2450  156.3716 H   0  0  0  0  0  0  0  0  0  0  0  0  # atno 8008 bound_to 7997
  154.8784  140.0413  157.1786 H   0  0  0  0  0  0  0  0  0  0  0  0  # atno 8009 bound_to 7997
  154.8722  140.2937  155.5478 H   0  0  0  0  0  0  0  0  0  0  0  0  # atno 8010 bound_to 7997
  139.5106  144.6346  151.5730 H   0  0  0  0  0  0  0  0  0  0  0  0  # atno 10167 bound_to 10162
  157.0277  131.0250  151.2754 H   0  0  0  0  0  0  0  0  0  0  0  0  # atno 10718 bound_to 10713
  153.1309  135.6740  153.9180 H   0  0  0  0  0  0  0  0  0  0  0  0  # atno 10763 bound_to 10752
  153.8666  135.3075  155.3441 H   0  0  0  0  0  0  0  0  0  0  0  0  # atno 10764 bound_to 10752
  154.7706  135.4941  153.9723 H   0  0  0  0  0  0  0  0  0  0  0  0  # atno 10765 bound_to 10752
  141.0828  133.6649  156.3764 H   0  0  0  0  0  0  0  0  0  0  0  0  # atno 11005 bound_to 11000
  144.7401  140.4920  143.6875 LP  0  0  0  0  0  0  0  0  0  0  0  0  # atno 17320 bound_to 7965
  145.5932  139.1497  143.3170 LP  0  0  0  0  0  0  0  0  0  0  0  0  # atno 17321 bound_to 7965
  140.6090  143.9471  150.6439 LP  0  0  0  0  0  0  0  0  0  0  0  0  # atno 17342 bound_to 10162
  140.2707  143.3458  152.1240 LP  0  0  0  0  0  0  0  0  0  0  0  0  # atno 17343 bound_to 10162
  157.5201  130.7993  149.7800 LP  0  0  0  0  0  0  0  0  0  0  0  0  # atno 17370 bound_to 10713
  156.0080  130.3846  150.2363 LP  0  0  0  0  0  0  0  0  0  0  0  0  # atno 17371 bound_to 10713
  140.5430  134.6102  157.5385 LP  0  0  0  0  0  0  0  0  0  0  0  0  # atno 17394 bound_to 11000
  139.9644  134.7398  156.0170 LP  0  0  0  0  0  0  0  0  0  0  0  0  # atno 17395 bound_to 11000

$$$$
