AV-unprocessed.smi:3193|AV-procd|sdf|12208|dock2
  -GOLD-   2272018 43D 1   1.00000     0.00000
 Structure written by MMmdl.
 41 42  0  0  0  0  0  0  0  0  3 V2000
  152.0693  144.6603  159.7961 C   0  0  0  0  0  0  0  0  0  0  0  0
  152.6279  143.2685  159.4431 C   0  0  1  0  0  0  0  0  0  0  0  0
  153.1304  142.5756  160.7274 C   0  0  0  0  0  0  0  0  0  0  0  0
  153.7536  141.2037  160.4375 C   0  0  0  0  0  0  0  0  0  0  0  0
  152.7620  140.3007  159.6962 C   0  0  0  0  0  0  0  0  0  0  0  0
  152.2653  140.9759  158.4102 C   0  0  0  0  0  0  0  0  0  0  0  0
  151.6203  142.3530  158.6840 C   0  0  2  0  0  0  0  0  0  0  0  0
  151.1153  142.9557  157.3536 C   0  0  0  0  0  0  0  0  0  0  0  0
  149.7685  142.4626  157.0048 N   0  3  0  0  0  0  0  0  0  0  0  0
  149.7562  141.1706  156.2905 C   0  0  0  0  0  0  0  0  0  0  0  0
  149.5430  141.3666  154.7805 C   0  0  0  0  0  0  0  0  0  0  0  0
  148.1256  141.5237  154.4325 N   0  0  0  0  0  0  0  0  0  0  0  0
  147.2380  142.4292  154.9558 C   0  0  0  0  0  0  0  0  0  0  0  0
  146.0370  142.2050  154.3335 C   0  0  0  0  0  0  0  0  0  0  0  0
  146.2428  141.1772  153.4528 N   0  3  0  0  0  0  0  0  0  0  0  0
  147.5144  140.7680  153.5098 C   0  0  0  0  0  0  0  0  0  0  0  0
  151.1332  144.5855  160.3504 H   0  0  0  0  0  0  0  0  0  0  0  0
  151.8934  145.2647  158.9067 H   0  0  0  0  0  0  0  0  0  0  0  0
  152.7737  145.2185  160.4137 H   0  0  0  0  0  0  0  0  0  0  0  0
  153.4942  143.4245  158.7978 H   0  0  0  0  0  0  0  0  0  0  0  0
  153.8690  143.2036  161.2268 H   0  0  0  0  0  0  0  0  0  0  0  0
  152.3040  142.4572  161.4299 H   0  0  0  0  0  0  0  0  0  0  0  0
  154.6565  141.3291  159.8385 H   0  0  0  0  0  0  0  0  0  0  0  0
  154.0639  140.7302  161.3695 H   0  0  0  0  0  0  0  0  0  0  0  0
  153.2342  139.3470  159.4586 H   0  0  0  0  0  0  0  0  0  0  0  0
  151.9148  140.0736  160.3446 H   0  0  0  0  0  0  0  0  0  0  0  0
  153.0991  141.0903  157.7160 H   0  0  0  0  0  0  0  0  0  0  0  0
  151.5476  140.3170  157.9198 H   0  0  0  0  0  0  0  0  0  0  0  0
  150.7571  142.1775  159.3285 H   0  0  0  0  0  0  0  0  0  0  0  0
  151.1186  144.0453  157.4100 H   0  0  0  0  0  0  0  0  0  0  0  0
  151.7806  142.6817  156.5336 H   0  0  0  0  0  0  0  0  0  0  0  0
  149.2234  142.3783  157.8514 H   0  0  0  0  0  0  0  0  0  0  0  0
  150.6959  140.6449  156.4666 H   0  0  0  0  0  0  0  0  0  0  0  0
  148.9613  140.5470  156.7010 H   0  0  0  0  0  0  0  0  0  0  0  0
  150.0624  142.2637  154.4412 H   0  0  0  0  0  0  0  0  0  0  0  0
  149.9554  140.5279  154.2171 H   0  0  0  0  0  0  0  0  0  0  0  0
  147.5177  143.1474  155.7135 H   0  0  0  0  0  0  0  0  0  0  0  0
  145.0774  142.6890  154.4461 H   0  0  0  0  0  0  0  0  0  0  0  0
  147.9562  139.9801  152.9256 H   0  0  0  0  0  0  0  0  0  0  0  0
  149.3364  143.1546  156.4095 H   0  0  0  0  0  0  0  0  0  0  0  0
  145.5374  140.7879  152.8391 H   0  0  0  0  0  0  0  0  0  0  0  0
  1  2  1  0  0  0  0
  1 17  1  0  0  0  0
  1 18  1  0  0  0  0
  1 19  1  0  0  0  0
  2  7  1  0  0  0  0
  2  3  1  0  0  0  0
  2 20  1  0  0  0  0
  3  4  1  0  0  0  0
  3 21  1  0  0  0  0
  3 22  1  0  0  0  0
  4  5  1  0  0  0  0
  4 23  1  0  0  0  0
  4 24  1  0  0  0  0
  5  6  1  0  0  0  0
  5 25  1  0  0  0  0
  5 26  1  0  0  0  0
  6  7  1  0  0  0  0
  6 27  1  0  0  0  0
  6 28  1  0  0  0  0
  7  8  1  0  0  0  0
  7 29  1  0  0  0  0
  8  9  1  0  0  0  0
  8 30  1  0  0  0  0
  8 31  1  0  0  0  0
  9 10  1  0  0  0  0
  9 32  1  0  0  0  0
  9 40  1  0  0  0  0
 10 11  1  0  0  0  0
 10 33  1  0  0  0  0
 10 34  1  0  0  0  0
 11 12  1  0  0  0  0
 11 35  1  0  0  0  0
 11 36  1  0  0  0  0
 12 16  1  0  0  0  0
 12 13  1  0  0  0  0
 13 14  2  0  0  0  0
 13 37  1  0  0  0  0
 14 15  1  0  0  0  0
 14 38  1  0  0  0  0
 15 16  2  0  0  0  0
 15 41  1  0  0  0  0
 16 39  1  0  0  0  0
M  CHG  1   9   1
M  CHG  1  15   1
M  END
> <s_m_source_file>
AV-unprocessed.smi

> <i_m_source_file_index>
3193

> <i_lp_mmshare_version>
43012

> <i_f3d_flags>
0

> <s_epik_input>
W0NIM11bQ0BASF0xW0NIMl1bQ0gyXVtDSDJdW0NIMl1bQ0BIXTFbQ0gyXVtOSF1bQ0gyXVtDSDJdbjJbY0hdW2NIXW5bY0hdMg==

> <s_epik_cmdline>
J2VwaWtfcHl0aG9uJywgJy1waCcsICc3LjAnLCAnLXRuJywgJzgnLCAnLW1hJywgJzIwMCcsICctbWV0YWxfYmluZGluZycsICctaW1hZScsICc8aW5maWxlLm1hZT4nLCAnLW9tYWUnLCAnPG91dGZpbGUubWFlPic=

> <r_lp_tautomer_probability>
1

> <r_epik_Ionization_Penalty>
1.50262

> <r_epik_Ionization_Penalty_Charging>
0.00193432

> <r_epik_Ionization_Penalty_Neutral>
1.50068

> <r_epik_State_Penalty>
1.11854

> <r_epik_Charging_Adjusted_Penalty>
1.12048

> <i_epik_Tot_Q>
2

> <i_epik_Tot_abs_Q>
2

> <r_epik_Metal_State_Penalty>
5.11322

> <b_epik_Metal_Only>
0

> <s_lp_Force_Field>
OPLS_2005

> <r_lp_Energy>
27.1702

> <b_lp_Chiralities_Consistent>
1

> <s_lp_Variant>
AV-unprocessed.smi:3193-8

> <Gold.Version>
5.8.1

> <Gold.Id.Protein>
6NUR|6NUR_protein|mol2

> <Gold.PLP.Fitness>
55.7550

> <Gold.PLP.PLP>
-39.9738

> <Gold.PLP.part.hbond>
-2.0000

> <Gold.PLP.part.metal>
0.0000

> <Gold.PLP.part.buried>
-1.4671

> <Gold.PLP.part.nonpolar>
-37.3455

> <Gold.PLP.part.repulsive>
0.0354

> <Gold.PLP.ligand.clash>
0.0000

> <Gold.PLP.ligand.torsion>
0.8874

> <Gold.PLP.Chemscore.Hbond>
4.0000

> <Gold.PLP.Chemscore.CHOScore>
1.8260

> <Gold.PLP.Chemscore.Metal>
0.0000

> <Gold.Chemscore.Hbonds>
donor molecule, donor type, donor heavy atom, donor atom, acceptor molecule, acceptor atom, score
      L1  H     9    40       P1  8028  2.00
      L1  H    15    41       P1 10175  1.95
      L1  C    13    37       P1  8028  0.85
      L1  C    16    39       P1  7957  1.00

> <Gold.PLP.Chemscore.Internal.Correction>
0.0778

> <Gold.Rescore>
     Score         DG    S(hbond)    S(metal)    S(lipo)     H(rot)  DE(clash)    DE(int)     intcor
     18.41     -19.33       1.95        0.00     106.13       1.98       0.05       0.88       ----

> <Gold.Chemscore.Fitness>
18.4054

> <Gold.Chemscore.DG>
-19.3313

> <Gold.Chemscore.ZeroCoef>
-5.4800

> <Gold.Chemscore.Hbond>
1.9450

> <Gold.Chemscore.Metal>
0.0000

> <Gold.Chemscore.Lipo>
106.1293

> <Gold.Chemscore.Internal_Hbond>
0.0000

> <Gold.Chemscore.DEClash>
0.0456

> <Gold.Chemscore.DEInternal>
0.8803

> <Gold.Chemscore.Rot>
1.9774

> <Gold.Chemscore.Internal.Correction>
   9.000000E+99

> <Gold.Chemscore.Hbonds>
donor molecule, donor type, donor heavy atom, donor atom, acceptor molecule, acceptor atom, score
      L1  H     9    40       P1  8028  1.00
      L1  H    15    41       P1 10175  0.41

> <Gold.Chemscore.Hbond.Weighted>
-6.4964

> <Gold.Chemscore.Metal.Weighted>
-0.0000

> <Gold.Chemscore.Lipo.Weighted>
-12.4171

> <Gold.Chemscore.Internal_Hbond.Weighted>
0.0000

> <Gold.Chemscore.DEClash.Weighted>
0.0456

> <Gold.Chemscore.DEInternal.Weighted>
0.8803

> <Gold.Chemscore.Rot.Weighted>
5.0622

> <Gold.Chemscore.Internal.Correction.Weighted>
   9.000000E+99

> <Gold.Protein.RotatedTorsions>
[ 6907 6896 6895 6894 ] final  111.14 input  -60.11 | X-H torsion
[ 7974 7965 7964 7962 ] final  -59.25 input  175.53 | X-H torsion
[ 8008 7997 7996 7995 ] final -156.33 input   59.86 | X-H torsion
[ 10167 10162 10161 10158 ] final  163.57 input  -65.29 | X-H torsion
[ 10718 10713 10712 10709 ] final -145.29 input   66.30 | X-H torsion
[ 10763 10752 10751 10750 ] final  -79.49 input  -60.55 | X-H torsion
[ 11005 11000 10999 10996 ] final  125.04 input  -57.11 | X-H torsion

> <Gold.Protein.ActiveResidues>
 VAL166  LYS551  ARG553  GLY616  TRP617  ASP618  TYR619  PRO620  LYS621  CYS622 
 ASP623  PHE694  ASN695  SER759  ASP760  ASP761  ALA762  ILE779  LEU786  VAL792 
 PHE793  MET794  SER795  GLU796  ALA797  LYS798  CYS799  TRP800  GLU811  SER814 

> <Gold.Protein.RotatedAtoms>
  152.4984  133.8699  159.7292 H   0  0  0  0  0  0  0  0  0  0  0  0  # atno 6907 bound_to 6896
  150.9189  133.6896  159.2843 H   0  0  0  0  0  0  0  0  0  0  0  0  # atno 6908 bound_to 6896
  151.4280  135.1010  159.9686 H   0  0  0  0  0  0  0  0  0  0  0  0  # atno 6909 bound_to 6896
  145.8297  140.8488  143.0090 H   0  0  0  0  0  0  0  0  0  0  0  0  # atno 7974 bound_to 7965
  155.7155  140.0783  157.2353 H   0  0  0  0  0  0  0  0  0  0  0  0  # atno 8008 bound_to 7997
  154.4052  140.1622  156.2397 H   0  0  0  0  0  0  0  0  0  0  0  0  # atno 8009 bound_to 7997
  155.9244  140.3395  155.6201 H   0  0  0  0  0  0  0  0  0  0  0  0  # atno 8010 bound_to 7997
  139.4876  144.4324  151.9054 H   0  0  0  0  0  0  0  0  0  0  0  0  # atno 10167 bound_to 10162
  156.3807  130.7835  151.2027 H   0  0  0  0  0  0  0  0  0  0  0  0  # atno 10718 bound_to 10713
  154.5393  135.5694  153.6825 H   0  0  0  0  0  0  0  0  0  0  0  0  # atno 10763 bound_to 10752
  152.9959  135.6224  154.2524 H   0  0  0  0  0  0  0  0  0  0  0  0  # atno 10764 bound_to 10752
  154.2454  135.2861  155.2817 H   0  0  0  0  0  0  0  0  0  0  0  0  # atno 10765 bound_to 10752
  139.9387  134.9637  156.8500 H   0  0  0  0  0  0  0  0  0  0  0  0  # atno 11005 bound_to 11000
  144.6741  140.0654  143.7475 LP  0  0  0  0  0  0  0  0  0  0  0  0  # atno 17320 bound_to 7965
  145.9585  139.2783  143.1170 LP  0  0  0  0  0  0  0  0  0  0  0  0  # atno 17321 bound_to 7965
  140.3772  144.2781  150.5913 LP  0  0  0  0  0  0  0  0  0  0  0  0  # atno 17342 bound_to 10162
  140.5266  143.2253  151.8305 LP  0  0  0  0  0  0  0  0  0  0  0  0  # atno 17343 bound_to 10162
  157.7492  131.0345  150.4320 LP  0  0  0  0  0  0  0  0  0  0  0  0  # atno 17370 bound_to 10713
  156.4563  130.4022  149.6604 LP  0  0  0  0  0  0  0  0  0  0  0  0  # atno 17371 bound_to 10713
  140.6007  134.0174  155.7536 LP  0  0  0  0  0  0  0  0  0  0  0  0  # atno 17394 bound_to 11000
  141.1013  133.9764  157.3074 LP  0  0  0  0  0  0  0  0  0  0  0  0  # atno 17395 bound_to 11000

$$$$
