#       Name:                AV-unprocessed.smi:1285
#       Creating user name   scv26
#       Creation time:       Fri Mar 27 04:52:00 2020


#       File generated by GOLD software.
#

@<TRIPOS>MOLECULE
AV-unprocessed.smi:1285
    53    54     1
SMALL
NO_CHARGES


@<TRIPOS>ATOM
      1 ****        -2.5429  -0.9185  -0.4118 C.3            1 S1                 0.0000
      2 ****        -1.0146  -0.7419  -0.4500 C.3            1 S1                 0.0000
      3 ****        -0.3846  -0.0299   0.7875 C.3            1 S1                 0.0000
      4 ****        -0.8725   1.4434   0.7652 C.3            1 S1                 0.0000
      5 ****         1.1725  -0.0449   0.6730 C.3            1 S1                 0.0000
      6 ****         1.6657   0.6547  -0.5118 N.am           1 S1                 0.0000
      7 ****         2.0965   0.0760  -1.6446 C.2            1 S1                 0.0000
      8 ****         2.2066  -1.1433  -1.7778 O.2            1 S1                 0.0000
      9 ****         2.4159   1.0298  -2.8072 C.3            1 S1                 0.0000
     10 ****         3.2104   0.3551  -3.9437 C.3            1 S1                 0.0000
     11 ****         1.1880   1.6480  -3.2942 N.pl3          1 S1                 0.0000
     12 ****         0.6934   2.8674  -3.0701 C.2            1 S1                 0.0000
     13 ****        -0.4892   3.0802  -3.6295 N.2            1 S1                 0.0000
     14 ****        -0.6828   1.8653  -4.2233 C.2            1 S1                 0.0000
     15 ****         0.2854   0.9672  -4.0442 N.2            1 S1                 0.0000
     16 ****        -0.8323  -0.7124   2.0565 N.4            1 S1                 1.0000
     17 ****        -0.4633  -2.1510   2.1870 C.3            1 S1                 0.0000
     18 ****        -1.1589  -2.7757   3.4067 C.3            1 S1                 0.0000
     19 ****        -0.7864  -2.0636   4.5780 O.3            1 S1                 0.0000
     20 ****        -1.1964  -0.7046   4.5198 C.3            1 S1                 0.0000
     21 ****        -0.5196  -0.0027   3.3294 C.3            1 S1                 0.0000
     22 ****        -2.8876  -1.4216  -1.3153 H              1 S1                 0.0000
     23 ****        -3.0606   0.0388  -0.3599 H              1 S1                 0.0000
     24 ****        -2.8640  -1.5224   0.4366 H              1 S1                 0.0000
     25 ****        -0.5490  -1.7143  -0.6085 H              1 S1                 0.0000
     26 ****        -0.7805  -0.1805  -1.3547 H              1 S1                 0.0000
     27 ****        -0.7625   1.8906  -0.2237 H              1 S1                 0.0000
     28 ****        -0.3039   2.0742   1.4488 H              1 S1                 0.0000
     29 ****        -1.9246   1.5269   1.0382 H              1 S1                 0.0000
     30 ****         1.6230   0.4507   1.5324 H              1 S1                 0.0000
     31 ****         1.5587  -1.0643   0.6824 H              1 S1                 0.0000
     32 ****         1.6174   1.6631  -0.4915 H              1 S1                 0.0000
     33 ****         3.0407   1.8285  -2.4040 H              1 S1                 0.0000
     34 ****         4.1553  -0.0484  -3.5783 H              1 S1                 0.0000
     35 ****         3.4459   1.0727  -4.7302 H              1 S1                 0.0000
     36 ****         2.6550  -0.4647  -4.4012 H              1 S1                 0.0000
     37 ****         1.2041   3.6113  -2.4764 H              1 S1                 0.0000
     38 ****        -1.5677   1.6329  -4.7973 H              1 S1                 0.0000
     39 ****        -0.7502  -2.7219   1.3064 H              1 S1                 0.0000
     40 ****         0.6153  -2.2578   2.3020 H              1 S1                 0.0000
     41 ****        -2.2435  -2.7679   3.2859 H              1 S1                 0.0000
     42 ****        -0.8581  -3.8176   3.5175 H              1 S1                 0.0000
     43 ****        -2.2831  -0.6434   4.4418 H              1 S1                 0.0000
     44 ****        -0.9171  -0.2137   5.4522 H              1 S1                 0.0000
     45 ****         0.5584   0.0276   3.4897 H              1 S1                 0.0000
     46 ****        -0.8719   1.0270   3.3132 H              1 S1                 0.0000
     47 ****        -1.8408  -0.7050   1.9981 H              1 S1                 0.0000
     48 ****         1.9701  -1.7523  -1.0207 LP             1 S1                 0.0000
     49 ****         2.5325  -1.5243  -2.6430 LP             1 S1                 0.0000
     50 ****        -1.0707   3.8937  -3.6197 LP             1 S1                 0.0000
     51 ****         0.3344   0.0262  -4.3791 LP             1 S1                 0.0000
     52 ****         0.2082  -2.0981   4.6756 LP             1 S1                 0.0000
     53 ****        -1.2143  -2.4975   5.3709 LP             1 S1                 0.0000
@<TRIPOS>BOND
    1    1    2 1     
    2    1   22 1     
    3    1   23 1     
    4    1   24 1     
    5    2    3 1     
    6    2   25 1     
    7    2   26 1     
    8    3    4 1     
    9    3    5 1     
   10    3   16 1     
   11    4   27 1     
   12    4   28 1     
   13    4   29 1     
   14    5    6 1     
   15    5   30 1     
   16    5   31 1     
   17    6    7 am    
   18    6   32 1     
   19    7    8 2     
   20    7    9 1     
   21    9   10 1     
   22    9   11 1     
   23    9   33 1     
   24   10   34 1     
   25   10   35 1     
   26   10   36 1     
   27   11   15 1     
   28   11   12 1     
   29   12   13 2     
   30   12   37 1     
   31   13   14 1     
   32   14   15 2     
   33   14   38 1     
   34   16   21 1     
   35   16   17 1     
   36   16   47 1     
   37   17   18 1     
   38   17   39 1     
   39   17   40 1     
   40   18   19 1     
   41   18   41 1     
   42   18   42 1     
   43   19   20 1     
   44   20   21 1     
   45   20   43 1     
   46   20   44 1     
   47   21   45 1     
   48   21   46 1     
   49    8   48 1     
   50    8   49 1     
   51   13   50 1     
   52   15   51 1     
   53   19   52 1     
   54   19   53 1     
@<TRIPOS>SUBSTRUCTURE
      1 S1             1
@<TRIPOS>SET
LONE_PAIRS      STATIC     ATOMS    <user>   **** ""
6 48 49 50 51 52 53
DONOR_HYDROGENS      STATIC     ATOMS    <user>   **** ""
2 32 47
ATOM$BLUE        STATIC     ATOMS    COLORGROUP SYSTEM
6 48 49 50 51 52 53
ATOM$RED        STATIC     ATOMS    COLORGROUP SYSTEM
2 32 47
