AV-unprocessed.smi:2775|AV-procd|sdf|10691|dock10
  -GOLD-   2272015133D 1   1.00000     0.00000
 Structure written by MMmdl.
 42 45  0  0  0  0  0  0  0  0  1 V2000
  145.7711  133.0905  160.7331 C   0  0  0  0  0  0  0  0  0  0  0  0
  146.6572  134.3054  160.9354 C   0  0  0  0  0  0  0  0  0  0  0  0
  146.8421  134.6882  162.2179 N   0  0  0  0  0  0  0  0  0  0  0  0
  147.6288  135.7582  162.4546 C   0  0  0  0  0  0  0  0  0  0  0  0
  148.2600  136.4960  161.4351 C   0  0  0  0  0  0  0  0  0  0  0  0
  148.0541  136.1072  160.0903 C   0  0  0  0  0  0  0  0  0  0  0  0
  148.6576  136.7667  158.9861 N   0  0  0  0  0  0  0  0  0  0  0  0
  149.9091  137.2513  158.8746 C   0  0  0  0  0  0  0  0  0  0  0  0
  150.7835  137.1450  159.7319 O   0  0  0  0  0  0  0  0  0  0  0  0
  150.1293  137.9232  157.7312 N   0  0  0  0  0  0  0  0  0  0  0  0
  151.3738  138.5692  157.3061 C   0  0  1  0  0  0  0  0  0  0  0  0
  151.7420  138.3339  155.8215 C   0  0  1  0  0  0  0  0  0  0  0  0
  150.7872  137.7370  154.8190 C   0  0  0  0  0  0  0  0  0  0  0  0
  149.9172  138.9265  154.4269 C   0  0  0  0  0  0  0  0  0  0  0  0
  150.7731  140.0610  154.5612 O   0  0  0  0  0  0  0  0  0  0  0  0
  151.7266  139.8454  155.6050 C   0  0  1  0  0  0  0  0  0  0  0  0
  151.2098  140.0742  157.0375 C   0  0  0  0  0  0  0  0  0  0  0  0
  149.9093  140.8580  157.3134 C   0  0  0  0  0  0  0  0  0  0  0  0
  150.7751  142.0728  157.6541 C   0  0  0  0  0  0  0  0  0  0  0  0
  151.9226  141.0994  157.9336 C   0  0  0  0  0  0  0  0  0  0  0  0
  147.2425  134.9772  159.8367 C   0  0  0  0  0  0  0  0  0  0  0  0
  146.9634  134.4347  158.2152 Cl  0  0  0  0  0  0  0  0  0  0  0  0
  144.9024  133.3516  160.1284 H   0  0  0  0  0  0  0  0  0  0  0  0
  145.4125  132.6917  161.6832 H   0  0  0  0  0  0  0  0  0  0  0  0
  146.3224  132.3002  160.2234 H   0  0  0  0  0  0  0  0  0  0  0  0
  147.7651  136.0320  163.4902 H   0  0  0  0  0  0  0  0  0  0  0  0
  148.8920  137.3293  161.7015 H   0  0  0  0  0  0  0  0  0  0  0  0
  148.0289  137.0028  158.2324 H   0  0  0  0  0  0  0  0  0  0  0  0
  149.3375  138.0447  157.1163 H   0  0  0  0  0  0  0  0  0  0  0  0
  152.2193  138.3796  157.9702 H   0  0  0  0  0  0  0  0  0  0  0  0
  152.7493  137.9225  155.7438 H   0  0  0  0  0  0  0  0  0  0  0  0
  151.3375  137.3783  153.9487 H   0  0  0  0  0  0  0  0  0  0  0  0
  150.2046  136.9002  155.2028 H   0  0  0  0  0  0  0  0  0  0  0  0
  149.5193  138.8419  153.4157 H   0  0  0  0  0  0  0  0  0  0  0  0
  149.0755  139.0236  155.1133 H   0  0  0  0  0  0  0  0  0  0  0  0
  152.7076  140.2785  155.4056 H   0  0  0  0  0  0  0  0  0  0  0  0
  149.2503  141.0039  156.4581 H   0  0  0  0  0  0  0  0  0  0  0  0
  149.3594  140.4933  158.1825 H   0  0  0  0  0  0  0  0  0  0  0  0
  150.9637  142.7118  156.7897 H   0  0  0  0  0  0  0  0  0  0  0  0
  150.4403  142.6465  158.5187 H   0  0  0  0  0  0  0  0  0  0  0  0
  151.9631  140.7895  158.9792 H   0  0  0  0  0  0  0  0  0  0  0  0
  152.8980  141.4292  157.5752 H   0  0  0  0  0  0  0  0  0  0  0  0
  1  2  1  0  0  0  0
  1 23  1  0  0  0  0
  1 24  1  0  0  0  0
  1 25  1  0  0  0  0
  2 21  1  0  0  0  0
  2  3  2  0  0  0  0
  3  4  1  0  0  0  0
  4  5  2  0  0  0  0
  4 26  1  0  0  0  0
  5  6  1  0  0  0  0
  5 27  1  0  0  0  0
  6  7  1  0  0  0  0
  6 21  2  0  0  0  0
  7  8  1  0  0  0  0
  7 28  1  0  0  0  0
  8  9  2  0  0  0  0
  8 10  1  0  0  0  0
 10 11  1  0  0  0  0
 10 29  1  0  0  0  0
 11 17  1  0  0  0  0
 11 12  1  0  0  0  0
 11 30  1  0  0  0  0
 12 16  1  0  0  0  0
 12 13  1  0  0  0  0
 12 31  1  0  0  0  0
 13 14  1  0  0  0  0
 13 32  1  0  0  0  0
 13 33  1  0  0  0  0
 14 15  1  0  0  0  0
 14 34  1  0  0  0  0
 14 35  1  0  0  0  0
 15 16  1  0  0  0  0
 16 17  1  0  0  0  0
 16 36  1  0  0  0  0
 17 20  1  0  0  0  0
 17 18  1  0  0  0  0
 18 19  1  0  0  0  0
 18 37  1  0  0  0  0
 18 38  1  0  0  0  0
 19 20  1  0  0  0  0
 19 39  1  0  0  0  0
 19 40  1  0  0  0  0
 20 41  1  0  0  0  0
 20 42  1  0  0  0  0
 21 22  1  0  0  0  0
M  END
> <s_m_source_file>
AV-unprocessed.smi

> <i_m_source_file_index>
2775

> <i_lp_mmshare_version>
43012

> <i_f3d_flags>
0

> <s_epik_input>
W0NIM11jMW5bY0hdW2NIXWMoYzFDbClbTkhdQyg9TylbTkhdW0NAQEhdMltDQEhdKFtDSDJdW0NIMl1PMylbQ0BASF0zQzI0W0NIMl1bQ0gyXVtDSDJdNA==

> <s_epik_cmdline>
J2VwaWtfcHl0aG9uJywgJy1waCcsICc3LjAnLCAnLXRuJywgJzgnLCAnLW1hJywgJzIwMCcsICctbWV0YWxfYmluZGluZycsICctaW1hZScsICc8aW5maWxlLm1hZT4nLCAnLW9tYWUnLCAnPG91dGZpbGUubWFlPic=

> <r_epik_Ionization_Penalty>
0.01026

> <r_epik_Ionization_Penalty_Charging>
0

> <r_epik_Ionization_Penalty_Neutral>
0.01026

> <r_epik_State_Penalty>
0.00780685

> <r_epik_Charging_Adjusted_Penalty>
0.00780685

> <i_epik_Tot_Q>
0

> <i_epik_Tot_abs_Q>
0

> <r_epik_Metal_State_Penalty>
0.00767411

> <b_epik_Metal_Only>
0

> <s_lp_Force_Field>
OPLS_2005

> <r_lp_Energy>
57.8128

> <b_lp_Chiralities_Consistent>
1

> <s_lp_Variant>
AV-unprocessed.smi:2775-4

> <Gold.Version>
5.8.1

> <Gold.Id.Protein>
6NUR|6NUR_protein|mol2

> <Gold.PLP.Fitness>
38.5168

> <Gold.PLP.PLP>
-33.4027

> <Gold.PLP.part.hbond>
-1.9464

> <Gold.PLP.part.metal>
0.0000

> <Gold.PLP.part.buried>
-4.9589

> <Gold.PLP.part.nonpolar>
-26.7348

> <Gold.PLP.part.repulsive>
0.3081

> <Gold.PLP.ligand.clash>
0.0000

> <Gold.PLP.ligand.torsion>
0.4374

> <Gold.PLP.Chemscore.Hbond>
1.9425

> <Gold.PLP.Chemscore.CHOScore>
0.0000

> <Gold.PLP.Chemscore.Metal>
0.0000

> <Gold.Chemscore.Hbonds>
donor molecule, donor type, donor heavy atom, donor atom, acceptor molecule, acceptor atom, score
      P1  H  6896  6907       L1     9  0.86
      P1  H  7989  7998       L1    15  1.00

> <Gold.PLP.Chemscore.Internal.Correction>
0.1615

> <Gold.Rescore>
     Score         DG    S(hbond)    S(metal)    S(lipo)     H(rot)  DE(clash)    DE(int)     intcor
     18.40     -19.75       1.96        0.00      87.90       1.00       0.00       1.35       ----

> <Gold.Chemscore.Fitness>
18.4033

> <Gold.Chemscore.DG>
-19.7502

> <Gold.Chemscore.ZeroCoef>
-5.4800

> <Gold.Chemscore.Hbond>
1.9597

> <Gold.Chemscore.Metal>
0.0000

> <Gold.Chemscore.Lipo>
87.9044

> <Gold.Chemscore.Internal_Hbond>
0.0000

> <Gold.Chemscore.DEClash>
0.0000

> <Gold.Chemscore.DEInternal>
1.3469

> <Gold.Chemscore.Rot>
1.0000

> <Gold.Chemscore.Internal.Correction>
   9.000000E+99

> <Gold.Chemscore.Hbonds>
donor molecule, donor type, donor heavy atom, donor atom, acceptor molecule, acceptor atom, score
      P1  H  6896  6907       L1     9  0.42
      P1  H  7989  7998       L1    15  0.34

> <Gold.Chemscore.Hbond.Weighted>
-6.5454

> <Gold.Chemscore.Metal.Weighted>
-0.0000

> <Gold.Chemscore.Lipo.Weighted>
-10.2848

> <Gold.Chemscore.Internal_Hbond.Weighted>
0.0000

> <Gold.Chemscore.DEClash.Weighted>
0.0000

> <Gold.Chemscore.DEInternal.Weighted>
1.3469

> <Gold.Chemscore.Rot.Weighted>
2.5600

> <Gold.Chemscore.Internal.Correction.Weighted>
   9.000000E+99

> <Gold.Protein.RotatedTorsions>
[ 6907 6896 6895 6894 ] final  -26.94 input  -60.11 | X-H torsion
[ 7974 7965 7964 7962 ] final  -22.65 input  175.53 | X-H torsion
[ 8008 7997 7996 7995 ] final   94.69 input   59.86 | X-H torsion
[ 10167 10162 10161 10158 ] final -158.19 input  -65.29 | X-H torsion
[ 10718 10713 10712 10709 ] final   42.13 input   66.30 | X-H torsion
[ 10763 10752 10751 10750 ] final  -68.25 input  -60.55 | X-H torsion
[ 11005 11000 10999 10996 ] final  116.62 input  -57.11 | X-H torsion

> <Gold.Protein.ActiveResidues>
 VAL166  LYS551  ARG553  GLY616  TRP617  ASP618  TYR619  PRO620  LYS621  CYS622 
 ASP623  PHE694  ASN695  SER759  ASP760  ASP761  ALA762  ILE779  LEU786  VAL792 
 PHE793  MET794  SER795  GLU796  ALA797  LYS798  CYS799  TRP800  GLU811  SER814 

> <Gold.Protein.RotatedAtoms>
  151.1538  135.0240  159.8679 H   0  0  0  0  0  0  0  0  0  0  0  0  # atno 6907 bound_to 6896
  152.5452  134.1357  159.8468 H   0  0  0  0  0  0  0  0  0  0  0  0  # atno 6908 bound_to 6896
  151.1445  133.4903  159.2629 H   0  0  0  0  0  0  0  0  0  0  0  0  # atno 6909 bound_to 6896
  146.1663  140.4509  142.8551 H   0  0  0  0  0  0  0  0  0  0  0  0  # atno 7974 bound_to 7965
  156.0607  140.3296  155.7458 H   0  0  0  0  0  0  0  0  0  0  0  0  # atno 8008 bound_to 7997
  155.5459  140.0606  157.2878 H   0  0  0  0  0  0  0  0  0  0  0  0  # atno 8009 bound_to 7997
  154.4480  140.1902  156.0626 H   0  0  0  0  0  0  0  0  0  0  0  0  # atno 8010 bound_to 7997
  139.6711  143.9743  152.2284 H   0  0  0  0  0  0  0  0  0  0  0  0  # atno 10167 bound_to 10162
  157.4014  130.7862  149.7351 H   0  0  0  0  0  0  0  0  0  0  0  0  # atno 10718 bound_to 10713
  154.3863  135.6063  153.5818 H   0  0  0  0  0  0  0  0  0  0  0  0  # atno 10763 bound_to 10752
  152.9787  135.5873  154.4351 H   0  0  0  0  0  0  0  0  0  0  0  0  # atno 10764 bound_to 10752
  154.4128  135.2844  155.2004 H   0  0  0  0  0  0  0  0  0  0  0  0  # atno 10765 bound_to 10752
  139.9047  134.9600  156.7227 H   0  0  0  0  0  0  0  0  0  0  0  0  # atno 11005 bound_to 11000
  144.8097  140.6363  143.6423 LP  0  0  0  0  0  0  0  0  0  0  0  0  # atno 17320 bound_to 7965
  145.4459  139.1529  143.3945 LP  0  0  0  0  0  0  0  0  0  0  0  0  # atno 17321 bound_to 7965
  139.9508  144.6622  150.8174 LP  0  0  0  0  0  0  0  0  0  0  0  0  # atno 17342 bound_to 10162
  140.7618  143.3184  151.2680 LP  0  0  0  0  0  0  0  0  0  0  0  0  # atno 17343 bound_to 10162
  155.9824  130.4010  150.3418 LP  0  0  0  0  0  0  0  0  0  0  0  0  # atno 17370 bound_to 10713
  157.1546  131.0329  151.2869 LP  0  0  0  0  0  0  0  0  0  0  0  0  # atno 17371 bound_to 10713
  140.6988  133.9325  155.8011 LP  0  0  0  0  0  0  0  0  0  0  0  0  # atno 17394 bound_to 11000
  141.0387  134.0652  157.3928 LP  0  0  0  0  0  0  0  0  0  0  0  0  # atno 17395 bound_to 11000

$$$$
