AV-unprocessed.smi:600|AV-procd|sdf|3030|dock3
  -GOLD-   2262023543D 1   1.00000     0.00000
 Structure written by MMmdl.
 33 34  0  0  0  0  0  0  0  0  1 V2000
  154.1728  139.9315  160.0946 C   0  0  0  0  0  0  0  0  0  0  0  0
  154.5316  139.3217  158.8678 O   0  0  0  0  0  0  0  0  0  0  0  0
  153.5292  138.4423  158.3856 C   0  0  0  0  0  0  0  0  0  0  0  0
  153.8605  138.0083  156.9485 C   0  0  0  0  0  0  0  0  0  0  0  0
  152.6476  137.7205  156.1745 N   0  0  0  0  0  0  0  0  0  0  0  0
  152.0771  136.4923  156.4641 N   0  0  0  0  0  0  0  0  0  0  0  0
  151.0148  136.0984  155.8404 C   0  0  0  0  0  0  0  0  0  0  0  0
  150.4222  134.7632  156.1617 C   0  0  0  0  0  0  0  0  0  0  0  0
  150.6903  134.2530  157.2552 O   0  0  0  0  0  0  0  0  0  0  0  0
  149.6134  134.2301  155.1575 N   0  0  0  0  0  0  0  0  0  0  0  0
  149.5957  132.9587  154.8888 C   0  0  0  0  0  0  0  0  0  0  0  0
  150.3121  131.9293  155.4912 N   0  0  0  0  0  0  0  0  0  0  0  0
  150.3790  130.6602  154.7901 C   0  0  0  0  0  0  0  0  0  0  0  0
  149.0837  130.5094  153.9974 C   0  0  0  0  0  0  0  0  0  0  0  0
  148.5786  132.1921  153.5987 S   0  0  0  0  0  0  0  0  0  0  0  0
  150.3955  136.9470  154.8281 C   0  0  0  0  0  0  0  0  0  0  0  0
  150.9652  138.1414  154.5561 C   0  0  0  0  0  0  0  0  0  0  0  0
  152.1726  138.6005  155.2428 C   0  0  0  0  0  0  0  0  0  0  0  0
  152.7127  139.6795  155.0011 O   0  0  0  0  0  0  0  0  0  0  0  0
  154.9706  140.5993  160.4191 H   0  0  0  0  0  0  0  0  0  0  0  0
  154.0204  139.1854  160.8755 H   0  0  0  0  0  0  0  0  0  0  0  0
  153.2610  140.5209  159.9904 H   0  0  0  0  0  0  0  0  0  0  0  0
  153.4408  137.5704  159.0359 H   0  0  0  0  0  0  0  0  0  0  0  0
  152.5655  138.9532  158.3970 H   0  0  0  0  0  0  0  0  0  0  0  0
  154.4106  138.8107  156.4541 H   0  0  0  0  0  0  0  0  0  0  0  0
  154.5453  137.1589  156.9594 H   0  0  0  0  0  0  0  0  0  0  0  0
  151.2385  130.6795  154.1193 H   0  0  0  0  0  0  0  0  0  0  0  0
  150.5189  129.8352  155.4889 H   0  0  0  0  0  0  0  0  0  0  0  0
  149.2076  129.8997  153.1023 H   0  0  0  0  0  0  0  0  0  0  0  0
  148.3092  130.0559  154.6166 H   0  0  0  0  0  0  0  0  0  0  0  0
  149.5033  136.6526  154.2958 H   0  0  0  0  0  0  0  0  0  0  0  0
  150.5167  138.7790  153.8087 H   0  0  0  0  0  0  0  0  0  0  0  0
  150.9786  132.0786  156.2356 H   0  0  0  0  0  0  0  0  0  0  0  0
  1  2  1  0  0  0  0
  1 20  1  0  0  0  0
  1 21  1  0  0  0  0
  1 22  1  0  0  0  0
  2  3  1  0  0  0  0
  3  4  1  0  0  0  0
  3 23  1  0  0  0  0
  3 24  1  0  0  0  0
  4  5  1  0  0  0  0
  4 25  1  0  0  0  0
  4 26  1  0  0  0  0
  5 18  1  0  0  0  0
  5  6  1  0  0  0  0
  6  7  2  0  0  0  0
  7  8  1  0  0  0  0
  7 16  1  0  0  0  0
  8  9  2  0  0  0  0
  8 10  1  0  0  0  0
 10 11  2  0  0  0  0
 11 15  1  0  0  0  0
 11 12  1  0  0  0  0
 12 13  1  0  0  0  0
 12 33  1  0  0  0  0
 13 14  1  0  0  0  0
 13 27  1  0  0  0  0
 13 28  1  0  0  0  0
 14 15  1  0  0  0  0
 14 29  1  0  0  0  0
 14 30  1  0  0  0  0
 16 17  2  0  0  0  0
 16 31  1  0  0  0  0
 17 18  1  0  0  0  0
 17 32  1  0  0  0  0
 18 19  2  0  0  0  0
M  END
> <s_m_source_file>
AV-unprocessed.smi

> <i_m_source_file_index>
600

> <i_lp_mmshare_version>
43012

> <i_f3d_flags>
0

> <s_epik_input>
W0NIM11PW0NIMl1bQ0gyXW4xbmMoW2NIXVtjSF1jMT1PKUMoPU8pW05IXUMyPU5bQ0gyXVtDSDJdUzI=

> <s_epik_cmdline>
J2VwaWtfcHl0aG9uJywgJy1waCcsICc3LjAnLCAnLXRuJywgJzgnLCAnLW1hJywgJzIwMCcsICctbWV0YWxfYmluZGluZycsICctaW1hZScsICc8aW5maWxlLm1hZT4nLCAnLW9tYWUnLCAnPG91dGZpbGUubWFlPic=

> <r_epik_Ionization_Penalty>
0.0115713

> <r_epik_Ionization_Penalty_Charging>
8.15052e-11

> <r_epik_Ionization_Penalty_Neutral>
0.0115713

> <r_epik_State_Penalty>
0.0066973

> <r_epik_Charging_Adjusted_Penalty>
0.0066973

> <i_epik_Tot_Q>
0

> <i_epik_Tot_abs_Q>
0

> <r_epik_Metal_State_Penalty>
-0

> <b_epik_Metal_Only>
0

> <s_epik_Chemistry_Notes>
This compound has an imine and may undergo hydrolysis.

> <s_lp_Force_Field>
OPLS_2005

> <r_lp_Energy>
40.8102

> <b_lp_Chiralities_Consistent>
1

> <s_lp_Variant>
AV-unprocessed.smi:600-1

> <Gold.Version>
5.8.1

> <Gold.Id.Protein>
6NUR|6NUR_protein|mol2

> <Gold.PLP.Fitness>
37.5556

> <Gold.PLP.PLP>
-29.7547

> <Gold.PLP.part.hbond>
-5.0000

> <Gold.PLP.part.metal>
0.0000

> <Gold.PLP.part.buried>
-2.5486

> <Gold.PLP.part.nonpolar>
-23.4162

> <Gold.PLP.part.repulsive>
0.1285

> <Gold.PLP.ligand.clash>
0.0000

> <Gold.PLP.ligand.torsion>
0.9102

> <Gold.PLP.Chemscore.Hbond>
3.2001

> <Gold.PLP.Chemscore.CHOScore>
0.0000

> <Gold.PLP.Chemscore.Metal>
0.0000

> <Gold.Chemscore.Hbonds>
donor molecule, donor type, donor heavy atom, donor atom, acceptor molecule, acceptor atom, score
      P1  H  6896  6908       L1     9  0.55
      P1  H  7989  7998       L1    19  0.35
      P1  H  7997  8008       L1    19  0.98
      P1  H  7997  8010       L1     2  1.00
      P1  H 10752 10764       L1     6  0.33

> <Gold.PLP.Chemscore.Internal.Correction>
0.0211

> <Gold.Rescore>
     Score         DG    S(hbond)    S(metal)    S(lipo)     H(rot)  DE(clash)    DE(int)     intcor
     14.61     -15.77       2.51        0.00      49.97       1.54       0.12       1.03       ----

> <Gold.Chemscore.Fitness>
14.6126

> <Gold.Chemscore.DG>
-15.7689

> <Gold.Chemscore.ZeroCoef>
-5.4800

> <Gold.Chemscore.Hbond>
2.5124

> <Gold.Chemscore.Metal>
0.0000

> <Gold.Chemscore.Lipo>
49.9698

> <Gold.Chemscore.Internal_Hbond>
0.0000

> <Gold.Chemscore.DEClash>
0.1214

> <Gold.Chemscore.DEInternal>
1.0349

> <Gold.Chemscore.Rot>
1.5425

> <Gold.Chemscore.Internal.Correction>
   9.000000E+99

> <Gold.Chemscore.Hbonds>
donor molecule, donor type, donor heavy atom, donor atom, acceptor molecule, acceptor atom, score
      P1  H  6896  6908       L1     9  0.52
      P1  H  7989  7998       L1    19  0.31
      P1  H  7997  8008       L1    19  0.92
      P1  H  7997  8010       L1     2  0.40

> <Gold.Chemscore.Hbond.Weighted>
-8.3913

> <Gold.Chemscore.Metal.Weighted>
-0.0000

> <Gold.Chemscore.Lipo.Weighted>
-5.8465

> <Gold.Chemscore.Internal_Hbond.Weighted>
0.0000

> <Gold.Chemscore.DEClash.Weighted>
0.1214

> <Gold.Chemscore.DEInternal.Weighted>
1.0349

> <Gold.Chemscore.Rot.Weighted>
3.9489

> <Gold.Chemscore.Internal.Correction.Weighted>
   9.000000E+99

> <Gold.Protein.RotatedTorsions>
[ 6907 6896 6895 6894 ] final  118.33 input  -60.11 | X-H torsion
[ 7974 7965 7964 7962 ] final -130.35 input  175.53 | X-H torsion
[ 8008 7997 7996 7995 ] final   -8.05 input   59.86 | X-H torsion
[ 10167 10162 10161 10158 ] final  -69.00 input  -65.29 | X-H torsion
[ 10718 10713 10712 10709 ] final  -41.07 input   66.30 | X-H torsion
[ 10763 10752 10751 10750 ] final  -23.42 input  -60.55 | X-H torsion
[ 11005 11000 10999 10996 ] final    9.04 input  -57.11 | X-H torsion

> <Gold.Protein.ActiveResidues>
 VAL166  LYS551  ARG553  GLY616  TRP617  ASP618  TYR619  PRO620  LYS621  CYS622 
 ASP623  PHE694  ASN695  SER759  ASP760  ASP761  ALA762  ILE779  LEU786  VAL792 
 PHE793  MET794  SER795  GLU796  ALA797  LYS798  CYS799  TRP800  GLU811  SER814 

> <Gold.Protein.RotatedAtoms>
  152.4551  133.7706  159.6796 H   0  0  0  0  0  0  0  0  0  0  0  0  # atno 6907 bound_to 6896
  150.8474  133.7829  159.3044 H   0  0  0  0  0  0  0  0  0  0  0  0  # atno 6908 bound_to 6896
  151.5435  135.1071  159.9984 H   0  0  0  0  0  0  0  0  0  0  0  0  # atno 6909 bound_to 6896
  144.9483  140.7316  143.4803 H   0  0  0  0  0  0  0  0  0  0  0  0  # atno 7974 bound_to 7965
  154.5779  140.2391  155.8096 H   0  0  0  0  0  0  0  0  0  0  0  0  # atno 8008 bound_to 7997
  156.2157  140.3013  155.9790 H   0  0  0  0  0  0  0  0  0  0  0  0  # atno 8009 bound_to 7997
  155.2594  140.0414  157.2986 H   0  0  0  0  0  0  0  0  0  0  0  0  # atno 8010 bound_to 7997
  140.5464  143.2313  151.6993 H   0  0  0  0  0  0  0  0  0  0  0  0  # atno 10167 bound_to 10162
  156.2744  130.4210  149.8403 H   0  0  0  0  0  0  0  0  0  0  0  0  # atno 10718 bound_to 10713
  153.6676  135.6973  153.5157 H   0  0  0  0  0  0  0  0  0  0  0  0  # atno 10763 bound_to 10752
  153.2583  135.4253  155.0867 H   0  0  0  0  0  0  0  0  0  0  0  0  # atno 10764 bound_to 10752
  154.8435  135.3548  154.6220 H   0  0  0  0  0  0  0  0  0  0  0  0  # atno 10765 bound_to 10752
  140.5302  134.0473  155.7871 H   0  0  0  0  0  0  0  0  0  0  0  0  # atno 11005 bound_to 11000
  145.2883  139.1893  143.4754 LP  0  0  0  0  0  0  0  0  0  0  0  0  # atno 17320 bound_to 7965
  146.3312  140.2856  142.8612 LP  0  0  0  0  0  0  0  0  0  0  0  0  # atno 17321 bound_to 7965
  139.5009  144.3888  152.0301 LP  0  0  0  0  0  0  0  0  0  0  0  0  # atno 17342 bound_to 10162
  140.3001  144.3656  150.6063 LP  0  0  0  0  0  0  0  0  0  0  0  0  # atno 17343 bound_to 10162
  156.5873  130.8491  151.3399 LP  0  0  0  0  0  0  0  0  0  0  0  0  # atno 17370 bound_to 10713
  157.7294  130.9671  150.1788 LP  0  0  0  0  0  0  0  0  0  0  0  0  # atno 17371 bound_to 10713
  141.1285  133.9342  157.2584 LP  0  0  0  0  0  0  0  0  0  0  0  0  # atno 17394 bound_to 11000
  139.9558  135.0166  156.9124 LP  0  0  0  0  0  0  0  0  0  0  0  0  # atno 17395 bound_to 11000

$$$$
