AV-unprocessed.smi:1305|AV-procd|sdf|5433|dock8
  -GOLD-   22720 4593D 1   1.00000     0.00000
 Structure written by MMmdl.
 32 33  0  0  0  0  0  0  0  0  1 V2000
  150.0378  138.6158  155.2779 C   0  0  0  0  0  0  0  0  0  0  0  0
  151.1841  139.3457  155.9858 C   0  0  0  0  0  0  0  0  0  0  0  0
  152.1858  138.3805  156.6313 C   0  0  0  0  0  0  0  0  0  0  0  0
  151.9159  138.2473  158.4233 S   0  0  0  0  0  0  0  0  0  0  0  0
  151.9627  139.9573  158.8789 C   0  0  0  0  0  0  0  0  0  0  0  0
  151.1930  140.9065  158.3371 N   0  0  0  0  0  0  0  0  0  0  0  0
  151.5559  142.0811  158.9546 N   0  0  0  0  0  0  0  0  0  0  0  0
  152.5012  141.7411  159.8324 C   0  0  0  0  0  0  0  0  0  0  0  0
  153.2106  142.7293  160.7038 C   0  0  0  0  0  0  0  0  0  0  0  0
  153.2621  142.5491  162.2047 C   0  0  0  0  0  0  0  0  0  0  0  0
  152.4476  143.6687  161.6130 C   0  0  0  0  0  0  0  0  0  0  0  0
  152.8083  140.4270  159.8221 N   0  0  0  0  0  0  0  0  0  0  0  0
  153.8008  139.7094  160.6154 C   0  0  0  0  0  0  0  0  0  0  0  0
  155.2329  140.0552  160.1975 C   0  0  0  0  0  0  0  0  0  0  0  0
  155.9933  140.7110  161.0784 N   0  0  0  0  0  0  0  0  0  0  0  0
  155.6536  139.7214  159.0922 O   0  0  0  0  0  0  0  0  0  0  0  0
  149.3414  139.3261  154.8318 H   0  0  0  0  0  0  0  0  0  0  0  0
  149.4769  137.9935  155.9754 H   0  0  0  0  0  0  0  0  0  0  0  0
  150.4129  137.9727  154.4815 H   0  0  0  0  0  0  0  0  0  0  0  0
  151.7012  139.9834  155.2682 H   0  0  0  0  0  0  0  0  0  0  0  0
  150.7723  140.0080  156.7480 H   0  0  0  0  0  0  0  0  0  0  0  0
  152.0907  137.3917  156.1816 H   0  0  0  0  0  0  0  0  0  0  0  0
  153.2042  138.7264  156.4508 H   0  0  0  0  0  0  0  0  0  0  0  0
  154.0966  143.1165  160.2044 H   0  0  0  0  0  0  0  0  0  0  0  0
  152.7167  141.7121  162.6358 H   0  0  0  0  0  0  0  0  0  0  0  0
  154.1908  142.8098  162.7081 H   0  0  0  0  0  0  0  0  0  0  0  0
  152.8303  144.6810  161.7231 H   0  0  0  0  0  0  0  0  0  0  0  0
  151.3645  143.5731  161.6547 H   0  0  0  0  0  0  0  0  0  0  0  0
  153.6600  139.9369  161.6722 H   0  0  0  0  0  0  0  0  0  0  0  0
  153.6331  138.6371  160.5080 H   0  0  0  0  0  0  0  0  0  0  0  0
  156.9435  140.9572  160.8410 H   0  0  0  0  0  0  0  0  0  0  0  0
  155.6140  140.9584  161.9808 H   0  0  0  0  0  0  0  0  0  0  0  0
  1  2  1  0  0  0  0
  1 17  1  0  0  0  0
  1 18  1  0  0  0  0
  1 19  1  0  0  0  0
  2  3  1  0  0  0  0
  2 20  1  0  0  0  0
  2 21  1  0  0  0  0
  3  4  1  0  0  0  0
  3 22  1  0  0  0  0
  3 23  1  0  0  0  0
  4  5  1  0  0  0  0
  5 12  1  0  0  0  0
  5  6  2  0  0  0  0
  6  7  1  0  0  0  0
  7  8  2  0  0  0  0
  8  9  1  0  0  0  0
  8 12  1  0  0  0  0
  9 11  1  0  0  0  0
  9 10  1  0  0  0  0
  9 24  1  0  0  0  0
 10 11  1  0  0  0  0
 10 25  1  0  0  0  0
 10 26  1  0  0  0  0
 11 27  1  0  0  0  0
 11 28  1  0  0  0  0
 12 13  1  0  0  0  0
 13 14  1  0  0  0  0
 13 29  1  0  0  0  0
 13 30  1  0  0  0  0
 14 15  1  0  0  0  0
 14 16  2  0  0  0  0
 15 31  1  0  0  0  0
 15 32  1  0  0  0  0
M  END
> <s_m_source_file>
AV-unprocessed.smi

> <i_m_source_file_index>
1305

> <i_lp_mmshare_version>
43012

> <i_f3d_flags>
0

> <s_epik_input>
W0NIM11bQ0gyXVtDSDJdU2Mxbm5jKFtDSF0yW0NIMl1bQ0gyXTIpbjFbQ0gyXUMoPU8pW05IMl0=

> <s_epik_cmdline>
J2VwaWtfcHl0aG9uJywgJy1waCcsICc3LjAnLCAnLXRuJywgJzgnLCAnLW1hJywgJzIwMCcsICctbWV0YWxfYmluZGluZycsICctaW1hZScsICc8aW5maWxlLm1hZT4nLCAnLW9tYWUnLCAnPG91dGZpbGUubWFlPic=

> <r_lp_tautomer_probability>
1

> <r_epik_Ionization_Penalty>
4.21319e-06

> <r_epik_Ionization_Penalty_Charging>
0

> <r_epik_Ionization_Penalty_Neutral>
4.21319e-06

> <r_epik_State_Penalty>
-0

> <r_epik_Charging_Adjusted_Penalty>
0

> <i_epik_Tot_Q>
0

> <i_epik_Tot_abs_Q>
0

> <r_epik_Metal_State_Penalty>
-0

> <b_epik_Metal_Only>
0

> <s_lp_Force_Field>
OPLS_2005

> <r_lp_Energy>
5.08374

> <b_lp_Chiralities_Consistent>
1

> <s_lp_Variant>
AV-unprocessed.smi:1305-1

> <Gold.Version>
5.8.1

> <Gold.Id.Protein>
6NUR|6NUR_protein|mol2

> <Gold.PLP.Fitness>
38.2150

> <Gold.PLP.PLP>
-36.1599

> <Gold.PLP.part.hbond>
-2.0000

> <Gold.PLP.part.metal>
0.0000

> <Gold.PLP.part.buried>
-3.0020

> <Gold.PLP.part.nonpolar>
-30.1033

> <Gold.PLP.part.repulsive>
0.0220

> <Gold.PLP.ligand.clash>
0.0000

> <Gold.PLP.ligand.torsion>
0.5466

> <Gold.PLP.Chemscore.Hbond>
1.0000

> <Gold.PLP.Chemscore.CHOScore>
0.0000

> <Gold.PLP.Chemscore.Metal>
0.0000

> <Gold.Chemscore.Hbonds>
donor molecule, donor type, donor heavy atom, donor atom, acceptor molecule, acceptor atom, score
      P1  H  7997  8009       L1    16  1.00

> <Gold.PLP.Chemscore.Internal.Correction>
0.1483

> <Gold.Rescore>
     Score         DG    S(hbond)    S(metal)    S(lipo)     H(rot)  DE(clash)    DE(int)     intcor
      8.66     -10.38       1.00        0.00      69.67       2.57       0.13       1.59       ----

> <Gold.Chemscore.Fitness>
8.6590

> <Gold.Chemscore.DG>
-10.3796

> <Gold.Chemscore.ZeroCoef>
-5.4800

> <Gold.Chemscore.Hbond>
0.9954

> <Gold.Chemscore.Metal>
0.0000

> <Gold.Chemscore.Lipo>
69.6739

> <Gold.Chemscore.Internal_Hbond>
0.0000

> <Gold.Chemscore.DEClash>
0.1334

> <Gold.Chemscore.DEInternal>
1.5872

> <Gold.Chemscore.Rot>
2.5691

> <Gold.Chemscore.Internal.Correction>
   9.000000E+99

> <Gold.Chemscore.Hbonds>
donor molecule, donor type, donor heavy atom, donor atom, acceptor molecule, acceptor atom, score
      P1  H  7997  8009       L1    16  1.00

> <Gold.Chemscore.Hbond.Weighted>
-3.3247

> <Gold.Chemscore.Metal.Weighted>
-0.0000

> <Gold.Chemscore.Lipo.Weighted>
-8.1518

> <Gold.Chemscore.Internal_Hbond.Weighted>
0.0000

> <Gold.Chemscore.DEClash.Weighted>
0.1334

> <Gold.Chemscore.DEInternal.Weighted>
1.5872

> <Gold.Chemscore.Rot.Weighted>
6.5770

> <Gold.Chemscore.Internal.Correction.Weighted>
   9.000000E+99

> <Gold.Protein.RotatedTorsions>
[ 6907 6896 6895 6894 ] final  -90.70 input  -60.11 | X-H torsion
[ 7974 7965 7964 7962 ] final  134.99 input  175.53 | X-H torsion
[ 8008 7997 7996 7995 ] final   94.39 input   59.86 | X-H torsion
[ 10167 10162 10161 10158 ] final   85.10 input  -65.29 | X-H torsion
[ 10718 10713 10712 10709 ] final   96.73 input   66.30 | X-H torsion
[ 10763 10752 10751 10750 ] final  156.06 input  -60.55 | X-H torsion
[ 11005 11000 10999 10996 ] final    9.69 input  -57.11 | X-H torsion

> <Gold.Protein.ActiveResidues>
 VAL166  LYS551  ARG553  GLY616  TRP617  ASP618  TYR619  PRO620  LYS621  CYS622 
 ASP623  PHE694  ASN695  SER759  ASP760  ASP761  ALA762  ILE779  LEU786  VAL792 
 PHE793  MET794  SER795  GLU796  ALA797  LYS798  CYS799  TRP800  GLU811  SER814 

> <Gold.Protein.RotatedAtoms>
  150.6884  134.2391  159.4465 H   0  0  0  0  0  0  0  0  0  0  0  0  # atno 6907 bound_to 6896
  152.0337  134.9750  160.0582 H   0  0  0  0  0  0  0  0  0  0  0  0  # atno 6908 bound_to 6896
  152.1279  133.4356  159.4744 H   0  0  0  0  0  0  0  0  0  0  0  0  # atno 6909 bound_to 6896
  144.9708  139.4608  143.5434 H   0  0  0  0  0  0  0  0  0  0  0  0  # atno 7974 bound_to 7965
  156.0574  140.3300  155.7422 H   0  0  0  0  0  0  0  0  0  0  0  0  # atno 8008 bound_to 7997
  155.5507  140.0610  157.2868 H   0  0  0  0  0  0  0  0  0  0  0  0  # atno 8009 bound_to 7997
  154.4465  140.1894  156.0672 H   0  0  0  0  0  0  0  0  0  0  0  0  # atno 8010 bound_to 7997
  139.9013  144.6328  150.8634 H   0  0  0  0  0  0  0  0  0  0  0  0  # atno 10167 bound_to 10162
  157.6923  131.0587  150.4536 H   0  0  0  0  0  0  0  0  0  0  0  0  # atno 10718 bound_to 10713
  154.1783  135.2801  155.3060 H   0  0  0  0  0  0  0  0  0  0  0  0  # atno 10763 bound_to 10752
  154.6022  135.5526  153.7390 H   0  0  0  0  0  0  0  0  0  0  0  0  # atno 10764 bound_to 10752
  153.0145  135.6394  154.1922 H   0  0  0  0  0  0  0  0  0  0  0  0  # atno 10765 bound_to 10752
  140.5229  134.0541  155.7850 H   0  0  0  0  0  0  0  0  0  0  0  0  # atno 11005 bound_to 11000
  146.3381  139.8918  142.8808 LP  0  0  0  0  0  0  0  0  0  0  0  0  # atno 17320 bound_to 7965
  145.2562  141.0061  143.3852 LP  0  0  0  0  0  0  0  0  0  0  0  0  # atno 17321 bound_to 7965
  140.7706  143.3435  151.2159 LP  0  0  0  0  0  0  0  0  0  0  0  0  # atno 17342 bound_to 10162
  139.7023  143.9512  152.2911 LP  0  0  0  0  0  0  0  0  0  0  0  0  # atno 17343 bound_to 10162
  156.4886  130.4090  149.6420 LP  0  0  0  0  0  0  0  0  0  0  0  0  # atno 17370 bound_to 10713
  156.3439  130.7396  151.2346 LP  0  0  0  0  0  0  0  0  0  0  0  0  # atno 17371 bound_to 10713
  141.1324  133.9279  157.2507 LP  0  0  0  0  0  0  0  0  0  0  0  0  # atno 17394 bound_to 11000
  139.9596  135.0157  156.9223 LP  0  0  0  0  0  0  0  0  0  0  0  0  # atno 17395 bound_to 11000

$$$$
