AV-unprocessed.smi:265|AV-procd|sdf|2027|dock3
  -GOLD-   2262021233D 1   1.00000     0.00000
 Structure written by MMmdl.
 52 56  0  0  0  0  0  0  0  0  1 V2000
  151.9599  139.9452  157.4143 C   0  0  0  0  0  0  0  0  0  0  0  0
  152.2145  139.2513  156.0678 C   0  0  2  0  0  0  0  0  0  0  0  0
  151.4077  139.8235  155.0419 O   0  0  0  0  0  0  0  0  0  0  0  0
  151.0352  138.8252  154.0951 C   0  0  0  0  0  0  0  0  0  0  0  0
  151.7953  137.5651  154.4999 C   0  0  0  0  0  0  0  0  0  0  0  0
  151.9433  137.7362  156.0072 C   0  0  1  0  0  0  0  0  0  0  0  0
  153.0811  137.0159  156.4437 O   0  0  0  0  0  0  0  0  0  0  0  0
  150.6986  137.2819  156.8173 C   0  0  0  0  0  0  0  0  0  0  0  0
  149.9685  136.1829  156.2056 N   0  0  0  0  0  0  0  0  0  0  0  0
  148.8609  136.2791  155.3941 C   0  0  0  0  0  0  0  0  0  0  0  0
  148.3832  135.1422  154.9673 N   0  0  0  0  0  0  0  0  0  0  0  0
  149.2326  134.1885  155.5162 C   0  0  0  0  0  0  0  0  0  0  0  0
  149.2923  132.7670  155.4655 C   0  0  0  0  0  0  0  0  0  0  0  0
  148.4122  132.0205  154.7512 N   0  0  0  0  0  0  0  0  0  0  0  0
  148.8450  130.6872  154.3179 C   0  0  0  0  0  0  0  0  0  0  0  0
  147.6525  129.8396  153.8350 C   0  0  0  0  0  0  0  0  0  0  0  0
  146.8681  130.6037  152.7607 C   0  0  1  0  0  0  0  0  0  0  0  0
  145.6994  129.9065  152.3566 O   0  0  0  0  0  0  0  0  0  0  0  0
  145.0316  130.5143  151.2452 C   0  0  0  0  0  0  0  0  0  0  0  0
  144.8609  132.0398  151.4103 C   0  0  0  0  0  0  0  0  0  0  0  0
  144.1071  132.6556  150.6604 O   0  0  0  0  0  0  0  0  0  0  0  0
  145.5846  132.6608  152.3563 N   0  0  0  0  0  0  0  0  0  0  0  0
  146.4007  131.9512  153.3322 C   0  0  2  0  0  0  0  0  0  0  0  0
  147.6147  132.7778  153.7833 C   0  0  0  0  0  0  0  0  0  0  0  0
  150.2848  132.1583  156.1690 N   0  0  0  0  0  0  0  0  0  0  0  0
  151.1653  132.8855  156.8631 C   0  0  0  0  0  0  0  0  0  0  0  0
  151.2348  134.2115  156.9920 N   0  0  0  0  0  0  0  0  0  0  0  0
  150.2356  134.8281  156.2985 C   0  0  0  0  0  0  0  0  0  0  0  0
  147.5160  130.7559  151.8946 H   0  0  0  0  0  0  0  0  0  0  0  0
  145.7640  131.7695  154.2000 H   0  0  0  0  0  0  0  0  0  0  0  0
  152.5509  139.4885  158.2084 H   0  0  0  0  0  0  0  0  0  0  0  0
  150.9100  139.8973  157.7030 H   0  0  0  0  0  0  0  0  0  0  0  0
  152.2351  140.9987  157.3618 H   0  0  0  0  0  0  0  0  0  0  0  0
  153.2503  139.4352  155.7749 H   0  0  0  0  0  0  0  0  0  0  0  0
  149.9589  138.6640  154.1626 H   0  0  0  0  0  0  0  0  0  0  0  0
  151.2666  139.1381  153.0768 H   0  0  0  0  0  0  0  0  0  0  0  0
  151.3004  136.6460  154.1885 H   0  0  0  0  0  0  0  0  0  0  0  0
  152.7762  137.5788  154.0212 H   0  0  0  0  0  0  0  0  0  0  0  0
  153.7767  137.6311  156.6178 H   0  0  0  0  0  0  0  0  0  0  0  0
  150.9909  136.9683  157.8201 H   0  0  0  0  0  0  0  0  0  0  0  0
  150.0079  138.1153  156.9511 H   0  0  0  0  0  0  0  0  0  0  0  0
  148.4121  137.2260  155.1309 H   0  0  0  0  0  0  0  0  0  0  0  0
  149.5736  130.7920  153.5128 H   0  0  0  0  0  0  0  0  0  0  0  0
  149.3444  130.1719  155.1395 H   0  0  0  0  0  0  0  0  0  0  0  0
  148.0038  128.8861  153.4399 H   0  0  0  0  0  0  0  0  0  0  0  0
  146.9993  129.6088  154.6774 H   0  0  0  0  0  0  0  0  0  0  0  0
  145.6023  130.3236  150.3355 H   0  0  0  0  0  0  0  0  0  0  0  0
  144.0555  130.0457  151.1178 H   0  0  0  0  0  0  0  0  0  0  0  0
  145.5023  133.6627  152.4514 H   0  0  0  0  0  0  0  0  0  0  0  0
  147.2728  133.7240  154.2011 H   0  0  0  0  0  0  0  0  0  0  0  0
  148.2433  133.0230  152.9259 H   0  0  0  0  0  0  0  0  0  0  0  0
  151.9236  132.3247  157.3894 H   0  0  0  0  0  0  0  0  0  0  0  0
  1  2  1  0  0  0  0
  1 31  1  0  0  0  0
  1 32  1  0  0  0  0
  1 33  1  0  0  0  0
  2  6  1  0  0  0  0
  2  3  1  0  0  0  0
  2 34  1  0  0  0  0
  3  4  1  0  0  0  0
  4  5  1  0  0  0  0
  4 35  1  0  0  0  0
  4 36  1  0  0  0  0
  5  6  1  0  0  0  0
  5 37  1  0  0  0  0
  5 38  1  0  0  0  0
  6  7  1  0  0  0  0
  6  8  1  0  0  0  0
  7 39  1  0  0  0  0
  8  9  1  0  0  0  0
  8 40  1  0  0  0  0
  8 41  1  0  0  0  0
  9 28  1  0  0  0  0
  9 10  1  0  0  0  0
 10 11  2  0  0  0  0
 10 42  1  0  0  0  0
 11 12  1  0  0  0  0
 12 28  2  0  0  0  0
 12 13  1  0  0  0  0
 13 14  1  0  0  0  0
 13 25  2  0  0  0  0
 14 24  1  0  0  0  0
 14 15  1  0  0  0  0
 15 16  1  0  0  0  0
 15 43  1  0  0  0  0
 15 44  1  0  0  0  0
 16 17  1  0  0  0  0
 16 45  1  0  0  0  0
 16 46  1  0  0  0  0
 17 29  1  0  0  0  0
 17 23  1  0  0  0  0
 17 18  1  0  0  0  0
 18 19  1  0  0  0  0
 19 20  1  0  0  0  0
 19 47  1  0  0  0  0
 19 48  1  0  0  0  0
 20 21  2  0  0  0  0
 20 22  1  0  0  0  0
 22 23  1  0  0  0  0
 22 49  1  0  0  0  0
 23 30  1  0  0  0  0
 23 24  1  0  0  0  0
 24 50  1  0  0  0  0
 24 51  1  0  0  0  0
 25 26  1  0  0  0  0
 26 27  2  0  0  0  0
 26 52  1  0  0  0  0
 27 28  1  0  0  0  0
M  END
> <s_m_source_file>
AV-unprocessed.smi

> <i_m_source_file_index>
265

> <i_lp_mmshare_version>
43012

> <i_f3d_flags>
0

> <s_epik_input>
W0NIMl0xW0NIMl1PW0NAQEhdKFtDSDNdKVtDQEBdMShbT0hdKVtDSDJdbihbY0hdbjIpYyhjMjMpbltjSF1uYzNOKFtDSDJdW0NIMl00KVtDSDJdW0NAQEhdKFtDQEhdNDUpW05IXUMoPU8pW0NIMl1PNQ==

> <s_epik_cmdline>
J2VwaWtfcHl0aG9uJywgJy1waCcsICc3LjAnLCAnLXRuJywgJzgnLCAnLW1hJywgJzIwMCcsICctbWV0YWxfYmluZGluZycsICctaW1hZScsICc8aW5maWxlLm1hZT4nLCAnLW9tYWUnLCAnPG91dGZpbGUubWFlPic=

> <r_lp_tautomer_probability>
1

> <r_epik_Ionization_Penalty>
0.00221504

> <r_epik_Ionization_Penalty_Charging>
0

> <r_epik_Ionization_Penalty_Neutral>
0.00221504

> <r_epik_State_Penalty>
-0

> <r_epik_Charging_Adjusted_Penalty>
0

> <i_epik_Tot_Q>
0

> <i_epik_Tot_abs_Q>
0

> <r_epik_Metal_State_Penalty>
-0

> <b_epik_Metal_Only>
0

> <s_lp_Force_Field>
OPLS_2005

> <r_lp_Energy>
44.3077

> <b_lp_Chiralities_Consistent>
1

> <s_lp_Variant>
AV-unprocessed.smi:265-13

> <Gold.Version>
5.8.1

> <Gold.Id.Protein>
6NUR|6NUR_protein|mol2

> <Gold.PLP.Fitness>
35.8005

> <Gold.PLP.PLP>
-35.9710

> <Gold.PLP.part.hbond>
-2.4211

> <Gold.PLP.part.metal>
0.0000

> <Gold.PLP.part.buried>
-6.6628

> <Gold.PLP.part.nonpolar>
-27.0808

> <Gold.PLP.part.repulsive>
0.5364

> <Gold.PLP.ligand.clash>
0.0000

> <Gold.PLP.ligand.torsion>
1.4611

> <Gold.PLP.Chemscore.Hbond>
0.7720

> <Gold.PLP.Chemscore.CHOScore>
0.0000

> <Gold.PLP.Chemscore.Metal>
0.0000

> <Gold.Chemscore.Hbonds>
donor molecule, donor type, donor heavy atom, donor atom, acceptor molecule, acceptor atom, score
      P1  H  7989  7998       L1     3  0.15
      P1  H 10752 10765       L1     7  0.78

> <Gold.PLP.Chemscore.Internal.Correction>
0.4356

> <Gold.Rescore>
     Score         DG    S(hbond)    S(metal)    S(lipo)     H(rot)  DE(clash)    DE(int)     intcor
      8.51     -11.37       0.70        0.00      79.37       2.25       0.15       2.71       ----

> <Gold.Chemscore.Fitness>
8.5101

> <Gold.Chemscore.DG>
-11.3673

> <Gold.Chemscore.ZeroCoef>
-5.4800

> <Gold.Chemscore.Hbond>
0.7033

> <Gold.Chemscore.Metal>
0.0000

> <Gold.Chemscore.Lipo>
79.3696

> <Gold.Chemscore.Internal_Hbond>
0.0000

> <Gold.Chemscore.DEClash>
0.1481

> <Gold.Chemscore.DEInternal>
2.7091

> <Gold.Chemscore.Rot>
2.2453

> <Gold.Chemscore.Internal.Correction>
   9.000000E+99

> <Gold.Chemscore.Hbonds>
donor molecule, donor type, donor heavy atom, donor atom, acceptor molecule, acceptor atom, score
      P1  H 10752 10765       L1     7  0.53

> <Gold.Chemscore.Hbond.Weighted>
-2.3489

> <Gold.Chemscore.Metal.Weighted>
-0.0000

> <Gold.Chemscore.Lipo.Weighted>
-9.2862

> <Gold.Chemscore.Internal_Hbond.Weighted>
0.0000

> <Gold.Chemscore.DEClash.Weighted>
0.1481

> <Gold.Chemscore.DEInternal.Weighted>
2.7091

> <Gold.Chemscore.Rot.Weighted>
5.7479

> <Gold.Chemscore.Internal.Correction.Weighted>
   9.000000E+99

> <Gold.Protein.RotatedTorsions>
[ 6907 6896 6895 6894 ] final   49.44 input  -60.11 | X-H torsion
[ 7974 7965 7964 7962 ] final   -9.91 input  175.53 | X-H torsion
[ 8008 7997 7996 7995 ] final   90.19 input   59.86 | X-H torsion
[ 10167 10162 10161 10158 ] final   -7.43 input  -65.29 | X-H torsion
[ 10718 10713 10712 10709 ] final  -69.52 input   66.30 | X-H torsion
[ 10763 10752 10751 10750 ] final -134.29 input  -60.55 | X-H torsion
[ 11005 11000 10999 10996 ] final -179.09 input  -57.11 | X-H torsion

> <Gold.Protein.ActiveResidues>
 VAL166  LYS551  ARG553  GLY616  TRP617  ASP618  TYR619  PRO620  LYS621  CYS622 
 ASP623  PHE694  ASN695  SER759  ASP760  ASP761  ALA762  ILE779  LEU786  VAL792 
 PHE793  MET794  SER795  GLU796  ALA797  LYS798  CYS799  TRP800  GLU811  SER814 

> <Gold.Protein.RotatedAtoms>
  152.2908  134.7724  160.0377 H   0  0  0  0  0  0  0  0  0  0  0  0  # atno 6907 bound_to 6896
  151.8270  133.3397  159.3610 H   0  0  0  0  0  0  0  0  0  0  0  0  # atno 6908 bound_to 6896
  150.7229  134.5448  159.5809 H   0  0  0  0  0  0  0  0  0  0  0  0  # atno 6909 bound_to 6896
  146.2237  140.2686  142.8355 H   0  0  0  0  0  0  0  0  0  0  0  0  # atno 7974 bound_to 7965
  156.0090  140.3352  155.6921 H   0  0  0  0  0  0  0  0  0  0  0  0  # atno 8008 bound_to 7997
  155.6184  140.0672  157.2703 H   0  0  0  0  0  0  0  0  0  0  0  0  # atno 8009 bound_to 7997
  154.4275  140.1781  156.1334 H   0  0  0  0  0  0  0  0  0  0  0  0  # atno 8010 bound_to 7997
  140.7028  143.6081  150.8731 H   0  0  0  0  0  0  0  0  0  0  0  0  # atno 10167 bound_to 10162
  156.0451  130.4314  150.2160 H   0  0  0  0  0  0  0  0  0  0  0  0  # atno 10718 bound_to 10713
  154.8721  135.3739  154.4711 H   0  0  0  0  0  0  0  0  0  0  0  0  # atno 10763 bound_to 10752
  153.5371  135.7027  153.5659 H   0  0  0  0  0  0  0  0  0  0  0  0  # atno 10764 bound_to 10752
  153.3838  135.3990  155.1840 H   0  0  0  0  0  0  0  0  0  0  0  0  # atno 10765 bound_to 10752
  140.4225  134.6592  157.4671 H   0  0  0  0  0  0  0  0  0  0  0  0  # atno 11005 bound_to 11000
  144.9285  140.7949  143.5704 LP  0  0  0  0  0  0  0  0  0  0  0  0  # atno 17320 bound_to 7965
  145.2627  139.1986  143.4883 LP  0  0  0  0  0  0  0  0  0  0  0  0  # atno 17321 bound_to 7965
  139.9805  143.5957  152.2944 LP  0  0  0  0  0  0  0  0  0  0  0  0  # atno 17342 bound_to 10162
  139.6576  144.7662  151.2025 LP  0  0  0  0  0  0  0  0  0  0  0  0  # atno 17343 bound_to 10162
  157.0251  130.9991  151.3328 LP  0  0  0  0  0  0  0  0  0  0  0  0  # atno 17370 bound_to 10713
  157.5317  130.8063  149.7925 LP  0  0  0  0  0  0  0  0  0  0  0  0  # atno 17371 bound_to 10713
  140.0190  134.6576  155.9267 LP  0  0  0  0  0  0  0  0  0  0  0  0  # atno 17394 bound_to 11000
  141.1778  133.6542  156.4898 LP  0  0  0  0  0  0  0  0  0  0  0  0  # atno 17395 bound_to 11000

$$$$
