AV-unprocessed.smi:119|AV-procd|sdf|1136|dock9
  -GOLD-   2262018263D 1   1.00000     0.00000
 Structure written by MMmdl.
 51 54  0  0  0  0  0  0  0  0  1 V2000
  143.3440  137.9485  158.3868 C   0  0  0  0  0  0  0  0  0  0  0  0
  144.4996  136.9901  158.7027 C   0  0  1  0  0  0  0  0  0  0  0  0
  145.6966  137.2362  157.7660 C   0  0  0  0  0  0  0  0  0  0  0  0
  146.7903  136.1542  157.8319 C   0  0  0  0  0  0  0  0  0  0  0  0
  147.5648  136.1997  159.0792 N   0  0  0  0  0  0  0  0  0  0  0  0
  148.6697  136.9726  159.2494 C   0  0  0  0  0  0  0  0  0  0  0  0
  149.2735  137.0196  160.3245 O   0  0  0  0  0  0  0  0  0  0  0  0
  149.1899  137.8195  158.0662 C   0  0  0  0  0  0  0  0  0  0  0  0
  150.3567  138.6632  158.4089 N   0  0  0  0  0  0  0  0  0  0  0  0
  151.4893  138.0459  158.9936 C   0  0  0  0  0  0  0  0  0  0  0  0
  151.5106  136.8352  159.2214 O   0  0  0  0  0  0  0  0  0  0  0  0
  152.6045  138.9353  159.2934 C   0  0  0  0  0  0  0  0  0  0  0  0
  153.7146  138.4391  159.8661 F   0  0  0  0  0  0  0  0  0  0  0  0
  152.5409  140.2532  159.0113 C   0  0  0  0  0  0  0  0  0  0  0  0
  151.4323  140.8447  158.4286 N   0  0  0  0  0  0  0  0  0  0  0  0
  151.3683  142.3168  158.0702 C   0  0  1  0  0  0  0  0  0  0  0  0
  150.2180  143.1068  158.7006 C   0  0  0  0  0  0  0  0  0  0  0  0
  150.7729  144.5070  158.5824 C   0  0  0  0  0  0  0  0  0  0  0  0
  152.2474  144.2781  158.9148 C   0  0  0  0  0  0  0  0  0  0  0  0
  152.5342  142.9347  158.5273 O   0  0  0  0  0  0  0  0  0  0  0  0
  150.3103  140.0462  158.1112 C   0  0  0  0  0  0  0  0  0  0  0  0
  149.3139  140.5453  157.5829 O   0  0  0  0  0  0  0  0  0  0  0  0
  147.0954  135.3860  160.1465 C   0  0  0  0  0  0  0  0  0  0  0  0
  147.8300  134.2355  160.5128 C   0  0  0  0  0  0  0  0  0  0  0  0
  147.3861  133.4139  161.5662 C   0  0  0  0  0  0  0  0  0  0  0  0
  146.2048  133.7367  162.2600 C   0  0  0  0  0  0  0  0  0  0  0  0
  145.4680  134.8809  161.9003 C   0  0  0  0  0  0  0  0  0  0  0  0
  145.9047  135.7050  160.8439 C   0  0  0  0  0  0  0  0  0  0  0  0
  144.9591  137.1455  160.4520 S   0  0  0  0  0  0  0  0  0  0  0  0
  143.0035  137.8300  157.3578 H   0  0  0  0  0  0  0  0  0  0  0  0
  143.6436  138.9883  158.5223 H   0  0  0  0  0  0  0  0  0  0  0  0
  142.4899  137.7601  159.0379 H   0  0  0  0  0  0  0  0  0  0  0  0
  144.1366  135.9726  158.5531 H   0  0  0  0  0  0  0  0  0  0  0  0
  145.3282  137.2666  156.7401 H   0  0  0  0  0  0  0  0  0  0  0  0
  146.1173  138.2237  157.9567 H   0  0  0  0  0  0  0  0  0  0  0  0
  146.3281  135.1706  157.7345 H   0  0  0  0  0  0  0  0  0  0  0  0
  147.4404  136.2317  156.9611 H   0  0  0  0  0  0  0  0  0  0  0  0
  149.4334  137.1514  157.2395 H   0  0  0  0  0  0  0  0  0  0  0  0
  148.3845  138.4428  157.6788 H   0  0  0  0  0  0  0  0  0  0  0  0
  153.4031  140.8414  159.2781 H   0  0  0  0  0  0  0  0  0  0  0  0
  151.3257  142.3495  156.9793 H   0  0  0  0  0  0  0  0  0  0  0  0
  149.2770  142.9459  158.1740 H   0  0  0  0  0  0  0  0  0  0  0  0
  150.1075  142.8728  159.7588 H   0  0  0  0  0  0  0  0  0  0  0  0
  150.6658  144.8698  157.5591 H   0  0  0  0  0  0  0  0  0  0  0  0
  150.2903  145.2198  159.2517 H   0  0  0  0  0  0  0  0  0  0  0  0
  152.8990  144.9868  158.4029 H   0  0  0  0  0  0  0  0  0  0  0  0
  152.4199  144.3729  159.9875 H   0  0  0  0  0  0  0  0  0  0  0  0
  148.7385  133.9812  159.9860 H   0  0  0  0  0  0  0  0  0  0  0  0
  147.9533  132.5374  161.8429 H   0  0  0  0  0  0  0  0  0  0  0  0
  145.8652  133.1081  163.0697 H   0  0  0  0  0  0  0  0  0  0  0  0
  144.5647  135.1260  162.4399 H   0  0  0  0  0  0  0  0  0  0  0  0
  1  2  1  0  0  0  0
  1 30  1  0  0  0  0
  1 31  1  0  0  0  0
  1 32  1  0  0  0  0
  2 29  1  0  0  0  0
  2  3  1  0  0  0  0
  2 33  1  0  0  0  0
  3  4  1  0  0  0  0
  3 34  1  0  0  0  0
  3 35  1  0  0  0  0
  4  5  1  0  0  0  0
  4 36  1  0  0  0  0
  4 37  1  0  0  0  0
  5  6  1  0  0  0  0
  5 23  1  0  0  0  0
  6  7  2  0  0  0  0
  6  8  1  0  0  0  0
  8  9  1  0  0  0  0
  8 38  1  0  0  0  0
  8 39  1  0  0  0  0
  9 21  1  0  0  0  0
  9 10  1  0  0  0  0
 10 11  2  0  0  0  0
 10 12  1  0  0  0  0
 12 13  1  0  0  0  0
 12 14  2  0  0  0  0
 14 15  1  0  0  0  0
 14 40  1  0  0  0  0
 15 16  1  0  0  0  0
 15 21  1  0  0  0  0
 16 20  1  0  0  0  0
 16 17  1  0  0  0  0
 16 41  1  0  0  0  0
 17 18  1  0  0  0  0
 17 42  1  0  0  0  0
 17 43  1  0  0  0  0
 18 19  1  0  0  0  0
 18 44  1  0  0  0  0
 18 45  1  0  0  0  0
 19 20  1  0  0  0  0
 19 46  1  0  0  0  0
 19 47  1  0  0  0  0
 21 22  2  0  0  0  0
 23 28  2  0  0  0  0
 23 24  1  0  0  0  0
 24 25  2  0  0  0  0
 24 48  1  0  0  0  0
 25 26  1  0  0  0  0
 25 49  1  0  0  0  0
 26 27  2  0  0  0  0
 26 50  1  0  0  0  0
 27 28  1  0  0  0  0
 27 51  1  0  0  0  0
 28 29  1  0  0  0  0
M  END
> <s_m_source_file>
AV-unprocessed.smi

> <i_m_source_file_index>
119

> <i_lp_mmshare_version>
43012

> <i_f3d_flags>
0

> <s_epik_input>
W2NIXTFbY0hdW2NIXVtjSF1jKGMxMilTW0NASF0oW0NIM10pW0NIMl1bQ0gyXU4yQyg9TylbQ0gyXW4zYyg9TyljKEYpW2NIXW4oYzM9TylbQ0BASF00W0NIMl1bQ0gyXVtDSDJdTzQ=

> <s_epik_cmdline>
J2VwaWtfcHl0aG9uJywgJy1waCcsICc3LjAnLCAnLXRuJywgJzgnLCAnLW1hJywgJzIwMCcsICctbWV0YWxfYmluZGluZycsICctaW1hZScsICc8aW5maWxlLm1hZT4nLCAnLW9tYWUnLCAnPG91dGZpbGUubWFlPic=

> <r_lp_tautomer_probability>
1

> <r_epik_Ionization_Penalty>
1.68882e-06

> <r_epik_Ionization_Penalty_Charging>
3.67303e-09

> <r_epik_Ionization_Penalty_Neutral>
1.68515e-06

> <r_epik_State_Penalty>
-0

> <r_epik_Charging_Adjusted_Penalty>
3.67303e-09

> <i_epik_Tot_Q>
0

> <i_epik_Tot_abs_Q>
0

> <r_epik_Metal_State_Penalty>
-0

> <b_epik_Metal_Only>
0

> <s_epik_Chemistry_Notes>
This compound contains an acetal/aminal-like group ( X-CH(R)-Y where X, Y are N, S, or O) that may be acid/base labile, releasing an aldehyde.

> <s_lp_Force_Field>
OPLS_2005

> <r_lp_Energy>
51.7973

> <b_lp_Chiralities_Consistent>
1

> <s_lp_Variant>
AV-unprocessed.smi:119-4

> <Gold.Version>
5.8.1

> <Gold.Id.Protein>
6NUR|6NUR_protein|mol2

> <Gold.PLP.Fitness>
45.5000

> <Gold.PLP.PLP>
-40.8767

> <Gold.PLP.part.hbond>
-1.9668

> <Gold.PLP.part.metal>
0.0000

> <Gold.PLP.part.buried>
-7.4438

> <Gold.PLP.part.nonpolar>
-32.1293

> <Gold.PLP.part.repulsive>
0.0172

> <Gold.PLP.ligand.clash>
0.0000

> <Gold.PLP.ligand.torsion>
0.0829

> <Gold.PLP.Chemscore.Hbond>
1.5920

> <Gold.PLP.Chemscore.CHOScore>
0.0000

> <Gold.PLP.Chemscore.Metal>
0.0000

> <Gold.Chemscore.Hbonds>
donor molecule, donor type, donor heavy atom, donor atom, acceptor molecule, acceptor atom, score
      P1  H  6896  6908       L1    11  0.99
      P1  H  6931  6943       L1     7  0.54

> <Gold.PLP.Chemscore.Internal.Correction>
0.0131

> <Gold.Rescore>
     Score         DG    S(hbond)    S(metal)    S(lipo)     H(rot)  DE(clash)    DE(int)     intcor
     11.95     -17.23       1.67        0.00      86.05       1.53       0.01       5.27       ----

> <Gold.Chemscore.Fitness>
11.9475

> <Gold.Chemscore.DG>
-17.2291

> <Gold.Chemscore.ZeroCoef>
-5.4800

> <Gold.Chemscore.Hbond>
1.6734

> <Gold.Chemscore.Metal>
0.0000

> <Gold.Chemscore.Lipo>
86.0499

> <Gold.Chemscore.Internal_Hbond>
0.0000

> <Gold.Chemscore.DEClash>
0.0106

> <Gold.Chemscore.DEInternal>
5.2710

> <Gold.Chemscore.Rot>
1.5266

> <Gold.Chemscore.Internal.Correction>
   9.000000E+99

> <Gold.Chemscore.Hbonds>
donor molecule, donor type, donor heavy atom, donor atom, acceptor molecule, acceptor atom, score
      P1  H  6896  6908       L1    11  0.93
      P1  H  6931  6943       L1     7  0.54

> <Gold.Chemscore.Hbond.Weighted>
-5.5893

> <Gold.Chemscore.Metal.Weighted>
-0.0000

> <Gold.Chemscore.Lipo.Weighted>
-10.0678

> <Gold.Chemscore.Internal_Hbond.Weighted>
0.0000

> <Gold.Chemscore.DEClash.Weighted>
0.0106

> <Gold.Chemscore.DEInternal.Weighted>
5.2710

> <Gold.Chemscore.Rot.Weighted>
3.9081

> <Gold.Chemscore.Internal.Correction.Weighted>
   9.000000E+99

> <Gold.Protein.RotatedTorsions>
[ 6907 6896 6895 6894 ] final -141.00 input  -60.11 | X-H torsion
[ 7974 7965 7964 7962 ] final -107.20 input  175.53 | X-H torsion
[ 8008 7997 7996 7995 ] final  168.27 input   59.86 | X-H torsion
[ 10167 10162 10161 10158 ] final   47.57 input  -65.29 | X-H torsion
[ 10718 10713 10712 10709 ] final -106.04 input   66.30 | X-H torsion
[ 10763 10752 10751 10750 ] final -179.88 input  -60.55 | X-H torsion
[ 11005 11000 10999 10996 ] final   -6.22 input  -57.11 | X-H torsion

> <Gold.Protein.ActiveResidues>
 VAL166  LYS551  ARG553  GLY616  TRP617  ASP618  TYR619  PRO620  LYS621  CYS622 
 ASP623  PHE694  ASN695  SER759  ASP760  ASP761  ALA762  ILE779  LEU786  VAL792 
 PHE793  MET794  SER795  GLU796  ALA797  LYS798  CYS799  TRP800  GLU811  SER814 

> <Gold.Protein.RotatedAtoms>
  151.0681  133.5489  159.2628 H   0  0  0  0  0  0  0  0  0  0  0  0  # atno 6907 bound_to 6896
  151.2439  135.0598  159.9045 H   0  0  0  0  0  0  0  0  0  0  0  0  # atno 6908 bound_to 6896
  152.5407  134.0451  159.8139 H   0  0  0  0  0  0  0  0  0  0  0  0  # atno 6909 bound_to 6896
  145.2083  140.9085  143.3329 H   0  0  0  0  0  0  0  0  0  0  0  0  # atno 7974 bound_to 7965
  156.1562  140.1595  156.8689 H   0  0  0  0  0  0  0  0  0  0  0  0  # atno 8008 bound_to 7997
  154.5117  140.0799  156.8038 H   0  0  0  0  0  0  0  0  0  0  0  0  # atno 8009 bound_to 7997
  155.3799  140.3404  155.4248 H   0  0  0  0  0  0  0  0  0  0  0  0  # atno 8010 bound_to 7997
  140.3023  144.2919  150.6216 H   0  0  0  0  0  0  0  0  0  0  0  0  # atno 10167 bound_to 10162
  156.0372  130.5593  150.7625 H   0  0  0  0  0  0  0  0  0  0  0  0  # atno 10718 bound_to 10713
  154.5294  135.2799  155.1193 H   0  0  0  0  0  0  0  0  0  0  0  0  # atno 10763 bound_to 10752
  154.2719  135.6302  153.5317 H   0  0  0  0  0  0  0  0  0  0  0  0  # atno 10764 bound_to 10752
  152.9953  135.5630  154.5804 H   0  0  0  0  0  0  0  0  0  0  0  0  # atno 10765 bound_to 10752
  140.6996  133.9001  155.8674 H   0  0  0  0  0  0  0  0  0  0  0  0  # atno 11005 bound_to 11000
  144.9880  139.3717  143.6229 LP  0  0  0  0  0  0  0  0  0  0  0  0  # atno 17320 bound_to 7965
  146.3403  139.9051  142.8788 LP  0  0  0  0  0  0  0  0  0  0  0  0  # atno 17321 bound_to 7965
  140.5640  143.2188  151.7715 LP  0  0  0  0  0  0  0  0  0  0  0  0  # atno 17342 bound_to 10162
  139.4912  144.4309  151.9873 LP  0  0  0  0  0  0  0  0  0  0  0  0  # atno 17343 bound_to 10162
  157.5141  131.0927  151.0162 LP  0  0  0  0  0  0  0  0  0  0  0  0  # atno 17370 bound_to 10713
  157.0510  130.5787  149.5370 LP  0  0  0  0  0  0  0  0  0  0  0  0  # atno 17371 bound_to 10713
  141.0174  134.0936  157.4157 LP  0  0  0  0  0  0  0  0  0  0  0  0  # atno 17394 bound_to 11000
  139.8900  135.0109  156.6713 LP  0  0  0  0  0  0  0  0  0  0  0  0  # atno 17395 bound_to 11000

$$$$
