#       Name:                AV-unprocessed.smi:2217
#       Creating user name   scv26
#       Creation time:       Fri Mar 27 12:18:56 2020


#       File generated by GOLD software.
#

@<TRIPOS>MOLECULE
AV-unprocessed.smi:2217
    50    53     1
SMALL
NO_CHARGES


@<TRIPOS>ATOM
      1 ****         1.8020  -8.0722   2.6152 C.3            1 S1                 0.0000
      2 ****         1.5772  -6.6693   2.0914 C.ar           1 S1                 0.0000
      3 ****         0.2789  -6.1511   1.9256 C.ar           1 S1                 0.0000
      4 ****         0.1291  -4.8406   1.4322 C.ar           1 S1                 0.0000
      5 ****         1.2755  -4.0764   1.1173 C.ar           1 S1                 0.0000
      6 ****         0.9963  -2.7698   0.6171 N.am           1 S1                 0.0000
      7 ****         1.8151  -1.7482   0.2861 C.2            1 S1                 0.0000
      8 ****         3.0362  -1.8491   0.3915 O.2            1 S1                 0.0000
      9 ****         1.2172  -0.6343  -0.1612 N.am           1 S1                 0.0000
     10 ****         1.9058   0.6007  -0.5464 C.3            1 S1                 0.0000
     11 ****         2.1852   1.5453   0.6265 C.3            1 S1                 0.0000
     12 ****         2.2869   1.4029   2.1025 C.3            1 S1                 0.0000
     13 ****         1.5034   2.6881   2.4791 C.3            1 S1                 0.0000
     14 ****         0.9188   3.1748   1.2443 O.3            1 S1                 0.0000
     15 ****         0.7536   2.0106   0.4578 C.3            1 S1                 0.0000
     16 ****         0.9455   1.7445  -1.0546 C.3            1 S1                 0.0000
     17 ****         1.5586   2.8855  -1.8918 C.3            1 S1                 0.0000
     18 ****         0.7567   3.0148  -3.1873 C.3            1 S1                 0.0000
     19 ****        -0.6119   2.4481  -2.8406 C.3            1 S1                 0.0000
     20 ****        -0.2985   1.3289  -1.8516 C.3            1 S1                 0.0000
     21 ****         2.5223  -4.5897   1.2778 N.ar           1 S1                 0.0000
     22 ****         2.6665  -5.8453   1.7507 C.ar           1 S1                 0.0000
     23 ****         0.8800  -8.4985   3.0120 H              1 S1                 0.0000
     24 ****         2.5442  -8.0653   3.4141 H              1 S1                 0.0000
     25 ****         2.1630  -8.7197   1.8160 H              1 S1                 0.0000
     26 ****        -0.5903  -6.7440   2.1701 H              1 S1                 0.0000
     27 ****        -0.8611  -4.4293   1.2988 H              1 S1                 0.0000
     28 ****         0.0176  -2.5914   0.4450 H              1 S1                 0.0000
     29 ****         0.2084  -0.6332  -0.2198 H              1 S1                 0.0000
     30 ****         2.7679   0.4407  -1.1960 H              1 S1                 0.0000
     31 ****         2.9065   2.2976   0.2915 H              1 S1                 0.0000
     32 ****         1.7911   0.5020   2.4663 H              1 S1                 0.0000
     33 ****         3.3164   1.4168   2.4608 H              1 S1                 0.0000
     34 ****         0.7226   2.4657   3.2076 H              1 S1                 0.0000
     35 ****         2.1540   3.4536   2.9029 H              1 S1                 0.0000
     36 ****         0.0069   1.3493   0.9100 H              1 S1                 0.0000
     37 ****         1.4999   3.8264  -1.3430 H              1 S1                 0.0000
     38 ****         2.6138   2.7187  -2.1107 H              1 S1                 0.0000
     39 ****         0.7090   4.0404  -3.5545 H              1 S1                 0.0000
     40 ****         1.2177   2.4033  -3.9642 H              1 S1                 0.0000
     41 ****        -1.2140   3.2144  -2.3506 H              1 S1                 0.0000
     42 ****        -1.1600   2.0985  -3.7159 H              1 S1                 0.0000
     43 ****        -0.0953   0.4130  -2.4081 H              1 S1                 0.0000
     44 ****        -1.1554   1.1214  -1.2097 H              1 S1                 0.0000
     45 ****         3.6809  -6.2001   1.8584 H              1 S1                 0.0000
     46 ****         3.4404  -2.6997   0.7277 LP             1 S1                 0.0000
     47 ****         3.6248  -1.0806   0.1409 LP             1 S1                 0.0000
     48 ****         1.5314   3.8238   0.7932 LP             1 S1                 0.0000
     49 ****         0.0372   3.6139   1.4178 LP             1 S1                 0.0000
     50 ****         3.3267  -4.0420   1.0477 LP             1 S1                 0.0000
@<TRIPOS>BOND
    1    1    2 1     
    2    1   23 1     
    3    1   24 1     
    4    1   25 1     
    5    2   22 ar    
    6    2    3 ar    
    7    3    4 ar    
    8    3   26 1     
    9    4    5 ar    
   10    4   27 1     
   11    5    6 1     
   12    5   21 ar    
   13    6    7 am    
   14    6   28 1     
   15    7    8 2     
   16    7    9 am    
   17    9   10 1     
   18    9   29 1     
   19   10   16 1     
   20   10   11 1     
   21   10   30 1     
   22   11   15 1     
   23   11   12 1     
   24   11   31 1     
   25   12   13 1     
   26   12   32 1     
   27   12   33 1     
   28   13   14 1     
   29   13   34 1     
   30   13   35 1     
   31   14   15 1     
   32   15   16 1     
   33   15   36 1     
   34   16   20 1     
   35   16   17 1     
   36   17   18 1     
   37   17   37 1     
   38   17   38 1     
   39   18   19 1     
   40   18   39 1     
   41   18   40 1     
   42   19   20 1     
   43   19   41 1     
   44   19   42 1     
   45   20   43 1     
   46   20   44 1     
   47   21   22 ar    
   48   22   45 1     
   49    8   46 1     
   50    8   47 1     
   51   14   48 1     
   52   14   49 1     
   53   21   50 1     
@<TRIPOS>SUBSTRUCTURE
      1 S1             1
@<TRIPOS>SET
LONE_PAIRS      STATIC     ATOMS    <user>   **** ""
5 46 47 48 49 50
DONOR_HYDROGENS      STATIC     ATOMS    <user>   **** ""
2 28 29
ATOM$BLUE        STATIC     ATOMS    COLORGROUP SYSTEM
5 46 47 48 49 50
ATOM$RED        STATIC     ATOMS    COLORGROUP SYSTEM
2 28 29
