AV-unprocessed.smi:2063|AV-procd|sdf|8415|dock3
  -GOLD-   2272011103D 1   1.00000     0.00000
 Structure written by MMmdl.
 38 39  0  0  0  0  0  0  0  0  2 V2000
  151.1339  142.0036  158.1442 C   0  0  0  0  0  0  0  0  0  0  0  0
  151.3682  140.6632  158.8557 C   0  0  0  0  0  0  0  0  0  0  0  0
  152.3949  140.7562  159.9941 C   0  0  0  0  0  0  0  0  0  0  0  0
  151.6911  139.5625  157.8938 C   0  0  0  0  0  0  0  0  0  0  0  0
  152.7898  139.5557  157.1324 N   0  0  0  0  0  0  0  0  0  0  0  0
  152.8644  138.4275  156.3289 N   0  0  0  0  0  0  0  0  0  0  0  0
  151.8199  137.6021  156.4841 C   0  0  0  0  0  0  0  0  0  0  0  0
  151.7020  136.4505  155.8027 N   0  5  0  0  0  0  0  0  0  0  0  0
  150.6238  135.6573  155.9960 C   0  0  0  0  0  0  0  0  0  0  0  0
  149.9644  135.5623  157.0335 O   0  0  0  0  0  0  0  0  0  0  0  0
  150.2953  134.9276  154.9203 N   0  0  0  0  0  0  0  0  0  0  0  0
  149.2020  133.9614  154.8244 C   0  0  1  0  0  0  0  0  0  0  0  0
  148.2778  134.3417  153.6573 C   0  0  0  0  0  0  0  0  0  0  0  0
  149.7794  132.5422  154.6658 C   0  0  1  0  0  0  0  0  0  0  0  0
  150.3607  131.9433  155.9501 C   0  0  0  0  0  0  0  0  0  0  0  0
  150.1904  130.4422  155.7675 C   0  0  0  0  0  0  0  0  0  0  0  0
  149.2990  130.3135  154.5304 C   0  0  0  0  0  0  0  0  0  0  0  0
  148.7591  131.6120  154.3359 O   0  0  0  0  0  0  0  0  0  0  0  0
  150.6506  138.1643  157.6777 S   0  0  0  0  0  0  0  0  0  0  0  0
  150.3369  141.9207  157.4045 H   0  0  0  0  0  0  0  0  0  0  0  0
  152.0335  142.3412  157.6286 H   0  0  0  0  0  0  0  0  0  0  0  0
  150.8466  142.7798  158.8539 H   0  0  0  0  0  0  0  0  0  0  0  0
  150.4192  140.3943  159.3214 H   0  0  0  0  0  0  0  0  0  0  0  0
  152.4773  139.8073  160.5251 H   0  0  0  0  0  0  0  0  0  0  0  0
  152.1089  141.5177  160.7201 H   0  0  0  0  0  0  0  0  0  0  0  0
  153.3846  141.0138  159.6153 H   0  0  0  0  0  0  0  0  0  0  0  0
  150.8651  135.0470  154.0959 H   0  0  0  0  0  0  0  0  0  0  0  0
  148.6161  133.9797  155.7450 H   0  0  0  0  0  0  0  0  0  0  0  0
  147.4417  133.6470  153.5752 H   0  0  0  0  0  0  0  0  0  0  0  0
  148.8134  134.3327  152.7075 H   0  0  0  0  0  0  0  0  0  0  0  0
  147.8615  135.3400  153.7955 H   0  0  0  0  0  0  0  0  0  0  0  0
  150.5364  132.5258  153.8789 H   0  0  0  0  0  0  0  0  0  0  0  0
  151.3988  132.2350  156.1120 H   0  0  0  0  0  0  0  0  0  0  0  0
  149.7836  132.2713  156.8158 H   0  0  0  0  0  0  0  0  0  0  0  0
  151.1458  129.9393  155.6152 H   0  0  0  0  0  0  0  0  0  0  0  0
  149.7158  130.0032  156.6457 H   0  0  0  0  0  0  0  0  0  0  0  0
  149.8921  130.0382  153.6571 H   0  0  0  0  0  0  0  0  0  0  0  0
  148.5109  129.5706  154.6551 H   0  0  0  0  0  0  0  0  0  0  0  0
  1  2  1  0  0  0  0
  1 20  1  0  0  0  0
  1 21  1  0  0  0  0
  1 22  1  0  0  0  0
  2  3  1  0  0  0  0
  2  4  1  0  0  0  0
  2 23  1  0  0  0  0
  3 24  1  0  0  0  0
  3 25  1  0  0  0  0
  3 26  1  0  0  0  0
  4 19  1  0  0  0  0
  4  5  2  0  0  0  0
  5  6  1  0  0  0  0
  6  7  2  0  0  0  0
  7  8  1  0  0  0  0
  7 19  1  0  0  0  0
  8  9  1  0  0  0  0
  9 10  2  0  0  0  0
  9 11  1  0  0  0  0
 11 12  1  0  0  0  0
 11 27  1  0  0  0  0
 12 13  1  0  0  0  0
 12 14  1  0  0  0  0
 12 28  1  0  0  0  0
 13 29  1  0  0  0  0
 13 30  1  0  0  0  0
 13 31  1  0  0  0  0
 14 18  1  0  0  0  0
 14 15  1  0  0  0  0
 14 32  1  0  0  0  0
 15 16  1  0  0  0  0
 15 33  1  0  0  0  0
 15 34  1  0  0  0  0
 16 17  1  0  0  0  0
 16 35  1  0  0  0  0
 16 36  1  0  0  0  0
 17 18  1  0  0  0  0
 17 37  1  0  0  0  0
 17 38  1  0  0  0  0
M  CHG  1   8  -1
M  END
> <s_m_source_file>
AV-unprocessed.smi

> <i_m_source_file_index>
2063

> <i_lp_mmshare_version>
43012

> <i_f3d_flags>
0

> <s_epik_input>
W0NIM11bQ0hdKFtDSDNdKWMxbm5jKHMxKVtOSF1DKD1PKVtOSF1bQ0BIXShbQ0gzXSlbQ0BASF0yW0NIMl1bQ0gyXVtDSDJdTzI=

> <s_epik_cmdline>
J2VwaWtfcHl0aG9uJywgJy1waCcsICc3LjAnLCAnLXRuJywgJzgnLCAnLW1hJywgJzIwMCcsICctbWV0YWxfYmluZGluZycsICctaW1hZScsICc8aW5maWxlLm1hZT4nLCAnLW9tYWUnLCAnPG91dGZpbGUubWFlPic=

> <r_lp_tautomer_probability>
1

> <r_epik_Ionization_Penalty>
4.37022

> <r_epik_Ionization_Penalty_Charging>
4.21437

> <r_epik_Ionization_Penalty_Neutral>
0.15585

> <r_epik_State_Penalty>
4.21389

> <r_epik_Charging_Adjusted_Penalty>
8.42826

> <i_epik_Tot_Q>
-1

> <i_epik_Tot_abs_Q>
1

> <r_epik_Metal_State_Penalty>
0.693772

> <b_epik_Metal_Only>
1

> <s_lp_Force_Field>
OPLS_2005

> <r_lp_Energy>
9.58688

> <b_lp_Chiralities_Consistent>
1

> <s_lp_Variant>
AV-unprocessed.smi:2063-8

> <Gold.Version>
5.8.1

> <Gold.Id.Protein>
6NUR|6NUR_protein|mol2

> <Gold.PLP.Fitness>
36.0867

> <Gold.PLP.PLP>
-27.4736

> <Gold.PLP.part.hbond>
-3.6481

> <Gold.PLP.part.metal>
0.0000

> <Gold.PLP.part.buried>
-5.3952

> <Gold.PLP.part.nonpolar>
-18.5028

> <Gold.PLP.part.repulsive>
0.1622

> <Gold.PLP.ligand.clash>
0.0000

> <Gold.PLP.ligand.torsion>
0.4324

> <Gold.PLP.Chemscore.Hbond>
3.1105

> <Gold.PLP.Chemscore.CHOScore>
0.0000

> <Gold.PLP.Chemscore.Metal>
0.0000

> <Gold.Chemscore.Hbonds>
donor molecule, donor type, donor heavy atom, donor atom, acceptor molecule, acceptor atom, score
      P1  H  7997  8010       L1     5  0.65
      P1  H 10752 10763       L1     8  1.98

> <Gold.PLP.Chemscore.Internal.Correction>
0.1464

> <Gold.Rescore>
     Score         DG    S(hbond)    S(metal)    S(lipo)     H(rot)  DE(clash)    DE(int)     intcor
     12.68     -14.81       1.82        0.00      58.12       1.39       0.01       2.12       ----

> <Gold.Chemscore.Fitness>
12.6773

> <Gold.Chemscore.DG>
-14.8086

> <Gold.Chemscore.ZeroCoef>
-5.4800

> <Gold.Chemscore.Hbond>
1.8221

> <Gold.Chemscore.Metal>
0.0000

> <Gold.Chemscore.Lipo>
58.1154

> <Gold.Chemscore.Internal_Hbond>
0.0000

> <Gold.Chemscore.DEClash>
0.0126

> <Gold.Chemscore.DEInternal>
2.1187

> <Gold.Chemscore.Rot>
1.3893

> <Gold.Chemscore.Internal.Correction>
   9.000000E+99

> <Gold.Chemscore.Hbonds>
donor molecule, donor type, donor heavy atom, donor atom, acceptor molecule, acceptor atom, score
      P1  H  7997  8010       L1     5  0.06
      P1  H 10752 10763       L1     8  0.70

> <Gold.Chemscore.Hbond.Weighted>
-6.0858

> <Gold.Chemscore.Metal.Weighted>
-0.0000

> <Gold.Chemscore.Lipo.Weighted>
-6.7995

> <Gold.Chemscore.Internal_Hbond.Weighted>
0.0000

> <Gold.Chemscore.DEClash.Weighted>
0.0126

> <Gold.Chemscore.DEInternal.Weighted>
2.1187

> <Gold.Chemscore.Rot.Weighted>
3.5567

> <Gold.Chemscore.Internal.Correction.Weighted>
   9.000000E+99

> <Gold.Protein.RotatedTorsions>
[ 6907 6896 6895 6894 ] final   37.17 input  -60.11 | X-H torsion
[ 7974 7965 7964 7962 ] final  -72.75 input  175.53 | X-H torsion
[ 8008 7997 7996 7995 ] final   56.50 input   59.86 | X-H torsion
[ 10167 10162 10161 10158 ] final -102.36 input  -65.29 | X-H torsion
[ 10718 10713 10712 10709 ] final  -74.84 input   66.30 | X-H torsion
[ 10763 10752 10751 10750 ] final   56.89 input  -60.55 | X-H torsion
[ 11005 11000 10999 10996 ] final -145.84 input  -57.11 | X-H torsion

> <Gold.Protein.ActiveResidues>
 VAL166  LYS551  ARG553  GLY616  TRP617  ASP618  TYR619  PRO620  LYS621  CYS622 
 ASP623  PHE694  ASN695  SER759  ASP760  ASP761  ALA762  ILE779  LEU786  VAL792 
 PHE793  MET794  SER795  GLU796  ALA797  LYS798  CYS799  TRP800  GLU811  SER814 

> <Gold.Protein.RotatedAtoms>
  152.1396  134.9073  160.0554 H   0  0  0  0  0  0  0  0  0  0  0  0  # atno 6907 bound_to 6896
  152.0146  133.3869  159.4241 H   0  0  0  0  0  0  0  0  0  0  0  0  # atno 6908 bound_to 6896
  150.6864  134.3615  159.4996 H   0  0  0  0  0  0  0  0  0  0  0  0  # atno 6909 bound_to 6896
  145.6611  140.9252  143.0933 H   0  0  0  0  0  0  0  0  0  0  0  0  # atno 7974 bound_to 7965
  155.5184  140.3479  155.4402 H   0  0  0  0  0  0  0  0  0  0  0  0  # atno 8008 bound_to 7997
  156.0801  140.1384  156.9750 H   0  0  0  0  0  0  0  0  0  0  0  0  # atno 8009 bound_to 7997
  154.4575  140.0948  156.6775 H   0  0  0  0  0  0  0  0  0  0  0  0  # atno 8010 bound_to 7997
  140.2315  143.3603  152.0882 H   0  0  0  0  0  0  0  0  0  0  0  0  # atno 10167 bound_to 10162
  156.0228  130.4426  150.2953 H   0  0  0  0  0  0  0  0  0  0  0  0  # atno 10718 bound_to 10713
  152.9840  135.5660  154.5303 H   0  0  0  0  0  0  0  0  0  0  0  0  # atno 10763 bound_to 10752
  154.4775  135.2787  155.1598 H   0  0  0  0  0  0  0  0  0  0  0  0  # atno 10764 bound_to 10752
  154.3120  135.6286  153.5523 H   0  0  0  0  0  0  0  0  0  0  0  0  # atno 10765 bound_to 10752
  140.7881  134.3000  157.5023 H   0  0  0  0  0  0  0  0  0  0  0  0  # atno 11005 bound_to 11000
  144.7089  139.8450  143.7421 LP  0  0  0  0  0  0  0  0  0  0  0  0  # atno 17320 bound_to 7965
  146.1125  139.4131  143.0279 LP  0  0  0  0  0  0  0  0  0  0  0  0  # atno 17321 bound_to 7965
  139.5108  144.6890  151.5809 LP  0  0  0  0  0  0  0  0  0  0  0  0  # atno 17342 bound_to 10162
  140.6181  143.9310  150.6504 LP  0  0  0  0  0  0  0  0  0  0  0  0  # atno 17343 bound_to 10162
  157.1056  131.0207  151.3068 LP  0  0  0  0  0  0  0  0  0  0  0  0  # atno 17370 bound_to 10713
  157.4745  130.7728  149.7355 LP  0  0  0  0  0  0  0  0  0  0  0  0  # atno 17371 bound_to 10713
  139.8734  134.9358  156.3644 LP  0  0  0  0  0  0  0  0  0  0  0  0  # atno 17394 bound_to 11000
  140.9416  133.7510  156.0154 LP  0  0  0  0  0  0  0  0  0  0  0  0  # atno 17395 bound_to 11000

$$$$
