AV-unprocessed.smi:1839|AV-procd|sdf|7486|dock5
  -GOLD-   22720 9183D 1   1.00000     0.00000
 Structure written by MMmdl.
 47 48  0  0  0  0  0  0  0  0  2 V2000
  151.8517  140.4829  157.0176 C   0  0  0  0  0  0  0  0  0  0  0  0
  150.5881  140.6254  156.2942 N   0  0  0  0  0  0  0  0  0  0  0  0
  149.5412  141.3253  157.0483 C   0  0  0  0  0  0  0  0  0  0  0  0
  150.3502  139.8845  155.1839 C   0  0  0  0  0  0  0  0  0  0  0  0
  151.0158  138.8822  154.9135 O   0  0  0  0  0  0  0  0  0  0  0  0
  149.3160  140.2866  154.4064 N   0  0  0  0  0  0  0  0  0  0  0  0
  149.0242  141.6987  154.1168 C   0  0  0  0  0  0  0  0  0  0  0  0
  147.5043  141.9352  154.1738 C   0  0  0  0  0  0  0  0  0  0  0  0
  146.7621  140.9812  153.2211 C   0  0  0  0  0  0  0  0  0  0  0  0
  147.1846  139.5147  153.4582 C   0  0  1  0  0  0  0  0  0  0  0  0
  146.5399  138.5617  152.4442 C   0  0  0  0  0  0  0  0  0  0  0  0
  146.7593  138.6894  151.2397 O   0  0  0  0  0  0  0  0  0  0  0  0
  145.7737  137.5842  152.9514 N   0  0  0  0  0  0  0  0  0  0  0  0
  145.1444  136.5179  152.1779 C   0  0  0  0  0  0  0  0  0  0  0  0
  145.7335  135.1194  152.4646 C   0  0  0  0  0  0  0  0  0  0  0  0
  145.1848  134.0216  151.5677 C   0  0  0  0  0  0  0  0  0  0  0  0
  143.8323  133.6204  151.6158 C   0  0  0  0  0  0  0  0  0  0  0  0
  143.3929  132.5780  150.7730 C   0  0  0  0  0  0  0  0  0  0  0  0
  144.3137  131.9573  149.9033 C   0  0  0  0  0  0  0  0  0  0  0  0
  145.6531  132.3969  149.8963 C   0  0  0  0  0  0  0  0  0  0  0  0
  146.0341  133.4005  150.7165 N   0  3  0  0  0  0  0  0  0  0  0  0
  148.7227  139.3903  153.4087 C   0  0  0  0  0  0  0  0  0  0  0  0
  152.6978  140.4064  156.3326 H   0  0  0  0  0  0  0  0  0  0  0  0
  151.8350  139.5890  157.6421 H   0  0  0  0  0  0  0  0  0  0  0  0
  152.0370  141.3439  157.6609 H   0  0  0  0  0  0  0  0  0  0  0  0
  148.5465  140.9247  156.8474 H   0  0  0  0  0  0  0  0  0  0  0  0
  149.5397  142.3883  156.8072 H   0  0  0  0  0  0  0  0  0  0  0  0
  149.7023  141.2319  158.1231 H   0  0  0  0  0  0  0  0  0  0  0  0
  149.5357  142.3820  154.7948 H   0  0  0  0  0  0  0  0  0  0  0  0
  149.3985  141.9395  153.1205 H   0  0  0  0  0  0  0  0  0  0  0  0
  147.1467  141.7852  155.1928 H   0  0  0  0  0  0  0  0  0  0  0  0
  147.2766  142.9699  153.9164 H   0  0  0  0  0  0  0  0  0  0  0  0
  145.6851  141.0926  153.3515 H   0  0  0  0  0  0  0  0  0  0  0  0
  146.9807  141.2723  152.1924 H   0  0  0  0  0  0  0  0  0  0  0  0
  146.8533  139.2273  154.4581 H   0  0  0  0  0  0  0  0  0  0  0  0
  145.6407  137.5598  153.9524 H   0  0  0  0  0  0  0  0  0  0  0  0
  144.0857  136.5188  152.4384 H   0  0  0  0  0  0  0  0  0  0  0  0
  145.1985  136.7430  151.1118 H   0  0  0  0  0  0  0  0  0  0  0  0
  146.8186  135.1520  152.3621 H   0  0  0  0  0  0  0  0  0  0  0  0
  145.5417  134.8474  153.5036 H   0  0  0  0  0  0  0  0  0  0  0  0
  143.1407  134.1008  152.2930 H   0  0  0  0  0  0  0  0  0  0  0  0
  142.3620  132.2557  150.7963 H   0  0  0  0  0  0  0  0  0  0  0  0
  143.9978  131.1551  149.2523 H   0  0  0  0  0  0  0  0  0  0  0  0
  146.4259  131.9779  149.2679 H   0  0  0  0  0  0  0  0  0  0  0  0
  149.1070  139.6433  152.4189 H   0  0  0  0  0  0  0  0  0  0  0  0
  149.0020  138.3522  153.5957 H   0  0  0  0  0  0  0  0  0  0  0  0
  147.0095  133.7002  150.6982 H   0  0  0  0  0  0  0  0  0  0  0  0
  1  2  1  0  0  0  0
  1 23  1  0  0  0  0
  1 24  1  0  0  0  0
  1 25  1  0  0  0  0
  2  3  1  0  0  0  0
  2  4  1  0  0  0  0
  3 26  1  0  0  0  0
  3 27  1  0  0  0  0
  3 28  1  0  0  0  0
  4  5  2  0  0  0  0
  4  6  1  0  0  0  0
  6 22  1  0  0  0  0
  6  7  1  0  0  0  0
  7  8  1  0  0  0  0
  7 29  1  0  0  0  0
  7 30  1  0  0  0  0
  8  9  1  0  0  0  0
  8 31  1  0  0  0  0
  8 32  1  0  0  0  0
  9 10  1  0  0  0  0
  9 33  1  0  0  0  0
  9 34  1  0  0  0  0
 10 11  1  0  0  0  0
 10 22  1  0  0  0  0
 10 35  1  0  0  0  0
 11 12  2  0  0  0  0
 11 13  1  0  0  0  0
 13 14  1  0  0  0  0
 13 36  1  0  0  0  0
 14 15  1  0  0  0  0
 14 37  1  0  0  0  0
 14 38  1  0  0  0  0
 15 16  1  0  0  0  0
 15 39  1  0  0  0  0
 15 40  1  0  0  0  0
 16 21  1  0  0  0  0
 16 17  2  0  0  0  0
 17 18  1  0  0  0  0
 17 41  1  0  0  0  0
 18 19  2  0  0  0  0
 18 42  1  0  0  0  0
 19 20  1  0  0  0  0
 19 43  1  0  0  0  0
 20 21  2  0  0  0  0
 20 44  1  0  0  0  0
 21 47  1  0  0  0  0
 22 45  1  0  0  0  0
 22 46  1  0  0  0  0
M  CHG  1  21   1
M  END
> <s_m_source_file>
AV-unprocessed.smi

> <i_m_source_file_index>
1839

> <i_lp_mmshare_version>
43012

> <i_f3d_flags>
0

> <s_epik_input>
W0NIM11OKFtDSDNdKUMoPU8pTjFbQ0gyXVtDSDJdW0NIMl1bQ0BIXShbQ0gyXTEpQyg9TylbTkhdW0NIMl1bQ0gyXWMyW2NIXVtjSF1bY0hdW2NIXW4y

> <s_epik_cmdline>
J2VwaWtfcHl0aG9uJywgJy1waCcsICc3LjAnLCAnLXRuJywgJzgnLCAnLW1hJywgJzIwMCcsICctbWV0YWxfYmluZGluZycsICctaW1hZScsICc8aW5maWxlLm1hZT4nLCAnLW9tYWUnLCAnPG91dGZpbGUubWFlPic=

> <r_epik_Ionization_Penalty>
1.8476

> <r_epik_Ionization_Penalty_Charging>
1.84754

> <r_epik_Ionization_Penalty_Neutral>
5.83857e-05

> <r_epik_State_Penalty>
1.96477

> <r_epik_Charging_Adjusted_Penalty>
3.81231

> <i_epik_Tot_Q>
1

> <i_epik_Tot_abs_Q>
1

> <r_epik_Metal_State_Penalty>
1.99061

> <b_epik_Metal_Only>
0

> <s_lp_Force_Field>
OPLS_2005

> <r_lp_Energy>
54.126

> <b_lp_Chiralities_Consistent>
1

> <s_lp_Variant>
AV-unprocessed.smi:1839-3

> <Gold.Version>
5.8.1

> <Gold.Id.Protein>
6NUR|6NUR_protein|mol2

> <Gold.PLP.Fitness>
42.9429

> <Gold.PLP.PLP>
-40.0805

> <Gold.PLP.part.hbond>
-1.0000

> <Gold.PLP.part.metal>
0.0000

> <Gold.PLP.part.buried>
0.9209

> <Gold.PLP.part.nonpolar>
-42.0897

> <Gold.PLP.part.repulsive>
1.1065

> <Gold.PLP.ligand.clash>
0.0000

> <Gold.PLP.ligand.torsion>
0.7101

> <Gold.PLP.Chemscore.Hbond>
0.9913

> <Gold.PLP.Chemscore.CHOScore>
0.0000

> <Gold.PLP.Chemscore.Metal>
0.0000

> <Gold.Chemscore.Hbonds>
donor molecule, donor type, donor heavy atom, donor atom, acceptor molecule, acceptor atom, score
      P1  H  7954  7966       L1    12  0.81

> <Gold.PLP.Chemscore.Internal.Correction>
1.3090

> <Gold.Rescore>
     Score         DG    S(hbond)    S(metal)    S(lipo)     H(rot)  DE(clash)    DE(int)     intcor
     12.68     -15.80       0.98        0.00      95.31       1.60       2.24       0.89       ----

> <Gold.Chemscore.Fitness>
12.6787

> <Gold.Chemscore.DG>
-15.8011

> <Gold.Chemscore.ZeroCoef>
-5.4800

> <Gold.Chemscore.Hbond>
0.9817

> <Gold.Chemscore.Metal>
0.0000

> <Gold.Chemscore.Lipo>
95.3075

> <Gold.Chemscore.Internal_Hbond>
0.0000

> <Gold.Chemscore.DEClash>
2.2353

> <Gold.Chemscore.DEInternal>
0.8871

> <Gold.Chemscore.Rot>
1.6049

> <Gold.Chemscore.Internal.Correction>
   9.000000E+99

> <Gold.Chemscore.Hbonds>
donor molecule, donor type, donor heavy atom, donor atom, acceptor molecule, acceptor atom, score
      P1  H  7954  7966       L1    12  0.77

> <Gold.Chemscore.Hbond.Weighted>
-3.2788

> <Gold.Chemscore.Metal.Weighted>
-0.0000

> <Gold.Chemscore.Lipo.Weighted>
-11.1510

> <Gold.Chemscore.Internal_Hbond.Weighted>
0.0000

> <Gold.Chemscore.DEClash.Weighted>
2.2353

> <Gold.Chemscore.DEInternal.Weighted>
0.8871

> <Gold.Chemscore.Rot.Weighted>
4.1087

> <Gold.Chemscore.Internal.Correction.Weighted>
   9.000000E+99

> <Gold.Protein.RotatedTorsions>
[ 6907 6896 6895 6894 ] final  140.30 input  -60.11 | X-H torsion
[ 7974 7965 7964 7962 ] final  -14.31 input  175.53 | X-H torsion
[ 8008 7997 7996 7995 ] final   60.39 input   59.86 | X-H torsion
[ 10167 10162 10161 10158 ] final -103.26 input  -65.29 | X-H torsion
[ 10718 10713 10712 10709 ] final -128.27 input   66.30 | X-H torsion
[ 10763 10752 10751 10750 ] final  -71.04 input  -60.55 | X-H torsion
[ 11005 11000 10999 10996 ] final  -53.98 input  -57.11 | X-H torsion

> <Gold.Protein.ActiveResidues>
 VAL166  LYS551  ARG553  GLY616  TRP617  ASP618  TYR619  PRO620  LYS621  CYS622 
 ASP623  PHE694  ASN695  SER759  ASP760  ASP761  ALA762  ILE779  LEU786  VAL792 
 PHE793  MET794  SER795  GLU796  ALA797  LYS798  CYS799  TRP800  GLU811  SER814 

> <Gold.Protein.RotatedAtoms>
  152.2447  133.5164  159.5289 H   0  0  0  0  0  0  0  0  0  0  0  0  # atno 6907 bound_to 6896
  150.7075  134.1042  159.3985 H   0  0  0  0  0  0  0  0  0  0  0  0  # atno 6908 bound_to 6896
  151.8962  135.0396  160.0553 H   0  0  0  0  0  0  0  0  0  0  0  0  # atno 6909 bound_to 6896
  146.2079  140.3330  142.8401 H   0  0  0  0  0  0  0  0  0  0  0  0  # atno 7974 bound_to 7965
  155.5816  140.3491  155.4542 H   0  0  0  0  0  0  0  0  0  0  0  0  # atno 8008 bound_to 7997
  156.0369  140.1287  157.0223 H   0  0  0  0  0  0  0  0  0  0  0  0  # atno 8009 bound_to 7997
  154.4375  140.1032  156.6166 H   0  0  0  0  0  0  0  0  0  0  0  0  # atno 8010 bound_to 7997
  140.2219  143.3669  152.0962 H   0  0  0  0  0  0  0  0  0  0  0  0  # atno 10167 bound_to 10162
  156.1935  130.6811  151.0453 H   0  0  0  0  0  0  0  0  0  0  0  0  # atno 10718 bound_to 10713
  154.4261  135.5975  153.6040 H   0  0  0  0  0  0  0  0  0  0  0  0  # atno 10763 bound_to 10752
  152.9796  135.5964  154.3895 H   0  0  0  0  0  0  0  0  0  0  0  0  # atno 10764 bound_to 10752
  154.3727  135.2841  155.2235 H   0  0  0  0  0  0  0  0  0  0  0  0  # atno 10765 bound_to 10752
  141.1003  133.6619  156.4253 H   0  0  0  0  0  0  0  0  0  0  0  0  # atno 11005 bound_to 11000
  144.8839  140.7436  143.5969 LP  0  0  0  0  0  0  0  0  0  0  0  0  # atno 17320 bound_to 7965
  145.3251  139.1776  143.4567 LP  0  0  0  0  0  0  0  0  0  0  0  0  # atno 17321 bound_to 7965
  139.5141  144.6943  151.5675 LP  0  0  0  0  0  0  0  0  0  0  0  0  # atno 17342 bound_to 10162
  140.6249  143.9188  150.6556 LP  0  0  0  0  0  0  0  0  0  0  0  0  # atno 17343 bound_to 10162
  157.6943  131.0799  150.7014 LP  0  0  0  0  0  0  0  0  0  0  0  0  # atno 17370 bound_to 10713
  156.7071  130.4640  149.5557 LP  0  0  0  0  0  0  0  0  0  0  0  0  # atno 17371 bound_to 10713
  140.5038  134.6460  157.5258 LP  0  0  0  0  0  0  0  0  0  0  0  0  # atno 17394 bound_to 11000
  139.9853  134.7072  155.9786 LP  0  0  0  0  0  0  0  0  0  0  0  0  # atno 17395 bound_to 11000

$$$$
