AV-unprocessed.smi:2013|AV-procd|sdf|8157|dock2
  -GOLD-   2272010403D 1   1.00000     0.00000
 Structure written by MMmdl.
 51 52  0  0  0  0  0  0  0  0  2 V2000
  144.9675  142.0914  156.7110 C   0  0  0  0  0  0  0  0  0  0  0  0
  144.8799  141.0896  155.5439 C   0  0  0  0  0  0  0  0  0  0  0  0
  143.8302  140.0139  155.8887 C   0  0  0  0  0  0  0  0  0  0  0  0
  146.2554  140.4610  155.1755 C   0  0  2  0  0  0  0  0  0  0  0  0
  147.3943  141.5172  155.0941 C   0  0  0  0  0  0  0  0  0  0  0  0
  148.6180  141.0913  155.7652 N   0  0  0  0  0  0  0  0  0  0  0  0
  149.8359  141.0539  155.2056 C   0  0  0  0  0  0  0  0  0  0  0  0
  150.0541  141.3785  154.0379 O   0  0  0  0  0  0  0  0  0  0  0  0
  150.9712  140.5396  156.1004 C   0  0  0  0  0  0  0  0  0  0  0  0
  151.3807  141.5123  157.1214 N   0  0  0  0  0  0  0  0  0  0  0  0
  150.8322  142.7823  157.1161 C   0  0  0  0  0  0  0  0  0  0  0  0
  151.1462  143.7330  158.0226 C   0  0  0  0  0  0  0  0  0  0  0  0
  152.1093  143.4645  159.0827 C   0  0  0  0  0  0  0  0  0  0  0  0
  152.4279  144.2942  159.9359 O   0  0  0  0  0  0  0  0  0  0  0  0
  152.6590  142.1624  159.0637 N   0  0  0  0  0  0  0  0  0  0  0  0
  153.6226  141.8566  160.1006 C   0  0  0  0  0  0  0  0  0  0  0  0
  152.3209  141.1667  158.1172 C   0  0  0  0  0  0  0  0  0  0  0  0
  152.8120  140.0360  158.1414 O   0  0  0  0  0  0  0  0  0  0  0  0
  146.1131  139.6242  153.9417 N   0  3  0  0  0  0  0  0  0  0  0  0
  147.2809  139.5966  153.0256 C   0  0  0  0  0  0  0  0  0  0  0  0
  146.8993  138.8959  151.7115 C   0  0  0  0  0  0  0  0  0  0  0  0
  146.4167  137.5869  151.9920 O   0  0  0  0  0  0  0  0  0  0  0  0
  145.2448  137.6094  152.7989 C   0  0  0  0  0  0  0  0  0  0  0  0
  145.5627  138.2626  154.1544 C   0  0  0  0  0  0  0  0  0  0  0  0
  145.4229  141.6378  157.5917 H   0  0  0  0  0  0  0  0  0  0  0  0
  143.9772  142.4463  156.9981 H   0  0  0  0  0  0  0  0  0  0  0  0
  145.5460  142.9762  156.4472 H   0  0  0  0  0  0  0  0  0  0  0  0
  144.5083  141.6417  154.6800 H   0  0  0  0  0  0  0  0  0  0  0  0
  144.1567  139.3965  156.7262 H   0  0  0  0  0  0  0  0  0  0  0  0
  143.6280  139.3533  155.0457 H   0  0  0  0  0  0  0  0  0  0  0  0
  142.8785  140.4684  156.1658 H   0  0  0  0  0  0  0  0  0  0  0  0
  146.5074  139.7854  155.9947 H   0  0  0  0  0  0  0  0  0  0  0  0
  147.5866  141.7751  154.0513 H   0  0  0  0  0  0  0  0  0  0  0  0
  147.0919  142.4415  155.5845 H   0  0  0  0  0  0  0  0  0  0  0  0
  148.5351  140.8102  156.7314 H   0  0  0  0  0  0  0  0  0  0  0  0
  150.6784  139.6001  156.5730 H   0  0  0  0  0  0  0  0  0  0  0  0
  151.8195  140.2936  155.4603 H   0  0  0  0  0  0  0  0  0  0  0  0
  150.1108  143.0290  156.3507 H   0  0  0  0  0  0  0  0  0  0  0  0
  150.6784  144.7048  157.9631 H   0  0  0  0  0  0  0  0  0  0  0  0
  154.0551  140.8664  159.9627 H   0  0  0  0  0  0  0  0  0  0  0  0
  153.0946  141.9076  161.0542 H   0  0  0  0  0  0  0  0  0  0  0  0
  154.4136  142.6067  160.0431 H   0  0  0  0  0  0  0  0  0  0  0  0
  147.6208  140.6108  152.8161 H   0  0  0  0  0  0  0  0  0  0  0  0
  148.1145  139.0653  153.4846 H   0  0  0  0  0  0  0  0  0  0  0  0
  146.1440  139.4674  151.1693 H   0  0  0  0  0  0  0  0  0  0  0  0
  147.7700  138.8199  151.0601 H   0  0  0  0  0  0  0  0  0  0  0  0
  144.4457  138.1461  152.2849 H   0  0  0  0  0  0  0  0  0  0  0  0
  144.8971  136.5868  152.9465 H   0  0  0  0  0  0  0  0  0  0  0  0
  146.2718  137.6391  154.6972 H   0  0  0  0  0  0  0  0  0  0  0  0
  144.6537  138.3153  154.7544 H   0  0  0  0  0  0  0  0  0  0  0  0
  145.3873  140.0953  153.4204 H   0  0  0  0  0  0  0  0  0  0  0  0
  1  2  1  0  0  0  0
  1 25  1  0  0  0  0
  1 26  1  0  0  0  0
  1 27  1  0  0  0  0
  2  3  1  0  0  0  0
  2  4  1  0  0  0  0
  2 28  1  0  0  0  0
  3 29  1  0  0  0  0
  3 30  1  0  0  0  0
  3 31  1  0  0  0  0
  4  5  1  0  0  0  0
  4 19  1  0  0  0  0
  4 32  1  0  0  0  0
  5  6  1  0  0  0  0
  5 33  1  0  0  0  0
  5 34  1  0  0  0  0
  6  7  1  0  0  0  0
  6 35  1  0  0  0  0
  7  8  2  0  0  0  0
  7  9  1  0  0  0  0
  9 10  1  0  0  0  0
  9 36  1  0  0  0  0
  9 37  1  0  0  0  0
 10 17  1  0  0  0  0
 10 11  1  0  0  0  0
 11 12  2  0  0  0  0
 11 38  1  0  0  0  0
 12 13  1  0  0  0  0
 12 39  1  0  0  0  0
 13 14  2  0  0  0  0
 13 15  1  0  0  0  0
 15 16  1  0  0  0  0
 15 17  1  0  0  0  0
 16 40  1  0  0  0  0
 16 41  1  0  0  0  0
 16 42  1  0  0  0  0
 17 18  2  0  0  0  0
 19 24  1  0  0  0  0
 19 20  1  0  0  0  0
 19 51  1  0  0  0  0
 20 21  1  0  0  0  0
 20 43  1  0  0  0  0
 20 44  1  0  0  0  0
 21 22  1  0  0  0  0
 21 45  1  0  0  0  0
 21 46  1  0  0  0  0
 22 23  1  0  0  0  0
 23 24  1  0  0  0  0
 23 47  1  0  0  0  0
 23 48  1  0  0  0  0
 24 49  1  0  0  0  0
 24 50  1  0  0  0  0
M  CHG  1  19   1
M  END
> <s_m_source_file>
AV-unprocessed.smi

> <i_m_source_file_index>
2013

> <i_lp_mmshare_version>
43012

> <i_f3d_flags>
0

> <s_epik_input>
W0NIMl0xW0NIMl1PW0NIMl1bQ0gyXU4xW0NASF0oW0NIXShbQ0gzXSlbQ0gzXSlbQ0gyXVtOSF1DKD1PKVtDSDJdbjJbY0hdW2NIXWMoPU8pbihbQ0gzXSljMj1P

> <s_epik_cmdline>
J2VwaWtfcHl0aG9uJywgJy1waCcsICc3LjAnLCAnLXRuJywgJzgnLCAnLW1hJywgJzIwMCcsICctbWV0YWxfYmluZGluZycsICctaW1hZScsICc8aW5maWxlLm1hZT4nLCAnLW9tYWUnLCAnPG91dGZpbGUubWFlPic=

> <r_lp_tautomer_probability>
1

> <r_epik_Ionization_Penalty>
0.370738

> <r_epik_Ionization_Penalty_Charging>
0.370738

> <r_epik_Ionization_Penalty_Neutral>
8.1827e-08

> <r_epik_State_Penalty>
0.368162

> <r_epik_Charging_Adjusted_Penalty>
0.7389

> <i_epik_Tot_Q>
1

> <i_epik_Tot_abs_Q>
1

> <r_epik_Metal_State_Penalty>
0.368194

> <b_epik_Metal_Only>
0

> <s_lp_Force_Field>
OPLS_2005

> <r_lp_Energy>
40.4187

> <b_lp_Chiralities_Consistent>
1

> <s_lp_Variant>
AV-unprocessed.smi:2013-1

> <Gold.Version>
5.8.1

> <Gold.Id.Protein>
6NUR|6NUR_protein|mol2

> <Gold.PLP.Fitness>
46.3230

> <Gold.PLP.PLP>
-37.5791

> <Gold.PLP.part.hbond>
-2.8979

> <Gold.PLP.part.metal>
0.0000

> <Gold.PLP.part.buried>
-1.6895

> <Gold.PLP.part.nonpolar>
-34.7312

> <Gold.PLP.part.repulsive>
0.7014

> <Gold.PLP.ligand.clash>
0.0000

> <Gold.PLP.ligand.torsion>
1.6921

> <Gold.PLP.Chemscore.Hbond>
2.9183

> <Gold.PLP.Chemscore.CHOScore>
1.0000

> <Gold.PLP.Chemscore.Metal>
0.0000

> <Gold.Chemscore.Hbonds>
donor molecule, donor type, donor heavy atom, donor atom, acceptor molecule, acceptor atom, score
      L1  H    19    51       P1 10175  2.00
      P1  H  7989  7998       L1     8  0.27
      P1  H  8011  8017       L1     8  0.64
      L1  C    11    38       P1  8028  1.00

> <Gold.PLP.Chemscore.Internal.Correction>
0.3733

> <Gold.Rescore>
     Score         DG    S(hbond)    S(metal)    S(lipo)     H(rot)  DE(clash)    DE(int)     intcor
     11.30     -13.46       1.87        0.00      64.77       2.28       0.14       2.01       ----

> <Gold.Chemscore.Fitness>
11.3009

> <Gold.Chemscore.DG>
-13.4590

> <Gold.Chemscore.ZeroCoef>
-5.4800

> <Gold.Chemscore.Hbond>
1.8685

> <Gold.Chemscore.Metal>
0.0000

> <Gold.Chemscore.Lipo>
64.7735

> <Gold.Chemscore.Internal_Hbond>
0.0000

> <Gold.Chemscore.DEClash>
0.1447

> <Gold.Chemscore.DEInternal>
2.0134

> <Gold.Chemscore.Rot>
2.2814

> <Gold.Chemscore.Internal.Correction>
   9.000000E+99

> <Gold.Chemscore.Hbonds>
donor molecule, donor type, donor heavy atom, donor atom, acceptor molecule, acceptor atom, score
      L1  H    19    51       P1 10175  0.97
      P1  H  7989  7998       L1     8  0.25
      P1  H  8011  8017       L1     8  0.61

> <Gold.Chemscore.Hbond.Weighted>
-6.2409

> <Gold.Chemscore.Metal.Weighted>
-0.0000

> <Gold.Chemscore.Lipo.Weighted>
-7.5785

> <Gold.Chemscore.Internal_Hbond.Weighted>
0.0000

> <Gold.Chemscore.DEClash.Weighted>
0.1447

> <Gold.Chemscore.DEInternal.Weighted>
2.0134

> <Gold.Chemscore.Rot.Weighted>
5.8404

> <Gold.Chemscore.Internal.Correction.Weighted>
   9.000000E+99

> <Gold.Protein.RotatedTorsions>
[ 6907 6896 6895 6894 ] final  111.75 input  -60.11 | X-H torsion
[ 7974 7965 7964 7962 ] final -172.55 input  175.53 | X-H torsion
[ 8008 7997 7996 7995 ] final  -34.04 input   59.86 | X-H torsion
[ 10167 10162 10161 10158 ] final   49.98 input  -65.29 | X-H torsion
[ 10718 10713 10712 10709 ] final   43.63 input   66.30 | X-H torsion
[ 10763 10752 10751 10750 ] final   49.45 input  -60.55 | X-H torsion
[ 11005 11000 10999 10996 ] final -126.40 input  -57.11 | X-H torsion

> <Gold.Protein.ActiveResidues>
 VAL166  LYS551  ARG553  GLY616  TRP617  ASP618  TYR619  PRO620  LYS621  CYS622 
 ASP623  PHE694  ASN695  SER759  ASP760  ASP761  ALA762  ILE779  LEU786  VAL792 
 PHE793  MET794  SER795  GLU796  ALA797  LYS798  CYS799  TRP800  GLU811  SER814 

> <Gold.Protein.RotatedAtoms>
  152.4953  133.8613  159.7251 H   0  0  0  0  0  0  0  0  0  0  0  0  # atno 6907 bound_to 6896
  150.9124  133.6972  159.2858 H   0  0  0  0  0  0  0  0  0  0  0  0  # atno 6908 bound_to 6896
  151.4377  135.1021  159.9713 H   0  0  0  0  0  0  0  0  0  0  0  0  # atno 6909 bound_to 6896
  144.7145  140.1756  143.6363 H   0  0  0  0  0  0  0  0  0  0  0  0  # atno 7974 bound_to 7965
  154.4132  140.1694  156.1985 H   0  0  0  0  0  0  0  0  0  0  0  0  # atno 8008 bound_to 7997
  155.9544  140.3398  155.6412 H   0  0  0  0  0  0  0  0  0  0  0  0  # atno 8009 bound_to 7997
  155.6829  140.0724  157.2468 H   0  0  0  0  0  0  0  0  0  0  0  0  # atno 8010 bound_to 7997
  140.2772  144.3198  150.6274 H   0  0  0  0  0  0  0  0  0  0  0  0  # atno 10167 bound_to 10162
  157.4180  130.7952  149.7489 H   0  0  0  0  0  0  0  0  0  0  0  0  # atno 10718 bound_to 10713
  152.9787  135.5911  154.4091 H   0  0  0  0  0  0  0  0  0  0  0  0  # atno 10763 bound_to 10752
  154.3728  135.2767  155.2258 H   0  0  0  0  0  0  0  0  0  0  0  0  # atno 10764 bound_to 10752
  154.4206  135.6060  153.6062 H   0  0  0  0  0  0  0  0  0  0  0  0  # atno 10765 bound_to 10752
  140.9684  134.0839  157.3895 H   0  0  0  0  0  0  0  0  0  0  0  0  # atno 11005 bound_to 11000
  145.8904  139.2372  143.1553 LP  0  0  0  0  0  0  0  0  0  0  0  0  # atno 17320 bound_to 7965
  145.9909  140.8603  143.0067 LP  0  0  0  0  0  0  0  0  0  0  0  0  # atno 17321 bound_to 7965
  140.5841  143.2171  151.7374 LP  0  0  0  0  0  0  0  0  0  0  0  0  # atno 17342 bound_to 10162
  139.4972  144.4036  152.0155 LP  0  0  0  0  0  0  0  0  0  0  0  0  # atno 17343 bound_to 10162
  155.9871  130.3969  150.3179 LP  0  0  0  0  0  0  0  0  0  0  0  0  # atno 17370 bound_to 10713
  157.1324  131.0275  151.2963 LP  0  0  0  0  0  0  0  0  0  0  0  0  # atno 17371 bound_to 10713
  139.8903  135.0111  156.6728 LP  0  0  0  0  0  0  0  0  0  0  0  0  # atno 17394 bound_to 11000
  140.7365  133.9014  155.8247 LP  0  0  0  0  0  0  0  0  0  0  0  0  # atno 17395 bound_to 11000

$$$$
