AV-unprocessed.smi:1823|AV-procd|sdf|7391|dock4
  -GOLD-   22720 9 63D 1   1.00000     0.00000
 Structure written by MMmdl.
 43 44  0  0  0  0  0  0  0  0  1 V2000
  146.5352  145.5231  160.4459 C   0  0  0  0  0  0  0  0  0  0  0  0
  146.4397  144.1499  159.8753 C   0  0  0  0  0  0  0  0  0  0  0  0
  146.8276  143.0902  160.5740 N   0  0  0  0  0  0  0  0  0  0  0  0
  146.5677  142.0195  159.7071 O   0  0  0  0  0  0  0  0  0  0  0  0
  146.0618  142.5721  158.5776 C   0  0  0  0  0  0  0  0  0  0  0  0
  145.6103  141.6722  157.4719 C   0  0  0  0  0  0  0  0  0  0  0  0
  146.1395  142.0694  156.0796 C   0  0  0  0  0  0  0  0  0  0  0  0
  147.5806  142.3115  156.0757 N   0  0  0  0  0  0  0  0  0  0  0  0
  148.5096  141.4781  156.5709 C   0  0  0  0  0  0  0  0  0  0  0  0
  148.2419  140.3755  157.0501 O   0  0  0  0  0  0  0  0  0  0  0  0
  149.9614  141.9797  156.5514 C   0  0  2  0  0  0  0  0  0  0  0  0
  150.9217  140.9322  155.9543 C   0  0  0  0  0  0  0  0  0  0  0  0
  151.7580  140.4832  157.1409 C   0  0  0  0  0  0  0  0  0  0  0  0
  152.5540  139.5475  157.0772 O   0  0  0  0  0  0  0  0  0  0  0  0
  151.4930  141.2228  158.2243 N   0  0  0  0  0  0  0  0  0  0  0  0
  152.0343  141.0287  159.5696 C   0  0  0  0  0  0  0  0  0  0  0  0
  152.8356  142.2460  160.0825 C   0  0  0  0  0  0  0  0  0  0  0  0
  153.6970  141.9328  161.3182 C   0  0  0  0  0  0  0  0  0  0  0  0
  151.8935  143.4240  160.3716 C   0  0  0  0  0  0  0  0  0  0  0  0
  150.4952  142.2499  157.9746 C   0  0  0  0  0  0  0  0  0  0  0  0
  145.9552  143.8974  158.6282 N   0  0  0  0  0  0  0  0  0  0  0  0
  147.5711  145.7597  160.6898 H   0  0  0  0  0  0  0  0  0  0  0  0
  145.9376  145.5965  161.3549 H   0  0  0  0  0  0  0  0  0  0  0  0
  146.1706  146.2637  159.7335 H   0  0  0  0  0  0  0  0  0  0  0  0
  145.9225  140.6540  157.7055 H   0  0  0  0  0  0  0  0  0  0  0  0
  144.5198  141.6627  157.4609 H   0  0  0  0  0  0  0  0  0  0  0  0
  145.8783  141.3011  155.3498 H   0  0  0  0  0  0  0  0  0  0  0  0
  145.6416  142.9808  155.7484 H   0  0  0  0  0  0  0  0  0  0  0  0
  147.8920  143.1965  155.7022 H   0  0  0  0  0  0  0  0  0  0  0  0
  150.0118  142.8981  155.9640 H   0  0  0  0  0  0  0  0  0  0  0  0
  150.4156  140.0797  155.4979 H   0  0  0  0  0  0  0  0  0  0  0  0
  151.5718  141.3793  155.2018 H   0  0  0  0  0  0  0  0  0  0  0  0
  151.2050  140.8228  160.2479 H   0  0  0  0  0  0  0  0  0  0  0  0
  152.6602  140.1346  159.5908 H   0  0  0  0  0  0  0  0  0  0  0  0
  153.5097  142.5620  159.2850 H   0  0  0  0  0  0  0  0  0  0  0  0
  153.0893  141.5453  162.1365 H   0  0  0  0  0  0  0  0  0  0  0  0
  154.2068  142.8274  161.6772 H   0  0  0  0  0  0  0  0  0  0  0  0
  154.4679  141.1955  161.0947 H   0  0  0  0  0  0  0  0  0  0  0  0
  151.1832  143.1779  161.1615 H   0  0  0  0  0  0  0  0  0  0  0  0
  151.3224  143.6985  159.4842 H   0  0  0  0  0  0  0  0  0  0  0  0
  152.4508  144.3063  160.6880 H   0  0  0  0  0  0  0  0  0  0  0  0
  150.9677  143.2314  158.0301 H   0  0  0  0  0  0  0  0  0  0  0  0
  149.7136  142.2200  158.7358 H   0  0  0  0  0  0  0  0  0  0  0  0
  1  2  1  0  0  0  0
  1 22  1  0  0  0  0
  1 23  1  0  0  0  0
  1 24  1  0  0  0  0
  2 21  1  0  0  0  0
  2  3  2  0  0  0  0
  3  4  1  0  0  0  0
  4  5  1  0  0  0  0
  5  6  1  0  0  0  0
  5 21  2  0  0  0  0
  6  7  1  0  0  0  0
  6 25  1  0  0  0  0
  6 26  1  0  0  0  0
  7  8  1  0  0  0  0
  7 27  1  0  0  0  0
  7 28  1  0  0  0  0
  8  9  1  0  0  0  0
  8 29  1  0  0  0  0
  9 10  2  0  0  0  0
  9 11  1  0  0  0  0
 11 20  1  0  0  0  0
 11 12  1  0  0  0  0
 11 30  1  0  0  0  0
 12 13  1  0  0  0  0
 12 31  1  0  0  0  0
 12 32  1  0  0  0  0
 13 14  2  0  0  0  0
 13 15  1  0  0  0  0
 15 16  1  0  0  0  0
 15 20  1  0  0  0  0
 16 17  1  0  0  0  0
 16 33  1  0  0  0  0
 16 34  1  0  0  0  0
 17 18  1  0  0  0  0
 17 19  1  0  0  0  0
 17 35  1  0  0  0  0
 18 36  1  0  0  0  0
 18 37  1  0  0  0  0
 18 38  1  0  0  0  0
 19 39  1  0  0  0  0
 19 40  1  0  0  0  0
 19 41  1  0  0  0  0
 20 42  1  0  0  0  0
 20 43  1  0  0  0  0
M  END
> <s_m_source_file>
AV-unprocessed.smi

> <i_m_source_file_index>
1823

> <i_lp_mmshare_version>
43012

> <i_f3d_flags>
0

> <s_epik_input>
W0NIM11jMW5vYyhuMSlbQ0gyXVtDSDJdW05IXUMoPU8pW0NAQEhdMltDSDJdQyg9TylOKFtDSDJdMilbQ0gyXVtDSF0oW0NIM10pW0NIM10=

> <s_epik_cmdline>
J2VwaWtfcHl0aG9uJywgJy1waCcsICc3LjAnLCAnLXRuJywgJzgnLCAnLW1hJywgJzIwMCcsICctbWV0YWxfYmluZGluZycsICctaW1hZScsICc8aW5maWxlLm1hZT4nLCAnLW9tYWUnLCAnPG91dGZpbGUubWFlPic=

> <r_lp_tautomer_probability>
1

> <r_epik_Ionization_Penalty>
3.64678e-08

> <r_epik_Ionization_Penalty_Charging>
0

> <r_epik_Ionization_Penalty_Neutral>
3.64678e-08

> <r_epik_State_Penalty>
-0

> <r_epik_Charging_Adjusted_Penalty>
0

> <i_epik_Tot_Q>
0

> <i_epik_Tot_abs_Q>
0

> <r_epik_Metal_State_Penalty>
-0

> <b_epik_Metal_Only>
0

> <s_lp_Force_Field>
OPLS_2005

> <r_lp_Energy>
11.1624

> <b_lp_Chiralities_Consistent>
1

> <s_lp_Variant>
AV-unprocessed.smi:1823-1

> <Gold.Version>
5.8.1

> <Gold.Id.Protein>
6NUR|6NUR_protein|mol2

> <Gold.PLP.Fitness>
45.2637

> <Gold.PLP.PLP>
-34.4130

> <Gold.PLP.part.hbond>
-4.9948

> <Gold.PLP.part.metal>
0.0000

> <Gold.PLP.part.buried>
-4.5982

> <Gold.PLP.part.nonpolar>
-27.0110

> <Gold.PLP.part.repulsive>
0.7002

> <Gold.PLP.ligand.clash>
0.0000

> <Gold.PLP.ligand.torsion>
0.3996

> <Gold.PLP.Chemscore.Hbond>
3.8500

> <Gold.PLP.Chemscore.CHOScore>
0.0000

> <Gold.PLP.Chemscore.Metal>
0.0000

> <Gold.Chemscore.Hbonds>
donor molecule, donor type, donor heavy atom, donor atom, acceptor molecule, acceptor atom, score
      L1  H     8    29       P1  8028  1.00
      P1  H  6933  6944       L1     3  0.90
      P1  H  6934  6946       L1     4  0.90
      P1  H  7997  8008       L1    14  1.00

> <Gold.PLP.Chemscore.Internal.Correction>
0.0999

> <Gold.Rescore>
     Score         DG    S(hbond)    S(metal)    S(lipo)     H(rot)  DE(clash)    DE(int)     intcor
     15.48     -16.22       2.61        0.00      69.79       2.40       0.04       0.70       ----

> <Gold.Chemscore.Fitness>
15.4839

> <Gold.Chemscore.DG>
-16.2174

> <Gold.Chemscore.ZeroCoef>
-5.4800

> <Gold.Chemscore.Hbond>
2.6061

> <Gold.Chemscore.Metal>
0.0000

> <Gold.Chemscore.Lipo>
69.7935

> <Gold.Chemscore.Internal_Hbond>
0.0000

> <Gold.Chemscore.DEClash>
0.0368

> <Gold.Chemscore.DEInternal>
0.6968

> <Gold.Chemscore.Rot>
2.3957

> <Gold.Chemscore.Internal.Correction>
   9.000000E+99

> <Gold.Chemscore.Hbonds>
donor molecule, donor type, donor heavy atom, donor atom, acceptor molecule, acceptor atom, score
      L1  H     8    29       P1  8028  0.49
      P1  H  6933  6944       L1     3  0.16
      P1  H  6934  6946       L1     4  0.17
      P1  H  7997  8008       L1    14  0.87

> <Gold.Chemscore.Hbond.Weighted>
-8.7044

> <Gold.Chemscore.Metal.Weighted>
-0.0000

> <Gold.Chemscore.Lipo.Weighted>
-8.1658

> <Gold.Chemscore.Internal_Hbond.Weighted>
0.0000

> <Gold.Chemscore.DEClash.Weighted>
0.0368

> <Gold.Chemscore.DEInternal.Weighted>
0.6968

> <Gold.Chemscore.Rot.Weighted>
6.1329

> <Gold.Chemscore.Internal.Correction.Weighted>
   9.000000E+99

> <Gold.Protein.RotatedTorsions>
[ 6907 6896 6895 6894 ] final  -54.18 input  -60.11 | X-H torsion
[ 7974 7965 7964 7962 ] final -130.97 input  175.53 | X-H torsion
[ 8008 7997 7996 7995 ] final  -60.38 input   59.86 | X-H torsion
[ 10167 10162 10161 10158 ] final  118.41 input  -65.29 | X-H torsion
[ 10718 10713 10712 10709 ] final -166.64 input   66.30 | X-H torsion
[ 10763 10752 10751 10750 ] final   66.03 input  -60.55 | X-H torsion
[ 11005 11000 10999 10996 ] final   21.89 input  -57.11 | X-H torsion

> <Gold.Protein.ActiveResidues>
 VAL166  LYS551  ARG553  GLY616  TRP617  ASP618  TYR619  PRO620  LYS621  CYS622 
 ASP623  PHE694  ASN695  SER759  ASP760  ASP761  ALA762  ILE779  LEU786  VAL792 
 PHE793  MET794  SER795  GLU796  ALA797  LYS798  CYS799  TRP800  GLU811  SER814 

> <Gold.Protein.RotatedAtoms>
  150.8361  134.7634  159.6893 H   0  0  0  0  0  0  0  0  0  0  0  0  # atno 6907 bound_to 6896
  152.4457  134.5496  159.9872 H   0  0  0  0  0  0  0  0  0  0  0  0  # atno 6908 bound_to 6896
  151.5646  133.3360  159.3013 H   0  0  0  0  0  0  0  0  0  0  0  0  # atno 6909 bound_to 6896
  144.9423  140.7253  143.4839 H   0  0  0  0  0  0  0  0  0  0  0  0  # atno 7974 bound_to 7965
  154.4396  140.1041  156.6264 H   0  0  0  0  0  0  0  0  0  0  0  0  # atno 8008 bound_to 7997
  155.5652  140.3488  155.4482 H   0  0  0  0  0  0  0  0  0  0  0  0  # atno 8009 bound_to 7997
  156.0430  140.1286  157.0123 H   0  0  0  0  0  0  0  0  0  0  0  0  # atno 8010 bound_to 7997
  139.6113  144.7082  151.2837 H   0  0  0  0  0  0  0  0  0  0  0  0  # atno 10167 bound_to 10162
  156.6708  130.9083  151.3043 H   0  0  0  0  0  0  0  0  0  0  0  0  # atno 10718 bound_to 10713
  153.0122  135.5335  154.6759 H   0  0  0  0  0  0  0  0  0  0  0  0  # atno 10763 bound_to 10752
  154.5932  135.2861  155.0616 H   0  0  0  0  0  0  0  0  0  0  0  0  # atno 10764 bound_to 10752
  154.1701  135.6533  153.5060 H   0  0  0  0  0  0  0  0  0  0  0  0  # atno 10765 bound_to 10752
  140.3866  134.1863  155.7663 H   0  0  0  0  0  0  0  0  0  0  0  0  # atno 11005 bound_to 11000
  145.2971  139.1863  143.4709 LP  0  0  0  0  0  0  0  0  0  0  0  0  # atno 17320 bound_to 7965
  146.3290  140.2957  142.8618 LP  0  0  0  0  0  0  0  0  0  0  0  0  # atno 17321 bound_to 7965
  140.7321  143.6833  150.7983 LP  0  0  0  0  0  0  0  0  0  0  0  0  # atno 17342 bound_to 10162
  140.0428  143.5329  152.2710 LP  0  0  0  0  0  0  0  0  0  0  0  0  # atno 17343 bound_to 10162
  157.7078  130.9405  150.0987 LP  0  0  0  0  0  0  0  0  0  0  0  0  # atno 17370 bound_to 10713
  156.1940  130.3656  149.8873 LP  0  0  0  0  0  0  0  0  0  0  0  0  # atno 17371 bound_to 10713
  141.1905  133.8215  157.0915 LP  0  0  0  0  0  0  0  0  0  0  0  0  # atno 17394 bound_to 11000
  140.0438  134.9841  157.1011 LP  0  0  0  0  0  0  0  0  0  0  0  0  # atno 17395 bound_to 11000

$$$$
