#       Name:                AV-unprocessed.smi:92
#       Creating user name   scv26
#       Creation time:       Thu Mar 26 17:28:23 2020


#       File generated by GOLD software.
#

@<TRIPOS>MOLECULE
AV-unprocessed.smi:92
    68    71     1
SMALL
NO_CHARGES


@<TRIPOS>ATOM
      1 ****        -7.4433  -1.6079  -1.3107 C.3            1 S1                 0.0000
      2 ****        -6.0441  -1.2199  -1.8095 C.3            1 S1                 0.0000
      3 ****        -5.0053  -2.2107  -1.4199 N.4            1 S1                 1.0000
      4 ****        -3.7960  -2.1693  -2.2807 C.3            1 S1                 0.0000
      5 ****        -2.9189  -0.9466  -1.9686 C.3            1 S1                 0.0000
      6 ****        -2.5145  -0.9212  -0.4801 C.3            1 S1                 0.0000
      7 ****        -1.6648   0.2375  -0.1690 N.pl3          1 S1                 0.0000
      8 ****        -2.2103   1.5918  -0.2248 C.3            1 S1                 0.0000
      9 ****        -0.3083   0.1170  -0.2003 C.ar           1 S1                 0.0000
     10 ****         0.2546  -0.8957  -0.9127 N.ar           1 S1                 0.0000
     11 ****         1.5818  -1.0327  -0.9696 C.ar           1 S1                 0.0000
     12 ****         2.5215  -0.2823  -0.3950 N.ar           1 S1                 0.0000
     13 ****         1.9725   0.7327   0.3310 C.ar           1 S1                 0.0000
     14 ****         0.5806   1.0021   0.4801 C.ar           1 S1                 0.0000
     15 ****         0.4055   2.1081   1.3042 N.2            1 S1                 0.0000
     16 ****         1.6179   2.4760   1.6142 C.2            1 S1                 0.0000
     17 ****         2.6227   1.7069   1.0729 N.pl3          1 S1                 0.0000
     18 ****         4.0347   1.8984   1.2610 C.3            1 S1                 0.0000
     19 ****         4.9896   2.0257   0.0693 C.3            1 S1                 0.0000
     20 ****         6.0711   1.2384   0.8470 C.3            1 S1                 0.0000
     21 ****         6.8090   0.1362   0.0637 C.3            1 S1                 0.0000
     22 ****         5.9302  -0.7419  -0.6109 O.3            1 S1                 0.0000
     23 ****         7.1882   2.0797   1.5007 C.3            1 S1                 0.0000
     24 ****         6.7027   3.1568   2.2768 O.3            1 S1                 0.0000
     25 ****         4.9314   0.7708   1.7834 C.3            1 S1                 0.0000
     26 ****        -3.7682  -1.0002   0.4271 C.3            1 S1                 0.0000
     27 ****        -3.3945  -1.0952   1.9169 C.3            1 S1                 0.0000
     28 ****        -4.6461  -2.2087   0.0244 C.3            1 S1                 0.0000
     29 ****        -8.1914  -0.9149  -1.6962 H              1 S1                 0.0000
     30 ****        -7.5137  -1.5843  -0.2239 H              1 S1                 0.0000
     31 ****        -7.7180  -2.6083  -1.6461 H              1 S1                 0.0000
     32 ****        -6.0879  -1.1637  -2.8978 H              1 S1                 0.0000
     33 ****        -5.7810  -0.2198  -1.4658 H              1 S1                 0.0000
     34 ****        -3.2207  -3.0810  -2.1134 H              1 S1                 0.0000
     35 ****        -4.0791  -2.1796  -3.3338 H              1 S1                 0.0000
     36 ****        -2.0287  -0.9727  -2.5975 H              1 S1                 0.0000
     37 ****        -3.4528  -0.0354  -2.2390 H              1 S1                 0.0000
     38 ****        -1.9472  -1.8306  -0.2776 H              1 S1                 0.0000
     39 ****        -1.5691   2.2529  -0.8091 H              1 S1                 0.0000
     40 ****        -2.3037   2.0012   0.7811 H              1 S1                 0.0000
     41 ****        -3.1984   1.6110  -0.6825 H              1 S1                 0.0000
     42 ****         1.9431  -1.8613  -1.5604 H              1 S1                 0.0000
     43 ****         1.8110   3.3252   2.2535 H              1 S1                 0.0000
     44 ****         4.1367   2.7737   1.9042 H              1 S1                 0.0000
     45 ****         4.6258   1.5084  -0.8190 H              1 S1                 0.0000
     46 ****         5.2617   3.0532  -0.1737 H              1 S1                 0.0000
     47 ****         7.4769   0.5712  -0.6806 H              1 S1                 0.0000
     48 ****         7.4294  -0.4640   0.7302 H              1 S1                 0.0000
     49 ****         6.4441  -1.3841  -1.0761 H              1 S1                 0.0000
     50 ****         7.8080   1.4604   2.1502 H              1 S1                 0.0000
     51 ****         7.8515   2.4956   0.7415 H              1 S1                 0.0000
     52 ****         7.4404   3.6206   2.6427 H              1 S1                 0.0000
     53 ****         5.1589   0.8419   2.8475 H              1 S1                 0.0000
     54 ****         4.5455  -0.2200   1.5423 H              1 S1                 0.0000
     55 ****        -4.3612  -0.0950   0.3008 H              1 S1                 0.0000
     56 ****        -2.7719  -1.9682   2.1154 H              1 S1                 0.0000
     57 ****        -4.2854  -1.1737   2.5407 H              1 S1                 0.0000
     58 ****        -2.8453  -0.2142   2.2496 H              1 S1                 0.0000
     59 ****        -5.5439  -2.2499   0.6399 H              1 S1                 0.0000
     60 ****        -4.1040  -3.1322   0.2328 H              1 S1                 0.0000
     61 ****        -5.4279  -3.1103  -1.5998 H              1 S1                 0.0000
     62 ****        -0.3313  -1.5442  -1.3988 LP             1 S1                 0.0000
     63 ****         3.5043  -0.4433  -0.4850 LP             1 S1                 0.0000
     64 ****        -0.4552   2.5268   1.5937 LP             1 S1                 0.0000
     65 ****         5.3695  -0.2257  -1.2584 LP             1 S1                 0.0000
     66 ****         5.3376  -1.2002   0.0515 LP             1 S1                 0.0000
     67 ****         6.1248   2.8073   3.0143 LP             1 S1                 0.0000
     68 ****         6.1689   3.7746   1.6994 LP             1 S1                 0.0000
@<TRIPOS>BOND
    1    1    2 1     
    2    1   29 1     
    3    1   30 1     
    4    1   31 1     
    5    2    3 1     
    6    2   32 1     
    7    2   33 1     
    8    3   28 1     
    9    3    4 1     
   10    3   61 1     
   11    4    5 1     
   12    4   34 1     
   13    4   35 1     
   14    5    6 1     
   15    5   36 1     
   16    5   37 1     
   17    6    7 1     
   18    6   26 1     
   19    6   38 1     
   20    7    8 1     
   21    7    9 1     
   22    8   39 1     
   23    8   40 1     
   24    8   41 1     
   25    9   14 ar    
   26    9   10 ar    
   27   10   11 ar    
   28   11   12 ar    
   29   11   42 1     
   30   12   13 ar    
   31   13   17 1     
   32   13   14 ar    
   33   14   15 1     
   34   15   16 2     
   35   16   17 1     
   36   16   43 1     
   37   17   18 1     
   38   18   25 1     
   39   18   19 1     
   40   18   44 1     
   41   19   20 1     
   42   19   45 1     
   43   19   46 1     
   44   20   21 1     
   45   20   23 1     
   46   20   25 1     
   47   21   22 1     
   48   21   47 1     
   49   21   48 1     
   50   22   49 1     
   51   23   24 1     
   52   23   50 1     
   53   23   51 1     
   54   24   52 1     
   55   25   53 1     
   56   25   54 1     
   57   26   27 1     
   58   26   28 1     
   59   26   55 1     
   60   27   56 1     
   61   27   57 1     
   62   27   58 1     
   63   28   59 1     
   64   28   60 1     
   65   10   62 1     
   66   12   63 1     
   67   15   64 1     
   68   22   65 1     
   69   22   66 1     
   70   24   67 1     
   71   24   68 1     
@<TRIPOS>SUBSTRUCTURE
      1 S1             1
@<TRIPOS>SET
LONE_PAIRS      STATIC     ATOMS    <user>   **** ""
7 62 63 64 65 66 67 68
DONOR_HYDROGENS      STATIC     ATOMS    <user>   **** ""
3 61 49 52
ATOM$BLUE        STATIC     ATOMS    COLORGROUP SYSTEM
7 62 63 64 65 66 67 68
ATOM$RED        STATIC     ATOMS    COLORGROUP SYSTEM
3 61 49 52
