AV-unprocessed.smi:1048|AV-procd|sdf|4604|dock1
  -GOLD-   22720 3 93D 1   1.00000     0.00000
 Structure written by MMmdl.
 46 47  0  0  0  0  0  0  0  0  2 V2000
  145.5738  132.3240  151.0035 C   0  0  0  0  0  0  0  0  0  0  0  0
  145.4348  133.6477  151.7684 C   0  0  2  0  0  0  0  0  0  0  0  0
  145.4486  134.8587  150.8201 C   0  0  0  0  0  0  0  0  0  0  0  0
  145.3407  136.1804  151.5993 C   0  0  0  0  0  0  0  0  0  0  0  0
  146.4256  136.2976  152.6093 N   0  3  1  0  0  0  0  0  0  0  0  0
  146.4460  137.6134  153.2988 C   0  0  0  0  0  0  0  0  0  0  0  0
  146.6513  138.7875  152.3198 C   0  0  2  0  0  0  0  0  0  0  0  0
  147.7058  138.4185  151.4527 O   0  0  0  0  0  0  0  0  0  0  0  0
  147.0562  140.0786  153.0607 C   0  0  0  0  0  0  0  0  0  0  0  0
  148.4459  140.0420  153.5051 N   0  0  0  0  0  0  0  0  0  0  0  0
  148.8648  140.3234  154.7468 C   0  0  0  0  0  0  0  0  0  0  0  0
  148.1039  140.6255  155.6654 O   0  0  0  0  0  0  0  0  0  0  0  0
  150.1995  140.2058  154.8491 N   0  0  0  0  0  0  0  0  0  0  0  0
  151.0230  140.4534  155.9806 C   0  0  0  0  0  0  0  0  0  0  0  0
  150.6079  141.4400  156.8985 C   0  0  0  0  0  0  0  0  0  0  0  0
  151.3937  141.6903  158.0396 C   0  0  0  0  0  0  0  0  0  0  0  0
  152.5661  140.9324  158.2243 C   0  0  0  0  0  0  0  0  0  0  0  0
  152.9709  139.9743  157.3642 N   0  0  0  0  0  0  0  0  0  0  0  0
  152.2136  139.7412  156.2704 C   0  0  0  0  0  0  0  0  0  0  0  0
  146.4096  135.1580  153.5615 C   0  0  0  0  0  0  0  0  0  0  0  0
  146.5427  133.8164  152.8216 C   0  0  0  0  0  0  0  0  0  0  0  0
  146.5195  132.2740  150.4630 H   0  0  0  0  0  0  0  0  0  0  0  0
  144.7689  132.2041  150.2778 H   0  0  0  0  0  0  0  0  0  0  0  0
  145.5339  131.4722  151.6830 H   0  0  0  0  0  0  0  0  0  0  0  0
  144.4741  133.6318  152.2856 H   0  0  0  0  0  0  0  0  0  0  0  0
  146.3665  134.8580  150.2302 H   0  0  0  0  0  0  0  0  0  0  0  0
  144.6249  134.7847  150.1089 H   0  0  0  0  0  0  0  0  0  0  0  0
  145.3862  137.0109  150.8957 H   0  0  0  0  0  0  0  0  0  0  0  0
  144.3712  136.2422  152.0963 H   0  0  0  0  0  0  0  0  0  0  0  0
  145.5198  137.7364  153.8622 H   0  0  0  0  0  0  0  0  0  0  0  0
  147.2507  137.6355  154.0360 H   0  0  0  0  0  0  0  0  0  0  0  0
  145.7463  138.9653  151.7387 H   0  0  0  0  0  0  0  0  0  0  0  0
  148.3477  137.9321  151.9499 H   0  0  0  0  0  0  0  0  0  0  0  0
  146.9860  140.9256  152.3778 H   0  0  0  0  0  0  0  0  0  0  0  0
  146.3765  140.3017  153.8856 H   0  0  0  0  0  0  0  0  0  0  0  0
  149.1398  139.7994  152.8130 H   0  0  0  0  0  0  0  0  0  0  0  0
  150.6804  139.8601  154.0317 H   0  0  0  0  0  0  0  0  0  0  0  0
  149.7014  142.0031  156.7314 H   0  0  0  0  0  0  0  0  0  0  0  0
  151.1040  142.4438  158.7569 H   0  0  0  0  0  0  0  0  0  0  0  0
  153.1917  141.0957  159.0893 H   0  0  0  0  0  0  0  0  0  0  0  0
  152.5736  138.9464  155.6360 H   0  0  0  0  0  0  0  0  0  0  0  0
  147.2343  135.2568  154.2685 H   0  0  0  0  0  0  0  0  0  0  0  0
  145.4869  135.1803  154.1433 H   0  0  0  0  0  0  0  0  0  0  0  0
  146.5040  132.9966  153.5397 H   0  0  0  0  0  0  0  0  0  0  0  0
  147.5217  133.7609  152.3427 H   0  0  0  0  0  0  0  0  0  0  0  0
  147.3029  136.2314  152.1122 H   0  0  0  0  0  0  0  0  0  0  0  0
  1  2  1  0  0  0  0
  1 22  1  0  0  0  0
  1 23  1  0  0  0  0
  1 24  1  0  0  0  0
  2 21  1  0  0  0  0
  2  3  1  0  0  0  0
  2 25  1  0  0  0  0
  3  4  1  0  0  0  0
  3 26  1  0  0  0  0
  3 27  1  0  0  0  0
  4  5  1  0  0  0  0
  4 28  1  0  0  0  0
  4 29  1  0  0  0  0
  5  6  1  0  0  0  0
  5 20  1  0  0  0  0
  5 46  1  0  0  0  0
  6  7  1  0  0  0  0
  6 30  1  0  0  0  0
  6 31  1  0  0  0  0
  7  8  1  0  0  0  0
  7  9  1  0  0  0  0
  7 32  1  0  0  0  0
  8 33  1  0  0  0  0
  9 10  1  0  0  0  0
  9 34  1  0  0  0  0
  9 35  1  0  0  0  0
 10 11  1  0  0  0  0
 10 36  1  0  0  0  0
 11 12  2  0  0  0  0
 11 13  1  0  0  0  0
 13 14  1  0  0  0  0
 13 37  1  0  0  0  0
 14 19  1  0  0  0  0
 14 15  2  0  0  0  0
 15 16  1  0  0  0  0
 15 38  1  0  0  0  0
 16 17  2  0  0  0  0
 16 39  1  0  0  0  0
 17 18  1  0  0  0  0
 17 40  1  0  0  0  0
 18 19  2  0  0  0  0
 19 41  1  0  0  0  0
 20 21  1  0  0  0  0
 20 42  1  0  0  0  0
 20 43  1  0  0  0  0
 21 44  1  0  0  0  0
 21 45  1  0  0  0  0
M  CHG  1   5   1
M  END
> <s_m_source_file>
AV-unprocessed.smi

> <i_m_source_file_index>
1048

> <i_lp_mmshare_version>
43012

> <i_f3d_flags>
0

> <s_epik_input>
W0NIM11bQ0hdMVtDSDJdW0NIMl1OKFtDSDJdW0NIMl0xKVtDSDJdW0NASF0oW09IXSlbQ0gyXVtOSF1DKD1PKVtOSF1jMltjSF1bY0hdW2NIXW5bY0hdMg==

> <s_epik_cmdline>
J2VwaWtfcHl0aG9uJywgJy1waCcsICc3LjAnLCAnLXRuJywgJzgnLCAnLW1hJywgJzIwMCcsICctbWV0YWxfYmluZGluZycsICctaW1hZScsICc8aW5maWxlLm1hZT4nLCAnLW9tYWUnLCAnPG91dGZpbGUubWFlPic=

> <r_lp_tautomer_probability>
1

> <r_epik_Ionization_Penalty>
0.00581049

> <r_epik_Ionization_Penalty_Charging>
0.00147689

> <r_epik_Ionization_Penalty_Neutral>
0.0043336

> <r_epik_State_Penalty>
-0

> <r_epik_Charging_Adjusted_Penalty>
0.00147689

> <i_epik_Tot_Q>
1

> <i_epik_Tot_abs_Q>
1

> <r_epik_Metal_State_Penalty>
-0

> <b_epik_Metal_Only>
0

> <s_lp_Force_Field>
OPLS_2005

> <r_lp_Energy>
22.5683

> <b_lp_Chiralities_Consistent>
1

> <s_lp_Variant>
AV-unprocessed.smi:1048-1

> <Gold.Version>
5.8.1

> <Gold.Id.Protein>
6NUR|6NUR_protein|mol2

> <Gold.PLP.Fitness>
51.8387

> <Gold.PLP.PLP>
-36.4471

> <Gold.PLP.part.hbond>
-5.7214

> <Gold.PLP.part.metal>
0.0000

> <Gold.PLP.part.buried>
-2.4348

> <Gold.PLP.part.nonpolar>
-28.0285

> <Gold.PLP.part.repulsive>
0.4061

> <Gold.PLP.ligand.clash>
0.0000

> <Gold.PLP.ligand.torsion>
0.5064

> <Gold.PLP.Chemscore.Hbond>
5.4300

> <Gold.PLP.Chemscore.CHOScore>
0.0000

> <Gold.PLP.Chemscore.Metal>
0.0000

> <Gold.Chemscore.Hbonds>
donor molecule, donor type, donor heavy atom, donor atom, acceptor molecule, acceptor atom, score
      L1  H     5    46       P1  7948  2.00
      L1  H     8    33       P1  7948  0.66
      L1  H    10    36       P1  7957  0.88
      P1  H  7954  7966       L1     8  0.85
      P1  H  7997  8009       L1    18  0.86

> <Gold.PLP.Chemscore.Internal.Correction>
0.1144

> <Gold.Rescore>
     Score         DG    S(hbond)    S(metal)    S(lipo)     H(rot)  DE(clash)    DE(int)     intcor
     18.47     -20.28       3.36        0.00      80.64       2.29       0.09       1.72       ----

> <Gold.Chemscore.Fitness>
18.4697

> <Gold.Chemscore.DG>
-20.2807

> <Gold.Chemscore.ZeroCoef>
-5.4800

> <Gold.Chemscore.Hbond>
3.3591

> <Gold.Chemscore.Metal>
0.0000

> <Gold.Chemscore.Lipo>
80.6391

> <Gold.Chemscore.Internal_Hbond>
0.0000

> <Gold.Chemscore.DEClash>
0.0940

> <Gold.Chemscore.DEInternal>
1.7170

> <Gold.Chemscore.Rot>
2.2865

> <Gold.Chemscore.Internal.Correction>
   9.000000E+99

> <Gold.Chemscore.Hbonds>
donor molecule, donor type, donor heavy atom, donor atom, acceptor molecule, acceptor atom, score
      L1  H     5    46       P1  7948  0.99
      L1  H     8    33       P1  7948  0.66
      L1  H    10    36       P1  7957  0.87
      P1  H  7954  7966       L1     8  0.14
      P1  H  7997  8009       L1    18  0.59

> <Gold.Chemscore.Hbond.Weighted>
-11.2194

> <Gold.Chemscore.Metal.Weighted>
-0.0000

> <Gold.Chemscore.Lipo.Weighted>
-9.4348

> <Gold.Chemscore.Internal_Hbond.Weighted>
0.0000

> <Gold.Chemscore.DEClash.Weighted>
0.0940

> <Gold.Chemscore.DEInternal.Weighted>
1.7170

> <Gold.Chemscore.Rot.Weighted>
5.8536

> <Gold.Chemscore.Internal.Correction.Weighted>
   9.000000E+99

> <Gold.Protein.RotatedTorsions>
[ 6907 6896 6895 6894 ] final  -32.60 input  -60.11 | X-H torsion
[ 7974 7965 7964 7962 ] final  -47.16 input  175.53 | X-H torsion
[ 8008 7997 7996 7995 ] final  153.91 input   59.86 | X-H torsion
[ 10167 10162 10161 10158 ] final  162.13 input  -65.29 | X-H torsion
[ 10718 10713 10712 10709 ] final   15.36 input   66.30 | X-H torsion
[ 10763 10752 10751 10750 ] final   48.87 input  -60.55 | X-H torsion
[ 11005 11000 10999 10996 ] final   97.16 input  -57.11 | X-H torsion

> <Gold.Protein.ActiveResidues>
 VAL166  LYS551  ARG553  GLY616  TRP617  ASP618  TYR619  PRO620  LYS621  CYS622 
 ASP623  PHE694  ASN695  SER759  ASP760  ASP761  ALA762  ILE779  LEU786  VAL792 
 PHE793  MET794  SER795  GLU796  ALA797  LYS798  CYS799  TRP800  GLU811  SER814 

> <Gold.Protein.RotatedAtoms>
  151.0766  134.9832  159.8334 H   0  0  0  0  0  0  0  0  0  0  0  0  # atno 6907 bound_to 6896
  152.5415  134.2234  159.8806 H   0  0  0  0  0  0  0  0  0  0  0  0  # atno 6908 bound_to 6896
  151.2261  133.4432  159.2636 H   0  0  0  0  0  0  0  0  0  0  0  0  # atno 6909 bound_to 6896
  145.9645  140.7446  142.9441 H   0  0  0  0  0  0  0  0  0  0  0  0  # atno 7974 bound_to 7965
  156.2558  140.1981  156.6563 H   0  0  0  0  0  0  0  0  0  0  0  0  # atno 8008 bound_to 7997
  154.6498  140.0573  156.9967 H   0  0  0  0  0  0  0  0  0  0  0  0  # atno 8009 bound_to 7997
  155.1435  140.3245  155.4449 H   0  0  0  0  0  0  0  0  0  0  0  0  # atno 8010 bound_to 7997
  139.4857  144.4468  151.8882 H   0  0  0  0  0  0  0  0  0  0  0  0  # atno 10167 bound_to 10162
  157.0524  130.6275  149.5770 H   0  0  0  0  0  0  0  0  0  0  0  0  # atno 10718 bound_to 10713
  152.9789  135.5930  154.3996 H   0  0  0  0  0  0  0  0  0  0  0  0  # atno 10763 bound_to 10752
  154.3643  135.2767  155.2304 H   0  0  0  0  0  0  0  0  0  0  0  0  # atno 10764 bound_to 10752
  154.4288  135.6041  153.6110 H   0  0  0  0  0  0  0  0  0  0  0  0  # atno 10765 bound_to 10752
  139.8777  134.8987  156.4266 H   0  0  0  0  0  0  0  0  0  0  0  0  # atno 11005 bound_to 11000
  144.6822  140.2645  143.7314 LP  0  0  0  0  0  0  0  0  0  0  0  0  # atno 17320 bound_to 7965
  145.7994  139.1958  143.2057 LP  0  0  0  0  0  0  0  0  0  0  0  0  # atno 17321 bound_to 7965
  140.3922  144.2601  150.5899 LP  0  0  0  0  0  0  0  0  0  0  0  0  # atno 17342 bound_to 10162
  140.5135  143.2284  151.8499 LP  0  0  0  0  0  0  0  0  0  0  0  0  # atno 17343 bound_to 10162
  156.0003  130.5081  150.7639 LP  0  0  0  0  0  0  0  0  0  0  0  0  # atno 17370 bound_to 10713
  157.5019  131.0919  151.0304 LP  0  0  0  0  0  0  0  0  0  0  0  0  # atno 17371 bound_to 10713
  140.9096  133.7721  155.9776 LP  0  0  0  0  0  0  0  0  0  0  0  0  # atno 17394 bound_to 11000
  140.8561  134.2896  157.5255 LP  0  0  0  0  0  0  0  0  0  0  0  0  # atno 17395 bound_to 11000

$$$$
