AV-unprocessed.smi:2446|AV-procd|sdf|9645|dock3
  -GOLD-   2272013283D 1   1.00000     0.00000
 Structure written by MMmdl.
 40 41  0  0  0  0  0  0  0  0  2 V2000
  152.9811  140.5614  159.8754 C   0  0  0  0  0  0  0  0  0  0  0  0
  152.4868  141.8322  159.2056 C   0  0  0  0  0  0  0  0  0  0  0  0
  152.7330  143.0805  159.8174 C   0  0  0  0  0  0  0  0  0  0  0  0
  152.3038  144.2186  159.2327 N   0  3  0  0  0  0  0  0  0  0  0  0
  151.6384  144.2296  158.0591 C   0  0  0  0  0  0  0  0  0  0  0  0
  151.3605  143.0173  157.3970 C   0  0  0  0  0  0  0  0  0  0  0  0
  151.7757  141.7918  157.9787 C   0  0  0  0  0  0  0  0  0  0  0  0
  151.5493  140.5255  157.3697 N   0  0  0  0  0  0  0  0  0  0  0  0
  151.1691  140.2452  156.1077 C   0  0  0  0  0  0  0  0  0  0  0  0
  150.9854  141.0842  155.2288 O   0  0  0  0  0  0  0  0  0  0  0  0
  150.9853  138.9342  155.8659 N   0  0  0  0  0  0  0  0  0  0  0  0
  150.5760  138.2798  154.6181 C   0  0  2  0  0  0  0  0  0  0  0  0
  149.1487  138.7156  154.2357 C   0  0  0  0  0  0  0  0  0  0  0  0
  148.0876  138.1213  155.1773 C   0  0  0  0  0  0  0  0  0  0  0  0
  148.1979  136.5904  155.2516 C   0  0  0  0  0  0  0  0  0  0  0  0
  149.6107  136.1411  155.6788 C   0  0  1  0  0  0  0  0  0  0  0  0
  149.7264  134.6059  155.7753 C   0  0  0  0  0  0  0  0  0  0  0  0
  150.9053  134.2498  156.2864 F   0  0  0  0  0  0  0  0  0  0  0  0
  148.7562  134.1244  156.5528 F   0  0  0  0  0  0  0  0  0  0  0  0
  149.5982  134.0609  154.5656 F   0  0  0  0  0  0  0  0  0  0  0  0
  150.6683  136.7406  154.7243 C   0  0  0  0  0  0  0  0  0  0  0  0
  153.5415  140.7847  160.7838 H   0  0  0  0  0  0  0  0  0  0  0  0
  153.6363  140.0046  159.2045 H   0  0  0  0  0  0  0  0  0  0  0  0
  152.1403  139.9228  160.1469 H   0  0  0  0  0  0  0  0  0  0  0  0
  153.2598  143.2042  160.7526 H   0  0  0  0  0  0  0  0  0  0  0  0
  151.3544  145.2019  157.6835 H   0  0  0  0  0  0  0  0  0  0  0  0
  150.8454  143.0550  156.4497 H   0  0  0  0  0  0  0  0  0  0  0  0
  151.5973  139.7340  157.9945 H   0  0  0  0  0  0  0  0  0  0  0  0
  151.1664  138.3112  156.6400 H   0  0  0  0  0  0  0  0  0  0  0  0
  151.2384  138.6160  153.8187 H   0  0  0  0  0  0  0  0  0  0  0  0
  149.0741  139.8038  154.2273 H   0  0  0  0  0  0  0  0  0  0  0  0
  148.9380  138.3913  153.2157 H   0  0  0  0  0  0  0  0  0  0  0  0
  148.1993  138.5448  156.1761 H   0  0  0  0  0  0  0  0  0  0  0  0
  147.0916  138.4040  154.8351 H   0  0  0  0  0  0  0  0  0  0  0  0
  147.4552  136.2101  155.9535 H   0  0  0  0  0  0  0  0  0  0  0  0
  147.9504  136.1611  154.2799 H   0  0  0  0  0  0  0  0  0  0  0  0
  149.7962  136.5393  156.6775 H   0  0  0  0  0  0  0  0  0  0  0  0
  150.5350  136.3126  153.7300 H   0  0  0  0  0  0  0  0  0  0  0  0
  151.6680  136.4449  155.0420 H   0  0  0  0  0  0  0  0  0  0  0  0
  152.4952  145.1081  159.6944 H   0  0  0  0  0  0  0  0  0  0  0  0
  1  2  1  0  0  0  0
  1 22  1  0  0  0  0
  1 23  1  0  0  0  0
  1 24  1  0  0  0  0
  2  7  1  0  0  0  0
  2  3  2  0  0  0  0
  3  4  1  0  0  0  0
  3 25  1  0  0  0  0
  4  5  2  0  0  0  0
  4 40  1  0  0  0  0
  5  6  1  0  0  0  0
  5 26  1  0  0  0  0
  6  7  2  0  0  0  0
  6 27  1  0  0  0  0
  7  8  1  0  0  0  0
  8  9  1  0  0  0  0
  8 28  1  0  0  0  0
  9 10  2  0  0  0  0
  9 11  1  0  0  0  0
 11 12  1  0  0  0  0
 11 29  1  0  0  0  0
 12 21  1  0  0  0  0
 12 13  1  0  0  0  0
 12 30  1  0  0  0  0
 13 14  1  0  0  0  0
 13 31  1  0  0  0  0
 13 32  1  0  0  0  0
 14 15  1  0  0  0  0
 14 33  1  0  0  0  0
 14 34  1  0  0  0  0
 15 16  1  0  0  0  0
 15 35  1  0  0  0  0
 15 36  1  0  0  0  0
 16 17  1  0  0  0  0
 16 21  1  0  0  0  0
 16 37  1  0  0  0  0
 17 18  1  0  0  0  0
 17 19  1  0  0  0  0
 17 20  1  0  0  0  0
 21 38  1  0  0  0  0
 21 39  1  0  0  0  0
M  CHG  1   4   1
M  END
> <s_m_source_file>
AV-unprocessed.smi

> <i_m_source_file_index>
2446

> <i_lp_mmshare_version>
43012

> <i_f3d_flags>
0

> <s_epik_input>
W0NIM11jMVtjSF1uW2NIXVtjSF1jMVtOSF1DKD1PKVtOSF1bQ0BASF0yW0NIMl1bQ0gyXVtDSDJdW0NAQEhdKEMoRikoRilGKVtDSDJdMg==

> <s_epik_cmdline>
J2VwaWtfcHl0aG9uJywgJy1waCcsICc3LjAnLCAnLXRuJywgJzgnLCAnLW1hJywgJzIwMCcsICctbWV0YWxfYmluZGluZycsICctaW1hZScsICc8aW5maWxlLm1hZT4nLCAnLW9tYWUnLCAnPG91dGZpbGUubWFlPic=

> <r_epik_Ionization_Penalty>
0.736582

> <r_epik_Ionization_Penalty_Charging>
0.736562

> <r_epik_Ionization_Penalty_Neutral>
1.98379e-05

> <r_epik_State_Penalty>
0.762314

> <r_epik_Charging_Adjusted_Penalty>
1.49888

> <i_epik_Tot_Q>
1

> <i_epik_Tot_abs_Q>
1

> <r_epik_Metal_State_Penalty>
0.914579

> <b_epik_Metal_Only>
0

> <s_lp_Force_Field>
OPLS_2005

> <r_lp_Energy>
31.0639

> <b_lp_Chiralities_Consistent>
1

> <s_lp_Variant>
AV-unprocessed.smi:2446-5

> <Gold.Version>
5.8.1

> <Gold.Id.Protein>
6NUR|6NUR_protein|mol2

> <Gold.PLP.Fitness>
37.4392

> <Gold.PLP.PLP>
-35.7028

> <Gold.PLP.part.hbond>
-1.0000

> <Gold.PLP.part.metal>
0.0000

> <Gold.PLP.part.buried>
-4.8962

> <Gold.PLP.part.nonpolar>
-30.6993

> <Gold.PLP.part.repulsive>
0.2493

> <Gold.PLP.ligand.clash>
0.0000

> <Gold.PLP.ligand.torsion>
0.1267

> <Gold.PLP.Chemscore.Hbond>
0.6560

> <Gold.PLP.Chemscore.CHOScore>
0.0000

> <Gold.PLP.Chemscore.Metal>
0.0000

> <Gold.Chemscore.Hbonds>
donor molecule, donor type, donor heavy atom, donor atom, acceptor molecule, acceptor atom, score
      P1  H  7989  7998       L1    10  0.64

> <Gold.PLP.Chemscore.Internal.Correction>
0.0217

> <Gold.Rescore>
     Score         DG    S(hbond)    S(metal)    S(lipo)     H(rot)  DE(clash)    DE(int)     intcor
     14.78     -16.20       0.79        0.00      90.83       1.00       0.12       1.30       ----

> <Gold.Chemscore.Fitness>
14.7814

> <Gold.Chemscore.DG>
-16.2020

> <Gold.Chemscore.ZeroCoef>
-5.4800

> <Gold.Chemscore.Hbond>
0.7949

> <Gold.Chemscore.Metal>
0.0000

> <Gold.Chemscore.Lipo>
90.8301

> <Gold.Chemscore.Internal_Hbond>
0.0000

> <Gold.Chemscore.DEClash>
0.1172

> <Gold.Chemscore.DEInternal>
1.3034

> <Gold.Chemscore.Rot>
1.0000

> <Gold.Chemscore.Internal.Correction>
   9.000000E+99

> <Gold.Chemscore.Hbonds>
donor molecule, donor type, donor heavy atom, donor atom, acceptor molecule, acceptor atom, score
      P1  H  7989  7998       L1    10  0.64

> <Gold.Chemscore.Hbond.Weighted>
-2.6549

> <Gold.Chemscore.Metal.Weighted>
-0.0000

> <Gold.Chemscore.Lipo.Weighted>
-10.6271

> <Gold.Chemscore.Internal_Hbond.Weighted>
0.0000

> <Gold.Chemscore.DEClash.Weighted>
0.1172

> <Gold.Chemscore.DEInternal.Weighted>
1.3034

> <Gold.Chemscore.Rot.Weighted>
2.5600

> <Gold.Chemscore.Internal.Correction.Weighted>
   9.000000E+99

> <Gold.Protein.RotatedTorsions>
[ 6907 6896 6895 6894 ] final  -40.36 input  -60.11 | X-H torsion
[ 7974 7965 7964 7962 ] final -153.87 input  175.53 | X-H torsion
[ 8008 7997 7996 7995 ] final -137.39 input   59.86 | X-H torsion
[ 10167 10162 10161 10158 ] final  -77.38 input  -65.29 | X-H torsion
[ 10718 10713 10712 10709 ] final -120.01 input   66.30 | X-H torsion
[ 10763 10752 10751 10750 ] final   58.98 input  -60.55 | X-H torsion
[ 11005 11000 10999 10996 ] final -136.72 input  -57.11 | X-H torsion

> <Gold.Protein.ActiveResidues>
 VAL166  LYS551  ARG553  GLY616  TRP617  ASP618  TYR619  PRO620  LYS621  CYS622 
 ASP623  PHE694  ASN695  SER759  ASP760  ASP761  ALA762  ILE779  LEU786  VAL792 
 PHE793  MET794  SER795  GLU796  ALA797  LYS798  CYS799  TRP800  GLU811  SER814 

> <Gold.Protein.RotatedAtoms>
  150.9794  134.9152  159.7834 H   0  0  0  0  0  0  0  0  0  0  0  0  # atno 6907 bound_to 6896
  152.5217  134.3432  159.9234 H   0  0  0  0  0  0  0  0  0  0  0  0  # atno 6908 bound_to 6896
  151.3439  133.3910  159.2708 H   0  0  0  0  0  0  0  0  0  0  0  0  # atno 6909 bound_to 6896
  144.7718  140.4466  143.5901 H   0  0  0  0  0  0  0  0  0  0  0  0  # atno 7974 bound_to 7965
  155.4111  140.0512  157.3031 H   0  0  0  0  0  0  0  0  0  0  0  0  # atno 8008 bound_to 7997
  154.4946  140.2133  155.9435 H   0  0  0  0  0  0  0  0  0  0  0  0  # atno 8009 bound_to 7997
  156.1388  140.3158  155.8468 H   0  0  0  0  0  0  0  0  0  0  0  0  # atno 8010 bound_to 7997
  140.4775  143.2410  151.8109 H   0  0  0  0  0  0  0  0  0  0  0  0  # atno 10167 bound_to 10162
  156.1225  130.6334  150.9487 H   0  0  0  0  0  0  0  0  0  0  0  0  # atno 10718 bound_to 10713
  152.9883  135.5588  154.5639 H   0  0  0  0  0  0  0  0  0  0  0  0  # atno 10763 bound_to 10752
  154.5053  135.2799  155.1389 H   0  0  0  0  0  0  0  0  0  0  0  0  # atno 10764 bound_to 10752
  154.2803  135.6346  153.5397 H   0  0  0  0  0  0  0  0  0  0  0  0  # atno 10765 bound_to 10752
  140.8778  134.1969  157.4610 H   0  0  0  0  0  0  0  0  0  0  0  0  # atno 11005 bound_to 11000
  145.6301  139.1535  143.2974 LP  0  0  0  0  0  0  0  0  0  0  0  0  # atno 17320 bound_to 7965
  146.1870  140.6405  142.9163 LP  0  0  0  0  0  0  0  0  0  0  0  0  # atno 17321 bound_to 7965
  139.4828  144.4814  151.9302 LP  0  0  0  0  0  0  0  0  0  0  0  0  # atno 17342 bound_to 10162
  140.3899  144.2628  150.5900 LP  0  0  0  0  0  0  0  0  0  0  0  0  # atno 17343 bound_to 10162
  157.6408  131.0910  150.8255 LP  0  0  0  0  0  0  0  0  0  0  0  0  # atno 17370 bound_to 10713
  156.8350  130.5028  149.5327 LP  0  0  0  0  0  0  0  0  0  0  0  0  # atno 17371 bound_to 10713
  139.8717  134.9804  156.5073 LP  0  0  0  0  0  0  0  0  0  0  0  0  # atno 17394 bound_to 11000
  140.8497  133.8141  155.9156 LP  0  0  0  0  0  0  0  0  0  0  0  0  # atno 17395 bound_to 11000

$$$$
