AV-unprocessed.smi:707|AV-procd|sdf|3454|dock1
  -GOLD-   22720 0443D 1   1.00000     0.00000
 Structure written by MMmdl.
 44 45  0  0  0  0  0  0  0  0  1 V2000
  152.7996  138.3366  156.8188 C   0  0  0  0  0  0  0  0  0  0  0  0
  151.8969  138.9399  155.7921 C   0  0  0  0  0  0  0  0  0  0  0  0
  151.6912  140.2559  155.6640 N   0  0  0  0  0  0  0  0  0  0  0  0
  150.8045  140.3923  154.6138 N   0  0  0  0  0  0  0  0  0  0  0  0
  150.5637  139.1441  154.2139 C   0  0  0  0  0  0  0  0  0  0  0  0
  151.2104  138.1925  154.9040 N   0  0  0  0  0  0  0  0  0  0  0  0
  151.1681  136.7539  154.7183 C   0  0  0  0  0  0  0  0  0  0  0  0
  149.8289  136.1658  155.1828 C   0  0  0  0  0  0  0  0  0  0  0  0
  149.4166  135.0773  154.3087 N   0  0  0  0  0  0  0  0  0  0  0  0
  149.3824  133.7868  154.6710 C   0  0  0  0  0  0  0  0  0  0  0  0
  149.6958  133.3911  155.7933 O   0  0  0  0  0  0  0  0  0  0  0  0
  148.9074  132.7914  153.6143 C   0  0  0  0  0  0  0  0  0  0  0  0
  147.4881  132.7209  153.6511 O   0  0  0  0  0  0  0  0  0  0  0  0
  146.8646  132.7291  152.3729 C   0  0  1  0  0  0  0  0  0  0  0  0
  145.8058  131.6134  152.3721 C   0  0  0  0  0  0  0  0  0  0  0  0
  145.0222  131.5873  151.0512 C   0  0  0  0  0  0  0  0  0  0  0  0
  144.3737  132.9506  150.7643 C   0  0  0  0  0  0  0  0  0  0  0  0
  145.4178  134.0838  150.7617 C   0  0  1  0  0  0  0  0  0  0  0  0
  144.7659  135.4460  150.4839 C   0  0  0  0  0  0  0  0  0  0  0  0
  146.2077  134.0962  152.0855 C   0  0  0  0  0  0  0  0  0  0  0  0
  153.3350  139.1164  157.3611 H   0  0  0  0  0  0  0  0  0  0  0  0
  153.5318  137.6838  156.3438 H   0  0  0  0  0  0  0  0  0  0  0  0
  152.2184  137.7541  157.5336 H   0  0  0  0  0  0  0  0  0  0  0  0
  149.8978  138.9182  153.3941 H   0  0  0  0  0  0  0  0  0  0  0  0
  151.3445  136.5291  153.6659 H   0  0  0  0  0  0  0  0  0  0  0  0
  151.9921  136.3092  155.2780 H   0  0  0  0  0  0  0  0  0  0  0  0
  149.9150  135.7913  156.2040 H   0  0  0  0  0  0  0  0  0  0  0  0
  149.0604  136.9405  155.1877 H   0  0  0  0  0  0  0  0  0  0  0  0
  149.1445  135.3158  153.3661 H   0  0  0  0  0  0  0  0  0  0  0  0
  149.2614  133.1106  152.6339 H   0  0  0  0  0  0  0  0  0  0  0  0
  149.3447  131.8146  153.8262 H   0  0  0  0  0  0  0  0  0  0  0  0
  147.6019  132.5025  151.6003 H   0  0  0  0  0  0  0  0  0  0  0  0
  146.2831  130.6471  152.5378 H   0  0  0  0  0  0  0  0  0  0  0  0
  145.1134  131.7624  153.2021 H   0  0  0  0  0  0  0  0  0  0  0  0
  145.6925  131.3207  150.2332 H   0  0  0  0  0  0  0  0  0  0  0  0
  144.2561  130.8125  151.0885 H   0  0  0  0  0  0  0  0  0  0  0  0
  143.8589  132.9145  149.8036 H   0  0  0  0  0  0  0  0  0  0  0  0
  143.6099  133.1537  151.5163 H   0  0  0  0  0  0  0  0  0  0  0  0
  146.1238  133.8874  149.9533 H   0  0  0  0  0  0  0  0  0  0  0  0
  144.0411  135.7041  151.2566 H   0  0  0  0  0  0  0  0  0  0  0  0
  144.2452  135.4444  149.5260 H   0  0  0  0  0  0  0  0  0  0  0  0
  145.5134  136.2393  150.4503 H   0  0  0  0  0  0  0  0  0  0  0  0
  145.5411  134.3586  152.9083 H   0  0  0  0  0  0  0  0  0  0  0  0
  146.9649  134.8787  152.0422 H   0  0  0  0  0  0  0  0  0  0  0  0
  1  2  1  0  0  0  0
  1 21  1  0  0  0  0
  1 22  1  0  0  0  0
  1 23  1  0  0  0  0
  2  6  1  0  0  0  0
  2  3  2  0  0  0  0
  3  4  1  0  0  0  0
  4  5  2  0  0  0  0
  5  6  1  0  0  0  0
  5 24  1  0  0  0  0
  6  7  1  0  0  0  0
  7  8  1  0  0  0  0
  7 25  1  0  0  0  0
  7 26  1  0  0  0  0
  8  9  1  0  0  0  0
  8 27  1  0  0  0  0
  8 28  1  0  0  0  0
  9 10  1  0  0  0  0
  9 29  1  0  0  0  0
 10 11  2  0  0  0  0
 10 12  1  0  0  0  0
 12 13  1  0  0  0  0
 12 30  1  0  0  0  0
 12 31  1  0  0  0  0
 13 14  1  0  0  0  0
 14 20  1  0  0  0  0
 14 15  1  0  0  0  0
 14 32  1  0  0  0  0
 15 16  1  0  0  0  0
 15 33  1  0  0  0  0
 15 34  1  0  0  0  0
 16 17  1  0  0  0  0
 16 35  1  0  0  0  0
 16 36  1  0  0  0  0
 17 18  1  0  0  0  0
 17 37  1  0  0  0  0
 17 38  1  0  0  0  0
 18 19  1  0  0  0  0
 18 20  1  0  0  0  0
 18 39  1  0  0  0  0
 19 40  1  0  0  0  0
 19 41  1  0  0  0  0
 19 42  1  0  0  0  0
 20 43  1  0  0  0  0
 20 44  1  0  0  0  0
M  END
> <s_m_source_file>
AV-unprocessed.smi

> <i_m_source_file_index>
707

> <i_lp_mmshare_version>
43012

> <i_f3d_flags>
0

> <s_epik_input>
W0NIM11jMW5uW2NIXW4xW0NIMl1bQ0gyXVtOSF1DKD1PKVtDSDJdT1tDQEBIXTJbQ0gyXVtDSDJdW0NIMl1bQ0BASF0oW0NIM10pW0NIMl0y

> <s_epik_cmdline>
J2VwaWtfcHl0aG9uJywgJy1waCcsICc3LjAnLCAnLXRuJywgJzgnLCAnLW1hJywgJzIwMCcsICctbWV0YWxfYmluZGluZycsICctaW1hZScsICc8aW5maWxlLm1hZT4nLCAnLW9tYWUnLCAnPG91dGZpbGUubWFlPic=

> <r_lp_tautomer_probability>
1

> <r_epik_Ionization_Penalty>
0.000271783

> <r_epik_Ionization_Penalty_Charging>
0

> <r_epik_Ionization_Penalty_Neutral>
0.000271783

> <r_epik_State_Penalty>
-0

> <r_epik_Charging_Adjusted_Penalty>
0

> <i_epik_Tot_Q>
0

> <i_epik_Tot_abs_Q>
0

> <r_epik_Metal_State_Penalty>
-0

> <b_epik_Metal_Only>
0

> <s_lp_Force_Field>
OPLS_2005

> <r_lp_Energy>
13.3019

> <b_lp_Chiralities_Consistent>
1

> <s_lp_Variant>
AV-unprocessed.smi:707-2

> <Gold.Version>
5.8.1

> <Gold.Id.Protein>
6NUR|6NUR_protein|mol2

> <Gold.PLP.Fitness>
42.9814

> <Gold.PLP.PLP>
-37.5525

> <Gold.PLP.part.hbond>
-2.6182

> <Gold.PLP.part.metal>
0.0000

> <Gold.PLP.part.buried>
-4.2741

> <Gold.PLP.part.nonpolar>
-30.9567

> <Gold.PLP.part.repulsive>
0.2152

> <Gold.PLP.ligand.clash>
0.0000

> <Gold.PLP.ligand.torsion>
1.7463

> <Gold.PLP.Chemscore.Hbond>
1.9500

> <Gold.PLP.Chemscore.CHOScore>
0.9691

> <Gold.PLP.Chemscore.Metal>
0.0000

> <Gold.Chemscore.Hbonds>
donor molecule, donor type, donor heavy atom, donor atom, acceptor molecule, acceptor atom, score
      L1  H     9    29       P1  7948  1.00
      P1  H  7989  7998       L1     4  0.84
      L1  C     5    24       P1  7957  1.00

> <Gold.PLP.Chemscore.Internal.Correction>
0.1644

> <Gold.Rescore>
     Score         DG    S(hbond)    S(metal)    S(lipo)     H(rot)  DE(clash)    DE(int)     intcor
      8.60     -10.18       0.77        0.00      71.11       2.42       0.02       1.56       ----

> <Gold.Chemscore.Fitness>
8.6002

> <Gold.Chemscore.DG>
-10.1811

> <Gold.Chemscore.ZeroCoef>
-5.4800

> <Gold.Chemscore.Hbond>
0.7706

> <Gold.Chemscore.Metal>
0.0000

> <Gold.Chemscore.Lipo>
71.1135

> <Gold.Chemscore.Internal_Hbond>
0.0000

> <Gold.Chemscore.DEClash>
0.0185

> <Gold.Chemscore.DEInternal>
1.5624

> <Gold.Chemscore.Rot>
2.4191

> <Gold.Chemscore.Internal.Correction>
   9.000000E+99

> <Gold.Chemscore.Hbonds>
donor molecule, donor type, donor heavy atom, donor atom, acceptor molecule, acceptor atom, score
      L1  H     9    29       P1  7948  0.35
      P1  H  7989  7998       L1     4  0.12

> <Gold.Chemscore.Hbond.Weighted>
-2.5738

> <Gold.Chemscore.Metal.Weighted>
-0.0000

> <Gold.Chemscore.Lipo.Weighted>
-8.3203

> <Gold.Chemscore.Internal_Hbond.Weighted>
0.0000

> <Gold.Chemscore.DEClash.Weighted>
0.0185

> <Gold.Chemscore.DEInternal.Weighted>
1.5624

> <Gold.Chemscore.Rot.Weighted>
6.1929

> <Gold.Chemscore.Internal.Correction.Weighted>
   9.000000E+99

> <Gold.Protein.RotatedTorsions>
[ 6907 6896 6895 6894 ] final  -23.87 input  -60.11 | X-H torsion
[ 7974 7965 7964 7962 ] final  -12.37 input  175.53 | X-H torsion
[ 8008 7997 7996 7995 ] final  135.28 input   59.86 | X-H torsion
[ 10167 10162 10161 10158 ] final   86.91 input  -65.29 | X-H torsion
[ 10718 10713 10712 10709 ] final  -15.13 input   66.30 | X-H torsion
[ 10763 10752 10751 10750 ] final   56.34 input  -60.55 | X-H torsion
[ 11005 11000 10999 10996 ] final -109.02 input  -57.11 | X-H torsion

> <Gold.Protein.ActiveResidues>
 VAL166  LYS551  ARG553  GLY616  TRP617  ASP618  TYR619  PRO620  LYS621  CYS622 
 ASP623  PHE694  ASN695  SER759  ASP760  ASP761  ALA762  ILE779  LEU786  VAL792 
 PHE793  MET794  SER795  GLU796  ALA797  LYS798  CYS799  TRP800  GLU811  SER814 

> <Gold.Protein.RotatedAtoms>
  151.1978  135.0429  159.8859 H   0  0  0  0  0  0  0  0  0  0  0  0  # atno 6907 bound_to 6896
  152.5435  134.0884  159.8276 H   0  0  0  0  0  0  0  0  0  0  0  0  # atno 6908 bound_to 6896
  151.1021  133.5188  159.2641 H   0  0  0  0  0  0  0  0  0  0  0  0  # atno 6909 bound_to 6896
  146.2154  140.3047  142.8378 H   0  0  0  0  0  0  0  0  0  0  0  0  # atno 7974 bound_to 7965
  156.3002  140.2474  156.3555 H   0  0  0  0  0  0  0  0  0  0  0  0  # atno 8008 bound_to 7997
  154.8925  140.0409  157.1866 H   0  0  0  0  0  0  0  0  0  0  0  0  # atno 8009 bound_to 7997
  154.8583  140.2916  155.5559 H   0  0  0  0  0  0  0  0  0  0  0  0  # atno 8010 bound_to 7997
  139.8827  144.6431  150.8825 H   0  0  0  0  0  0  0  0  0  0  0  0  # atno 10167 bound_to 10162
  156.6061  130.4837  149.6220 H   0  0  0  0  0  0  0  0  0  0  0  0  # atno 10718 bound_to 10713
  152.9830  135.5680  154.5212 H   0  0  0  0  0  0  0  0  0  0  0  0  # atno 10763 bound_to 10752
  154.4700  135.2784  155.1652 H   0  0  0  0  0  0  0  0  0  0  0  0  # atno 10764 bound_to 10752
  154.3204  135.6270  153.5558 H   0  0  0  0  0  0  0  0  0  0  0  0  # atno 10765 bound_to 10752
  141.0870  133.9122  157.2163 H   0  0  0  0  0  0  0  0  0  0  0  0  # atno 11005 bound_to 11000
  144.9031  140.7667  143.5854 LP  0  0  0  0  0  0  0  0  0  0  0  0  # atno 17320 bound_to 7965
  145.2974  139.1862  143.4708 LP  0  0  0  0  0  0  0  0  0  0  0  0  # atno 17321 bound_to 7965
  140.7741  143.3573  151.1897 LP  0  0  0  0  0  0  0  0  0  0  0  0  # atno 17342 bound_to 10162
  139.7181  143.9267  152.2975 LP  0  0  0  0  0  0  0  0  0  0  0  0  # atno 17343 bound_to 10162
  156.2428  130.6861  151.1572 LP  0  0  0  0  0  0  0  0  0  0  0  0  # atno 17370 bound_to 10713
  157.7266  131.0645  150.5900 LP  0  0  0  0  0  0  0  0  0  0  0  0  # atno 17371 bound_to 10713
  139.9690  135.0134  156.9462 LP  0  0  0  0  0  0  0  0  0  0  0  0  # atno 17394 bound_to 11000
  140.5340  134.0785  155.7323 LP  0  0  0  0  0  0  0  0  0  0  0  0  # atno 17395 bound_to 11000

$$$$
