#       Name:                AV-unprocessed.smi:3231
#       Creating user name   scv26
#       Creation time:       Fri Mar 27 18:19:05 2020


#       File generated by GOLD software.
#

@<TRIPOS>MOLECULE
AV-unprocessed.smi:3231
    47    48     1
SMALL
NO_CHARGES


@<TRIPOS>ATOM
      1 ****        -1.3039  -0.4071   1.4223 O.3            1 S1                 0.0000
      2 ****        -0.8858   0.2145   0.2220 C.3            1 S1                 0.0000
      3 ****         0.6531   0.2648   0.2258 C.3            1 S1                 0.0000
      4 ****         1.2399  -1.0875   0.1272 N.4            1 S1                 1.0000
      5 ****         2.7148  -1.1084   0.1704 C.3            1 S1                 0.0000
      6 ****         3.2480  -2.5451   0.0709 C.3            1 S1                 0.0000
      7 ****         4.6966  -2.5873   0.1239 N.pl3          1 S1                 0.0000
      8 ****         5.5870  -2.8580  -0.8941 C.2            1 S1                 0.0000
      9 ****         6.8432  -2.7883  -0.3633 C.2            1 S1                 0.0000
     10 ****         6.6155  -2.4680   1.0044 C.2            1 S1                 0.0000
     11 ****         5.3294  -2.3493   1.2930 N.2            1 S1                 0.0000
     12 ****        -1.4980   1.6310   0.1556 C.3            1 S1                 0.0000
     13 ****        -2.9826   1.6327   0.0744 N.4            1 S1                 1.0000
     14 ****        -3.5630   2.9390   0.4699 C.3            1 S1                 0.0000
     15 ****        -5.0997   2.8865   0.4247 C.3            1 S1                 0.0000
     16 ****        -5.5243   2.5084  -0.8783 O.3            1 S1                 0.0000
     17 ****        -5.0519   1.2164  -1.2368 C.3            1 S1                 0.0000
     18 ****        -3.5130   1.2116  -1.2469 C.3            1 S1                 0.0000
     19 ****        -2.2375  -0.5509   1.3868 H              1 S1                 0.0000
     20 ****        -1.2154  -0.3876  -0.6241 H              1 S1                 0.0000
     21 ****         1.0058   0.8522  -0.6231 H              1 S1                 0.0000
     22 ****         1.0162   0.7600   1.1280 H              1 S1                 0.0000
     23 ****         0.8915  -1.6397   0.8984 H              1 S1                 0.0000
     24 ****         3.1094  -0.5063  -0.6493 H              1 S1                 0.0000
     25 ****         3.0492  -0.6468   1.1007 H              1 S1                 0.0000
     26 ****         2.8553  -3.1572   0.8843 H              1 S1                 0.0000
     27 ****         2.9212  -3.0084  -0.8611 H              1 S1                 0.0000
     28 ****         5.2578  -3.0752  -1.8999 H              1 S1                 0.0000
     29 ****         7.7822  -2.9443  -0.8736 H              1 S1                 0.0000
     30 ****         7.3412  -2.3199   1.7905 H              1 S1                 0.0000
     31 ****        -1.1843   2.1842   1.0427 H              1 S1                 0.0000
     32 ****        -1.0966   2.1785  -0.6988 H              1 S1                 0.0000
     33 ****        -3.2376   3.2001   1.4775 H              1 S1                 0.0000
     34 ****        -3.1970   3.7204  -0.1982 H              1 S1                 0.0000
     35 ****        -5.4890   2.1870   1.1663 H              1 S1                 0.0000
     36 ****        -5.5162   3.8656   0.6618 H              1 S1                 0.0000
     37 ****        -5.4402   0.4682  -0.5437 H              1 S1                 0.0000
     38 ****        -5.4349   0.9625  -2.2254 H              1 S1                 0.0000
     39 ****        -3.1458   1.8863  -2.0219 H              1 S1                 0.0000
     40 ****        -3.1634   0.2120  -1.5013 H              1 S1                 0.0000
     41 ****         0.9357  -1.5119  -0.7372 H              1 S1                 0.0000
     42 ****        -3.3131   0.9636   0.7550 H              1 S1                 0.0000
     43 ****        -1.0852   0.1835   2.1991 LP             1 S1                 0.0000
     44 ****        -0.8337  -1.2834   1.5271 LP             1 S1                 0.0000
     45 ****         4.9183  -2.1320   2.1783 LP             1 S1                 0.0000
     46 ****        -5.1756   3.1744  -1.5377 LP             1 S1                 0.0000
     47 ****        -6.5240   2.5057  -0.9043 LP             1 S1                 0.0000
@<TRIPOS>BOND
    1    1    2 1     
    2    1   19 1     
    3    2    3 1     
    4    2   12 1     
    5    2   20 1     
    6    3    4 1     
    7    3   21 1     
    8    3   22 1     
    9    4    5 1     
   10    4   23 1     
   11    4   41 1     
   12    5    6 1     
   13    5   24 1     
   14    5   25 1     
   15    6    7 1     
   16    6   26 1     
   17    6   27 1     
   18    7   11 1     
   19    7    8 1     
   20    8    9 2     
   21    8   28 1     
   22    9   10 1     
   23    9   29 1     
   24   10   11 2     
   25   10   30 1     
   26   12   13 1     
   27   12   31 1     
   28   12   32 1     
   29   13   18 1     
   30   13   14 1     
   31   13   42 1     
   32   14   15 1     
   33   14   33 1     
   34   14   34 1     
   35   15   16 1     
   36   15   35 1     
   37   15   36 1     
   38   16   17 1     
   39   17   18 1     
   40   17   37 1     
   41   17   38 1     
   42   18   39 1     
   43   18   40 1     
   44    1   43 1     
   45    1   44 1     
   46   11   45 1     
   47   16   46 1     
   48   16   47 1     
@<TRIPOS>SUBSTRUCTURE
      1 S1             1
@<TRIPOS>SET
LONE_PAIRS      STATIC     ATOMS    <user>   **** ""
5 43 44 45 46 47
DONOR_HYDROGENS      STATIC     ATOMS    <user>   **** ""
4 19 23 41 42
ATOM$BLUE        STATIC     ATOMS    COLORGROUP SYSTEM
5 43 44 45 46 47
ATOM$RED        STATIC     ATOMS    COLORGROUP SYSTEM
4 19 23 41 42
