AV-unprocessed.smi:2078|AV-procd|sdf|8467|dock3
  -GOLD-   2272011163D 1   1.00000     0.00000
 Structure written by MMmdl.
 41 42  0  0  0  0  0  0  0  0  3 V2000
  149.1728  140.5946  154.5728 C   0  0  0  0  0  0  0  0  0  0  0  0
  149.9848  139.3464  154.6386 C   0  0  0  0  0  0  0  0  0  0  0  0
  149.6527  138.0216  154.6196 C   0  0  0  0  0  0  0  0  0  0  0  0
  150.9118  137.3694  154.7208 C   0  0  0  0  0  0  0  0  0  0  0  0
  151.1150  136.0429  154.7315 N   0  5  0  0  0  0  0  0  0  0  0  0
  150.0759  135.1938  154.5652 C   0  0  0  0  0  0  0  0  0  0  0  0
  148.9253  135.3529  154.9804 O   0  0  0  0  0  0  0  0  0  0  0  0
  150.3894  134.0869  153.8768 N   0  0  0  0  0  0  0  0  0  0  0  0
  149.4741  132.9975  153.5590 C   0  0  0  0  0  0  0  0  0  0  0  0
  148.2010  133.5213  152.8682 C   0  0  0  0  0  0  0  0  0  0  0  0
  147.5458  132.4844  152.0330 N   0  3  1  0  0  0  0  0  0  0  0  0
  147.1476  131.2944  152.8280 C   0  0  0  0  0  0  0  0  0  0  0  0
  146.5955  130.1816  151.9226 C   0  0  0  0  0  0  0  0  0  0  0  0
  145.4201  130.6916  151.0794 C   0  0  0  0  0  0  0  0  0  0  0  0
  145.8369  131.9402  150.2839 C   0  0  1  0  0  0  0  0  0  0  0  0
  144.6699  132.4899  149.4514 C   0  0  0  0  0  0  0  0  0  0  0  0
  146.4074  133.0131  151.2336 C   0  0  0  0  0  0  0  0  0  0  0  0
  151.9202  138.2229  154.7799 N   0  0  0  0  0  0  0  0  0  0  0  0
  151.3338  139.4934  154.7326 O   0  0  0  0  0  0  0  0  0  0  0  0
  148.8779  140.8081  153.5454 H   0  0  0  0  0  0  0  0  0  0  0  0
  149.7359  141.4493  154.9482 H   0  0  0  0  0  0  0  0  0  0  0  0
  148.2674  140.4984  155.1722 H   0  0  0  0  0  0  0  0  0  0  0  0
  148.6668  137.5874  154.5486 H   0  0  0  0  0  0  0  0  0  0  0  0
  151.3417  133.9969  153.5532 H   0  0  0  0  0  0  0  0  0  0  0  0
  149.9942  132.2612  152.9460 H   0  0  0  0  0  0  0  0  0  0  0  0
  149.2116  132.4949  154.4901 H   0  0  0  0  0  0  0  0  0  0  0  0
  147.5106  133.8501  153.6464 H   0  0  0  0  0  0  0  0  0  0  0  0
  148.4137  134.4004  152.2578 H   0  0  0  0  0  0  0  0  0  0  0  0
  148.0090  130.9116  153.3767 H   0  0  0  0  0  0  0  0  0  0  0  0
  146.4012  131.5837  153.5696 H   0  0  0  0  0  0  0  0  0  0  0  0
  147.3866  129.8158  151.2667 H   0  0  0  0  0  0  0  0  0  0  0  0
  146.2782  129.3320  152.5282 H   0  0  0  0  0  0  0  0  0  0  0  0
  145.0805  129.9063  150.4030 H   0  0  0  0  0  0  0  0  0  0  0  0
  144.5776  130.9283  151.7310 H   0  0  0  0  0  0  0  0  0  0  0  0
  146.6273  131.6503  149.5896 H   0  0  0  0  0  0  0  0  0  0  0  0
  143.8404  132.8007  150.0874 H   0  0  0  0  0  0  0  0  0  0  0  0
  144.2935  131.7376  148.7578 H   0  0  0  0  0  0  0  0  0  0  0  0
  144.9794  133.3542  148.8631 H   0  0  0  0  0  0  0  0  0  0  0  0
  145.6280  133.3733  151.9075 H   0  0  0  0  0  0  0  0  0  0  0  0
  146.7307  133.8704  150.6442 H   0  0  0  0  0  0  0  0  0  0  0  0
  148.2448  132.1642  151.3782 H   0  0  0  0  0  0  0  0  0  0  0  0
  1  2  1  0  0  0  0
  1 20  1  0  0  0  0
  1 21  1  0  0  0  0
  1 22  1  0  0  0  0
  2 19  1  0  0  0  0
  2  3  2  0  0  0  0
  3  4  1  0  0  0  0
  3 23  1  0  0  0  0
  4  5  1  0  0  0  0
  4 18  2  0  0  0  0
  5  6  1  0  0  0  0
  6  7  2  0  0  0  0
  6  8  1  0  0  0  0
  8  9  1  0  0  0  0
  8 24  1  0  0  0  0
  9 10  1  0  0  0  0
  9 25  1  0  0  0  0
  9 26  1  0  0  0  0
 10 11  1  0  0  0  0
 10 27  1  0  0  0  0
 10 28  1  0  0  0  0
 11 17  1  0  0  0  0
 11 12  1  0  0  0  0
 11 41  1  0  0  0  0
 12 13  1  0  0  0  0
 12 29  1  0  0  0  0
 12 30  1  0  0  0  0
 13 14  1  0  0  0  0
 13 31  1  0  0  0  0
 13 32  1  0  0  0  0
 14 15  1  0  0  0  0
 14 33  1  0  0  0  0
 14 34  1  0  0  0  0
 15 16  1  0  0  0  0
 15 17  1  0  0  0  0
 15 35  1  0  0  0  0
 16 36  1  0  0  0  0
 16 37  1  0  0  0  0
 16 38  1  0  0  0  0
 17 39  1  0  0  0  0
 17 40  1  0  0  0  0
 18 19  1  0  0  0  0
M  CHG  1   5  -1
M  CHG  1  11   1
M  END
> <s_m_source_file>
AV-unprocessed.smi

> <i_m_source_file_index>
2078

> <i_lp_mmshare_version>
43012

> <i_f3d_flags>
0

> <s_epik_input>
W0NIM11jMVtjSF1jKG5vMSlbTkhdQyg9TylbTkhdW0NIMl1bQ0gyXU4yW0NIMl1bQ0gyXVtDSDJdW0NAQEhdKFtDSDNdKVtDSDJdMg==

> <s_epik_cmdline>
J2VwaWtfcHl0aG9uJywgJy1waCcsICc3LjAnLCAnLXRuJywgJzgnLCAnLW1hJywgJzIwMCcsICctbWV0YWxfYmluZGluZycsICctaW1hZScsICc8aW5maWxlLm1hZT4nLCAnLW9tYWUnLCAnPG91dGZpbGUubWFlPic=

> <r_epik_Ionization_Penalty>
6.22434

> <r_epik_Ionization_Penalty_Charging>
6.22425

> <r_epik_Ionization_Penalty_Neutral>
9.37855e-05

> <r_epik_State_Penalty>
6.22423

> <r_epik_Charging_Adjusted_Penalty>
12.4485

> <i_epik_Tot_Q>
0

> <i_epik_Tot_abs_Q>
2

> <r_epik_Metal_State_Penalty>
2.16764

> <b_epik_Metal_Only>
1

> <s_lp_Force_Field>
OPLS_2005

> <r_lp_Energy>
3.15807

> <b_lp_Chiralities_Consistent>
1

> <s_lp_Variant>
AV-unprocessed.smi:2078-5

> <Gold.Version>
5.8.1

> <Gold.Id.Protein>
6NUR|6NUR_protein|mol2

> <Gold.PLP.Fitness>
45.6164

> <Gold.PLP.PLP>
-34.3513

> <Gold.PLP.part.hbond>
-3.0000

> <Gold.PLP.part.metal>
0.0000

> <Gold.PLP.part.buried>
-2.2488

> <Gold.PLP.part.nonpolar>
-29.9073

> <Gold.PLP.part.repulsive>
0.5179

> <Gold.PLP.ligand.clash>
0.0000

> <Gold.PLP.ligand.torsion>
0.4251

> <Gold.PLP.Chemscore.Hbond>
4.0000

> <Gold.PLP.Chemscore.CHOScore>
0.0000

> <Gold.PLP.Chemscore.Metal>
0.0000

> <Gold.Chemscore.Hbonds>
donor molecule, donor type, donor heavy atom, donor atom, acceptor molecule, acceptor atom, score
      L1  H    11    41       P1 10747  1.00
      P1  H  7989  7998       L1    19  1.00
      P1  H 10752 10763       L1     5  2.00

> <Gold.PLP.Chemscore.Internal.Correction>
0.1153

> <Gold.Rescore>
     Score         DG    S(hbond)    S(metal)    S(lipo)     H(rot)  DE(clash)    DE(int)     intcor
     15.82     -20.56       2.84        0.00      81.56       1.54       1.59       3.15       ----

> <Gold.Chemscore.Fitness>
15.8153

> <Gold.Chemscore.DG>
-20.5560

> <Gold.Chemscore.ZeroCoef>
-5.4800

> <Gold.Chemscore.Hbond>
2.8378

> <Gold.Chemscore.Metal>
0.0000

> <Gold.Chemscore.Lipo>
81.5588

> <Gold.Chemscore.Internal_Hbond>
0.0000

> <Gold.Chemscore.DEClash>
1.5882

> <Gold.Chemscore.DEInternal>
3.1525

> <Gold.Chemscore.Rot>
1.5409

> <Gold.Chemscore.Internal.Correction>
   9.000000E+99

> <Gold.Chemscore.Hbonds>
donor molecule, donor type, donor heavy atom, donor atom, acceptor molecule, acceptor atom, score
      L1  H    11    41       P1 10747  0.97
      P1  H  7989  7998       L1    19  0.35
      P1  H 10752 10763       L1     5  0.85

> <Gold.Chemscore.Hbond.Weighted>
-9.4782

> <Gold.Chemscore.Metal.Weighted>
-0.0000

> <Gold.Chemscore.Lipo.Weighted>
-9.5424

> <Gold.Chemscore.Internal_Hbond.Weighted>
0.0000

> <Gold.Chemscore.DEClash.Weighted>
1.5882

> <Gold.Chemscore.DEInternal.Weighted>
3.1525

> <Gold.Chemscore.Rot.Weighted>
3.9446

> <Gold.Chemscore.Internal.Correction.Weighted>
   9.000000E+99

> <Gold.Protein.RotatedTorsions>
[ 6907 6896 6895 6894 ] final  103.49 input  -60.11 | X-H torsion
[ 7974 7965 7964 7962 ] final -116.42 input  175.53 | X-H torsion
[ 8008 7997 7996 7995 ] final   67.54 input   59.86 | X-H torsion
[ 10167 10162 10161 10158 ] final   60.87 input  -65.29 | X-H torsion
[ 10718 10713 10712 10709 ] final -113.49 input   66.30 | X-H torsion
[ 10763 10752 10751 10750 ] final   56.05 input  -60.55 | X-H torsion
[ 11005 11000 10999 10996 ] final  -94.58 input  -57.11 | X-H torsion

> <Gold.Protein.ActiveResidues>
 VAL166  LYS551  ARG553  GLY616  TRP617  ASP618  TYR619  PRO620  LYS621  CYS622 
 ASP623  PHE694  ASN695  SER759  ASP760  ASP761  ALA762  ILE779  LEU786  VAL792 
 PHE793  MET794  SER795  GLU796  ALA797  LYS798  CYS799  TRP800  GLU811  SER814 

> <Gold.Protein.RotatedAtoms>
  152.5294  133.9819  159.7810 H   0  0  0  0  0  0  0  0  0  0  0  0  # atno 6907 bound_to 6896
  151.0071  133.5993  159.2694 H   0  0  0  0  0  0  0  0  0  0  0  0  # atno 6908 bound_to 6896
  151.3081  135.0793  159.9316 H   0  0  0  0  0  0  0  0  0  0  0  0  # atno 6909 bound_to 6896
  145.0970  140.8527  143.3948 H   0  0  0  0  0  0  0  0  0  0  0  0  # atno 7974 bound_to 7965
  155.6944  140.3496  155.4907 H   0  0  0  0  0  0  0  0  0  0  0  0  # atno 8008 bound_to 7997
  155.9496  140.1117  157.1010 H   0  0  0  0  0  0  0  0  0  0  0  0  # atno 8009 bound_to 7997
  154.4119  140.1197  156.5021 H   0  0  0  0  0  0  0  0  0  0  0  0  # atno 8010 bound_to 7997
  140.1609  144.4371  150.6710 H   0  0  0  0  0  0  0  0  0  0  0  0  # atno 10167 bound_to 10162
  156.0770  130.5976  150.8649 H   0  0  0  0  0  0  0  0  0  0  0  0  # atno 10718 bound_to 10713
  152.9826  135.5690  154.5166 H   0  0  0  0  0  0  0  0  0  0  0  0  # atno 10763 bound_to 10752
  154.4661  135.2783  155.1679 H   0  0  0  0  0  0  0  0  0  0  0  0  # atno 10764 bound_to 10752
  154.3247  135.6262  153.5577 H   0  0  0  0  0  0  0  0  0  0  0  0  # atno 10765 bound_to 10752
  141.1466  133.7966  157.0317 H   0  0  0  0  0  0  0  0  0  0  0  0  # atno 11005 bound_to 11000
  145.0999  139.2830  143.5691 LP  0  0  0  0  0  0  0  0  0  0  0  0  # atno 17320 bound_to 7965
  146.3530  140.0563  142.8632 LP  0  0  0  0  0  0  0  0  0  0  0  0  # atno 17321 bound_to 7965
  140.6643  143.2262  151.5780 LP  0  0  0  0  0  0  0  0  0  0  0  0  # atno 17342 bound_to 10162
  139.5381  144.2723  152.1295 LP  0  0  0  0  0  0  0  0  0  0  0  0  # atno 17343 bound_to 10162
  157.5870  131.0945  150.9180 LP  0  0  0  0  0  0  0  0  0  0  0  0  # atno 17370 bound_to 10713
  156.9364  130.5368  149.5279 LP  0  0  0  0  0  0  0  0  0  0  0  0  # atno 17371 bound_to 10713
  140.0749  134.9681  157.1530 LP  0  0  0  0  0  0  0  0  0  0  0  0  # atno 17394 bound_to 11000
  140.3657  134.2445  155.7182 LP  0  0  0  0  0  0  0  0  0  0  0  0  # atno 17395 bound_to 11000

$$$$
