AV-unprocessed.smi:3063|AV-procd|sdf|11685|dock6
  -GOLD-   2272017 93D 1   1.00000     0.00000
 Structure written by MMmdl.
 44 45  0  0  0  0  0  0  0  0  1 V2000
  147.2600  142.4575  157.9132 C   0  0  0  0  0  0  0  0  0  0  0  0
  146.5799  141.2398  157.2838 C   0  0  0  0  0  0  0  0  0  0  0  0
  146.4451  140.2292  157.9740 O   0  0  0  0  0  0  0  0  0  0  0  0
  146.1687  141.3032  155.9941 N   0  0  0  0  0  0  0  0  0  0  0  0
  145.6222  140.1272  155.3004 C   0  0  0  0  0  0  0  0  0  0  0  0
  146.7394  139.3105  154.6179 C   0  0  0  0  0  0  0  0  0  0  0  0
  147.5470  140.1238  153.5835 C   0  0  0  0  0  0  0  0  0  0  0  0
  148.2687  141.2433  154.2194 N   0  0  0  0  0  0  0  0  0  0  0  0
  149.4970  141.1530  154.7938 C   0  0  0  0  0  0  0  0  0  0  0  0
  150.2768  140.2235  154.5826 O   0  0  0  0  0  0  0  0  0  0  0  0
  149.7985  142.1598  155.6325 N   0  0  0  0  0  0  0  0  0  0  0  0
  151.0073  142.2678  156.4474 C   0  0  2  0  0  0  0  0  0  0  0  0
  150.9772  141.1810  157.5336 C   0  0  0  0  0  0  0  0  0  0  0  0
  151.1938  143.6966  157.0112 C   0  0  0  0  0  0  0  0  0  0  0  0
  151.6765  143.7272  158.3813 N   0  0  0  0  0  0  0  0  0  0  0  0
  152.8067  143.1318  158.8967 C   0  0  0  0  0  0  0  0  0  0  0  0
  152.8555  143.4292  160.2279 C   0  0  0  0  0  0  0  0  0  0  0  0
  151.6899  144.2174  160.4386 C   0  0  0  0  0  0  0  0  0  0  0  0
  150.9835  144.3902  159.3327 N   0  0  0  0  0  0  0  0  0  0  0  0
  147.5102  142.5078  154.2114 C   0  0  0  0  0  0  0  0  0  0  0  0
  146.2732  142.5047  155.1479 C   0  0  0  0  0  0  0  0  0  0  0  0
  148.0728  142.8210  157.2843 H   0  0  0  0  0  0  0  0  0  0  0  0
  147.6843  142.1997  158.8842 H   0  0  0  0  0  0  0  0  0  0  0  0
  146.5415  143.2633  158.0649 H   0  0  0  0  0  0  0  0  0  0  0  0
  145.0674  139.4892  155.9900 H   0  0  0  0  0  0  0  0  0  0  0  0
  144.8900  140.4330  154.5523 H   0  0  0  0  0  0  0  0  0  0  0  0
  147.4101  138.8985  155.3725 H   0  0  0  0  0  0  0  0  0  0  0  0
  146.2902  138.4516  154.1185 H   0  0  0  0  0  0  0  0  0  0  0  0
  148.2282  139.4685  153.0392 H   0  0  0  0  0  0  0  0  0  0  0  0
  146.8664  140.5035  152.8203 H   0  0  0  0  0  0  0  0  0  0  0  0
  149.1131  142.8926  155.7455 H   0  0  0  0  0  0  0  0  0  0  0  0
  151.8638  142.0537  155.8057 H   0  0  0  0  0  0  0  0  0  0  0  0
  151.8560  141.2449  158.1757 H   0  0  0  0  0  0  0  0  0  0  0  0
  150.9672  140.1854  157.0892 H   0  0  0  0  0  0  0  0  0  0  0  0
  150.0938  141.2658  158.1672 H   0  0  0  0  0  0  0  0  0  0  0  0
  151.8967  144.2495  156.3863 H   0  0  0  0  0  0  0  0  0  0  0  0
  150.2553  144.2507  156.9672 H   0  0  0  0  0  0  0  0  0  0  0  0
  153.4724  142.5552  158.2744 H   0  0  0  0  0  0  0  0  0  0  0  0
  153.6075  143.1272  160.9414 H   0  0  0  0  0  0  0  0  0  0  0  0
  151.3377  144.6643  161.3563 H   0  0  0  0  0  0  0  0  0  0  0  0
  148.1426  143.3568  154.4744 H   0  0  0  0  0  0  0  0  0  0  0  0
  147.1906  142.7224  153.1908 H   0  0  0  0  0  0  0  0  0  0  0  0
  145.3742  142.5797  154.5350 H   0  0  0  0  0  0  0  0  0  0  0  0
  146.2553  143.4214  155.7369 H   0  0  0  0  0  0  0  0  0  0  0  0
  1  2  1  0  0  0  0
  1 22  1  0  0  0  0
  1 23  1  0  0  0  0
  1 24  1  0  0  0  0
  2  3  2  0  0  0  0
  2  4  1  0  0  0  0
  4 21  1  0  0  0  0
  4  5  1  0  0  0  0
  5  6  1  0  0  0  0
  5 25  1  0  0  0  0
  5 26  1  0  0  0  0
  6  7  1  0  0  0  0
  6 27  1  0  0  0  0
  6 28  1  0  0  0  0
  7  8  1  0  0  0  0
  7 29  1  0  0  0  0
  7 30  1  0  0  0  0
  8  9  1  0  0  0  0
  8 20  1  0  0  0  0
  9 10  2  0  0  0  0
  9 11  1  0  0  0  0
 11 12  1  0  0  0  0
 11 31  1  0  0  0  0
 12 13  1  0  0  0  0
 12 14  1  0  0  0  0
 12 32  1  0  0  0  0
 13 33  1  0  0  0  0
 13 34  1  0  0  0  0
 13 35  1  0  0  0  0
 14 15  1  0  0  0  0
 14 36  1  0  0  0  0
 14 37  1  0  0  0  0
 15 19  1  0  0  0  0
 15 16  1  0  0  0  0
 16 17  2  0  0  0  0
 16 38  1  0  0  0  0
 17 18  1  0  0  0  0
 17 39  1  0  0  0  0
 18 19  2  0  0  0  0
 18 40  1  0  0  0  0
 20 21  1  0  0  0  0
 20 41  1  0  0  0  0
 20 42  1  0  0  0  0
 21 43  1  0  0  0  0
 21 44  1  0  0  0  0
M  END
> <s_m_source_file>
AV-unprocessed.smi

> <i_m_source_file_index>
3063

> <i_lp_mmshare_version>
43012

> <i_f3d_flags>
0

> <s_epik_input>
W0NIM11DKD1PKU4xW0NIMl1bQ0gyXVtDSDJdTihbQ0gyXVtDSDJdMSlDKD1PKVtOSF1bQ0BIXShbQ0gzXSlbQ0gyXW4yW2NIXVtjSF1bY0hdbjI=

> <s_epik_cmdline>
J2VwaWtfcHl0aG9uJywgJy1waCcsICc3LjAnLCAnLXRuJywgJzgnLCAnLW1hJywgJzIwMCcsICctbWV0YWxfYmluZGluZycsICctaW1hZScsICc8aW5maWxlLm1hZT4nLCAnLW9tYWUnLCAnPG91dGZpbGUubWFlPic=

> <r_lp_tautomer_probability>
1

> <r_epik_Ionization_Penalty>
6.19559e-05

> <r_epik_Ionization_Penalty_Charging>
0

> <r_epik_Ionization_Penalty_Neutral>
6.19559e-05

> <r_epik_State_Penalty>
-0

> <r_epik_Charging_Adjusted_Penalty>
0

> <i_epik_Tot_Q>
0

> <i_epik_Tot_abs_Q>
0

> <r_epik_Metal_State_Penalty>
-0

> <b_epik_Metal_Only>
0

> <s_lp_Force_Field>
OPLS_2005

> <r_lp_Energy>
38.8795

> <b_lp_Chiralities_Consistent>
1

> <s_lp_Variant>
AV-unprocessed.smi:3063-1

> <Gold.Version>
5.8.1

> <Gold.Id.Protein>
6NUR|6NUR_protein|mol2

> <Gold.PLP.Fitness>
42.5312

> <Gold.PLP.PLP>
-39.8019

> <Gold.PLP.part.hbond>
-2.4161

> <Gold.PLP.part.metal>
0.0000

> <Gold.PLP.part.buried>
-1.8109

> <Gold.PLP.part.nonpolar>
-35.4344

> <Gold.PLP.part.repulsive>
0.3675

> <Gold.PLP.ligand.clash>
1.2266

> <Gold.PLP.ligand.torsion>
0.8692

> <Gold.PLP.Chemscore.Hbond>
1.8800

> <Gold.PLP.Chemscore.CHOScore>
0.0000

> <Gold.PLP.Chemscore.Metal>
0.0000

> <Gold.Chemscore.Hbonds>
donor molecule, donor type, donor heavy atom, donor atom, acceptor molecule, acceptor atom, score
      L1  H    11    31       P1  8028  0.86
      P1  H  7989  7998       L1    10  1.00

> <Gold.PLP.Chemscore.Internal.Correction>
0.0543

> <Gold.Rescore>
     Score         DG    S(hbond)    S(metal)    S(lipo)     H(rot)  DE(clash)    DE(int)     intcor
     15.15     -17.26       1.64        0.00      85.20       1.44       1.49       0.62       ----

> <Gold.Chemscore.Fitness>
15.1541

> <Gold.Chemscore.DG>
-17.2624

> <Gold.Chemscore.ZeroCoef>
-5.4800

> <Gold.Chemscore.Hbond>
1.6444

> <Gold.Chemscore.Metal>
0.0000

> <Gold.Chemscore.Lipo>
85.2002

> <Gold.Chemscore.Internal_Hbond>
0.0000

> <Gold.Chemscore.DEClash>
1.4869

> <Gold.Chemscore.DEInternal>
0.6214

> <Gold.Chemscore.Rot>
1.4368

> <Gold.Chemscore.Internal.Correction>
   9.000000E+99

> <Gold.Chemscore.Hbonds>
donor molecule, donor type, donor heavy atom, donor atom, acceptor molecule, acceptor atom, score
      L1  H    11    31       P1  8028  0.85
      P1  H  7989  7998       L1    10  0.59

> <Gold.Chemscore.Hbond.Weighted>
-5.4922

> <Gold.Chemscore.Metal.Weighted>
-0.0000

> <Gold.Chemscore.Lipo.Weighted>
-9.9684

> <Gold.Chemscore.Internal_Hbond.Weighted>
0.0000

> <Gold.Chemscore.DEClash.Weighted>
1.4869

> <Gold.Chemscore.DEInternal.Weighted>
0.6214

> <Gold.Chemscore.Rot.Weighted>
3.6782

> <Gold.Chemscore.Internal.Correction.Weighted>
   9.000000E+99

> <Gold.Protein.RotatedTorsions>
[ 6907 6896 6895 6894 ] final  -21.14 input  -60.11 | X-H torsion
[ 7974 7965 7964 7962 ] final  -80.03 input  175.53 | X-H torsion
[ 8008 7997 7996 7995 ] final -112.21 input   59.86 | X-H torsion
[ 10167 10162 10161 10158 ] final    0.58 input  -65.29 | X-H torsion
[ 10718 10713 10712 10709 ] final  137.66 input   66.30 | X-H torsion
[ 10763 10752 10751 10750 ] final   88.55 input  -60.55 | X-H torsion
[ 11005 11000 10999 10996 ] final   48.32 input  -57.11 | X-H torsion

> <Gold.Protein.ActiveResidues>
 VAL166  LYS551  ARG553  GLY616  TRP617  ASP618  TYR619  PRO620  LYS621  CYS622 
 ASP623  PHE694  ASN695  SER759  ASP760  ASP761  ALA762  ILE779  LEU786  VAL792 
 PHE793  MET794  SER795  GLU796  ALA797  LYS798  CYS799  TRP800  GLU811  SER814 

> <Gold.Protein.RotatedAtoms>
  151.2377  135.0577  159.9012 H   0  0  0  0  0  0  0  0  0  0  0  0  # atno 6907 bound_to 6896
  152.5397  134.0468  159.8102 H   0  0  0  0  0  0  0  0  0  0  0  0  # atno 6908 bound_to 6896
  151.0657  133.5458  159.2662 H   0  0  0  0  0  0  0  0  0  0  0  0  # atno 6909 bound_to 6896
  145.5654  140.9475  143.1424 H   0  0  0  0  0  0  0  0  0  0  0  0  # atno 7974 bound_to 7965
  155.0017  140.0394  157.2363 H   0  0  0  0  0  0  0  0  0  0  0  0  # atno 8008 bound_to 7997
  154.7538  140.2772  155.6248 H   0  0  0  0  0  0  0  0  0  0  0  0  # atno 8009 bound_to 7997
  156.2890  140.2642  156.2298 H   0  0  0  0  0  0  0  0  0  0  0  0  # atno 8010 bound_to 7997
  140.6722  143.7016  150.7947 H   0  0  0  0  0  0  0  0  0  0  0  0  # atno 10167 bound_to 10162
  157.4337  131.1051  151.0221 H   0  0  0  0  0  0  0  0  0  0  0  0  # atno 10718 bound_to 10713
  153.1779  135.4503  154.9990 H   0  0  0  0  0  0  0  0  0  0  0  0  # atno 10763 bound_to 10752
  154.8011  135.3256  154.7551 H   0  0  0  0  0  0  0  0  0  0  0  0  # atno 10764 bound_to 10752
  153.8018  135.6962  153.4909 H   0  0  0  0  0  0  0  0  0  0  0  0  # atno 10765 bound_to 10752
  140.1201  134.4841  155.8604 H   0  0  0  0  0  0  0  0  0  0  0  0  # atno 11005 bound_to 11000
  144.7463  139.7312  143.7291 LP  0  0  0  0  0  0  0  0  0  0  0  0  # atno 17320 bound_to 7965
  146.1822  139.5019  142.9859 LP  0  0  0  0  0  0  0  0  0  0  0  0  # atno 17321 bound_to 7965
  140.0704  143.5067  152.2583 LP  0  0  0  0  0  0  0  0  0  0  0  0  # atno 17342 bound_to 10162
  139.5996  144.7578  151.3203 LP  0  0  0  0  0  0  0  0  0  0  0  0  # atno 17343 bound_to 10162
  157.1108  130.6021  149.5481 LP  0  0  0  0  0  0  0  0  0  0  0  0  # atno 17370 bound_to 10713
  155.9923  130.4980  150.7333 LP  0  0  0  0  0  0  0  0  0  0  0  0  # atno 17371 bound_to 10713
  141.2150  133.6757  156.6872 LP  0  0  0  0  0  0  0  0  0  0  0  0  # atno 17394 bound_to 11000
  140.2976  134.8190  157.4070 LP  0  0  0  0  0  0  0  0  0  0  0  0  # atno 17395 bound_to 11000

$$$$
