AV-unprocessed.smi:1163|AV-procd|sdf|4925|dock5
  -GOLD-   22720 3503D 1   1.00000     0.00000
 Structure written by MMmdl.
 40 41  0  0  0  0  0  0  0  0  2 V2000
  152.6996  142.5438  159.1823 C   0  0  0  0  0  0  0  0  0  0  0  0
  152.9602  141.2558  158.6353 O   0  0  0  0  0  0  0  0  0  0  0  0
  152.1260  140.7846  157.6422 C   0  0  0  0  0  0  0  0  0  0  0  0
  150.8928  141.4331  157.4333 C   0  0  0  0  0  0  0  0  0  0  0  0
  150.0331  140.9564  156.4252 C   0  0  0  0  0  0  0  0  0  0  0  0
  150.4382  139.8434  155.6490 C   0  0  0  0  0  0  0  0  0  0  0  0
  149.6661  139.2491  154.6124 N   0  0  0  0  0  0  0  0  0  0  0  0
  148.4017  139.5082  154.2367 C   0  0  0  0  0  0  0  0  0  0  0  0
  147.6690  140.3683  154.7238 O   0  0  0  0  0  0  0  0  0  0  0  0
  148.0200  138.7026  153.2356 N   0  0  0  0  0  0  0  0  0  0  0  0
  146.7032  138.7243  152.6068 C   0  0  1  0  0  0  0  0  0  0  0  0
  146.6998  138.1884  151.1757 C   0  0  0  0  0  0  0  0  0  0  0  0
  145.2867  137.6104  150.9829 C   0  0  0  0  0  0  0  0  0  0  0  0
  144.6289  137.6232  152.3124 N   0  3  1  0  0  0  0  0  0  0  0  0
  143.7323  136.4760  152.5938 C   0  0  0  0  0  0  0  0  0  0  0  0
  142.6467  136.8109  153.6312 C   0  0  0  0  0  0  0  0  0  0  0  0
  141.9294  137.8435  153.1911 F   0  0  0  0  0  0  0  0  0  0  0  0
  141.8358  135.7665  153.7986 F   0  0  0  0  0  0  0  0  0  0  0  0
  143.1864  137.1411  154.8039 F   0  0  0  0  0  0  0  0  0  0  0  0
  145.7007  137.8069  153.3064 C   0  0  0  0  0  0  0  0  0  0  0  0
  151.6902  139.2638  155.9427 C   0  0  0  0  0  0  0  0  0  0  0  0
  152.5185  139.7150  156.9078 N   0  0  0  0  0  0  0  0  0  0  0  0
  153.4438  142.7685  159.9462 H   0  0  0  0  0  0  0  0  0  0  0  0
  151.7172  142.5859  159.6548 H   0  0  0  0  0  0  0  0  0  0  0  0
  152.7639  143.3211  158.4196 H   0  0  0  0  0  0  0  0  0  0  0  0
  150.6079  142.2799  158.0401 H   0  0  0  0  0  0  0  0  0  0  0  0
  149.0852  141.4498  156.2838 H   0  0  0  0  0  0  0  0  0  0  0  0
  150.1492  138.5450  154.0735 H   0  0  0  0  0  0  0  0  0  0  0  0
  148.6851  138.0281  152.8858 H   0  0  0  0  0  0  0  0  0  0  0  0
  146.3153  139.7451  152.6002 H   0  0  0  0  0  0  0  0  0  0  0  0
  146.9380  138.9613  150.4444 H   0  0  0  0  0  0  0  0  0  0  0  0
  147.4359  137.3906  151.0654 H   0  0  0  0  0  0  0  0  0  0  0  0
  144.7020  138.2119  150.2861 H   0  0  0  0  0  0  0  0  0  0  0  0
  145.3512  136.5997  150.5766 H   0  0  0  0  0  0  0  0  0  0  0  0
  143.2848  136.1109  151.6681 H   0  0  0  0  0  0  0  0  0  0  0  0
  144.3407  135.6593  152.9857 H   0  0  0  0  0  0  0  0  0  0  0  0
  146.1598  136.8434  153.5375 H   0  0  0  0  0  0  0  0  0  0  0  0
  145.3160  138.2331  154.2336 H   0  0  0  0  0  0  0  0  0  0  0  0
  152.0414  138.4076  155.3851 H   0  0  0  0  0  0  0  0  0  0  0  0
  144.0677  138.4625  152.3513 H   0  0  0  0  0  0  0  0  0  0  0  0
  1  2  1  0  0  0  0
  1 23  1  0  0  0  0
  1 24  1  0  0  0  0
  1 25  1  0  0  0  0
  2  3  1  0  0  0  0
  3 22  1  0  0  0  0
  3  4  2  0  0  0  0
  4  5  1  0  0  0  0
  4 26  1  0  0  0  0
  5  6  2  0  0  0  0
  5 27  1  0  0  0  0
  6  7  1  0  0  0  0
  6 21  1  0  0  0  0
  7  8  1  0  0  0  0
  7 28  1  0  0  0  0
  8  9  2  0  0  0  0
  8 10  1  0  0  0  0
 10 11  1  0  0  0  0
 10 29  1  0  0  0  0
 11 20  1  0  0  0  0
 11 12  1  0  0  0  0
 11 30  1  0  0  0  0
 12 13  1  0  0  0  0
 12 31  1  0  0  0  0
 12 32  1  0  0  0  0
 13 14  1  0  0  0  0
 13 33  1  0  0  0  0
 13 34  1  0  0  0  0
 14 15  1  0  0  0  0
 14 20  1  0  0  0  0
 14 40  1  0  0  0  0
 15 16  1  0  0  0  0
 15 35  1  0  0  0  0
 15 36  1  0  0  0  0
 16 17  1  0  0  0  0
 16 18  1  0  0  0  0
 16 19  1  0  0  0  0
 20 37  1  0  0  0  0
 20 38  1  0  0  0  0
 21 22  2  0  0  0  0
 21 39  1  0  0  0  0
M  CHG  1  14   1
M  END
> <s_m_source_file>
AV-unprocessed.smi

> <i_m_source_file_index>
1163

> <i_lp_mmshare_version>
43012

> <i_f3d_flags>
0

> <s_epik_input>
W0NIM11PYzFbY0hdW2NIXWMoW2NIXW4xKVtOSF1DKD1PKVtOSF1bQ0BASF0yW0NIMl1bQ0gyXU4oW0NIMl0yKVtDSDJdQyhGKShGKUY=

> <s_epik_cmdline>
J2VwaWtfcHl0aG9uJywgJy1waCcsICc3LjAnLCAnLXRuJywgJzgnLCAnLW1hJywgJzIwMCcsICctbWV0YWxfYmluZGluZycsICctaW1hZScsICc8aW5maWxlLm1hZT4nLCAnLW9tYWUnLCAnPG91dGZpbGUubWFlPic=

> <r_lp_tautomer_probability>
1

> <r_epik_Ionization_Penalty>
1.12054

> <r_epik_Ionization_Penalty_Charging>
1.12047

> <r_epik_Ionization_Penalty_Neutral>
7.20346e-05

> <r_epik_State_Penalty>
1.17927

> <r_epik_Charging_Adjusted_Penalty>
2.29974

> <i_epik_Tot_Q>
1

> <i_epik_Tot_abs_Q>
1

> <r_epik_Metal_State_Penalty>
1.17928

> <b_epik_Metal_Only>
0

> <s_lp_Force_Field>
OPLS_2005

> <r_lp_Energy>
29.7576

> <b_lp_Chiralities_Consistent>
1

> <s_lp_Variant>
AV-unprocessed.smi:1163-6

> <Gold.Version>
5.8.1

> <Gold.Id.Protein>
6NUR|6NUR_protein|mol2

> <Gold.PLP.Fitness>
40.6920

> <Gold.PLP.PLP>
-30.2651

> <Gold.PLP.part.hbond>
-5.2292

> <Gold.PLP.part.metal>
0.0000

> <Gold.PLP.part.buried>
6.5837

> <Gold.PLP.part.nonpolar>
-32.8667

> <Gold.PLP.part.repulsive>
0.2148

> <Gold.PLP.ligand.clash>
0.0362

> <Gold.PLP.ligand.torsion>
0.8030

> <Gold.PLP.Chemscore.Hbond>
3.8590

> <Gold.PLP.Chemscore.CHOScore>
0.0000

> <Gold.PLP.Chemscore.Metal>
0.0000

> <Gold.Chemscore.Hbonds>
donor molecule, donor type, donor heavy atom, donor atom, acceptor molecule, acceptor atom, score
      L1  H    10    29       P1  7948  0.87
      L1  H    14    40       P1 10175  2.00
      P1  H  7997  8009       L1    22  1.00

> <Gold.PLP.Chemscore.Internal.Correction>
0.4919

> <Gold.Rescore>
     Score         DG    S(hbond)    S(metal)    S(lipo)     H(rot)  DE(clash)    DE(int)     intcor
     12.45     -16.98       2.31        0.00      69.18       1.68       2.47       2.07       ----

> <Gold.Chemscore.Fitness>
12.4483

> <Gold.Chemscore.DG>
-16.9836

> <Gold.Chemscore.ZeroCoef>
-5.4800

> <Gold.Chemscore.Hbond>
2.3067

> <Gold.Chemscore.Metal>
0.0000

> <Gold.Chemscore.Lipo>
69.1810

> <Gold.Chemscore.Internal_Hbond>
0.0000

> <Gold.Chemscore.DEClash>
2.4660

> <Gold.Chemscore.DEInternal>
2.0693

> <Gold.Chemscore.Rot>
1.6778

> <Gold.Chemscore.Internal.Correction>
   9.000000E+99

> <Gold.Chemscore.Hbonds>
donor molecule, donor type, donor heavy atom, donor atom, acceptor molecule, acceptor atom, score
      L1  H    10    29       P1  7948  0.81
      L1  H    14    40       P1 10175  0.94
      P1  H  7997  8009       L1    22  0.43

> <Gold.Chemscore.Hbond.Weighted>
-7.7045

> <Gold.Chemscore.Metal.Weighted>
-0.0000

> <Gold.Chemscore.Lipo.Weighted>
-8.0942

> <Gold.Chemscore.Internal_Hbond.Weighted>
0.0000

> <Gold.Chemscore.DEClash.Weighted>
2.4660

> <Gold.Chemscore.DEInternal.Weighted>
2.0693

> <Gold.Chemscore.Rot.Weighted>
4.2951

> <Gold.Chemscore.Internal.Correction.Weighted>
   9.000000E+99

> <Gold.Protein.RotatedTorsions>
[ 6907 6896 6895 6894 ] final -170.48 input  -60.11 | X-H torsion
[ 7974 7965 7964 7962 ] final   24.48 input  175.53 | X-H torsion
[ 8008 7997 7996 7995 ] final -167.98 input   59.86 | X-H torsion
[ 10167 10162 10161 10158 ] final  -34.85 input  -65.29 | X-H torsion
[ 10718 10713 10712 10709 ] final   89.32 input   66.30 | X-H torsion
[ 10763 10752 10751 10750 ] final  128.29 input  -60.55 | X-H torsion
[ 11005 11000 10999 10996 ] final  -79.12 input  -57.11 | X-H torsion

> <Gold.Protein.ActiveResidues>
 VAL166  LYS551  ARG553  GLY616  TRP617  ASP618  TYR619  PRO620  LYS621  CYS622 
 ASP623  PHE694  ASN695  SER759  ASP760  ASP761  ALA762  ILE779  LEU786  VAL792 
 PHE793  MET794  SER795  GLU796  ALA797  LYS798  CYS799  TRP800  GLU811  SER814 

> <Gold.Protein.RotatedAtoms>
  151.5084  133.3490  159.2880 H   0  0  0  0  0  0  0  0  0  0  0  0  # atno 6907 bound_to 6896
  150.8728  134.8107  159.7178 H   0  0  0  0  0  0  0  0  0  0  0  0  # atno 6908 bound_to 6896
  152.4710  134.4970  159.9765 H   0  0  0  0  0  0  0  0  0  0  0  0  # atno 6909 bound_to 6896
  146.1935  139.7599  142.8814 H   0  0  0  0  0  0  0  0  0  0  0  0  # atno 7974 bound_to 7965
  155.8851  140.1015  157.1458 H   0  0  0  0  0  0  0  0  0  0  0  0  # atno 8008 bound_to 7997
  154.4009  140.1321  156.4309 H   0  0  0  0  0  0  0  0  0  0  0  0  # atno 8009 bound_to 7997
  155.7598  140.3463  155.5194 H   0  0  0  0  0  0  0  0  0  0  0  0  # atno 8010 bound_to 7997
  140.7177  143.3518  151.2139 H   0  0  0  0  0  0  0  0  0  0  0  0  # atno 10167 bound_to 10162
  157.6954  131.0329  150.3409 H   0  0  0  0  0  0  0  0  0  0  0  0  # atno 10718 bound_to 10713
  153.7231  135.3250  155.3271 H   0  0  0  0  0  0  0  0  0  0  0  0  # atno 10763 bound_to 10752
  154.8349  135.4504  154.1197 H   0  0  0  0  0  0  0  0  0  0  0  0  # atno 10764 bound_to 10752
  153.2323  135.6961  153.7956 H   0  0  0  0  0  0  0  0  0  0  0  0  # atno 10765 bound_to 10752
  141.1666  133.7092  156.8075 H   0  0  0  0  0  0  0  0  0  0  0  0  # atno 11005 bound_to 11000
  145.3716  141.0343  143.3228 LP  0  0  0  0  0  0  0  0  0  0  0  0  # atno 17320 bound_to 7965
  144.8534  139.5286  143.6846 LP  0  0  0  0  0  0  0  0  0  0  0  0  # atno 17321 bound_to 7965
  139.7051  143.9468  152.2923 LP  0  0  0  0  0  0  0  0  0  0  0  0  # atno 17342 bound_to 10162
  139.9175  144.6820  150.8497 LP  0  0  0  0  0  0  0  0  0  0  0  0  # atno 17343 bound_to 10162
  156.3870  130.3891  149.7059 LP  0  0  0  0  0  0  0  0  0  0  0  0  # atno 17370 bound_to 10713
  156.4422  130.7866  151.2887 LP  0  0  0  0  0  0  0  0  0  0  0  0  # atno 17371 bound_to 10713
  140.2212  134.8756  157.3379 LP  0  0  0  0  0  0  0  0  0  0  0  0  # atno 17394 bound_to 11000
  140.1986  134.4283  155.7675 LP  0  0  0  0  0  0  0  0  0  0  0  0  # atno 17395 bound_to 11000

$$$$
