AV-unprocessed.smi:3336|AV-procd|sdf|12853|dock1
  -GOLD-   2272019243D 1   1.00000     0.00000
 Structure written by MMmdl.
 42 43  0  0  0  0  0  0  0  0  2 V2000
  150.5324  142.5817  157.4051 C   0  0  0  0  0  0  0  0  0  0  0  0
  151.0930  142.1035  158.7549 C   0  0  2  0  0  0  0  0  0  0  0  0
  151.5816  143.2754  159.6374 C   0  0  0  0  0  0  0  0  0  0  0  0
  152.0765  142.8421  160.9312 N   0  0  0  0  0  0  0  0  0  0  0  0
  151.7655  143.3370  162.1806 C   0  0  0  0  0  0  0  0  0  0  0  0
  152.4834  142.6169  163.0918 C   0  0  0  0  0  0  0  0  0  0  0  0
  153.2198  141.6979  162.2930 C   0  0  0  0  0  0  0  0  0  0  0  0
  152.9764  141.8375  160.9996 N   0  0  0  0  0  0  0  0  0  0  0  0
  152.1882  141.1345  158.5115 N   0  3  0  0  0  0  0  0  0  0  0  0
  151.7811  139.7764  158.0715 C   0  0  2  0  0  0  0  0  0  0  0  0
  152.8797  138.7744  158.4639 C   0  0  0  0  0  0  0  0  0  0  0  0
  151.5268  139.7199  156.5489 C   0  0  0  0  0  0  0  0  0  0  0  0
  152.5040  139.7636  155.7989 O   0  0  0  0  0  0  0  0  0  0  0  0
  150.2613  139.6187  156.0695 N   0  0  0  0  0  0  0  0  0  0  0  0
  149.0846  139.5485  156.9433 C   0  0  0  0  0  0  0  0  0  0  0  0
  148.2010  140.7809  156.6825 C   0  0  0  0  0  0  0  0  0  0  0  0
  147.8267  140.8153  155.3086 O   0  0  0  0  0  0  0  0  0  0  0  0
  148.9461  140.8640  154.4291 C   0  0  0  0  0  0  0  0  0  0  0  0
  149.8474  139.6371  154.6611 C   0  0  0  0  0  0  0  0  0  0  0  0
  149.6562  143.2172  157.5362 H   0  0  0  0  0  0  0  0  0  0  0  0
  150.2252  141.7365  156.7879 H   0  0  0  0  0  0  0  0  0  0  0  0
  151.2755  143.1503  156.8447 H   0  0  0  0  0  0  0  0  0  0  0  0
  150.2828  141.5869  159.2713 H   0  0  0  0  0  0  0  0  0  0  0  0
  152.3811  143.8309  159.1472 H   0  0  0  0  0  0  0  0  0  0  0  0
  150.7688  143.9839  159.8020 H   0  0  0  0  0  0  0  0  0  0  0  0
  151.0656  144.1485  162.3170 H   0  0  0  0  0  0  0  0  0  0  0  0
  152.4844  142.7311  164.1657 H   0  0  0  0  0  0  0  0  0  0  0  0
  153.9197  140.9398  162.6122 H   0  0  0  0  0  0  0  0  0  0  0  0
  152.7867  141.5104  157.7894 H   0  0  0  0  0  0  0  0  0  0  0  0
  150.8699  139.5284  158.6115 H   0  0  0  0  0  0  0  0  0  0  0  0
  152.6157  137.7533  158.1893 H   0  0  0  0  0  0  0  0  0  0  0  0
  153.0495  138.7844  159.5409 H   0  0  0  0  0  0  0  0  0  0  0  0
  153.8276  139.0109  157.9784 H   0  0  0  0  0  0  0  0  0  0  0  0
  148.5280  138.6355  156.7255 H   0  0  0  0  0  0  0  0  0  0  0  0
  149.3381  139.4991  158.0028 H   0  0  0  0  0  0  0  0  0  0  0  0
  147.2989  140.7349  157.2925 H   0  0  0  0  0  0  0  0  0  0  0  0
  148.7239  141.7002  156.9518 H   0  0  0  0  0  0  0  0  0  0  0  0
  148.5850  140.8774  153.4008 H   0  0  0  0  0  0  0  0  0  0  0  0
  149.5010  141.7904  154.5849 H   0  0  0  0  0  0  0  0  0  0  0  0
  150.6700  139.6698  153.9513 H   0  0  0  0  0  0  0  0  0  0  0  0
  149.2971  138.7215  154.4388 H   0  0  0  0  0  0  0  0  0  0  0  0
  152.7263  141.0553  159.3622 H   0  0  0  0  0  0  0  0  0  0  0  0
  1  2  1  0  0  0  0
  1 20  1  0  0  0  0
  1 21  1  0  0  0  0
  1 22  1  0  0  0  0
  2  3  1  0  0  0  0
  2  9  1  0  0  0  0
  2 23  1  0  0  0  0
  3  4  1  0  0  0  0
  3 24  1  0  0  0  0
  3 25  1  0  0  0  0
  4  8  1  0  0  0  0
  4  5  1  0  0  0  0
  5  6  2  0  0  0  0
  5 26  1  0  0  0  0
  6  7  1  0  0  0  0
  6 27  1  0  0  0  0
  7  8  2  0  0  0  0
  7 28  1  0  0  0  0
  9 10  1  0  0  0  0
  9 29  1  0  0  0  0
  9 42  1  0  0  0  0
 10 11  1  0  0  0  0
 10 12  1  0  0  0  0
 10 30  1  0  0  0  0
 11 31  1  0  0  0  0
 11 32  1  0  0  0  0
 11 33  1  0  0  0  0
 12 13  2  0  0  0  0
 12 14  1  0  0  0  0
 14 19  1  0  0  0  0
 14 15  1  0  0  0  0
 15 16  1  0  0  0  0
 15 34  1  0  0  0  0
 15 35  1  0  0  0  0
 16 17  1  0  0  0  0
 16 36  1  0  0  0  0
 16 37  1  0  0  0  0
 17 18  1  0  0  0  0
 18 19  1  0  0  0  0
 18 38  1  0  0  0  0
 18 39  1  0  0  0  0
 19 40  1  0  0  0  0
 19 41  1  0  0  0  0
M  CHG  1   9   1
M  END
> <s_m_source_file>
AV-unprocessed.smi

> <i_m_source_file_index>
3336

> <i_lp_mmshare_version>
43012

> <i_f3d_flags>
0

> <s_epik_input>
bjFbY0hdW2NIXVtjSF1uMVtDSDJdW0NAQEhdKFtDSDNdKVtOSF1bQ0BIXShbQ0gzXSlDKD1PKU4yW0NIMl1bQ0gyXU9bQ0gyXVtDSDJdMg==

> <s_epik_cmdline>
J2VwaWtfcHl0aG9uJywgJy1waCcsICc3LjAnLCAnLXRuJywgJzgnLCAnLW1hJywgJzIwMCcsICctbWV0YWxfYmluZGluZycsICctaW1hZScsICc8aW5maWxlLm1hZT4nLCAnLW9tYWUnLCAnPG91dGZpbGUubWFlPic=

> <r_lp_tautomer_probability>
1

> <r_epik_Ionization_Penalty>
0.200288

> <r_epik_Ionization_Penalty_Charging>
0.200285

> <r_epik_Ionization_Penalty_Neutral>
3.37705e-06

> <r_epik_State_Penalty>
0.190126

> <r_epik_Charging_Adjusted_Penalty>
0.39041

> <i_epik_Tot_Q>
1

> <i_epik_Tot_abs_Q>
1

> <r_epik_Metal_State_Penalty>
0.190133

> <b_epik_Metal_Only>
0

> <s_lp_Force_Field>
OPLS_2005

> <r_lp_Energy>
27.4401

> <b_lp_Chiralities_Consistent>
1

> <s_lp_Variant>
AV-unprocessed.smi:3336-1

> <Gold.Version>
5.8.1

> <Gold.Id.Protein>
6NUR|6NUR_protein|mol2

> <Gold.PLP.Fitness>
42.6448

> <Gold.PLP.PLP>
-40.9817

> <Gold.PLP.part.hbond>
-1.0000

> <Gold.PLP.part.metal>
0.0000

> <Gold.PLP.part.buried>
-4.8997

> <Gold.PLP.part.nonpolar>
-34.8601

> <Gold.PLP.part.repulsive>
0.1913

> <Gold.PLP.ligand.clash>
0.0000

> <Gold.PLP.ligand.torsion>
0.7706

> <Gold.PLP.Chemscore.Hbond>
1.0000

> <Gold.PLP.Chemscore.CHOScore>
0.0000

> <Gold.PLP.Chemscore.Metal>
0.0000

> <Gold.Chemscore.Hbonds>
donor molecule, donor type, donor heavy atom, donor atom, acceptor molecule, acceptor atom, score
      P1  H  7997  8009       L1    13  1.00

> <Gold.PLP.Chemscore.Internal.Correction>
0.2042

> <Gold.Rescore>
     Score         DG    S(hbond)    S(metal)    S(lipo)     H(rot)  DE(clash)    DE(int)     intcor
     14.52     -15.41       0.98        0.00      97.46       1.85       0.23       0.67       ----

> <Gold.Chemscore.Fitness>
14.5219

> <Gold.Chemscore.DG>
-15.4149

> <Gold.Chemscore.ZeroCoef>
-5.4800

> <Gold.Chemscore.Hbond>
0.9818

> <Gold.Chemscore.Metal>
0.0000

> <Gold.Chemscore.Lipo>
97.4555

> <Gold.Chemscore.Internal_Hbond>
0.0000

> <Gold.Chemscore.DEClash>
0.2270

> <Gold.Chemscore.DEInternal>
0.6659

> <Gold.Chemscore.Rot>
1.8541

> <Gold.Chemscore.Internal.Correction>
   9.000000E+99

> <Gold.Chemscore.Hbonds>
donor molecule, donor type, donor heavy atom, donor atom, acceptor molecule, acceptor atom, score
      P1  H  7997  8009       L1    13  0.93

> <Gold.Chemscore.Hbond.Weighted>
-3.2791

> <Gold.Chemscore.Metal.Weighted>
-0.0000

> <Gold.Chemscore.Lipo.Weighted>
-11.4023

> <Gold.Chemscore.Internal_Hbond.Weighted>
0.0000

> <Gold.Chemscore.DEClash.Weighted>
0.2270

> <Gold.Chemscore.DEInternal.Weighted>
0.6659

> <Gold.Chemscore.Rot.Weighted>
4.7465

> <Gold.Chemscore.Internal.Correction.Weighted>
   9.000000E+99

> <Gold.Protein.RotatedTorsions>
[ 6907 6896 6895 6894 ] final  146.91 input  -60.11 | X-H torsion
[ 7974 7965 7964 7962 ] final -109.49 input  175.53 | X-H torsion
[ 8008 7997 7996 7995 ] final -171.99 input   59.86 | X-H torsion
[ 10167 10162 10161 10158 ] final   63.26 input  -65.29 | X-H torsion
[ 10718 10713 10712 10709 ] final -106.94 input   66.30 | X-H torsion
[ 10763 10752 10751 10750 ] final -123.50 input  -60.55 | X-H torsion
[ 11005 11000 10999 10996 ] final  -56.68 input  -57.11 | X-H torsion

> <Gold.Protein.ActiveResidues>
 VAL166  LYS551  ARG553  GLY616  TRP617  ASP618  TYR619  PRO620  LYS621  CYS622 
 ASP623  PHE694  ASN695  SER759  ASP760  ASP761  ALA762  ILE779  LEU786  VAL792 
 PHE793  MET794  SER795  GLU796  ALA797  LYS798  CYS799  TRP800  GLU811  SER814 

> <Gold.Protein.RotatedAtoms>
  152.1618  133.4586  159.4864 H   0  0  0  0  0  0  0  0  0  0  0  0  # atno 6907 bound_to 6896
  150.6908  134.2063  159.4351 H   0  0  0  0  0  0  0  0  0  0  0  0  # atno 6908 bound_to 6896
  151.9965  134.9951  160.0614 H   0  0  0  0  0  0  0  0  0  0  0  0  # atno 6909 bound_to 6896
  145.1799  140.8966  143.3486 H   0  0  0  0  0  0  0  0  0  0  0  0  # atno 7974 bound_to 7965
  155.9388  140.1105  157.1072 H   0  0  0  0  0  0  0  0  0  0  0  0  # atno 8008 bound_to 7997
  154.4085  140.1223  156.4966 H   0  0  0  0  0  0  0  0  0  0  0  0  # atno 8009 bound_to 7997
  155.6988  140.3472  155.4926 H   0  0  0  0  0  0  0  0  0  0  0  0  # atno 8010 bound_to 7997
  140.1350  144.4607  150.6843 H   0  0  0  0  0  0  0  0  0  0  0  0  # atno 10167 bound_to 10162
  156.0413  130.5638  150.7752 H   0  0  0  0  0  0  0  0  0  0  0  0  # atno 10718 bound_to 10713
  154.8709  135.4096  154.2953 H   0  0  0  0  0  0  0  0  0  0  0  0  # atno 10763 bound_to 10752
  153.3822  135.7012  153.6562 H   0  0  0  0  0  0  0  0  0  0  0  0  # atno 10764 bound_to 10752
  153.5380  135.3654  155.2677 H   0  0  0  0  0  0  0  0  0  0  0  0  # atno 10765 bound_to 10752
  141.1131  133.6610  156.4656 H   0  0  0  0  0  0  0  0  0  0  0  0  # atno 11005 bound_to 11000
  145.0147  139.3478  143.6102 LP  0  0  0  0  0  0  0  0  0  0  0  0  # atno 17320 bound_to 7965
  146.3455  139.9423  142.8739 LP  0  0  0  0  0  0  0  0  0  0  0  0  # atno 17321 bound_to 7965
  140.6794  143.2320  151.5422 LP  0  0  0  0  0  0  0  0  0  0  0  0  # atno 17342 bound_to 10162
  139.5500  144.2420  152.1513 LP  0  0  0  0  0  0  0  0  0  0  0  0  # atno 17343 bound_to 10162
  157.5235  131.0933  151.0048 LP  0  0  0  0  0  0  0  0  0  0  0  0  # atno 17370 bound_to 10713
  157.0373  130.5735  149.5351 LP  0  0  0  0  0  0  0  0  0  0  0  0  # atno 17371 bound_to 10713
  140.4720  134.6744  157.5133 LP  0  0  0  0  0  0  0  0  0  0  0  0  # atno 17394 bound_to 11000
  140.0037  134.6797  155.9490 LP  0  0  0  0  0  0  0  0  0  0  0  0  # atno 17395 bound_to 11000

$$$$
