AV-unprocessed.smi:1412|AV-procd|sdf|5745|dock2
  -GOLD-   22720 5383D 1   1.00000     0.00000
 Structure written by MMmdl.
 40 41  0  0  0  0  0  0  0  0  2 V2000
  150.5189  139.0261  154.1150 C   0  0  0  0  0  0  0  0  0  0  0  0
  151.5704  138.5411  155.1298 C   0  0  0  0  0  0  0  0  0  0  0  0
  151.0366  138.2485  156.5686 C   0  0  2  0  0  0  0  0  0  0  0  0
  152.0795  137.3139  157.2385 C   0  0  0  0  0  0  0  0  0  0  0  0
  149.6805  137.4791  156.4423 C   0  0  0  0  0  0  0  0  0  0  0  0
  149.4313  136.5294  157.5284 N   0  0  0  0  0  0  0  0  0  0  0  0
  149.1064  136.8271  158.7949 C   0  0  0  0  0  0  0  0  0  0  0  0
  148.9757  138.0036  159.1404 O   0  0  0  0  0  0  0  0  0  0  0  0
  148.9641  135.7405  159.5871 N   0  5  0  0  0  0  0  0  0  0  0  0
  148.0715  135.7546  160.5906 C   0  0  0  0  0  0  0  0  0  0  0  0
  147.4895  136.8861  161.0189 N   0  0  0  0  0  0  0  0  0  0  0  0
  146.5962  136.6796  162.0616 N   0  0  0  0  0  0  0  0  0  0  0  0
  146.5202  135.3899  162.3881 C   0  0  0  0  0  0  0  0  0  0  0  0
  147.5317  134.3104  161.4514 S   0  0  0  0  0  0  0  0  0  0  0  0
  150.8928  139.5083  157.3533 N   0  0  0  0  0  0  0  0  0  0  0  0
  149.9466  140.4848  156.8002 C   0  0  0  0  0  0  0  0  0  0  0  0
  149.7448  141.6865  157.7390 C   0  0  0  0  0  0  0  0  0  0  0  0
  150.9987  142.3021  158.0088 O   0  0  0  0  0  0  0  0  0  0  0  0
  151.9306  141.4019  158.5964 C   0  0  0  0  0  0  0  0  0  0  0  0
  152.1502  140.1999  157.6622 C   0  0  0  0  0  0  0  0  0  0  0  0
  150.9767  139.1795  153.1376 H   0  0  0  0  0  0  0  0  0  0  0  0
  150.0746  139.9745  154.4155 H   0  0  0  0  0  0  0  0  0  0  0  0
  149.7136  138.3032  153.9860 H   0  0  0  0  0  0  0  0  0  0  0  0
  152.0692  137.6604  154.7253 H   0  0  0  0  0  0  0  0  0  0  0  0
  152.3529  139.2995  155.1703 H   0  0  0  0  0  0  0  0  0  0  0  0
  152.3904  136.5056  156.5758 H   0  0  0  0  0  0  0  0  0  0  0  0
  151.6847  136.8391  158.1368 H   0  0  0  0  0  0  0  0  0  0  0  0
  152.9807  137.8553  157.5268 H   0  0  0  0  0  0  0  0  0  0  0  0
  148.8413  138.1698  156.3613 H   0  0  0  0  0  0  0  0  0  0  0  0
  149.6633  136.8906  155.5258 H   0  0  0  0  0  0  0  0  0  0  0  0
  149.5239  135.5506  157.2996 H   0  0  0  0  0  0  0  0  0  0  0  0
  145.8635  135.0719  163.1838 H   0  0  0  0  0  0  0  0  0  0  0  0
  150.2998  140.8512  155.8367 H   0  0  0  0  0  0  0  0  0  0  0  0
  148.9724  140.0306  156.6288 H   0  0  0  0  0  0  0  0  0  0  0  0
  149.0810  142.4187  157.2793 H   0  0  0  0  0  0  0  0  0  0  0  0
  149.2771  141.3718  158.6731 H   0  0  0  0  0  0  0  0  0  0  0  0
  152.8712  141.9255  158.7673 H   0  0  0  0  0  0  0  0  0  0  0  0
  151.5656  141.0719  159.5702 H   0  0  0  0  0  0  0  0  0  0  0  0
  152.8582  139.5291  158.1447 H   0  0  0  0  0  0  0  0  0  0  0  0
  152.6230  140.5534  156.7460 H   0  0  0  0  0  0  0  0  0  0  0  0
  1  2  1  0  0  0  0
  1 21  1  0  0  0  0
  1 22  1  0  0  0  0
  1 23  1  0  0  0  0
  2  3  1  0  0  0  0
  2 24  1  0  0  0  0
  2 25  1  0  0  0  0
  3  4  1  0  0  0  0
  3  5  1  0  0  0  0
  3 15  1  0  0  0  0
  4 26  1  0  0  0  0
  4 27  1  0  0  0  0
  4 28  1  0  0  0  0
  5  6  1  0  0  0  0
  5 29  1  0  0  0  0
  5 30  1  0  0  0  0
  6  7  1  0  0  0  0
  6 31  1  0  0  0  0
  7  8  2  0  0  0  0
  7  9  1  0  0  0  0
  9 10  1  0  0  0  0
 10 14  1  0  0  0  0
 10 11  2  0  0  0  0
 11 12  1  0  0  0  0
 12 13  2  0  0  0  0
 13 14  1  0  0  0  0
 13 32  1  0  0  0  0
 15 20  1  0  0  0  0
 15 16  1  0  0  0  0
 16 17  1  0  0  0  0
 16 33  1  0  0  0  0
 16 34  1  0  0  0  0
 17 18  1  0  0  0  0
 17 35  1  0  0  0  0
 17 36  1  0  0  0  0
 18 19  1  0  0  0  0
 19 20  1  0  0  0  0
 19 37  1  0  0  0  0
 19 38  1  0  0  0  0
 20 39  1  0  0  0  0
 20 40  1  0  0  0  0
M  CHG  1   9  -1
M  END
> <s_m_source_file>
AV-unprocessed.smi

> <i_m_source_file_index>
1412

> <i_lp_mmshare_version>
43012

> <i_f3d_flags>
0

> <s_epik_input>
W0NIMl0xW0NIMl1PW0NIMl1bQ0gyXU4xW0NAQF0oW0NIM10pKFtDSDJdW0NIM10pW0NIMl1bTkhdQyg9TylbTkhdYzJubltjSF1zMg==

> <s_epik_cmdline>
J2VwaWtfcHl0aG9uJywgJy1waCcsICc3LjAnLCAnLXRuJywgJzgnLCAnLW1hJywgJzIwMCcsICctbWV0YWxfYmluZGluZycsICctaW1hZScsICc8aW5maWxlLm1hZT4nLCAnLW9tYWUnLCAnPG91dGZpbGUubWFlPic=

> <r_lp_tautomer_probability>
1

> <r_epik_Ionization_Penalty>
4.84662

> <r_epik_Ionization_Penalty_Charging>
4.3852

> <r_epik_Ionization_Penalty_Neutral>
0.461421

> <r_epik_State_Penalty>
4.67356

> <r_epik_Charging_Adjusted_Penalty>
9.05877

> <i_epik_Tot_Q>
-1

> <i_epik_Tot_abs_Q>
1

> <r_epik_Metal_State_Penalty>
1.08474

> <b_epik_Metal_Only>
1

> <s_lp_Force_Field>
OPLS_2005

> <r_lp_Energy>
39.9544

> <b_lp_Chiralities_Consistent>
1

> <s_lp_Variant>
AV-unprocessed.smi:1412-6

> <Gold.Version>
5.8.1

> <Gold.Id.Protein>
6NUR|6NUR_protein|mol2

> <Gold.PLP.Fitness>
36.6302

> <Gold.PLP.PLP>
-27.7216

> <Gold.PLP.part.hbond>
-5.0000

> <Gold.PLP.part.metal>
0.0000

> <Gold.PLP.part.buried>
-4.2227

> <Gold.PLP.part.nonpolar>
-19.1050

> <Gold.PLP.part.repulsive>
0.1226

> <Gold.PLP.ligand.clash>
0.0000

> <Gold.PLP.ligand.torsion>
1.1867

> <Gold.PLP.Chemscore.Hbond>
3.6760

> <Gold.PLP.Chemscore.CHOScore>
0.0000

> <Gold.PLP.Chemscore.Metal>
0.0000

> <Gold.Chemscore.Hbonds>
donor molecule, donor type, donor heavy atom, donor atom, acceptor molecule, acceptor atom, score
      P1  H  6896  6909       L1     9  1.98
      P1  H  6931  6943       L1    11  0.47
      P1  H  6934  6947       L1    11  0.51

> <Gold.PLP.Chemscore.Internal.Correction>
0.2540

> <Gold.Rescore>
     Score         DG    S(hbond)    S(metal)    S(lipo)     H(rot)  DE(clash)    DE(int)     intcor
     11.38     -14.45       1.77        0.00      65.93       1.82       0.03       3.04       ----

> <Gold.Chemscore.Fitness>
11.3786

> <Gold.Chemscore.DG>
-14.4469

> <Gold.Chemscore.ZeroCoef>
-5.4800

> <Gold.Chemscore.Hbond>
1.7736

> <Gold.Chemscore.Metal>
0.0000

> <Gold.Chemscore.Lipo>
65.9269

> <Gold.Chemscore.Internal_Hbond>
0.0000

> <Gold.Chemscore.DEClash>
0.0309

> <Gold.Chemscore.DEInternal>
3.0374

> <Gold.Chemscore.Rot>
1.8243

> <Gold.Chemscore.Internal.Correction>
   9.000000E+99

> <Gold.Chemscore.Hbonds>
donor molecule, donor type, donor heavy atom, donor atom, acceptor molecule, acceptor atom, score
      P1  H  6896  6909       L1     9  0.64
      P1  H  6931  6943       L1    11  0.15
      P1  H  6934  6947       L1    11  0.06

> <Gold.Chemscore.Hbond.Weighted>
-5.9237

> <Gold.Chemscore.Metal.Weighted>
-0.0000

> <Gold.Chemscore.Lipo.Weighted>
-7.7135

> <Gold.Chemscore.Internal_Hbond.Weighted>
0.0000

> <Gold.Chemscore.DEClash.Weighted>
0.0309

> <Gold.Chemscore.DEInternal.Weighted>
3.0374

> <Gold.Chemscore.Rot.Weighted>
4.6702

> <Gold.Chemscore.Internal.Correction.Weighted>
   9.000000E+99

> <Gold.Protein.RotatedTorsions>
[ 6907 6896 6895 6894 ] final   58.63 input  -60.11 | X-H torsion
[ 7974 7965 7964 7962 ] final  -46.81 input  175.53 | X-H torsion
[ 8008 7997 7996 7995 ] final  120.43 input   59.86 | X-H torsion
[ 10167 10162 10161 10158 ] final   92.67 input  -65.29 | X-H torsion
[ 10718 10713 10712 10709 ] final   20.46 input   66.30 | X-H torsion
[ 10763 10752 10751 10750 ] final -124.65 input  -60.55 | X-H torsion
[ 11005 11000 10999 10996 ] final -140.84 input  -57.11 | X-H torsion

> <Gold.Protein.ActiveResidues>
 VAL166  LYS551  ARG553  GLY616  TRP617  ASP618  TYR619  PRO620  LYS621  CYS622 
 ASP623  PHE694  ASN695  SER759  ASP760  ASP761  ALA762  ILE779  LEU786  VAL792 
 PHE793  MET794  SER795  GLU796  ALA797  LYS798  CYS799  TRP800  GLU811  SER814 

> <Gold.Protein.RotatedAtoms>
  152.3841  134.6544  160.0131 H   0  0  0  0  0  0  0  0  0  0  0  0  # atno 6907 bound_to 6896
  151.6798  133.3306  159.3225 H   0  0  0  0  0  0  0  0  0  0  0  0  # atno 6908 bound_to 6896
  150.7771  134.6727  159.6445 H   0  0  0  0  0  0  0  0  0  0  0  0  # atno 6909 bound_to 6896
  145.9681  140.7411  142.9424 H   0  0  0  0  0  0  0  0  0  0  0  0  # atno 7974 bound_to 7965
  156.2642  140.2831  156.1148 H   0  0  0  0  0  0  0  0  0  0  0  0  # atno 8008 bound_to 7997
  155.1218  140.0392  157.2769 H   0  0  0  0  0  0  0  0  0  0  0  0  # atno 8009 bound_to 7997
  154.6664  140.2578  155.7059 H   0  0  0  0  0  0  0  0  0  0  0  0  # atno 8010 bound_to 7997
  139.8254  144.6712  150.9466 H   0  0  0  0  0  0  0  0  0  0  0  0  # atno 10167 bound_to 10162
  157.1248  130.6565  149.5934 H   0  0  0  0  0  0  0  0  0  0  0  0  # atno 10718 bound_to 10713
  154.8726  135.4056  154.3140 H   0  0  0  0  0  0  0  0  0  0  0  0  # atno 10763 bound_to 10752
  153.3979  135.7017  153.6453 H   0  0  0  0  0  0  0  0  0  0  0  0  # atno 10764 bound_to 10752
  153.5208  135.3687  155.2602 H   0  0  0  0  0  0  0  0  0  0  0  0  # atno 10765 bound_to 10752
  140.8383  134.2433  157.4823 H   0  0  0  0  0  0  0  0  0  0  0  0  # atno 11005 bound_to 11000
  144.6830  140.2703  143.7307 LP  0  0  0  0  0  0  0  0  0  0  0  0  # atno 17320 bound_to 7965
  145.7945  139.1940  143.2084 LP  0  0  0  0  0  0  0  0  0  0  0  0  # atno 17321 bound_to 7965
  140.7810  143.4051  151.1084 LP  0  0  0  0  0  0  0  0  0  0  0  0  # atno 17342 bound_to 10162
  139.7709  143.8496  152.3120 LP  0  0  0  0  0  0  0  0  0  0  0  0  # atno 17343 bound_to 10162
  155.9820  130.4832  150.6861 LP  0  0  0  0  0  0  0  0  0  0  0  0  # atno 17370 bound_to 10713
  157.4445  131.0865  151.0910 LP  0  0  0  0  0  0  0  0  0  0  0  0  # atno 17371 bound_to 10713
  139.8703  134.9622  156.4421 LP  0  0  0  0  0  0  0  0  0  0  0  0  # atno 17394 bound_to 11000
  140.8923  133.7839  155.9586 LP  0  0  0  0  0  0  0  0  0  0  0  0  # atno 17395 bound_to 11000

$$$$
