AV-unprocessed.smi:1244|AV-procd|sdf|5232|dock10
  -GOLD-   22720 4333D 1   1.00000     0.00000
 Structure written by MMmdl.
 56 58  0  0  0  0  0  0  0  0  3 V2000
  151.1577  139.7268  154.7361 C   0  0  0  0  0  0  0  0  0  0  0  0
  150.1995  138.5598  154.4725 C   0  0  1  0  0  0  0  0  0  0  0  0
  150.7256  137.2345  155.0544 C   0  0  0  0  0  0  0  0  0  0  0  0
  149.7388  136.1456  154.8485 N   0  3  1  0  0  0  0  0  0  0  0  0
  150.2037  134.8281  155.3494 C   0  0  0  0  0  0  0  0  0  0  0  0
  149.6312  133.6565  154.5287 C   0  0  0  0  0  0  0  0  0  0  0  0
  148.5214  134.0795  153.6819 N   0  0  0  0  0  0  0  0  0  0  0  0
  147.5533  133.2675  153.2335 C   0  0  0  0  0  0  0  0  0  0  0  0
  147.4765  132.0750  153.5293 O   0  0  0  0  0  0  0  0  0  0  0  0
  146.7070  133.9148  152.4150 N   0  0  0  0  0  0  0  0  0  0  0  0
  145.6136  133.3635  151.6890 C   0  0  0  0  0  0  0  0  0  0  0  0
  145.5390  131.9716  151.4258 C   0  0  0  0  0  0  0  0  0  0  0  0
  144.4597  131.4525  150.6862 C   0  0  0  0  0  0  0  0  0  0  0  0
  143.4671  132.3332  150.2235 C   0  0  0  0  0  0  0  0  0  0  0  0
  143.5558  133.6491  150.5075 N   0  3  0  0  0  0  0  0  0  0  0  0
  144.5616  134.2071  151.2267 C   0  0  0  0  0  0  0  0  0  0  0  0
  144.5163  135.6016  151.4520 N   0  0  0  0  0  0  0  0  0  0  0  0
  143.9254  136.1343  152.6742 C   0  0  0  0  0  0  0  0  0  0  0  0
  144.3630  137.5959  152.7198 C   0  0  0  0  0  0  0  0  0  0  0  0
  145.7609  137.5395  152.1103 C   0  0  0  0  0  0  0  0  0  0  0  0
  145.6583  136.4234  151.0652 C   0  0  0  0  0  0  0  0  0  0  0  0
  148.4227  136.5332  155.4087 C   0  0  0  0  0  0  0  0  0  0  0  0
  147.9575  137.8783  154.8181 C   0  0  1  0  0  0  0  0  0  0  0  0
  146.6365  138.3542  155.4324 C   0  0  0  0  0  0  0  0  0  0  0  0
  148.9478  138.8673  155.0763 O   0  0  0  0  0  0  0  0  0  0  0  0
  152.1359  139.5403  154.2920 H   0  0  0  0  0  0  0  0  0  0  0  0
  151.3006  139.8871  155.8052 H   0  0  0  0  0  0  0  0  0  0  0  0
  150.7711  140.6527  154.3096 H   0  0  0  0  0  0  0  0  0  0  0  0
  150.0639  138.4597  153.3939 H   0  0  0  0  0  0  0  0  0  0  0  0
  151.6729  136.9844  154.5779 H   0  0  0  0  0  0  0  0  0  0  0  0
  150.9257  137.3473  156.1215 H   0  0  0  0  0  0  0  0  0  0  0  0
  151.2945  134.8076  155.3620 H   0  0  0  0  0  0  0  0  0  0  0  0
  149.8825  134.7038  156.3848 H   0  0  0  0  0  0  0  0  0  0  0  0
  150.4080  133.2405  153.8866 H   0  0  0  0  0  0  0  0  0  0  0  0
  149.2951  132.8428  155.1722 H   0  0  0  0  0  0  0  0  0  0  0  0
  148.5100  135.0468  153.3923 H   0  0  0  0  0  0  0  0  0  0  0  0
  146.9494  134.8673  152.1850 H   0  0  0  0  0  0  0  0  0  0  0  0
  146.2966  131.2914  151.7853 H   0  0  0  0  0  0  0  0  0  0  0  0
  144.3971  130.3950  150.4753 H   0  0  0  0  0  0  0  0  0  0  0  0
  142.6070  132.0277  149.6454 H   0  0  0  0  0  0  0  0  0  0  0  0
  142.8392  136.0366  152.6670 H   0  0  0  0  0  0  0  0  0  0  0  0
  144.3140  135.6083  153.5473 H   0  0  0  0  0  0  0  0  0  0  0  0
  143.7077  138.2023  152.0931 H   0  0  0  0  0  0  0  0  0  0  0  0
  144.3512  138.0122  153.7274 H   0  0  0  0  0  0  0  0  0  0  0  0
  146.0782  138.4913  151.6835 H   0  0  0  0  0  0  0  0  0  0  0  0
  146.4830  137.2584  152.8783 H   0  0  0  0  0  0  0  0  0  0  0  0
  146.5817  135.8453  151.0102 H   0  0  0  0  0  0  0  0  0  0  0  0
  145.4647  136.8521  150.0817 H   0  0  0  0  0  0  0  0  0  0  0  0
  147.6856  135.7606  155.1848 H   0  0  0  0  0  0  0  0  0  0  0  0
  148.4956  136.6019  156.4957 H   0  0  0  0  0  0  0  0  0  0  0  0
  147.8223  137.7798  153.7394 H   0  0  0  0  0  0  0  0  0  0  0  0
  145.8360  137.6377  155.2465 H   0  0  0  0  0  0  0  0  0  0  0  0
  146.3311  139.3104  155.0067 H   0  0  0  0  0  0  0  0  0  0  0  0
  146.7256  138.4839  156.5113 H   0  0  0  0  0  0  0  0  0  0  0  0
  149.6044  136.0483  153.8521 H   0  0  0  0  0  0  0  0  0  0  0  0
  142.8150  134.2611  150.1648 H   0  0  0  0  0  0  0  0  0  0  0  0
  1  2  1  0  0  0  0
  1 26  1  0  0  0  0
  1 27  1  0  0  0  0
  1 28  1  0  0  0  0
  2 25  1  0  0  0  0
  2  3  1  0  0  0  0
  2 29  1  0  0  0  0
  3  4  1  0  0  0  0
  3 30  1  0  0  0  0
  3 31  1  0  0  0  0
  4  5  1  0  0  0  0
  4 22  1  0  0  0  0
  4 55  1  0  0  0  0
  5  6  1  0  0  0  0
  5 32  1  0  0  0  0
  5 33  1  0  0  0  0
  6  7  1  0  0  0  0
  6 34  1  0  0  0  0
  6 35  1  0  0  0  0
  7  8  1  0  0  0  0
  7 36  1  0  0  0  0
  8  9  2  0  0  0  0
  8 10  1  0  0  0  0
 10 11  1  0  0  0  0
 10 37  1  0  0  0  0
 11 16  1  0  0  0  0
 11 12  2  0  0  0  0
 12 13  1  0  0  0  0
 12 38  1  0  0  0  0
 13 14  2  0  0  0  0
 13 39  1  0  0  0  0
 14 15  1  0  0  0  0
 14 40  1  0  0  0  0
 15 16  2  0  0  0  0
 15 56  1  0  0  0  0
 16 17  1  0  0  0  0
 17 21  1  0  0  0  0
 17 18  1  0  0  0  0
 18 19  1  0  0  0  0
 18 41  1  0  0  0  0
 18 42  1  0  0  0  0
 19 20  1  0  0  0  0
 19 43  1  0  0  0  0
 19 44  1  0  0  0  0
 20 21  1  0  0  0  0
 20 45  1  0  0  0  0
 20 46  1  0  0  0  0
 21 47  1  0  0  0  0
 21 48  1  0  0  0  0
 22 23  1  0  0  0  0
 22 49  1  0  0  0  0
 22 50  1  0  0  0  0
 23 24  1  0  0  0  0
 23 25  1  0  0  0  0
 23 51  1  0  0  0  0
 24 52  1  0  0  0  0
 24 53  1  0  0  0  0
 24 54  1  0  0  0  0
M  CHG  1   4   1
M  CHG  1  15   1
M  END
> <s_m_source_file>
AV-unprocessed.smi

> <i_m_source_file_index>
1244

> <i_lp_mmshare_version>
43012

> <i_f3d_flags>
0

> <s_epik_input>
W0NIM11bQ0BASF0xW0NIMl1OKFtDSDJdW0NASF0oTzEpW0NIM10pW0NIMl1bQ0gyXVtOSF1DKD1PKVtOSF1jMltjSF1bY0hdW2NIXW5jMk4zW0NIMl1bQ0gyXVtDSDJdW0NIMl0z

> <s_epik_cmdline>
J2VwaWtfcHl0aG9uJywgJy1waCcsICc3LjAnLCAnLXRuJywgJzgnLCAnLW1hJywgJzIwMCcsICctbWV0YWxfYmluZGluZycsICctaW1hZScsICc8aW5maWxlLm1hZT4nLCAnLW9tYWUnLCAnPG91dGZpbGUubWFlPic=

> <r_lp_tautomer_probability>
0.999994

> <r_epik_Ionization_Penalty>
1.81601

> <r_epik_Ionization_Penalty_Charging>
1.81599

> <r_epik_Ionization_Penalty_Neutral>
2.01972e-05

> <r_epik_State_Penalty>
1.85672

> <r_epik_Charging_Adjusted_Penalty>
3.6727

> <i_epik_Tot_Q>
2

> <i_epik_Tot_abs_Q>
2

> <r_epik_Metal_State_Penalty>
1.93796

> <b_epik_Metal_Only>
0

> <s_lp_Force_Field>
OPLS_2005

> <r_lp_Energy>
51.4993

> <b_lp_Chiralities_Consistent>
1

> <s_lp_Variant>
AV-unprocessed.smi:1244-12

> <Gold.Version>
5.8.1

> <Gold.Id.Protein>
6NUR|6NUR_protein|mol2

> <Gold.PLP.Fitness>
50.9187

> <Gold.PLP.PLP>
-38.3981

> <Gold.PLP.part.hbond>
-3.4327

> <Gold.PLP.part.metal>
0.0000

> <Gold.PLP.part.buried>
-2.1974

> <Gold.PLP.part.nonpolar>
-33.8640

> <Gold.PLP.part.repulsive>
0.4382

> <Gold.PLP.ligand.clash>
0.0000

> <Gold.PLP.ligand.torsion>
1.3169

> <Gold.PLP.Chemscore.Hbond>
4.9123

> <Gold.PLP.Chemscore.CHOScore>
0.0000

> <Gold.PLP.Chemscore.Metal>
0.0000

> <Gold.Chemscore.Hbonds>
donor molecule, donor type, donor heavy atom, donor atom, acceptor molecule, acceptor atom, score
      L1  H     4    55       P1  7948  1.82
      L1  H     7    36       P1  7948  0.82
      L1  H    10    37       P1  7948  0.04
      L1  H    15    56       P1 10186  1.92

> <Gold.PLP.Chemscore.Internal.Correction>
0.4175

> <Gold.Rescore>
     Score         DG    S(hbond)    S(metal)    S(lipo)     H(rot)  DE(clash)    DE(int)     intcor
     15.27     -19.84       2.41        0.00      89.61       1.63       1.06       3.51       ----

> <Gold.Chemscore.Fitness>
15.2702

> <Gold.Chemscore.DG>
-19.8424

> <Gold.Chemscore.ZeroCoef>
-5.4800

> <Gold.Chemscore.Hbond>
2.4097

> <Gold.Chemscore.Metal>
0.0000

> <Gold.Chemscore.Lipo>
89.6135

> <Gold.Chemscore.Internal_Hbond>
0.0000

> <Gold.Chemscore.DEClash>
1.0648

> <Gold.Chemscore.DEInternal>
3.5074

> <Gold.Chemscore.Rot>
1.6293

> <Gold.Chemscore.Internal.Correction>
   9.000000E+99

> <Gold.Chemscore.Hbonds>
donor molecule, donor type, donor heavy atom, donor atom, acceptor molecule, acceptor atom, score
      L1  H     4    55       P1  7948  0.39
      L1  H     7    36       P1  7948  0.66
      L1  H    10    37       P1  7948  0.07
      L1  H    15    56       P1 10186  0.83

> <Gold.Chemscore.Hbond.Weighted>
-8.0485

> <Gold.Chemscore.Metal.Weighted>
-0.0000

> <Gold.Chemscore.Lipo.Weighted>
-10.4848

> <Gold.Chemscore.Internal_Hbond.Weighted>
0.0000

> <Gold.Chemscore.DEClash.Weighted>
1.0648

> <Gold.Chemscore.DEInternal.Weighted>
3.5074

> <Gold.Chemscore.Rot.Weighted>
4.1709

> <Gold.Chemscore.Internal.Correction.Weighted>
   9.000000E+99

> <Gold.Protein.RotatedTorsions>
[ 6907 6896 6895 6894 ] final  125.82 input  -60.11 | X-H torsion
[ 7974 7965 7964 7962 ] final -132.57 input  175.53 | X-H torsion
[ 8008 7997 7996 7995 ] final  -16.36 input   59.86 | X-H torsion
[ 10167 10162 10161 10158 ] final  -63.88 input  -65.29 | X-H torsion
[ 10718 10713 10712 10709 ] final  -41.40 input   66.30 | X-H torsion
[ 10763 10752 10751 10750 ] final  -17.96 input  -60.55 | X-H torsion
[ 11005 11000 10999 10996 ] final -157.23 input  -57.11 | X-H torsion

> <Gold.Protein.ActiveResidues>
 VAL166  LYS551  ARG553  GLY616  TRP617  ASP618  TYR619  PRO620  LYS621  CYS622 
 ASP623  PHE694  ASN695  SER759  ASP760  ASP761  ALA762  ILE779  LEU786  VAL792 
 PHE793  MET794  SER795  GLU796  ALA797  LYS798  CYS799  TRP800  GLU811  SER814 

> <Gold.Protein.RotatedAtoms>
  152.3958  133.6745  159.6275 H   0  0  0  0  0  0  0  0  0  0  0  0  # atno 6907 bound_to 6896
  150.7858  133.8876  159.3312 H   0  0  0  0  0  0  0  0  0  0  0  0  # atno 6908 bound_to 6896
  151.6652  135.0985  160.0239 H   0  0  0  0  0  0  0  0  0  0  0  0  # atno 6909 bound_to 6896
  144.9274  140.7087  143.4927 H   0  0  0  0  0  0  0  0  0  0  0  0  # atno 7974 bound_to 7965
  154.5059  140.2171  155.9253 H   0  0  0  0  0  0  0  0  0  0  0  0  # atno 8008 bound_to 7997
  156.1493  140.3164  155.8588 H   0  0  0  0  0  0  0  0  0  0  0  0  # atno 8009 bound_to 7997
  155.3971  140.0482  157.3029 H   0  0  0  0  0  0  0  0  0  0  0  0  # atno 8010 bound_to 7997
  140.5840  143.2331  151.6282 H   0  0  0  0  0  0  0  0  0  0  0  0  # atno 10167 bound_to 10162
  156.2708  130.4206  149.8440 H   0  0  0  0  0  0  0  0  0  0  0  0  # atno 10718 bound_to 10713
  153.5819  135.7005  153.5459 H   0  0  0  0  0  0  0  0  0  0  0  0  # atno 10763 bound_to 10752
  153.3253  135.4062  155.1450 H   0  0  0  0  0  0  0  0  0  0  0  0  # atno 10764 bound_to 10752
  154.8616  135.3705  154.5347 H   0  0  0  0  0  0  0  0  0  0  0  0  # atno 10765 bound_to 10752
  140.6668  134.4290  157.5233 H   0  0  0  0  0  0  0  0  0  0  0  0  # atno 11005 bound_to 11000
  145.3198  139.1792  143.4594 LP  0  0  0  0  0  0  0  0  0  0  0  0  # atno 17320 bound_to 7965
  146.3232  140.3213  142.8633 LP  0  0  0  0  0  0  0  0  0  0  0  0  # atno 17321 bound_to 7965
  139.5186  144.3278  152.0853 LP  0  0  0  0  0  0  0  0  0  0  0  0  # atno 17342 bound_to 10162
  140.2432  144.4247  150.6251 LP  0  0  0  0  0  0  0  0  0  0  0  0  # atno 17343 bound_to 10162
  156.5922  130.8511  151.3411 LP  0  0  0  0  0  0  0  0  0  0  0  0  # atno 17370 bound_to 10713
  157.7283  130.9655  150.1737 LP  0  0  0  0  0  0  0  0  0  0  0  0  # atno 17371 bound_to 10713
  139.8994  134.8591  156.1960 LP  0  0  0  0  0  0  0  0  0  0  0  0  # atno 17394 bound_to 11000
  141.0423  133.6931  156.1619 LP  0  0  0  0  0  0  0  0  0  0  0  0  # atno 17395 bound_to 11000

$$$$
