#       Name:                AV-unprocessed.smi:2112
#       Creating user name   scv26
#       Creation time:       Fri Mar 27 11:35:48 2020


#       File generated by GOLD software.
#

@<TRIPOS>MOLECULE
AV-unprocessed.smi:2112
    44    45     1
SMALL
NO_CHARGES


@<TRIPOS>ATOM
      1 ****        -3.7771   3.6428   0.2738 C.3            1 S1                 0.0000
      2 ****        -3.5928   3.8947   1.7804 C.3            1 S1                 0.0000
      3 ****        -4.0451   5.3164   2.1461 C.3            1 S1                 0.0000
      4 ****        -2.1457   3.6474   2.2554 C.3            1 S1                 0.0000
      5 ****        -1.7260   2.2613   2.0653 N.am           1 S1                 0.0000
      6 ****        -0.9053   1.8196   1.1011 C.2            1 S1                 0.0000
      7 ****        -0.4180   2.5475   0.2367 O.2            1 S1                 0.0000
      8 ****        -0.7153   0.4926   1.1989 N.am           1 S1                 0.0000
      9 ****         0.1107  -0.3496   0.4058 C.ar           1 S1                 0.0000
     10 ****         1.1779   0.1057  -0.4029 C.ar           1 S1                 0.0000
     11 ****         1.9389  -0.8356  -1.1222 C.ar           1 S1                 0.0000
     12 ****         1.6237  -2.2102  -1.0094 C.ar           1 S1                 0.0000
     13 ****         2.3630  -3.1822  -1.7124 N.pl3          1 S1                 0.0000
     14 ****         3.7225  -2.9217  -2.1672 C.3            1 S1                 0.0000
     15 ****         4.4125  -4.2898  -2.2172 C.3            1 S1                 0.0000
     16 ****         3.2570  -5.2865  -2.3032 C.3            1 S1                 0.0000
     17 ****         2.1553  -4.6057  -1.4931 C.3            1 S1                 0.0000
     18 ****         0.6021  -2.6438  -0.2335 N.ar           1 S1                 0.0000
     19 ****        -0.1236  -1.7379   0.4545 C.ar           1 S1                 0.0000
     20 ****        -3.1157   4.2775  -0.3165 H              1 S1                 0.0000
     21 ****        -4.8014   3.8511  -0.0360 H              1 S1                 0.0000
     22 ****        -3.5671   2.6062   0.0103 H              1 S1                 0.0000
     23 ****        -4.2444   3.2003   2.3126 H              1 S1                 0.0000
     24 ****        -3.4295   6.0680   1.6508 H              1 S1                 0.0000
     25 ****        -3.9775   5.4866   3.2210 H              1 S1                 0.0000
     26 ****        -5.0809   5.4886   1.8522 H              1 S1                 0.0000
     27 ****        -1.4608   4.3385   1.7607 H              1 S1                 0.0000
     28 ****        -2.0700   3.8628   3.3217 H              1 S1                 0.0000
     29 ****        -2.0849   1.5873   2.7256 H              1 S1                 0.0000
     30 ****        -1.2530   0.0202   1.9108 H              1 S1                 0.0000
     31 ****         1.4392   1.1494  -0.4780 H              1 S1                 0.0000
     32 ****         2.7489  -0.4909  -1.7473 H              1 S1                 0.0000
     33 ****         3.6814  -2.4726  -3.1601 H              1 S1                 0.0000
     34 ****         4.2577  -2.2412  -1.5038 H              1 S1                 0.0000
     35 ****         5.1154  -4.3796  -3.0457 H              1 S1                 0.0000
     36 ****         4.9646  -4.4538  -1.2907 H              1 S1                 0.0000
     37 ****         2.9405  -5.3948  -3.3415 H              1 S1                 0.0000
     38 ****         3.5147  -6.2753  -1.9228 H              1 S1                 0.0000
     39 ****         2.2647  -4.8316  -0.4314 H              1 S1                 0.0000
     40 ****         1.1626  -4.9228  -1.8144 H              1 S1                 0.0000
     41 ****        -0.9203  -2.1382   1.0642 H              1 S1                 0.0000
     42 ****        -0.6285   3.5250   0.2294 LP             1 S1                 0.0000
     43 ****         0.1886   2.1614  -0.4583 LP             1 S1                 0.0000
     44 ****         0.3891  -3.6189  -0.1714 LP             1 S1                 0.0000
@<TRIPOS>BOND
    1    1    2 1     
    2    1   20 1     
    3    1   21 1     
    4    1   22 1     
    5    2    3 1     
    6    2    4 1     
    7    2   23 1     
    8    3   24 1     
    9    3   25 1     
   10    3   26 1     
   11    4    5 1     
   12    4   27 1     
   13    4   28 1     
   14    5    6 am    
   15    5   29 1     
   16    6    7 2     
   17    6    8 am    
   18    8    9 1     
   19    8   30 1     
   20    9   19 ar    
   21    9   10 ar    
   22   10   11 ar    
   23   10   31 1     
   24   11   12 ar    
   25   11   32 1     
   26   12   13 1     
   27   12   18 ar    
   28   13   17 1     
   29   13   14 1     
   30   14   15 1     
   31   14   33 1     
   32   14   34 1     
   33   15   16 1     
   34   15   35 1     
   35   15   36 1     
   36   16   17 1     
   37   16   37 1     
   38   16   38 1     
   39   17   39 1     
   40   17   40 1     
   41   18   19 ar    
   42   19   41 1     
   43    7   42 1     
   44    7   43 1     
   45   18   44 1     
@<TRIPOS>SUBSTRUCTURE
      1 S1             1
@<TRIPOS>SET
LONE_PAIRS      STATIC     ATOMS    <user>   **** ""
3 42 43 44
DONOR_HYDROGENS      STATIC     ATOMS    <user>   **** ""
2 29 30
ATOM$BLUE        STATIC     ATOMS    COLORGROUP SYSTEM
3 42 43 44
ATOM$RED        STATIC     ATOMS    COLORGROUP SYSTEM
2 29 30
