AV-unprocessed.smi:2165|AV-procd|sdf|8812|dock4
  -GOLD-   2272012 03D 1   1.00000     0.00000
 Structure written by MMmdl.
 36 37  0  0  0  0  0  0  0  0  1 V2000
  151.1982  141.7221  156.6523 C   0  0  0  0  0  0  0  0  0  0  0  0
  150.8760  140.6026  155.7924 N   0  0  0  0  0  0  0  0  0  0  0  0
  151.8319  139.5742  155.6076 C   0  0  0  0  0  0  0  0  0  0  0  0
  152.9377  139.5890  156.1492 O   0  0  0  0  0  0  0  0  0  0  0  0
  151.3987  138.5017  154.7195 C   0  0  0  0  0  0  0  0  0  0  0  0
  150.1788  138.5297  154.1393 C   0  0  0  0  0  0  0  0  0  0  0  0
  149.2655  139.5500  154.3334 N   0  0  0  0  0  0  0  0  0  0  0  0
  147.9569  139.4959  153.6695 C   0  0  0  0  0  0  0  0  0  0  0  0
  147.0551  138.3914  154.2353 C   0  0  0  0  0  0  0  0  0  0  0  0
  146.5671  138.4988  155.3612 O   0  0  0  0  0  0  0  0  0  0  0  0
  146.8538  137.3276  153.4437 N   0  0  0  0  0  0  0  0  0  0  0  0
  145.9987  136.1918  153.7666 C   0  0  0  0  0  0  0  0  0  0  0  0
  145.7791  135.2881  152.5416 C   0  0  2  0  0  0  0  0  0  0  0  0
  145.2219  136.0180  151.3213 C   0  0  0  0  0  0  0  0  0  0  0  0
  144.5014  134.9226  150.5486 C   0  0  0  0  0  0  0  0  0  0  0  0
  144.4006  133.7640  151.5453 C   0  0  0  0  0  0  0  0  0  0  0  0
  144.7728  134.3215  152.7973 O   0  0  0  0  0  0  0  0  0  0  0  0
  149.6048  140.6287  155.1785 C   0  0  0  0  0  0  0  0  0  0  0  0
  148.8126  141.5560  155.3660 O   0  0  0  0  0  0  0  0  0  0  0  0
  152.1572  141.5787  157.1488 H   0  0  0  0  0  0  0  0  0  0  0  0
  150.4099  141.7947  157.4037 H   0  0  0  0  0  0  0  0  0  0  0  0
  151.2295  142.6118  156.0209 H   0  0  0  0  0  0  0  0  0  0  0  0
  152.0640  137.6735  154.5244 H   0  0  0  0  0  0  0  0  0  0  0  0
  149.9049  137.7091  153.4921 H   0  0  0  0  0  0  0  0  0  0  0  0
  147.4610  140.4653  153.7493 H   0  0  0  0  0  0  0  0  0  0  0  0
  148.0842  139.3165  152.6012 H   0  0  0  0  0  0  0  0  0  0  0  0
  147.2953  137.3209  152.5356 H   0  0  0  0  0  0  0  0  0  0  0  0
  146.4682  135.6265  154.5723 H   0  0  0  0  0  0  0  0  0  0  0  0
  145.0417  136.5472  154.1517 H   0  0  0  0  0  0  0  0  0  0  0  0
  146.7031  134.7747  152.2680 H   0  0  0  0  0  0  0  0  0  0  0  0
  144.5030  136.7781  151.6305 H   0  0  0  0  0  0  0  0  0  0  0  0
  145.9996  136.5100  150.7366 H   0  0  0  0  0  0  0  0  0  0  0  0
  143.5168  135.2609  150.2238 H   0  0  0  0  0  0  0  0  0  0  0  0
  145.0619  134.6206  149.6631 H   0  0  0  0  0  0  0  0  0  0  0  0
  143.4013  133.3308  151.5876 H   0  0  0  0  0  0  0  0  0  0  0  0
  145.1038  132.9719  151.2842 H   0  0  0  0  0  0  0  0  0  0  0  0
  1  2  1  0  0  0  0
  1 20  1  0  0  0  0
  1 21  1  0  0  0  0
  1 22  1  0  0  0  0
  2 18  1  0  0  0  0
  2  3  1  0  0  0  0
  3  4  2  0  0  0  0
  3  5  1  0  0  0  0
  5  6  2  0  0  0  0
  5 23  1  0  0  0  0
  6  7  1  0  0  0  0
  6 24  1  0  0  0  0
  7  8  1  0  0  0  0
  7 18  1  0  0  0  0
  8  9  1  0  0  0  0
  8 25  1  0  0  0  0
  8 26  1  0  0  0  0
  9 10  2  0  0  0  0
  9 11  1  0  0  0  0
 11 12  1  0  0  0  0
 11 27  1  0  0  0  0
 12 13  1  0  0  0  0
 12 28  1  0  0  0  0
 12 29  1  0  0  0  0
 13 17  1  0  0  0  0
 13 14  1  0  0  0  0
 13 30  1  0  0  0  0
 14 15  1  0  0  0  0
 14 31  1  0  0  0  0
 14 32  1  0  0  0  0
 15 16  1  0  0  0  0
 15 33  1  0  0  0  0
 15 34  1  0  0  0  0
 16 17  1  0  0  0  0
 16 35  1  0  0  0  0
 16 36  1  0  0  0  0
 18 19  2  0  0  0  0
M  END
> <s_m_source_file>
AV-unprocessed.smi

> <i_m_source_file_index>
2165

> <i_lp_mmshare_version>
43012

> <i_f3d_flags>
0

> <s_epik_input>
W0NIM11uMWMoPU8pW2NIXVtjSF1uKGMxPU8pW0NIMl1DKD1PKVtOSF1bQ0gyXVtDQEBIXTJbQ0gyXVtDSDJdW0NIMl1PMg==

> <s_epik_cmdline>
J2VwaWtfcHl0aG9uJywgJy1waCcsICc3LjAnLCAnLXRuJywgJzgnLCAnLW1hJywgJzIwMCcsICctbWV0YWxfYmluZGluZycsICctaW1hZScsICc8aW5maWxlLm1hZT4nLCAnLW9tYWUnLCAnPG91dGZpbGUubWFlPic=

> <r_lp_tautomer_probability>
1

> <r_epik_Ionization_Penalty>
3.89869e-08

> <r_epik_Ionization_Penalty_Charging>
1.21279e-08

> <r_epik_Ionization_Penalty_Neutral>
2.6859e-08

> <r_epik_State_Penalty>
-0

> <r_epik_Charging_Adjusted_Penalty>
1.21279e-08

> <i_epik_Tot_Q>
0

> <i_epik_Tot_abs_Q>
0

> <r_epik_Metal_State_Penalty>
-0

> <b_epik_Metal_Only>
0

> <s_lp_Force_Field>
OPLS_2005

> <r_lp_Energy>
24.9398

> <b_lp_Chiralities_Consistent>
1

> <s_lp_Variant>
AV-unprocessed.smi:2165-1

> <Gold.Version>
5.8.1

> <Gold.Id.Protein>
6NUR|6NUR_protein|mol2

> <Gold.PLP.Fitness>
39.3462

> <Gold.PLP.PLP>
-32.0772

> <Gold.PLP.part.hbond>
-1.9071

> <Gold.PLP.part.metal>
0.0000

> <Gold.PLP.part.buried>
-2.2378

> <Gold.PLP.part.nonpolar>
-27.9787

> <Gold.PLP.part.repulsive>
0.2370

> <Gold.PLP.ligand.clash>
0.0000

> <Gold.PLP.ligand.torsion>
0.2934

> <Gold.PLP.Chemscore.Hbond>
1.6080

> <Gold.PLP.Chemscore.CHOScore>
1.0044

> <Gold.PLP.Chemscore.Metal>
0.0000

> <Gold.Chemscore.Hbonds>
donor molecule, donor type, donor heavy atom, donor atom, acceptor molecule, acceptor atom, score
      L1  H    11    27       P1  7948  0.52
      P1  H  7997  8010       L1     4  1.00
      L1  C     6    24       P1  7948  1.00

> <Gold.PLP.Chemscore.Internal.Correction>
0.0187

> <Gold.Rescore>
     Score         DG    S(hbond)    S(metal)    S(lipo)     H(rot)  DE(clash)    DE(int)     intcor
     11.95     -12.27       1.65        0.00      51.78       1.87       0.07       0.25       ----

> <Gold.Chemscore.Fitness>
11.9531

> <Gold.Chemscore.DG>
-12.2704

> <Gold.Chemscore.ZeroCoef>
-5.4800

> <Gold.Chemscore.Hbond>
1.6510

> <Gold.Chemscore.Metal>
0.0000

> <Gold.Chemscore.Lipo>
51.7793

> <Gold.Chemscore.Internal_Hbond>
0.0000

> <Gold.Chemscore.DEClash>
0.0673

> <Gold.Chemscore.DEInternal>
0.2500

> <Gold.Chemscore.Rot>
1.8681

> <Gold.Chemscore.Internal.Correction>
   9.000000E+99

> <Gold.Chemscore.Hbonds>
donor molecule, donor type, donor heavy atom, donor atom, acceptor molecule, acceptor atom, score
      L1  H    11    27       P1  7948  0.52
      P1  H  7997  8010       L1     4  0.94

> <Gold.Chemscore.Hbond.Weighted>
-5.5144

> <Gold.Chemscore.Metal.Weighted>
-0.0000

> <Gold.Chemscore.Lipo.Weighted>
-6.0582

> <Gold.Chemscore.Internal_Hbond.Weighted>
0.0000

> <Gold.Chemscore.DEClash.Weighted>
0.0673

> <Gold.Chemscore.DEInternal.Weighted>
0.2500

> <Gold.Chemscore.Rot.Weighted>
4.7822

> <Gold.Chemscore.Internal.Correction.Weighted>
   9.000000E+99

> <Gold.Protein.RotatedTorsions>
[ 6907 6896 6895 6894 ] final  137.00 input  -60.11 | X-H torsion
[ 7974 7965 7964 7962 ] final   92.94 input  175.53 | X-H torsion
[ 8008 7997 7996 7995 ] final   92.14 input   59.86 | X-H torsion
[ 10167 10162 10161 10158 ] final -106.93 input  -65.29 | X-H torsion
[ 10718 10713 10712 10709 ] final  -49.96 input   66.30 | X-H torsion
[ 10763 10752 10751 10750 ] final  100.49 input  -60.55 | X-H torsion
[ 11005 11000 10999 10996 ] final  -98.68 input  -57.11 | X-H torsion

> <Gold.Protein.ActiveResidues>
 VAL166  LYS551  ARG553  GLY616  TRP617  ASP618  TYR619  PRO620  LYS621  CYS622 
 ASP623  PHE694  ASN695  SER759  ASP760  ASP761  ALA762  ILE779  LEU786  VAL792 
 PHE793  MET794  SER795  GLU796  ALA797  LYS798  CYS799  TRP800  GLU811  SER814 

> <Gold.Protein.RotatedAtoms>
  152.2831  133.5489  159.5509 H   0  0  0  0  0  0  0  0  0  0  0  0  # atno 6907 bound_to 6896
  150.7204  134.0536  159.3816 H   0  0  0  0  0  0  0  0  0  0  0  0  # atno 6908 bound_to 6896
  151.8446  135.0579  160.0503 H   0  0  0  0  0  0  0  0  0  0  0  0  # atno 6909 bound_to 6896
  145.4856  139.2277  143.2858 H   0  0  0  0  0  0  0  0  0  0  0  0  # atno 7974 bound_to 7965
  156.0319  140.3329  155.7149 H   0  0  0  0  0  0  0  0  0  0  0  0  # atno 8008 bound_to 7997
  155.5872  140.0642  157.2785 H   0  0  0  0  0  0  0  0  0  0  0  0  # atno 8009 bound_to 7997
  154.4356  140.1833  156.1026 H   0  0  0  0  0  0  0  0  0  0  0  0  # atno 8010 bound_to 7997
  140.1824  143.3956  152.1271 H   0  0  0  0  0  0  0  0  0  0  0  0  # atno 10167 bound_to 10162
  156.1845  130.4151  149.9459 H   0  0  0  0  0  0  0  0  0  0  0  0  # atno 10718 bound_to 10713
  153.3146  135.4077  155.1365 H   0  0  0  0  0  0  0  0  0  0  0  0  # atno 10763 bound_to 10752
  154.8585  135.3573  154.5678 H   0  0  0  0  0  0  0  0  0  0  0  0  # atno 10764 bound_to 10752
  153.6108  135.7068  153.5406 H   0  0  0  0  0  0  0  0  0  0  0  0  # atno 10765 bound_to 10752
  141.1336  133.8263  157.0871 H   0  0  0  0  0  0  0  0  0  0  0  0  # atno 11005 bound_to 11000
  146.2315  140.5646  142.8973 LP  0  0  0  0  0  0  0  0  0  0  0  0  # atno 17320 bound_to 7965
  144.7863  140.5944  143.6571 LP  0  0  0  0  0  0  0  0  0  0  0  0  # atno 17321 bound_to 7965
  139.5290  144.7137  151.5123 LP  0  0  0  0  0  0  0  0  0  0  0  0  # atno 17342 bound_to 10162
  140.6510  143.8696  150.6786 LP  0  0  0  0  0  0  0  0  0  0  0  0  # atno 17343 bound_to 10162
  156.7219  130.9010  151.3619 LP  0  0  0  0  0  0  0  0  0  0  0  0  # atno 17370 bound_to 10713
  157.6890  130.9214  150.0462 LP  0  0  0  0  0  0  0  0  0  0  0  0  # atno 17371 bound_to 10713
  140.0415  134.9852  157.0971 LP  0  0  0  0  0  0  0  0  0  0  0  0  # atno 17394 bound_to 11000
  140.4128  134.1963  155.7163 LP  0  0  0  0  0  0  0  0  0  0  0  0  # atno 17395 bound_to 11000

$$$$
