AV-unprocessed.smi:1875|AV-procd|sdf|7612|dock5
  -GOLD-   22720 9333D 1   1.00000     0.00000
 Structure written by MMmdl.
 48 50  0  0  0  0  0  0  0  0  2 V2000
  155.2772  143.5625  165.2030 C   0  0  0  0  0  0  0  0  0  0  0  0
  155.4274  142.4155  166.1807 C   0  0  0  0  0  0  0  0  0  0  0  0
  155.4136  142.7253  167.4807 N   0  0  0  0  0  0  0  0  0  0  0  0
  155.5402  141.7040  168.3555 C   0  0  0  0  0  0  0  0  0  0  0  0
  155.6806  140.3698  167.9222 C   0  0  0  0  0  0  0  0  0  0  0  0
  155.6757  140.1653  166.5264 C   0  0  0  0  0  0  0  0  0  0  0  0
  155.8377  138.7833  165.9298 C   0  0  0  0  0  0  0  0  0  0  0  0
  155.6490  138.8352  164.4685 N   0  3  0  0  0  0  0  0  0  0  0  0
  154.9713  137.6521  163.9027 C   0  0  0  0  0  0  0  0  0  0  0  0
  154.3324  137.9770  162.5428 C   0  0  2  0  0  0  0  0  0  0  0  0
  154.2152  136.7807  161.7959 O   0  0  0  0  0  0  0  0  0  0  0  0
  155.1587  139.0039  161.7447 C   0  0  0  0  0  0  0  0  0  0  0  0
  154.3831  139.6464  160.6988 N   0  0  0  0  0  0  0  0  0  0  0  0
  154.1244  139.1605  159.4695 C   0  0  0  0  0  0  0  0  0  0  0  0
  153.3908  139.9156  158.6579 N   0  0  0  0  0  0  0  0  0  0  0  0
  153.1432  141.0212  159.4533 C   0  0  0  0  0  0  0  0  0  0  0  0
  152.4149  142.2001  159.1828 C   0  0  0  0  0  0  0  0  0  0  0  0
  152.2917  143.2157  160.1575 C   0  0  0  0  0  0  0  0  0  0  0  0
  151.5011  144.4682  159.8224 C   0  0  0  0  0  0  0  0  0  0  0  0
  152.9021  143.0591  161.4280 C   0  0  0  0  0  0  0  0  0  0  0  0
  152.7817  144.1367  162.4909 C   0  0  0  0  0  0  0  0  0  0  0  0
  153.6335  141.8875  161.7150 C   0  0  0  0  0  0  0  0  0  0  0  0
  153.7494  140.8842  160.7365 C   0  0  0  0  0  0  0  0  0  0  0  0
  155.5532  141.1921  165.6562 N   0  0  0  0  0  0  0  0  0  0  0  0
  155.5784  144.5084  165.6552 H   0  0  0  0  0  0  0  0  0  0  0  0
  154.2380  143.6502  164.8856 H   0  0  0  0  0  0  0  0  0  0  0  0
  155.8942  143.4019  164.3182 H   0  0  0  0  0  0  0  0  0  0  0  0
  155.5323  141.9523  169.4066 H   0  0  0  0  0  0  0  0  0  0  0  0
  155.7837  139.5554  168.6242 H   0  0  0  0  0  0  0  0  0  0  0  0
  156.8302  138.3947  166.1619 H   0  0  0  0  0  0  0  0  0  0  0  0
  155.1097  138.1031  166.3748 H   0  0  0  0  0  0  0  0  0  0  0  0
  155.0996  139.6546  164.2496 H   0  0  0  0  0  0  0  0  0  0  0  0
  155.7118  136.8603  163.7817 H   0  0  0  0  0  0  0  0  0  0  0  0
  154.2199  137.2825  164.6023 H   0  0  0  0  0  0  0  0  0  0  0  0
  153.3304  138.3783  162.7027 H   0  0  0  0  0  0  0  0  0  0  0  0
  154.2912  136.0450  162.3846 H   0  0  0  0  0  0  0  0  0  0  0  0
  155.5369  139.7808  162.4106 H   0  0  0  0  0  0  0  0  0  0  0  0
  156.0316  138.5300  161.2940 H   0  0  0  0  0  0  0  0  0  0  0  0
  154.4981  138.1980  159.1516 H   0  0  0  0  0  0  0  0  0  0  0  0
  151.9495  142.3187  158.2152 H   0  0  0  0  0  0  0  0  0  0  0  0
  152.1295  145.3540  159.9179 H   0  0  0  0  0  0  0  0  0  0  0  0
  150.6486  144.5731  160.4941 H   0  0  0  0  0  0  0  0  0  0  0  0
  151.1208  144.4374  158.8009 H   0  0  0  0  0  0  0  0  0  0  0  0
  153.2964  143.8505  163.4087 H   0  0  0  0  0  0  0  0  0  0  0  0
  151.7347  144.3153  162.7368 H   0  0  0  0  0  0  0  0  0  0  0  0
  153.2197  145.0708  162.1389 H   0  0  0  0  0  0  0  0  0  0  0  0
  154.1042  141.7576  162.6780 H   0  0  0  0  0  0  0  0  0  0  0  0
  156.5544  138.9313  164.0316 H   0  0  0  0  0  0  0  0  0  0  0  0
  1  2  1  0  0  0  0
  1 25  1  0  0  0  0
  1 26  1  0  0  0  0
  1 27  1  0  0  0  0
  2 24  1  0  0  0  0
  2  3  2  0  0  0  0
  3  4  1  0  0  0  0
  4  5  2  0  0  0  0
  4 28  1  0  0  0  0
  5  6  1  0  0  0  0
  5 29  1  0  0  0  0
  6  7  1  0  0  0  0
  6 24  2  0  0  0  0
  7  8  1  0  0  0  0
  7 30  1  0  0  0  0
  7 31  1  0  0  0  0
  8  9  1  0  0  0  0
  8 32  1  0  0  0  0
  8 48  1  0  0  0  0
  9 10  1  0  0  0  0
  9 33  1  0  0  0  0
  9 34  1  0  0  0  0
 10 11  1  0  0  0  0
 10 12  1  0  0  0  0
 10 35  1  0  0  0  0
 11 36  1  0  0  0  0
 12 13  1  0  0  0  0
 12 37  1  0  0  0  0
 12 38  1  0  0  0  0
 13 23  1  0  0  0  0
 13 14  1  0  0  0  0
 14 15  2  0  0  0  0
 14 39  1  0  0  0  0
 15 16  1  0  0  0  0
 16 23  2  0  0  0  0
 16 17  1  0  0  0  0
 17 18  2  0  0  0  0
 17 40  1  0  0  0  0
 18 19  1  0  0  0  0
 18 20  1  0  0  0  0
 19 41  1  0  0  0  0
 19 42  1  0  0  0  0
 19 43  1  0  0  0  0
 20 21  1  0  0  0  0
 20 22  2  0  0  0  0
 21 44  1  0  0  0  0
 21 45  1  0  0  0  0
 21 46  1  0  0  0  0
 22 23  1  0  0  0  0
 22 47  1  0  0  0  0
M  CHG  1   8   1
M  END
> <s_m_source_file>
AV-unprocessed.smi

> <i_m_source_file_index>
1875

> <i_lp_mmshare_version>
43012

> <i_f3d_flags>
0

> <s_epik_input>
W0NIM11jMW5bY0hdW2NIXWMobjEpW0NIMl1bTkhdW0NIMl1bQ0BIXShbT0hdKVtDSDJdbihbY0hdbjIpYyhjMjMpW2NIXWMoW0NIM10pYyhbY0hdMylbQ0gzXQ==

> <s_epik_cmdline>
J2VwaWtfcHl0aG9uJywgJy1waCcsICc3LjAnLCAnLXRuJywgJzgnLCAnLW1hJywgJzIwMCcsICctbWV0YWxfYmluZGluZycsICctaW1hZScsICc8aW5maWxlLm1hZT4nLCAnLW9tYWUnLCAnPG91dGZpbGUubWFlPic=

> <r_lp_tautomer_probability>
1

> <r_epik_Ionization_Penalty>
0.192455

> <r_epik_Ionization_Penalty_Charging>
0.102343

> <r_epik_Ionization_Penalty_Neutral>
0.0901122

> <r_epik_State_Penalty>
0.175389

> <r_epik_Charging_Adjusted_Penalty>
0.277732

> <i_epik_Tot_Q>
1

> <i_epik_Tot_abs_Q>
1

> <r_epik_Metal_State_Penalty>
0.167659

> <b_epik_Metal_Only>
0

> <s_epik_Chemistry_Notes>
This compound contains an electron-poor aromatic ring that is susceptible to covalent hydrolysis at low pH, typically resulting in measured values for nitrogen ring protonation that are around two units higher than predicted values.

> <s_lp_Force_Field>
OPLS_2005

> <r_lp_Energy>
2.18652

> <b_lp_Chiralities_Consistent>
1

> <s_lp_Variant>
AV-unprocessed.smi:1875-1

> <Gold.Version>
5.8.1

> <Gold.Id.Protein>
6NUR|6NUR_protein|mol2

> <Gold.PLP.Fitness>
52.0852

> <Gold.PLP.PLP>
-51.2994

> <Gold.PLP.part.hbond>
-1.0000

> <Gold.PLP.part.metal>
0.0000

> <Gold.PLP.part.buried>
-7.9807

> <Gold.PLP.part.nonpolar>
-42.4523

> <Gold.PLP.part.repulsive>
0.0740

> <Gold.PLP.ligand.clash>
0.0000

> <Gold.PLP.ligand.torsion>
1.1672

> <Gold.PLP.Chemscore.Hbond>
1.0000

> <Gold.PLP.Chemscore.CHOScore>
0.0000

> <Gold.PLP.Chemscore.Metal>
0.0000

> <Gold.Chemscore.Hbonds>
donor molecule, donor type, donor heavy atom, donor atom, acceptor molecule, acceptor atom, score
      P1  H  7997  8008       L1    15  0.95

> <Gold.PLP.Chemscore.Internal.Correction>
0.1203

> <Gold.Rescore>
     Score         DG    S(hbond)    S(metal)    S(lipo)     H(rot)  DE(clash)    DE(int)     intcor
     12.94     -14.25       0.00        0.00     136.28       2.80       0.07       1.23       ----

> <Gold.Chemscore.Fitness>
12.9445

> <Gold.Chemscore.DG>
-14.2452

> <Gold.Chemscore.ZeroCoef>
-5.4800

> <Gold.Chemscore.Hbond>
0.0000

> <Gold.Chemscore.Metal>
0.0000

> <Gold.Chemscore.Lipo>
136.2841

> <Gold.Chemscore.Internal_Hbond>
0.0000

> <Gold.Chemscore.DEClash>
0.0658

> <Gold.Chemscore.DEInternal>
1.2349

> <Gold.Chemscore.Rot>
2.8047

> <Gold.Chemscore.Internal.Correction>
   9.000000E+99

> <Gold.Chemscore.Hbonds>
donor molecule, donor type, donor heavy atom, donor atom, acceptor molecule, acceptor atom, score
      P1  H  7997  8008       L1    15  0.20

> <Gold.Chemscore.Hbond.Weighted>
-0.0000

> <Gold.Chemscore.Metal.Weighted>
-0.0000

> <Gold.Chemscore.Lipo.Weighted>
-15.9452

> <Gold.Chemscore.Internal_Hbond.Weighted>
0.0000

> <Gold.Chemscore.DEClash.Weighted>
0.0658

> <Gold.Chemscore.DEInternal.Weighted>
1.2349

> <Gold.Chemscore.Rot.Weighted>
7.1801

> <Gold.Chemscore.Internal.Correction.Weighted>
   9.000000E+99

> <Gold.Protein.RotatedTorsions>
[ 6907 6896 6895 6894 ] final    4.59 input  -60.11 | X-H torsion
[ 7974 7965 7964 7962 ] final   90.52 input  175.53 | X-H torsion
[ 8008 7997 7996 7995 ] final  -92.21 input   59.86 | X-H torsion
[ 10167 10162 10161 10158 ] final -101.93 input  -65.29 | X-H torsion
[ 10718 10713 10712 10709 ] final -160.25 input   66.30 | X-H torsion
[ 10763 10752 10751 10750 ] final   88.11 input  -60.55 | X-H torsion
[ 11005 11000 10999 10996 ] final  111.79 input  -57.11 | X-H torsion

> <Gold.Protein.ActiveResidues>
 VAL166  LYS551  ARG553  GLY616  TRP617  ASP618  TYR619  PRO620  LYS621  CYS622 
 ASP623  PHE694  ASN695  SER759  ASP760  ASP761  ALA762  ILE779  LEU786  VAL792 
 PHE793  MET794  SER795  GLU796  ALA797  LYS798  CYS799  TRP800  GLU811  SER814 

> <Gold.Protein.RotatedAtoms>
  151.6437  135.1010  160.0146 H   0  0  0  0  0  0  0  0  0  0  0  0  # atno 6907 bound_to 6896
  152.4039  133.6856  159.6348 H   0  0  0  0  0  0  0  0  0  0  0  0  # atno 6908 bound_to 6896
  150.7936  133.8659  159.3286 H   0  0  0  0  0  0  0  0  0  0  0  0  # atno 6909 bound_to 6896
  145.5179  139.2278  143.2688 H   0  0  0  0  0  0  0  0  0  0  0  0  # atno 7974 bound_to 7965
  154.7203  140.0511  157.0633 H   0  0  0  0  0  0  0  0  0  0  0  0  # atno 8008 bound_to 7997
  155.0436  140.3171  155.4697 H   0  0  0  0  0  0  0  0  0  0  0  0  # atno 8009 bound_to 7997
  156.2814  140.2128  156.5560 H   0  0  0  0  0  0  0  0  0  0  0  0  # atno 8010 bound_to 7997
  140.2360  143.3572  152.0844 H   0  0  0  0  0  0  0  0  0  0  0  0  # atno 10167 bound_to 10162
  156.5795  130.8723  151.2860 H   0  0  0  0  0  0  0  0  0  0  0  0  # atno 10718 bound_to 10713
  153.1735  135.4519  154.9934 H   0  0  0  0  0  0  0  0  0  0  0  0  # atno 10763 bound_to 10752
  154.7982  135.3245  154.7617 H   0  0  0  0  0  0  0  0  0  0  0  0  # atno 10764 bound_to 10752
  153.8090  135.6956  153.4898 H   0  0  0  0  0  0  0  0  0  0  0  0  # atno 10765 bound_to 10752
  139.8912  134.9516  156.6487 H   0  0  0  0  0  0  0  0  0  0  0  0  # atno 11005 bound_to 11000
  146.2125  140.5989  142.9053 LP  0  0  0  0  0  0  0  0  0  0  0  0  # atno 17320 bound_to 7965
  144.7692  140.5599  143.6682 LP  0  0  0  0  0  0  0  0  0  0  0  0  # atno 17321 bound_to 7965
  139.5093  144.6865  151.5873 LP  0  0  0  0  0  0  0  0  0  0  0  0  # atno 17342 bound_to 10162
  140.6149  143.9367  150.6481 LP  0  0  0  0  0  0  0  0  0  0  0  0  # atno 17343 bound_to 10162
  157.7330  130.9723  150.1955 LP  0  0  0  0  0  0  0  0  0  0  0  0  # atno 17370 bound_to 10713
  156.2644  130.3714  149.8097 LP  0  0  0  0  0  0  0  0  0  0  0  0  # atno 17371 bound_to 10713
  140.7537  133.8875  155.8366 LP  0  0  0  0  0  0  0  0  0  0  0  0  # atno 17394 bound_to 11000
  140.9979  134.1190  157.4346 LP  0  0  0  0  0  0  0  0  0  0  0  0  # atno 17395 bound_to 11000

$$$$
