#       Name:                AV-unprocessed.smi:2746
#       Creating user name   scv26
#       Creation time:       Fri Mar 27 15:02:53 2020


#       File generated by GOLD software.
#

@<TRIPOS>MOLECULE
AV-unprocessed.smi:2746
    44    45     1
SMALL
NO_CHARGES


@<TRIPOS>ATOM
      1 ****        -3.5218  -1.2863  -1.8854 C.2            1 S1                 0.0000
      2 ****        -4.3847  -1.0257  -0.8864 C.2            1 S1                 0.0000
      3 ****        -4.0401  -0.5492   0.5193 C.3            1 S1                 0.0000
      4 ****        -4.7762   0.7625   0.8279 C.3            1 S1                 0.0000
      5 ****        -2.6134  -0.3534   0.7947 N.pl3          1 S1                -1.0000
      6 ****        -1.8962  -1.0576   1.7144 C.2            1 S1                 0.0000
      7 ****        -2.2727  -1.9136   2.5228 O.2            1 S1                 0.0000
      8 ****        -0.4506  -0.6426   1.7513 C.ar           1 S1                 0.0000
      9 ****         0.2622  -0.2277   0.5993 C.ar           1 S1                 0.0000
     10 ****         1.6302   0.1253   0.6914 C.ar           1 S1                 0.0000
     11 ****         2.3278   0.5434  -0.4617 N.3            1 S1                 0.0000
     12 ****         2.2816  -0.3712  -1.6001 C.3            1 S1                 0.0000
     13 ****         2.7749   0.3358  -2.8746 C.3            1 S1                 0.0000
     14 ****         4.0699   0.8845  -2.6513 O.3            1 S1                 0.0000
     15 ****         4.0611   1.8573  -1.6118 C.3            1 S1                 0.0000
     16 ****         3.6207   1.1997  -0.2929 C.3            1 S1                 0.0000
     17 ****         2.2503   0.0452   1.9644 C.ar           1 S1                 0.0000
     18 ****         1.5047  -0.3891   3.0774 C.ar           1 S1                 0.0000
     19 ****         0.2051  -0.7171   2.9305 N.pl3          1 S1                 1.0000
     20 ****        -2.4517  -1.1757  -1.7776 H              1 S1                 0.0000
     21 ****        -3.8867  -1.6210  -2.8449 H              1 S1                 0.0000
     22 ****        -5.4388  -1.1624  -1.0789 H              1 S1                 0.0000
     23 ****        -4.4679  -1.3070   1.1773 H              1 S1                 0.0000
     24 ****        -5.8521   0.6511   0.6898 H              1 S1                 0.0000
     25 ****        -4.4405   1.5713   0.1776 H              1 S1                 0.0000
     26 ****        -4.6124   1.0751   1.8600 H              1 S1                 0.0000
     27 ****        -0.2479  -0.1686  -0.3512 H              1 S1                 0.0000
     28 ****         2.9154  -1.2324  -1.3842 H              1 S1                 0.0000
     29 ****         1.2767  -0.7542  -1.7724 H              1 S1                 0.0000
     30 ****         2.8279  -0.3739  -3.7003 H              1 S1                 0.0000
     31 ****         2.0815   1.1228  -3.1757 H              1 S1                 0.0000
     32 ****         5.0623   2.2753  -1.5074 H              1 S1                 0.0000
     33 ****         3.3975   2.6824  -1.8758 H              1 S1                 0.0000
     34 ****         3.5589   1.9597   0.4870 H              1 S1                 0.0000
     35 ****         4.3629   0.4642   0.0205 H              1 S1                 0.0000
     36 ****         3.2909   0.2946   2.1061 H              1 S1                 0.0000
     37 ****         1.9076  -0.4863   4.0746 H              1 S1                 0.0000
     38 ****        -0.3177  -1.0336   3.7476 H              1 S1                 0.0000
     39 ****        -2.1317   0.3480   0.2693 LP             1 S1                 0.0000
     40 ****        -3.2369  -2.1762   2.5603 LP             1 S1                 0.0000
     41 ****        -1.6131  -2.3436   3.1393 LP             1 S1                 0.0000
     42 ****         1.7416   1.3138  -0.7122 LP             1 S1                 0.0000
     43 ****         4.3884   1.3158  -3.4954 LP             1 S1                 0.0000
     44 ****         4.6949   0.1460  -2.3980 LP             1 S1                 0.0000
@<TRIPOS>BOND
    1    1    2 2     
    2    1   20 1     
    3    1   21 1     
    4    2    3 1     
    5    2   22 1     
    6    3    4 1     
    7    3    5 1     
    8    3   23 1     
    9    4   24 1     
   10    4   25 1     
   11    4   26 1     
   12    5    6 1     
   13    6    7 2     
   14    6    8 1     
   15    8   19 ar    
   16    8    9 ar    
   17    9   10 ar    
   18    9   27 1     
   19   10   11 1     
   20   10   17 ar    
   21   11   16 1     
   22   11   12 1     
   23   12   13 1     
   24   12   28 1     
   25   12   29 1     
   26   13   14 1     
   27   13   30 1     
   28   13   31 1     
   29   14   15 1     
   30   15   16 1     
   31   15   32 1     
   32   15   33 1     
   33   16   34 1     
   34   16   35 1     
   35   17   18 ar    
   36   17   36 1     
   37   18   19 ar    
   38   18   37 1     
   39   19   38 1     
   40    5   39 1     
   41    7   40 1     
   42    7   41 1     
   43   11   42 1     
   44   14   43 1     
   45   14   44 1     
@<TRIPOS>SUBSTRUCTURE
      1 S1             1
@<TRIPOS>SET
LONE_PAIRS      STATIC     ATOMS    <user>   **** ""
6 39 40 41 42 43 44
DONOR_HYDROGENS      STATIC     ATOMS    <user>   **** ""
1 38
ATOM$BLUE        STATIC     ATOMS    COLORGROUP SYSTEM
6 39 40 41 42 43 44
ATOM$RED        STATIC     ATOMS    COLORGROUP SYSTEM
1 38
