#       Name:                AV-unprocessed.smi:2324
#       Creating user name   scv26
#       Creation time:       Fri Mar 27 12:51:24 2020


#       File generated by GOLD software.
#

@<TRIPOS>MOLECULE
AV-unprocessed.smi:2324
    43    45     1
SMALL
NO_CHARGES


@<TRIPOS>ATOM
      1 ****        -1.3303   2.1277   0.5910 O.2            1 S1                 0.0000
      2 ****        -1.7202   1.0589   0.1237 C.2            1 S1                 0.0000
      3 ****        -3.0369   0.7665   0.0661 N.am           1 S1                 0.0000
      4 ****        -4.1887   1.5040   0.4684 C.ar           1 S1                 0.0000
      5 ****        -5.4184   0.8533   0.2303 C.ar           1 S1                 0.0000
      6 ****        -6.6058   1.5088   0.5979 C.ar           1 S1                 0.0000
      7 ****        -6.4838   2.7802   1.1833 C.ar           1 S1                 0.0000
      8 ****        -5.2866   3.3680   1.3940 N.ar           1 S1                 0.0000
      9 ****        -4.1619   2.7369   1.0410 N.ar           1 S1                 0.0000
     10 ****        -0.8789   0.1249  -0.3503 N.am           1 S1                 0.0000
     11 ****         0.5761   0.2333  -0.3819 C.3            1 S1                 0.0000
     12 ****         1.1459  -0.7122  -1.4474 C.3            1 S1                 0.0000
     13 ****         2.6817  -0.6976  -1.4187 C.3            1 S1                 0.0000
     14 ****         3.1601  -1.0366  -0.1185 O.3            1 S1                 0.0000
     15 ****         2.7214  -0.1795   0.9373 C.3            1 S1                 0.0000
     16 ****         3.3689   1.1968   0.8597 C.3            1 S1                 0.0000
     17 ****         4.7838   1.4105   1.3436 C.3            1 S1                 0.0000
     18 ****         3.6258   1.9985   2.1140 C.3            1 S1                 0.0000
     19 ****         1.1819  -0.1259   0.9860 C.3            1 S1                 0.0000
     20 ****        -3.2426  -0.1376  -0.3337 H              1 S1                 0.0000
     21 ****        -5.4546  -0.1268  -0.2231 H              1 S1                 0.0000
     22 ****        -7.5723   1.0544   0.4379 H              1 S1                 0.0000
     23 ****        -7.3584   3.3350   1.4890 H              1 S1                 0.0000
     24 ****        -1.2798  -0.7275  -0.7157 H              1 S1                 0.0000
     25 ****         0.8495   1.2562  -0.6463 H              1 S1                 0.0000
     26 ****         0.7936  -1.7293  -1.2694 H              1 S1                 0.0000
     27 ****         0.7888  -0.4270  -2.4377 H              1 S1                 0.0000
     28 ****         3.0715  -1.4255  -2.1302 H              1 S1                 0.0000
     29 ****         3.0668   0.2736  -1.7297 H              1 S1                 0.0000
     30 ****         3.0644  -0.6427   1.8632 H              1 S1                 0.0000
     31 ****         3.0774   1.7831  -0.0088 H              1 S1                 0.0000
     32 ****         5.3023   0.5624   1.7864 H              1 S1                 0.0000
     33 ****         5.4102   2.0947   0.7749 H              1 S1                 0.0000
     34 ****         3.4779   3.0749   2.0586 H              1 S1                 0.0000
     35 ****         3.3732   1.5419   3.0689 H              1 S1                 0.0000
     36 ****         0.8562   0.5814   1.7497 H              1 S1                 0.0000
     37 ****         0.8094  -1.1033   1.2965 H              1 S1                 0.0000
     38 ****        -1.9919   2.7940   0.9348 LP             1 S1                 0.0000
     39 ****        -0.3517   2.3303   0.6270 LP             1 S1                 0.0000
     40 ****        -5.2411   4.2745   1.8138 LP             1 S1                 0.0000
     41 ****        -3.2809   3.1819   1.2019 LP             1 S1                 0.0000
     42 ****         4.1596  -1.0120  -0.1411 LP             1 S1                 0.0000
     43 ****         2.8543  -1.9655   0.0905 LP             1 S1                 0.0000
@<TRIPOS>BOND
    1    1    2 2     
    2    2    3 am    
    3    2   10 am    
    4    3    4 1     
    5    3   20 1     
    6    4    9 ar    
    7    4    5 ar    
    8    5    6 ar    
    9    5   21 1     
   10    6    7 ar    
   11    6   22 1     
   12    7    8 ar    
   13    7   23 1     
   14    8    9 ar    
   15   10   11 1     
   16   10   24 1     
   17   11   19 1     
   18   11   12 1     
   19   11   25 1     
   20   12   13 1     
   21   12   26 1     
   22   12   27 1     
   23   13   14 1     
   24   13   28 1     
   25   13   29 1     
   26   14   15 1     
   27   15   16 1     
   28   15   19 1     
   29   15   30 1     
   30   16   18 1     
   31   16   17 1     
   32   16   31 1     
   33   17   18 1     
   34   17   32 1     
   35   17   33 1     
   36   18   34 1     
   37   18   35 1     
   38   19   36 1     
   39   19   37 1     
   40    1   38 1     
   41    1   39 1     
   42    8   40 1     
   43    9   41 1     
   44   14   42 1     
   45   14   43 1     
@<TRIPOS>SUBSTRUCTURE
      1 S1             1
@<TRIPOS>SET
LONE_PAIRS      STATIC     ATOMS    <user>   **** ""
6 38 39 40 41 42 43
DONOR_HYDROGENS      STATIC     ATOMS    <user>   **** ""
2 20 24
ATOM$BLUE        STATIC     ATOMS    COLORGROUP SYSTEM
6 38 39 40 41 42 43
ATOM$RED        STATIC     ATOMS    COLORGROUP SYSTEM
2 20 24
