AV-unprocessed.smi:2107|AV-procd|sdf|8600|dock7
  -GOLD-   2272011333D 1   1.00000     0.00000
 Structure written by MMmdl.
 46 47  0  0  0  0  0  0  0  0  1 V2000
  144.3603  134.0240  162.9250 C   0  0  0  0  0  0  0  0  0  0  0  0
  144.9054  135.2980  162.2657 C   0  0  0  0  0  0  0  0  0  0  0  0
  146.3597  135.4439  162.4805 N   0  0  0  0  0  0  0  0  0  0  0  0
  147.1155  134.1787  162.5269 C   0  0  0  0  0  0  0  0  0  0  0  0
  146.9599  133.3733  161.2288 C   0  0  0  0  0  0  0  0  0  0  0  0
  147.1590  136.8546  161.8530 S   0  0  0  0  0  0  0  0  0  0  0  0
  146.1382  137.8228  161.4219 O   0  0  0  0  0  0  0  0  0  0  0  0
  148.2256  137.2353  162.7912 O   0  0  0  0  0  0  0  0  0  0  0  0
  147.8835  136.1580  160.4497 N   0  0  0  0  0  0  0  0  0  0  0  0
  148.7920  136.9555  159.6225 C   0  0  0  0  0  0  0  0  0  0  0  0
  148.7471  136.6289  158.1289 C   0  0  0  0  0  0  0  0  0  0  0  0
  147.9041  135.6015  157.6463 C   0  0  0  0  0  0  0  0  0  0  0  0
  147.8926  135.3015  156.2728 C   0  0  0  0  0  0  0  0  0  0  0  0
  148.7371  136.0379  155.4241 C   0  0  0  0  0  0  0  0  0  0  0  0
  149.5558  137.0137  155.8657 N   0  0  0  0  0  0  0  0  0  0  0  0
  149.5691  137.3080  157.1892 C   0  0  0  0  0  0  0  0  0  0  0  0
  150.4245  138.3426  157.6067 N   0  0  0  0  0  0  0  0  0  0  0  0
  150.9752  139.1041  156.4930 C   0  0  0  0  0  0  0  0  0  0  0  0
  151.7239  140.3394  157.0215 C   0  0  0  0  0  0  0  0  0  0  0  0
  152.7237  139.9328  157.9521 O   0  0  0  0  0  0  0  0  0  0  0  0
  152.1677  139.2510  159.0733 C   0  0  0  0  0  0  0  0  0  0  0  0
  151.4363  137.9851  158.5951 C   0  0  0  0  0  0  0  0  0  0  0  0
  143.3086  133.8837  162.6755 H   0  0  0  0  0  0  0  0  0  0  0  0
  144.4296  134.0702  164.0108 H   0  0  0  0  0  0  0  0  0  0  0  0
  144.8995  133.1378  162.5903 H   0  0  0  0  0  0  0  0  0  0  0  0
  144.6816  135.2831  161.1984 H   0  0  0  0  0  0  0  0  0  0  0  0
  144.3860  136.1690  162.6654 H   0  0  0  0  0  0  0  0  0  0  0  0
  148.1661  134.3885  162.7309 H   0  0  0  0  0  0  0  0  0  0  0  0
  146.7592  133.5665  163.3544 H   0  0  0  0  0  0  0  0  0  0  0  0
  147.4636  132.4103  161.3127 H   0  0  0  0  0  0  0  0  0  0  0  0
  147.3911  133.8916  160.3726 H   0  0  0  0  0  0  0  0  0  0  0  0
  145.9091  133.1792  161.0116 H   0  0  0  0  0  0  0  0  0  0  0  0
  148.1987  135.1988  160.5932 H   0  0  0  0  0  0  0  0  0  0  0  0
  148.5850  138.0079  159.8126 H   0  0  0  0  0  0  0  0  0  0  0  0
  149.8105  136.7772  159.9670 H   0  0  0  0  0  0  0  0  0  0  0  0
  147.2696  135.0404  158.3139 H   0  0  0  0  0  0  0  0  0  0  0  0
  147.2543  134.5236  155.8811 H   0  0  0  0  0  0  0  0  0  0  0  0
  148.7584  135.8364  154.3635 H   0  0  0  0  0  0  0  0  0  0  0  0
  151.6555  138.4696  155.9235 H   0  0  0  0  0  0  0  0  0  0  0  0
  150.1814  139.4123  155.8128 H   0  0  0  0  0  0  0  0  0  0  0  0
  152.1991  140.8720  156.1977 H   0  0  0  0  0  0  0  0  0  0  0  0
  151.0329  141.0377  157.4968 H   0  0  0  0  0  0  0  0  0  0  0  0
  152.9697  138.9846  159.7617 H   0  0  0  0  0  0  0  0  0  0  0  0
  151.4885  139.9121  159.6140 H   0  0  0  0  0  0  0  0  0  0  0  0
  150.9660  137.4800  159.4397 H   0  0  0  0  0  0  0  0  0  0  0  0
  152.1550  137.2900  158.1588 H   0  0  0  0  0  0  0  0  0  0  0  0
  1  2  1  0  0  0  0
  1 23  1  0  0  0  0
  1 24  1  0  0  0  0
  1 25  1  0  0  0  0
  2  3  1  0  0  0  0
  2 26  1  0  0  0  0
  2 27  1  0  0  0  0
  3  4  1  0  0  0  0
  3  6  1  0  0  0  0
  4  5  1  0  0  0  0
  4 28  1  0  0  0  0
  4 29  1  0  0  0  0
  5 30  1  0  0  0  0
  5 31  1  0  0  0  0
  5 32  1  0  0  0  0
  6  7  2  0  0  0  0
  6  8  2  0  0  0  0
  6  9  1  0  0  0  0
  9 10  1  0  0  0  0
  9 33  1  0  0  0  0
 10 11  1  0  0  0  0
 10 34  1  0  0  0  0
 10 35  1  0  0  0  0
 11 16  1  0  0  0  0
 11 12  2  0  0  0  0
 12 13  1  0  0  0  0
 12 36  1  0  0  0  0
 13 14  2  0  0  0  0
 13 37  1  0  0  0  0
 14 15  1  0  0  0  0
 14 38  1  0  0  0  0
 15 16  2  0  0  0  0
 16 17  1  0  0  0  0
 17 22  1  0  0  0  0
 17 18  1  0  0  0  0
 18 19  1  0  0  0  0
 18 39  1  0  0  0  0
 18 40  1  0  0  0  0
 19 20  1  0  0  0  0
 19 41  1  0  0  0  0
 19 42  1  0  0  0  0
 20 21  1  0  0  0  0
 21 22  1  0  0  0  0
 21 43  1  0  0  0  0
 21 44  1  0  0  0  0
 22 45  1  0  0  0  0
 22 46  1  0  0  0  0
M  END
> <s_m_source_file>
AV-unprocessed.smi

> <i_m_source_file_index>
2107

> <i_lp_mmshare_version>
43012

> <i_f3d_flags>
0

> <s_epik_input>
W0NIM11bQ0gyXU4oW0NIMl1bQ0gzXSlTKD1PKSg9TylbTkhdW0NIMl1jMVtjSF1bY0hdW2NIXW5jMU4yW0NIMl1bQ0gyXU9bQ0gyXVtDSDJdMg==

> <s_epik_cmdline>
J2VwaWtfcHl0aG9uJywgJy1waCcsICc3LjAnLCAnLXRuJywgJzgnLCAnLW1hJywgJzIwMCcsICctbWV0YWxfYmluZGluZycsICctaW1hZScsICc8aW5maWxlLm1hZT4nLCAnLW9tYWUnLCAnPG91dGZpbGUubWFlPic=

> <r_lp_tautomer_probability>
1

> <r_epik_Ionization_Penalty>
0.0173886

> <r_epik_Ionization_Penalty_Charging>
0

> <r_epik_Ionization_Penalty_Neutral>
0.0173886

> <r_epik_State_Penalty>
0.0135122

> <r_epik_Charging_Adjusted_Penalty>
0.0135122

> <i_epik_Tot_Q>
0

> <i_epik_Tot_abs_Q>
0

> <r_epik_Metal_State_Penalty>
0.283451

> <b_epik_Metal_Only>
0

> <s_lp_Force_Field>
OPLS_2005

> <r_lp_Energy>
23.0208

> <b_lp_Chiralities_Consistent>
1

> <s_lp_Variant>
AV-unprocessed.smi:2107-1

> <Gold.Version>
5.8.1

> <Gold.Id.Protein>
6NUR|6NUR_protein|mol2

> <Gold.PLP.Fitness>
42.0191

> <Gold.PLP.PLP>
-31.3119

> <Gold.PLP.part.hbond>
-2.5670

> <Gold.PLP.part.metal>
0.0000

> <Gold.PLP.part.buried>
-3.3636

> <Gold.PLP.part.nonpolar>
-23.5718

> <Gold.PLP.part.repulsive>
0.0620

> <Gold.PLP.ligand.clash>
0.0000

> <Gold.PLP.ligand.torsion>
1.8514

> <Gold.PLP.Chemscore.Hbond>
2.8000

> <Gold.PLP.Chemscore.CHOScore>
1.0000

> <Gold.PLP.Chemscore.Metal>
0.0000

> <Gold.Chemscore.Hbonds>
donor molecule, donor type, donor heavy atom, donor atom, acceptor molecule, acceptor atom, score
      P1  H  6931  6943       L1     8  0.78
      P1  H  6934  6947       L1     7  0.91
      P1  H  7997  8010       L1    20  0.93
      L1  C    14    38       P1  7948  1.00

> <Gold.PLP.Chemscore.Internal.Correction>
3.0100

> <Gold.Rescore>
     Score         DG    S(hbond)    S(metal)    S(lipo)     H(rot)  DE(clash)    DE(int)     intcor
     11.73     -13.83       1.80        0.00      62.22       1.93       0.13       1.96       ----

> <Gold.Chemscore.Fitness>
11.7323

> <Gold.Chemscore.DG>
-13.8259

> <Gold.Chemscore.ZeroCoef>
-5.4800

> <Gold.Chemscore.Hbond>
1.7980

> <Gold.Chemscore.Metal>
0.0000

> <Gold.Chemscore.Lipo>
62.2247

> <Gold.Chemscore.Internal_Hbond>
0.0000

> <Gold.Chemscore.DEClash>
0.1332

> <Gold.Chemscore.DEInternal>
1.9604

> <Gold.Chemscore.Rot>
1.9295

> <Gold.Chemscore.Internal.Correction>
   9.000000E+99

> <Gold.Chemscore.Hbonds>
donor molecule, donor type, donor heavy atom, donor atom, acceptor molecule, acceptor atom, score
      P1  H  6931  6943       L1     8  0.25
      P1  H  6934  6947       L1     7  0.20
      P1  H  7997  8010       L1    20  0.44

> <Gold.Chemscore.Hbond.Weighted>
-6.0052

> <Gold.Chemscore.Metal.Weighted>
-0.0000

> <Gold.Chemscore.Lipo.Weighted>
-7.2803

> <Gold.Chemscore.Internal_Hbond.Weighted>
0.0000

> <Gold.Chemscore.DEClash.Weighted>
0.1332

> <Gold.Chemscore.DEInternal.Weighted>
1.9604

> <Gold.Chemscore.Rot.Weighted>
4.9395

> <Gold.Chemscore.Internal.Correction.Weighted>
   9.000000E+99

> <Gold.Protein.RotatedTorsions>
[ 6907 6896 6895 6894 ] final  108.85 input  -60.11 | X-H torsion
[ 7974 7965 7964 7962 ] final  -65.35 input  175.53 | X-H torsion
[ 8008 7997 7996 7995 ] final   42.23 input   59.86 | X-H torsion
[ 10167 10162 10161 10158 ] final    1.15 input  -65.29 | X-H torsion
[ 10718 10713 10712 10709 ] final  130.87 input   66.30 | X-H torsion
[ 10763 10752 10751 10750 ] final -105.08 input  -60.55 | X-H torsion
[ 11005 11000 10999 10996 ] final   56.59 input  -57.11 | X-H torsion

> <Gold.Protein.ActiveResidues>
 VAL166  LYS551  ARG553  GLY616  TRP617  ASP618  TYR619  PRO620  LYS621  CYS622 
 ASP623  PHE694  ASN695  SER759  ASP760  ASP761  ALA762  ILE779  LEU786  VAL792 
 PHE793  MET794  SER795  GLU796  ALA797  LYS798  CYS799  TRP800  GLU811  SER814 

> <Gold.Protein.RotatedAtoms>
  152.5094  133.9029  159.7449 H   0  0  0  0  0  0  0  0  0  0  0  0  # atno 6907 bound_to 6896
  150.9441  133.6615  159.2792 H   0  0  0  0  0  0  0  0  0  0  0  0  # atno 6908 bound_to 6896
  151.3916  135.0962  159.9580 H   0  0  0  0  0  0  0  0  0  0  0  0  # atno 6909 bound_to 6896
  145.7554  140.8888  143.0458 H   0  0  0  0  0  0  0  0  0  0  0  0  # atno 7974 bound_to 7965
  155.2827  140.3373  155.4257 H   0  0  0  0  0  0  0  0  0  0  0  0  # atno 8008 bound_to 7997
  156.2082  140.1759  156.7793 H   0  0  0  0  0  0  0  0  0  0  0  0  # atno 8009 bound_to 7997
  154.5650  140.0680  156.8862 H   0  0  0  0  0  0  0  0  0  0  0  0  # atno 8010 bound_to 7997
  140.6696  143.7085  150.7896 H   0  0  0  0  0  0  0  0  0  0  0  0  # atno 10167 bound_to 10162
  157.5021  131.1094  150.9412 H   0  0  0  0  0  0  0  0  0  0  0  0  # atno 10718 bound_to 10713
  154.7922  135.4762  154.0079 H   0  0  0  0  0  0  0  0  0  0  0  0  # atno 10763 bound_to 10752
  153.1648  135.6815  153.8697 H   0  0  0  0  0  0  0  0  0  0  0  0  # atno 10764 bound_to 10752
  153.8299  135.3193  155.3396 H   0  0  0  0  0  0  0  0  0  0  0  0  # atno 10765 bound_to 10752
  140.0517  134.5727  155.9255 H   0  0  0  0  0  0  0  0  0  0  0  0  # atno 11005 bound_to 11000
  144.6841  139.9648  143.7481 LP  0  0  0  0  0  0  0  0  0  0  0  0  # atno 17320 bound_to 7965
  146.0316  139.3340  143.0751 LP  0  0  0  0  0  0  0  0  0  0  0  0  # atno 17321 bound_to 7965
  140.0768  143.5007  152.2551 LP  0  0  0  0  0  0  0  0  0  0  0  0  # atno 17342 bound_to 10162
  139.5958  144.7566  151.3289 LP  0  0  0  0  0  0  0  0  0  0  0  0  # atno 17343 bound_to 10162
  157.0080  130.5625  149.5318 LP  0  0  0  0  0  0  0  0  0  0  0  0  # atno 17370 bound_to 10713
  156.0236  130.5330  150.8343 LP  0  0  0  0  0  0  0  0  0  0  0  0  # atno 17371 bound_to 10713
  141.1933  133.6578  156.5544 LP  0  0  0  0  0  0  0  0  0  0  0  0  # atno 17394 bound_to 11000
  140.3906  134.7443  157.4719 LP  0  0  0  0  0  0  0  0  0  0  0  0  # atno 17395 bound_to 11000

$$$$
