#       Name:                AV-unprocessed.smi:72
#       Creating user name   scv26
#       Creation time:       Thu Mar 26 17:06:43 2020


#       File generated by GOLD software.
#

@<TRIPOS>MOLECULE
AV-unprocessed.smi:72
    41    42     1
SMALL
NO_CHARGES


@<TRIPOS>ATOM
      1 ****        -2.6846   4.5263  -0.8687 N.2            1 S1                 0.0000
      2 ****        -2.2064   3.4021  -0.5564 C.2            1 S1                 0.0000
      3 ****        -0.7757   3.1891  -0.5953 N.2            1 S1                 0.0000
      4 ****        -0.3291   2.0204  -0.2506 C.2            1 S1                 0.0000
      5 ****        -1.2226   0.9526   0.1764 N.am           1 S1                 0.0000
      6 ****        -0.6845  -0.4095   0.5668 C.3            1 S1                 0.0000
      7 ****         0.5846  -0.2566   1.1225 O.3            1 S1                 0.0000
      8 ****         1.3414  -1.4253   0.8482 C.3            1 S1                 0.0000
      9 ****         2.8415  -1.1269   0.9954 C.3            1 S1                 0.0000
     10 ****         3.2300  -1.2355   2.3483 O.3            1 S1                 0.0000
     11 ****         0.9227  -1.7609  -0.5871 C.3            1 S1                 0.0000
     12 ****         1.0954  -3.1401  -0.8434 O.3            1 S1                 0.0000
     13 ****        -0.5561  -1.3876  -0.6238 C.3            1 S1                 0.0000
     14 ****        -0.8942  -0.8334  -1.8827 O.3            1 S1                 0.0000
     15 ****        -2.6241   1.1791   0.1758 C.2            1 S1                 0.0000
     16 ****        -3.3637   0.2472   0.4925 O.2            1 S1                 0.0000
     17 ****        -3.0865   2.4079  -0.1882 N.pl3          1 S1                -1.0000
     18 ****        -1.3381  -0.7894   1.3536 H              1 S1                 0.0000
     19 ****         1.0259  -2.2226   1.5250 H              1 S1                 0.0000
     20 ****         1.4951  -1.1611  -1.2970 H              1 S1                 0.0000
     21 ****        -1.1979  -2.2456  -0.4177 H              1 S1                 0.0000
     22 ****        -3.6918   4.5520  -0.8055 H              1 S1                 0.0000
     23 ****         0.7308   1.7636  -0.2642 H              1 S1                 0.0000
     24 ****         3.4249  -1.8546   0.4306 H              1 S1                 0.0000
     25 ****         3.0900  -0.1395   0.6049 H              1 S1                 0.0000
     26 ****         4.1589  -1.0722   2.4080 H              1 S1                 0.0000
     27 ****         0.7722  -3.3218  -1.7128 H              1 S1                 0.0000
     28 ****        -1.7781  -0.5012  -1.8333 H              1 S1                 0.0000
     29 ****        -2.1267   5.3076  -1.1486 LP             1 S1                 0.0000
     30 ****        -0.1521   3.9179  -0.8783 LP             1 S1                 0.0000
     31 ****         0.5066  -0.1298   2.1113 LP             1 S1                 0.0000
     32 ****         1.0356   0.5395   0.7190 LP             1 S1                 0.0000
     33 ****         3.0270  -2.1550   2.6846 LP             1 S1                 0.0000
     34 ****         2.7334  -0.5627   2.8967 LP             1 S1                 0.0000
     35 ****         0.5824  -3.6758  -0.1728 LP             1 S1                 0.0000
     36 ****         2.0655  -3.3760  -0.7868 LP             1 S1                 0.0000
     37 ****        -0.8371  -1.5389  -2.5891 LP             1 S1                 0.0000
     38 ****        -0.2649  -0.0884  -2.1042 LP             1 S1                 0.0000
     39 ****        -2.9729  -0.6391   0.7408 LP             1 S1                 0.0000
     40 ****        -4.3552   0.3766   0.5013 LP             1 S1                 0.0000
     41 ****        -4.0699   2.5893  -0.1882 LP             1 S1                 0.0000
@<TRIPOS>BOND
    1    1    2 2     
    2    1   22 1     
    3    2   17 1     
    4    2    3 1     
    5    3    4 2     
    6    4    5 1     
    7    4   23 1     
    8    5    6 1     
    9    5   15 am    
   10    6   18 1     
   11    6   13 1     
   12    6    7 1     
   13    7    8 1     
   14    8   19 1     
   15    8    9 1     
   16    8   11 1     
   17    9   10 1     
   18    9   24 1     
   19    9   25 1     
   20   10   26 1     
   21   11   20 1     
   22   11   12 1     
   23   11   13 1     
   24   12   27 1     
   25   13   21 1     
   26   13   14 1     
   27   14   28 1     
   28   15   16 2     
   29   15   17 1     
   30    1   29 1     
   31    3   30 1     
   32    7   31 1     
   33    7   32 1     
   34   10   33 1     
   35   10   34 1     
   36   12   35 1     
   37   12   36 1     
   38   14   37 1     
   39   14   38 1     
   40   16   39 1     
   41   16   40 1     
   42   17   41 1     
@<TRIPOS>SUBSTRUCTURE
      1 S1             1
@<TRIPOS>SET
LONE_PAIRS      STATIC     ATOMS    <user>   **** ""
13 29 30 31 32 33 34 35 36 37 38 39 40 41
DONOR_HYDROGENS      STATIC     ATOMS    <user>   **** ""
4 22 26 27 28
ATOM$BLUE        STATIC     ATOMS    COLORGROUP SYSTEM
13 29 30 31 32 33 34 35 36 37 38 39 40 41
ATOM$RED        STATIC     ATOMS    COLORGROUP SYSTEM
4 22 26 27 28
