AV-unprocessed.smi:1919|AV-procd|sdf|7775|dock1
  -GOLD-   22720 9523D 1   1.00000     0.00000
 Structure written by MMmdl.
 37 39  0  0  0  0  0  0  0  0  2 V2000
  151.8510  136.8527  154.0885 O   0  0  0  0  0  0  0  0  0  0  0  0
  151.9152  138.1504  154.6377 C   0  0  0  0  0  0  0  0  0  0  0  0
  150.6475  138.9125  154.4338 C   0  0  0  0  0  0  0  0  0  0  0  0
  149.6194  138.5366  153.6229 N   0  3  0  0  0  0  0  0  0  0  0  0
  148.6140  139.5025  153.6544 C   0  0  0  0  0  0  0  0  0  0  0  0
  147.3913  139.5636  152.9933 C   0  0  0  0  0  0  0  0  0  0  0  0
  146.5960  140.7021  153.2375 C   0  0  0  0  0  0  0  0  0  0  0  0
  147.0247  141.7226  154.1106 C   0  0  0  0  0  0  0  0  0  0  0  0
  148.2643  141.6469  154.7786 C   0  0  0  0  0  0  0  0  0  0  0  0
  149.0468  140.5183  154.5315 C   0  0  0  0  0  0  0  0  0  0  0  0
  150.3074  140.1120  154.9892 N   0  0  0  0  0  0  0  0  0  0  0  0
  151.0576  140.9713  155.9211 C   0  0  0  0  0  0  0  0  0  0  0  0
  150.6896  140.7074  157.3951 C   0  0  2  0  0  0  0  0  0  0  0  0
  149.3067  140.9491  157.5531 O   0  0  0  0  0  0  0  0  0  0  0  0
  151.5372  141.5245  158.3608 C   0  0  0  0  0  0  0  0  0  0  0  0
  152.3201  140.8910  159.3518 C   0  0  0  0  0  0  0  0  0  0  0  0
  153.0771  141.6600  160.2569 C   0  0  0  0  0  0  0  0  0  0  0  0
  153.0535  143.0657  160.1794 C   0  0  0  0  0  0  0  0  0  0  0  0
  152.2735  143.7025  159.1954 C   0  0  0  0  0  0  0  0  0  0  0  0
  152.2432  145.0543  159.1251 F   0  0  0  0  0  0  0  0  0  0  0  0
  151.5202  142.9341  158.2872 C   0  0  0  0  0  0  0  0  0  0  0  0
  151.5778  136.9207  153.1860 H   0  0  0  0  0  0  0  0  0  0  0  0
  152.1220  138.0742  155.7055 H   0  0  0  0  0  0  0  0  0  0  0  0
  152.7497  138.6886  154.1890 H   0  0  0  0  0  0  0  0  0  0  0  0
  147.0627  138.7842  152.3214 H   0  0  0  0  0  0  0  0  0  0  0  0
  145.6395  140.7956  152.7438 H   0  0  0  0  0  0  0  0  0  0  0  0
  146.3905  142.5825  154.2709 H   0  0  0  0  0  0  0  0  0  0  0  0
  148.5813  142.4396  155.4394 H   0  0  0  0  0  0  0  0  0  0  0  0
  152.1278  140.8569  155.7502 H   0  0  0  0  0  0  0  0  0  0  0  0
  150.8234  142.0033  155.6584 H   0  0  0  0  0  0  0  0  0  0  0  0
  150.8399  139.6498  157.6149 H   0  0  0  0  0  0  0  0  0  0  0  0
  149.0346  140.5978  158.3873 H   0  0  0  0  0  0  0  0  0  0  0  0
  152.3377  139.8135  159.4271 H   0  0  0  0  0  0  0  0  0  0  0  0
  153.6735  141.1710  161.0130 H   0  0  0  0  0  0  0  0  0  0  0  0
  153.6322  143.6548  160.8755 H   0  0  0  0  0  0  0  0  0  0  0  0
  150.9175  143.4310  157.5407 H   0  0  0  0  0  0  0  0  0  0  0  0
  149.6145  137.6832  153.0791 H   0  0  0  0  0  0  0  0  0  0  0  0
  1  2  1  0  0  0  0
  1 22  1  0  0  0  0
  2  3  1  0  0  0  0
  2 23  1  0  0  0  0
  2 24  1  0  0  0  0
  3 11  1  0  0  0  0
  3  4  2  0  0  0  0
  4  5  1  0  0  0  0
  4 37  1  0  0  0  0
  5 10  2  0  0  0  0
  5  6  1  0  0  0  0
  6  7  2  0  0  0  0
  6 25  1  0  0  0  0
  7  8  1  0  0  0  0
  7 26  1  0  0  0  0
  8  9  2  0  0  0  0
  8 27  1  0  0  0  0
  9 10  1  0  0  0  0
  9 28  1  0  0  0  0
 10 11  1  0  0  0  0
 11 12  1  0  0  0  0
 12 13  1  0  0  0  0
 12 29  1  0  0  0  0
 12 30  1  0  0  0  0
 13 14  1  0  0  0  0
 13 15  1  0  0  0  0
 13 31  1  0  0  0  0
 14 32  1  0  0  0  0
 15 21  1  0  0  0  0
 15 16  2  0  0  0  0
 16 17  1  0  0  0  0
 16 33  1  0  0  0  0
 17 18  2  0  0  0  0
 17 34  1  0  0  0  0
 18 19  1  0  0  0  0
 18 35  1  0  0  0  0
 19 20  1  0  0  0  0
 19 21  2  0  0  0  0
 21 36  1  0  0  0  0
M  CHG  1   4   1
M  END
> <s_m_source_file>
AV-unprocessed.smi

> <i_m_source_file_index>
1919

> <i_lp_mmshare_version>
43012

> <i_f3d_flags>
0

> <s_epik_input>
W2NIXTFbY0hdW2NIXVtjSF1jKGMxMiluKGMobjIpW0NIMl1bT0hdKVtDSDJdW0NASF0oW09IXSljM1tjSF1bY0hdW2NIXWMoRilbY0hdMw==

> <s_epik_cmdline>
J2VwaWtfcHl0aG9uJywgJy1waCcsICc3LjAnLCAnLXRuJywgJzgnLCAnLW1hJywgJzIwMCcsICctbWV0YWxfYmluZGluZycsICctaW1hZScsICc8aW5maWxlLm1hZT4nLCAnLW9tYWUnLCAnPG91dGZpbGUubWFlPic=

> <r_epik_Ionization_Penalty>
1.35643

> <r_epik_Ionization_Penalty_Charging>
1.35557

> <r_epik_Ionization_Penalty_Neutral>
0.000859316

> <r_epik_State_Penalty>
1.43401

> <r_epik_Charging_Adjusted_Penalty>
2.78958

> <i_epik_Tot_Q>
1

> <i_epik_Tot_abs_Q>
1

> <r_epik_Metal_State_Penalty>
5.47166

> <b_epik_Metal_Only>
0

> <s_lp_Force_Field>
OPLS_2005

> <r_lp_Energy>
14.8361

> <b_lp_Chiralities_Consistent>
1

> <s_lp_Variant>
AV-unprocessed.smi:1919-3

> <Gold.Version>
5.8.1

> <Gold.Id.Protein>
6NUR|6NUR_protein|mol2

> <Gold.PLP.Fitness>
62.8575

> <Gold.PLP.PLP>
-51.9046

> <Gold.PLP.part.hbond>
-4.0000

> <Gold.PLP.part.metal>
0.0000

> <Gold.PLP.part.buried>
1.1120

> <Gold.PLP.part.nonpolar>
-49.8237

> <Gold.PLP.part.repulsive>
0.0730

> <Gold.PLP.ligand.clash>
0.0000

> <Gold.PLP.ligand.torsion>
0.4809

> <Gold.PLP.Chemscore.Hbond>
3.9600

> <Gold.PLP.Chemscore.CHOScore>
0.0000

> <Gold.PLP.Chemscore.Metal>
0.0000

> <Gold.Chemscore.Hbonds>
donor molecule, donor type, donor heavy atom, donor atom, acceptor molecule, acceptor atom, score
      L1  H     1    22       P1  7949  0.94
      L1  H     4    37       P1  7948  2.00
      P1  H 10752 10765       L1     1  1.00

> <Gold.PLP.Chemscore.Internal.Correction>
0.0348

> <Gold.Rescore>
     Score         DG    S(hbond)    S(metal)    S(lipo)     H(rot)  DE(clash)    DE(int)     intcor
     19.85     -20.85       2.61        0.00     118.60       2.82       0.58       0.42       ----

> <Gold.Chemscore.Fitness>
19.8461

> <Gold.Chemscore.DG>
-20.8488

> <Gold.Chemscore.ZeroCoef>
-5.4800

> <Gold.Chemscore.Hbond>
2.6097

> <Gold.Chemscore.Metal>
0.0000

> <Gold.Chemscore.Lipo>
118.6020

> <Gold.Chemscore.Internal_Hbond>
0.0000

> <Gold.Chemscore.DEClash>
0.5819

> <Gold.Chemscore.DEInternal>
0.4209

> <Gold.Chemscore.Rot>
2.8219

> <Gold.Chemscore.Internal.Correction>
   9.000000E+99

> <Gold.Chemscore.Hbonds>
donor molecule, donor type, donor heavy atom, donor atom, acceptor molecule, acceptor atom, score
      L1  H     1    22       P1  7949  0.85
      L1  H     4    37       P1  7948  0.77
      P1  H 10752 10765       L1     1  0.65

> <Gold.Chemscore.Hbond.Weighted>
-8.7164

> <Gold.Chemscore.Metal.Weighted>
-0.0000

> <Gold.Chemscore.Lipo.Weighted>
-13.8764

> <Gold.Chemscore.Internal_Hbond.Weighted>
0.0000

> <Gold.Chemscore.DEClash.Weighted>
0.5819

> <Gold.Chemscore.DEInternal.Weighted>
0.4209

> <Gold.Chemscore.Rot.Weighted>
7.2240

> <Gold.Chemscore.Internal.Correction.Weighted>
   9.000000E+99

> <Gold.Protein.RotatedTorsions>
[ 6907 6896 6895 6894 ] final   -4.45 input  -60.11 | X-H torsion
[ 7974 7965 7964 7962 ] final -155.63 input  175.53 | X-H torsion
[ 8008 7997 7996 7995 ] final  139.32 input   59.86 | X-H torsion
[ 10167 10162 10161 10158 ] final  -39.10 input  -65.29 | X-H torsion
[ 10718 10713 10712 10709 ] final   50.20 input   66.30 | X-H torsion
[ 10763 10752 10751 10750 ] final  155.31 input  -60.55 | X-H torsion
[ 11005 11000 10999 10996 ] final   42.86 input  -57.11 | X-H torsion

> <Gold.Protein.ActiveResidues>
 VAL166  LYS551  ARG553  GLY616  TRP617  ASP618  TYR619  PRO620  LYS621  CYS622 
 ASP623  PHE694  ASN695  SER759  ASP760  ASP761  ALA762  ILE779  LEU786  VAL792 
 PHE793  MET794  SER795  GLU796  ALA797  LYS798  CYS799  TRP800  GLU811  SER814 

> <Gold.Protein.RotatedAtoms>
  151.4974  135.1060  159.9819 H   0  0  0  0  0  0  0  0  0  0  0  0  # atno 6907 bound_to 6896
  152.4716  133.8038  159.6978 H   0  0  0  0  0  0  0  0  0  0  0  0  # atno 6908 bound_to 6896
  150.8728  133.7418  159.2982 H   0  0  0  0  0  0  0  0  0  0  0  0  # atno 6909 bound_to 6896
  144.7631  140.4223  143.5962 H   0  0  0  0  0  0  0  0  0  0  0  0  # atno 7974 bound_to 7965
  156.2990  140.2370  156.4218 H   0  0  0  0  0  0  0  0  0  0  0  0  # atno 8008 bound_to 7997
  154.8348  140.0431  157.1522 H   0  0  0  0  0  0  0  0  0  0  0  0  # atno 8009 bound_to 7997
  154.9168  140.2998  155.5241 H   0  0  0  0  0  0  0  0  0  0  0  0  # atno 8010 bound_to 7997
  140.7073  143.3235  151.2735 H   0  0  0  0  0  0  0  0  0  0  0  0  # atno 10167 bound_to 10162
  157.4861  130.8346  149.8148 H   0  0  0  0  0  0  0  0  0  0  0  0  # atno 10718 bound_to 10713
  154.1664  135.2807  155.3094 H   0  0  0  0  0  0  0  0  0  0  0  0  # atno 10763 bound_to 10752
  154.6108  135.5499  153.7475 H   0  0  0  0  0  0  0  0  0  0  0  0  # atno 10764 bound_to 10752
  153.0177  135.6415  154.1804 H   0  0  0  0  0  0  0  0  0  0  0  0  # atno 10765 bound_to 10752
  140.1699  134.4235  155.8264 H   0  0  0  0  0  0  0  0  0  0  0  0  # atno 11005 bound_to 11000
  145.6555  139.1572  143.2838 LP  0  0  0  0  0  0  0  0  0  0  0  0  # atno 17320 bound_to 7965
  146.1713  140.6640  142.9232 LP  0  0  0  0  0  0  0  0  0  0  0  0  # atno 17321 bound_to 7965
  139.6696  144.0043  152.2745 LP  0  0  0  0  0  0  0  0  0  0  0  0  # atno 17342 bound_to 10162
  139.9637  144.6540  150.8055 LP  0  0  0  0  0  0  0  0  0  0  0  0  # atno 17343 bound_to 10162
  156.0147  130.3818  150.2148 LP  0  0  0  0  0  0  0  0  0  0  0  0  # atno 17370 bound_to 10713
  157.0335  131.0014  151.3305 LP  0  0  0  0  0  0  0  0  0  0  0  0  # atno 17371 bound_to 10713
  141.2216  133.6951  156.7744 LP  0  0  0  0  0  0  0  0  0  0  0  0  # atno 17394 bound_to 11000
  140.2390  134.8628  157.3554 LP  0  0  0  0  0  0  0  0  0  0  0  0  # atno 17395 bound_to 11000

$$$$
