AV-unprocessed.smi:229|AV-procd|sdf|1754|dock3
  -GOLD-   2262020273D 1   1.00000     0.00000
 Structure written by MMmdl.
 58 62  0  0  0  0  0  0  0  0  1 V2000
  149.4599  141.5085  156.4818 C   0  0  0  0  0  0  0  0  0  0  0  0
  150.6975  140.7446  156.9694 C   0  0  0  0  0  0  0  0  0  0  0  0
  151.3064  141.3456  158.2449 C   0  0  1  0  0  0  0  0  0  0  0  0
  152.5753  140.5960  158.6825 C   0  0  0  0  0  0  0  0  0  0  0  0
  153.1647  141.2654  159.8327 N   0  0  0  0  0  0  0  0  0  0  0  0
  154.1572  140.5938  160.4532 C   0  0  0  0  0  0  0  0  0  0  0  0
  154.6770  139.5272  159.7980 N   0  0  0  0  0  0  0  0  0  0  0  0
  155.6604  138.8146  160.3563 C   0  0  0  0  0  0  0  0  0  0  0  0
  156.2521  138.9916  161.5396 N   0  0  0  0  0  0  0  0  0  0  0  0
  155.7214  140.0573  162.2056 C   0  0  0  0  0  0  0  0  0  0  0  0
  154.6781  140.9070  161.7410 C   0  0  0  0  0  0  0  0  0  0  0  0
  154.3973  141.8768  162.6967 N   0  0  0  0  0  0  0  0  0  0  0  0
  155.2315  141.6195  163.6669 C   0  0  0  0  0  0  0  0  0  0  0  0
  156.0617  140.5427  163.4560 N   0  0  0  0  0  0  0  0  0  0  0  0
  157.0717  140.0348  164.3678 C   0  0  0  0  0  0  0  0  0  0  0  0
  156.4784  139.6211  165.7288 C   0  0  1  0  0  0  0  0  0  0  0  0
  156.9307  138.3336  166.1058 O   0  0  0  0  0  0  0  0  0  0  0  0
  156.7680  140.6423  166.8487 C   0  0  1  0  0  0  0  0  0  0  0  0
  156.0863  142.0126  166.6921 C   0  0  0  0  0  0  0  0  0  0  0  0
  155.1844  142.1029  167.9082 C   0  0  0  0  0  0  0  0  0  0  0  0
  155.9014  141.2110  168.9127 C   0  0  0  0  0  0  0  0  0  0  0  0
  156.3603  140.1311  168.1155 O   0  0  0  0  0  0  0  0  0  0  0  0
  153.4917  142.6571  159.5621 C   0  0  0  0  0  0  0  0  0  0  0  0
  152.2425  143.4223  159.0735 C   0  0  1  0  0  0  0  0  0  0  0  0
  151.2386  143.7555  160.1726 C   0  0  0  0  0  0  0  0  0  0  0  0
  150.5013  144.9456  159.5781 C   0  0  0  0  0  0  0  0  0  0  0  0
  151.5241  145.6957  158.9411 O   0  0  0  0  0  0  0  0  0  0  0  0
  152.5839  144.8258  158.5480 C   0  0  0  0  0  0  0  0  0  0  0  0
  151.6374  142.7119  157.9849 O   0  0  0  0  0  0  0  0  0  0  0  0
  149.0447  141.0427  155.5879 H   0  0  0  0  0  0  0  0  0  0  0  0
  149.7038  142.5422  156.2345 H   0  0  0  0  0  0  0  0  0  0  0  0
  148.6793  141.5213  157.2429 H   0  0  0  0  0  0  0  0  0  0  0  0
  150.4165  139.7079  157.1581 H   0  0  0  0  0  0  0  0  0  0  0  0
  151.4476  140.7206  156.1782 H   0  0  0  0  0  0  0  0  0  0  0  0
  150.5631  141.2821  159.0390 H   0  0  0  0  0  0  0  0  0  0  0  0
  152.3364  139.5623  158.9363 H   0  0  0  0  0  0  0  0  0  0  0  0
  153.2874  140.5726  157.8575 H   0  0  0  0  0  0  0  0  0  0  0  0
  156.0254  137.9834  159.7712 H   0  0  0  0  0  0  0  0  0  0  0  0
  155.2617  142.2088  164.5719 H   0  0  0  0  0  0  0  0  0  0  0  0
  157.5756  139.1912  163.8945 H   0  0  0  0  0  0  0  0  0  0  0  0
  157.8268  140.8094  164.5062 H   0  0  0  0  0  0  0  0  0  0  0  0
  155.3956  139.5463  165.6211 H   0  0  0  0  0  0  0  0  0  0  0  0
  156.4307  138.0470  166.8545 H   0  0  0  0  0  0  0  0  0  0  0  0
  157.8463  140.8010  166.9026 H   0  0  0  0  0  0  0  0  0  0  0  0
  156.8369  142.8034  166.7253 H   0  0  0  0  0  0  0  0  0  0  0  0
  155.5337  142.1260  165.7591 H   0  0  0  0  0  0  0  0  0  0  0  0
  155.0458  143.1239  168.2645 H   0  0  0  0  0  0  0  0  0  0  0  0
  154.2039  141.6851  167.6762 H   0  0  0  0  0  0  0  0  0  0  0  0
  156.7549  141.7282  169.3540 H   0  0  0  0  0  0  0  0  0  0  0  0
  155.2489  140.8691  169.7162 H   0  0  0  0  0  0  0  0  0  0  0  0
  153.9050  143.1301  160.4542 H   0  0  0  0  0  0  0  0  0  0  0  0
  154.2682  142.6921  158.7963 H   0  0  0  0  0  0  0  0  0  0  0  0
  150.5737  142.9406  160.4530 H   0  0  0  0  0  0  0  0  0  0  0  0
  151.7630  144.0715  161.0755 H   0  0  0  0  0  0  0  0  0  0  0  0
  149.7773  144.6165  158.8313 H   0  0  0  0  0  0  0  0  0  0  0  0
  149.9769  145.5369  160.3285 H   0  0  0  0  0  0  0  0  0  0  0  0
  153.5020  145.2030  159.0003 H   0  0  0  0  0  0  0  0  0  0  0  0
  152.7222  144.8402  157.4662 H   0  0  0  0  0  0  0  0  0  0  0  0
  1  2  1  0  0  0  0
  1 30  1  0  0  0  0
  1 31  1  0  0  0  0
  1 32  1  0  0  0  0
  2  3  1  0  0  0  0
  2 33  1  0  0  0  0
  2 34  1  0  0  0  0
  3 29  1  0  0  0  0
  3  4  1  0  0  0  0
  3 35  1  0  0  0  0
  4  5  1  0  0  0  0
  4 36  1  0  0  0  0
  4 37  1  0  0  0  0
  5  6  1  0  0  0  0
  5 23  1  0  0  0  0
  6 11  1  0  0  0  0
  6  7  2  0  0  0  0
  7  8  1  0  0  0  0
  8  9  2  0  0  0  0
  8 38  1  0  0  0  0
  9 10  1  0  0  0  0
 10 14  1  0  0  0  0
 10 11  2  0  0  0  0
 11 12  1  0  0  0  0
 12 13  2  0  0  0  0
 13 14  1  0  0  0  0
 13 39  1  0  0  0  0
 14 15  1  0  0  0  0
 15 16  1  0  0  0  0
 15 40  1  0  0  0  0
 15 41  1  0  0  0  0
 16 17  1  0  0  0  0
 16 18  1  0  0  0  0
 16 42  1  0  0  0  0
 17 43  1  0  0  0  0
 18 22  1  0  0  0  0
 18 19  1  0  0  0  0
 18 44  1  0  0  0  0
 19 20  1  0  0  0  0
 19 45  1  0  0  0  0
 19 46  1  0  0  0  0
 20 21  1  0  0  0  0
 20 47  1  0  0  0  0
 20 48  1  0  0  0  0
 21 22  1  0  0  0  0
 21 49  1  0  0  0  0
 21 50  1  0  0  0  0
 23 24  1  0  0  0  0
 23 51  1  0  0  0  0
 23 52  1  0  0  0  0
 24 28  1  0  0  0  0
 24 25  1  0  0  0  0
 24 29  1  0  0  0  0
 25 26  1  0  0  0  0
 25 53  1  0  0  0  0
 25 54  1  0  0  0  0
 26 27  1  0  0  0  0
 26 55  1  0  0  0  0
 26 56  1  0  0  0  0
 27 28  1  0  0  0  0
 28 57  1  0  0  0  0
 28 58  1  0  0  0  0
M  END
> <s_m_source_file>
AV-unprocessed.smi

> <i_m_source_file_index>
229

> <i_lp_mmshare_version>
43012

> <i_f3d_flags>
0

> <s_epik_input>
W0NIMl0xT1tDSDJdW0NIMl1bQ0BdMTJbQ0gyXU4oW0NIMl1bQ0BIXShPMilbQ0gyXVtDSDNdKWMobltjSF1uMyljKGMzNCluW2NIXW40W0NIMl1bQ0BIXShbT0hdKVtDQEBIXTVbQ0gyXVtDSDJdW0NIMl1PNQ==

> <s_epik_cmdline>
J2VwaWtfcHl0aG9uJywgJy1waCcsICc3LjAnLCAnLXRuJywgJzgnLCAnLW1hJywgJzIwMCcsICctbWV0YWxfYmluZGluZycsICctaW1hZScsICc8aW5maWxlLm1hZT4nLCAnLW9tYWUnLCAnPG91dGZpbGUubWFlPic=

> <r_lp_tautomer_probability>
1

> <r_epik_Ionization_Penalty>
0.00318402

> <r_epik_Ionization_Penalty_Charging>
0

> <r_epik_Ionization_Penalty_Neutral>
0.00318402

> <r_epik_State_Penalty>
0.00215642

> <r_epik_Charging_Adjusted_Penalty>
0.00215642

> <i_epik_Tot_Q>
0

> <i_epik_Tot_abs_Q>
0

> <r_epik_Metal_State_Penalty>
-0

> <b_epik_Metal_Only>
0

> <s_lp_Force_Field>
OPLS_2005

> <r_lp_Energy>
59.0026

> <b_lp_Chiralities_Consistent>
1

> <s_lp_Variant>
AV-unprocessed.smi:229-8

> <Gold.Version>
5.8.1

> <Gold.Id.Protein>
6NUR|6NUR_protein|mol2

> <Gold.PLP.Fitness>
50.3119

> <Gold.PLP.PLP>
-51.9713

> <Gold.PLP.part.hbond>
-4.0000

> <Gold.PLP.part.metal>
0.0000

> <Gold.PLP.part.buried>
-4.9485

> <Gold.PLP.part.nonpolar>
-41.9909

> <Gold.PLP.part.repulsive>
0.2678

> <Gold.PLP.ligand.clash>
0.0000

> <Gold.PLP.ligand.torsion>
0.9250

> <Gold.PLP.Chemscore.Hbond>
0.0000

> <Gold.PLP.Chemscore.CHOScore>
0.0000

> <Gold.PLP.Chemscore.Metal>
0.0000

> <Gold.PLP.Chemscore.Internal.Correction>
0.1907

> <Gold.Rescore>
     Score         DG    S(hbond)    S(metal)    S(lipo)     H(rot)  DE(clash)    DE(int)     intcor
      9.29     -12.97       0.00        0.00     117.85       2.46       2.92       0.77       ----

> <Gold.Chemscore.Fitness>
9.2889

> <Gold.Chemscore.DG>
-12.9737

> <Gold.Chemscore.ZeroCoef>
-5.4800

> <Gold.Chemscore.Hbond>
0.0000

> <Gold.Chemscore.Metal>
0.0000

> <Gold.Chemscore.Lipo>
117.8548

> <Gold.Chemscore.Internal_Hbond>
0.0000

> <Gold.Chemscore.DEClash>
2.9159

> <Gold.Chemscore.DEInternal>
0.7689

> <Gold.Chemscore.Rot>
2.4591

> <Gold.Chemscore.Internal.Correction>
   9.000000E+99

> <Gold.Chemscore.Hbond.Weighted>
-0.0000

> <Gold.Chemscore.Metal.Weighted>
-0.0000

> <Gold.Chemscore.Lipo.Weighted>
-13.7890

> <Gold.Chemscore.Internal_Hbond.Weighted>
0.0000

> <Gold.Chemscore.DEClash.Weighted>
2.9159

> <Gold.Chemscore.DEInternal.Weighted>
0.7689

> <Gold.Chemscore.Rot.Weighted>
6.2953

> <Gold.Chemscore.Internal.Correction.Weighted>
   9.000000E+99

> <Gold.Protein.RotatedTorsions>
[ 6907 6896 6895 6894 ] final  178.88 input  -60.11 | X-H torsion
[ 7974 7965 7964 7962 ] final  179.53 input  175.53 | X-H torsion
[ 8008 7997 7996 7995 ] final -116.63 input   59.86 | X-H torsion
[ 10167 10162 10161 10158 ] final -107.56 input  -65.29 | X-H torsion
[ 10718 10713 10712 10709 ] final -123.68 input   66.30 | X-H torsion
[ 10763 10752 10751 10750 ] final -113.23 input  -60.55 | X-H torsion
[ 11005 11000 10999 10996 ] final -126.71 input  -57.11 | X-H torsion

> <Gold.Protein.ActiveResidues>
 VAL166  LYS551  ARG553  GLY616  TRP617  ASP618  TYR619  PRO620  LYS621  CYS622 
 ASP623  PHE694  ASN695  SER759  ASP760  ASP761  ALA762  ILE779  LEU786  VAL792 
 PHE793  MET794  SER795  GLU796  ALA797  LYS798  CYS799  TRP800  GLU811  SER814 

> <Gold.Protein.RotatedAtoms>
  151.6806  133.3312  159.3218 H   0  0  0  0  0  0  0  0  0  0  0  0  # atno 6907 bound_to 6896
  150.7824  134.6784  159.6439 H   0  0  0  0  0  0  0  0  0  0  0  0  # atno 6908 bound_to 6896
  152.3885  134.6482  160.0168 H   0  0  0  0  0  0  0  0  0  0  0  0  # atno 6909 bound_to 6896
  144.7145  140.0562  143.6434 H   0  0  0  0  0  0  0  0  0  0  0  0  # atno 7974 bound_to 7965
  155.0709  140.0393  157.2608 H   0  0  0  0  0  0  0  0  0  0  0  0  # atno 8008 bound_to 7997
  154.6983  140.2668  155.6719 H   0  0  0  0  0  0  0  0  0  0  0  0  # atno 8009 bound_to 7997
  156.2752  140.2745  156.1585 H   0  0  0  0  0  0  0  0  0  0  0  0  # atno 8010 bound_to 7997
  140.1756  143.4007  152.1321 H   0  0  0  0  0  0  0  0  0  0  0  0  # atno 10167 bound_to 10162
  156.1522  130.6543  150.9930 H   0  0  0  0  0  0  0  0  0  0  0  0  # atno 10718 bound_to 10713
  154.8386  135.4462  154.1316 H   0  0  0  0  0  0  0  0  0  0  0  0  # atno 10763 bound_to 10752
  153.2525  135.6928  153.7670 H   0  0  0  0  0  0  0  0  0  0  0  0  # atno 10764 bound_to 10752
  153.6977  135.3377  155.3193 H   0  0  0  0  0  0  0  0  0  0  0  0  # atno 10765 bound_to 10752
  140.9659  134.0873  157.3921 H   0  0  0  0  0  0  0  0  0  0  0  0  # atno 11005 bound_to 11000
  145.9903  139.3009  143.0989 LP  0  0  0  0  0  0  0  0  0  0  0  0  # atno 17320 bound_to 7965
  145.8911  140.9303  143.0552 LP  0  0  0  0  0  0  0  0  0  0  0  0  # atno 17321 bound_to 7965
  139.5318  144.7168  151.5028 LP  0  0  0  0  0  0  0  0  0  0  0  0  # atno 17342 bound_to 10162
  140.6553  143.8611  150.6829 LP  0  0  0  0  0  0  0  0  0  0  0  0  # atno 17343 bound_to 10162
  157.6666  131.0870  150.7713 LP  0  0  0  0  0  0  0  0  0  0  0  0  # atno 17370 bound_to 10713
  156.7780  130.4850  149.5406 LP  0  0  0  0  0  0  0  0  0  0  0  0  # atno 17371 bound_to 10713
  139.8894  135.0105  156.6678 LP  0  0  0  0  0  0  0  0  0  0  0  0  # atno 17394 bound_to 11000
  140.7400  133.8985  155.8271 LP  0  0  0  0  0  0  0  0  0  0  0  0  # atno 17395 bound_to 11000

$$$$
