AV-unprocessed.smi:817|AV-procd|sdf|3831|dock8
  -GOLD-   22720 1273D 1   1.00000     0.00000
 Structure written by MMmdl.
 48 49  0  0  0  0  0  0  0  0  2 V2000
  144.3243  141.4133  157.3455 C   0  0  0  0  0  0  0  0  0  0  0  0
  144.8797  141.5465  155.9205 C   0  0  1  0  0  0  0  0  0  0  0  0
  144.5534  142.9266  155.3208 C   0  0  0  0  0  0  0  0  0  0  0  0
  145.1583  143.0953  153.9195 C   0  0  0  0  0  0  0  0  0  0  0  0
  146.6710  142.8099  153.9317 C   0  0  0  0  0  0  0  0  0  0  0  0
  147.0106  141.3795  154.4508 C   0  0  2  0  0  0  0  0  0  0  0  0
  148.5579  141.1958  154.5203 C   0  0  0  0  0  0  0  0  0  0  0  0
  149.2113  142.1445  155.4243 N   0  0  0  0  0  0  0  0  0  0  0  0
  150.0258  141.8674  156.4568 C   0  0  0  0  0  0  0  0  0  0  0  0
  150.2934  140.7069  156.7583 O   0  0  0  0  0  0  0  0  0  0  0  0
  150.4768  142.9573  157.1090 N   0  0  0  0  0  0  0  0  0  0  0  0
  151.3459  143.0273  158.2314 C   0  0  0  0  0  0  0  0  0  0  0  0
  152.0836  141.9316  158.7423 C   0  0  0  0  0  0  0  0  0  0  0  0
  152.9234  142.1373  159.8539 C   0  0  0  0  0  0  0  0  0  0  0  0
  153.0027  143.4295  160.4083 C   0  0  0  0  0  0  0  0  0  0  0  0
  152.3164  144.4855  159.9232 N   0  0  0  0  0  0  0  0  0  0  0  0
  151.5128  144.2806  158.8580 C   0  0  0  0  0  0  0  0  0  0  0  0
  146.3962  140.3322  153.5507 N   0  3  0  0  0  0  0  0  0  0  0  0
  146.9099  140.2900  152.1557 C   0  0  0  0  0  0  0  0  0  0  0  0
  146.3191  138.9571  154.1120 C   0  0  0  0  0  0  0  0  0  0  0  0
  146.4037  141.2940  155.8859 C   0  0  0  0  0  0  0  0  0  0  0  0
  144.7779  142.1423  158.0177 H   0  0  0  0  0  0  0  0  0  0  0  0
  144.5184  140.4202  157.7515 H   0  0  0  0  0  0  0  0  0  0  0  0
  143.2454  141.5704  157.3636 H   0  0  0  0  0  0  0  0  0  0  0  0
  144.3854  140.7884  155.3124 H   0  0  0  0  0  0  0  0  0  0  0  0
  143.4733  143.0697  155.2743 H   0  0  0  0  0  0  0  0  0  0  0  0
  144.9388  143.7108  155.9742 H   0  0  0  0  0  0  0  0  0  0  0  0
  144.6533  142.4339  153.2148 H   0  0  0  0  0  0  0  0  0  0  0  0
  144.9777  144.1101  153.5641 H   0  0  0  0  0  0  0  0  0  0  0  0
  147.1008  142.9976  152.9489 H   0  0  0  0  0  0  0  0  0  0  0  0
  147.1353  143.5566  154.5769 H   0  0  0  0  0  0  0  0  0  0  0  0
  148.8074  140.1895  154.8567 H   0  0  0  0  0  0  0  0  0  0  0  0
  149.0024  141.3229  153.5330 H   0  0  0  0  0  0  0  0  0  0  0  0
  149.0170  143.1213  155.2558 H   0  0  0  0  0  0  0  0  0  0  0  0
  150.1088  143.8429  156.7946 H   0  0  0  0  0  0  0  0  0  0  0  0
  152.0349  140.9481  158.3017 H   0  0  0  0  0  0  0  0  0  0  0  0
  153.4980  141.3228  160.2693 H   0  0  0  0  0  0  0  0  0  0  0  0
  153.6382  143.6206  161.2604 H   0  0  0  0  0  0  0  0  0  0  0  0
  150.9814  145.1487  158.4962 H   0  0  0  0  0  0  0  0  0  0  0  0
  147.9550  139.9846  152.1149 H   0  0  0  0  0  0  0  0  0  0  0  0
  146.8032  141.2417  151.6391 H   0  0  0  0  0  0  0  0  0  0  0  0
  146.3407  139.5686  151.5684 H   0  0  0  0  0  0  0  0  0  0  0  0
  147.3064  138.5361  154.2989 H   0  0  0  0  0  0  0  0  0  0  0  0
  145.8120  138.2921  153.4121 H   0  0  0  0  0  0  0  0  0  0  0  0
  145.7402  138.9137  155.0325 H   0  0  0  0  0  0  0  0  0  0  0  0
  146.8719  142.0421  156.5268 H   0  0  0  0  0  0  0  0  0  0  0  0
  146.6451  140.3443  156.3622 H   0  0  0  0  0  0  0  0  0  0  0  0
  145.4325  140.6206  153.4565 H   0  0  0  0  0  0  0  0  0  0  0  0
  1  2  1  0  0  0  0
  1 22  1  0  0  0  0
  1 23  1  0  0  0  0
  1 24  1  0  0  0  0
  2 21  1  0  0  0  0
  2  3  1  0  0  0  0
  2 25  1  0  0  0  0
  3  4  1  0  0  0  0
  3 26  1  0  0  0  0
  3 27  1  0  0  0  0
  4  5  1  0  0  0  0
  4 28  1  0  0  0  0
  4 29  1  0  0  0  0
  5  6  1  0  0  0  0
  5 30  1  0  0  0  0
  5 31  1  0  0  0  0
  6  7  1  0  0  0  0
  6 18  1  0  0  0  0
  6 21  1  0  0  0  0
  7  8  1  0  0  0  0
  7 32  1  0  0  0  0
  7 33  1  0  0  0  0
  8  9  1  0  0  0  0
  8 34  1  0  0  0  0
  9 10  2  0  0  0  0
  9 11  1  0  0  0  0
 11 12  1  0  0  0  0
 11 35  1  0  0  0  0
 12 17  1  0  0  0  0
 12 13  2  0  0  0  0
 13 14  1  0  0  0  0
 13 36  1  0  0  0  0
 14 15  2  0  0  0  0
 14 37  1  0  0  0  0
 15 16  1  0  0  0  0
 15 38  1  0  0  0  0
 16 17  2  0  0  0  0
 17 39  1  0  0  0  0
 18 19  1  0  0  0  0
 18 20  1  0  0  0  0
 18 48  1  0  0  0  0
 19 40  1  0  0  0  0
 19 41  1  0  0  0  0
 19 42  1  0  0  0  0
 20 43  1  0  0  0  0
 20 44  1  0  0  0  0
 20 45  1  0  0  0  0
 21 46  1  0  0  0  0
 21 47  1  0  0  0  0
M  CHG  1  18   1
M  END
> <s_m_source_file>
AV-unprocessed.smi

> <i_m_source_file_index>
817

> <i_lp_mmshare_version>
43012

> <i_f3d_flags>
0

> <s_epik_input>
W0NIM11bQ0BASF0oW0NIMl0xKVtDSDJdW0NIMl1bQ0gyXVtDQF0xKE4oW0NIM10pW0NIM10pW0NIMl1bTkhdQyg9TylbTkhdYzJbY0hdW2NIXVtjSF1uW2NIXTI=

> <s_epik_cmdline>
J2VwaWtfcHl0aG9uJywgJy1waCcsICc3LjAnLCAnLXRuJywgJzgnLCAnLW1hJywgJzIwMCcsICctbWV0YWxfYmluZGluZycsICctaW1hZScsICc8aW5maWxlLm1hZT4nLCAnLW9tYWUnLCAnPG91dGZpbGUubWFlPic=

> <r_lp_tautomer_probability>
1

> <r_epik_Ionization_Penalty>
0.00584939

> <r_epik_Ionization_Penalty_Charging>
0.00160539

> <r_epik_Ionization_Penalty_Neutral>
0.004244

> <r_epik_State_Penalty>
-0

> <r_epik_Charging_Adjusted_Penalty>
0.00160539

> <i_epik_Tot_Q>
1

> <i_epik_Tot_abs_Q>
1

> <r_epik_Metal_State_Penalty>
-0

> <b_epik_Metal_Only>
0

> <s_lp_Force_Field>
OPLS_2005

> <r_lp_Energy>
44.0482

> <b_lp_Chiralities_Consistent>
1

> <s_lp_Variant>
AV-unprocessed.smi:817-4

> <Gold.Version>
5.8.1

> <Gold.Id.Protein>
6NUR|6NUR_protein|mol2

> <Gold.PLP.Fitness>
48.2140

> <Gold.PLP.PLP>
-36.8362

> <Gold.PLP.part.hbond>
-3.0000

> <Gold.PLP.part.metal>
0.0000

> <Gold.PLP.part.buried>
-3.1740

> <Gold.PLP.part.nonpolar>
-31.7066

> <Gold.PLP.part.repulsive>
0.2433

> <Gold.PLP.ligand.clash>
0.0000

> <Gold.PLP.ligand.torsion>
0.2031

> <Gold.PLP.Chemscore.Hbond>
3.8877

> <Gold.PLP.Chemscore.CHOScore>
0.0000

> <Gold.PLP.Chemscore.Metal>
0.0000

> <Gold.Chemscore.Hbonds>
donor molecule, donor type, donor heavy atom, donor atom, acceptor molecule, acceptor atom, score
      L1  H     8    34       P1  8028  1.00
      L1  H    11    35       P1  8028  0.96
      L1  H    18    48       P1 10175  1.98

> <Gold.PLP.Chemscore.Internal.Correction>
0.1207

> <Gold.Rescore>
     Score         DG    S(hbond)    S(metal)    S(lipo)     H(rot)  DE(clash)    DE(int)     intcor
     20.68     -23.91       2.78        0.00     109.65       1.44       1.90       1.33       ----

> <Gold.Chemscore.Fitness>
20.6793

> <Gold.Chemscore.DG>
-23.9088

> <Gold.Chemscore.ZeroCoef>
-5.4800

> <Gold.Chemscore.Hbond>
2.7808

> <Gold.Chemscore.Metal>
0.0000

> <Gold.Chemscore.Lipo>
109.6479

> <Gold.Chemscore.Internal_Hbond>
0.0000

> <Gold.Chemscore.DEClash>
1.8975

> <Gold.Chemscore.DEInternal>
1.3320

> <Gold.Chemscore.Rot>
1.4405

> <Gold.Chemscore.Internal.Correction>
   9.000000E+99

> <Gold.Chemscore.Hbonds>
donor molecule, donor type, donor heavy atom, donor atom, acceptor molecule, acceptor atom, score
      L1  H     8    34       P1  8028  0.99
      L1  H    11    35       P1  8028  0.92
      L1  H    18    48       P1 10175  0.84

> <Gold.Chemscore.Hbond.Weighted>
-9.2878

> <Gold.Chemscore.Metal.Weighted>
-0.0000

> <Gold.Chemscore.Lipo.Weighted>
-12.8288

> <Gold.Chemscore.Internal_Hbond.Weighted>
0.0000

> <Gold.Chemscore.DEClash.Weighted>
1.8975

> <Gold.Chemscore.DEInternal.Weighted>
1.3320

> <Gold.Chemscore.Rot.Weighted>
3.6878

> <Gold.Chemscore.Internal.Correction.Weighted>
   9.000000E+99

> <Gold.Protein.RotatedTorsions>
[ 6907 6896 6895 6894 ] final   71.13 input  -60.11 | X-H torsion
[ 7974 7965 7964 7962 ] final  129.57 input  175.53 | X-H torsion
[ 8008 7997 7996 7995 ] final   61.94 input   59.86 | X-H torsion
[ 10167 10162 10161 10158 ] final  -15.23 input  -65.29 | X-H torsion
[ 10718 10713 10712 10709 ] final  -46.76 input   66.30 | X-H torsion
[ 10763 10752 10751 10750 ] final   37.76 input  -60.55 | X-H torsion
[ 11005 11000 10999 10996 ] final -130.32 input  -57.11 | X-H torsion

> <Gold.Protein.ActiveResidues>
 VAL166  LYS551  ARG553  GLY616  TRP617  ASP618  TYR619  PRO620  LYS621  CYS622 
 ASP623  PHE694  ASN695  SER759  ASP760  ASP761  ALA762  ILE779  LEU786  VAL792 
 PHE793  MET794  SER795  GLU796  ALA797  LYS798  CYS799  TRP800  GLU811  SER814 

> <Gold.Protein.RotatedAtoms>
  152.4791  134.4766  159.9652 H   0  0  0  0  0  0  0  0  0  0  0  0  # atno 6907 bound_to 6896
  151.4776  133.3548  159.2841 H   0  0  0  0  0  0  0  0  0  0  0  0  # atno 6908 bound_to 6896
  150.8851  134.8273  159.7314 H   0  0  0  0  0  0  0  0  0  0  0  0  # atno 6909 bound_to 6896
  145.0273  139.4078  143.5167 H   0  0  0  0  0  0  0  0  0  0  0  0  # atno 7974 bound_to 7965
  155.6063  140.3494  155.4609 H   0  0  0  0  0  0  0  0  0  0  0  0  # atno 8008 bound_to 7997
  156.0189  140.1249  157.0402 H   0  0  0  0  0  0  0  0  0  0  0  0  # atno 8009 bound_to 7997
  154.4308  140.1066  156.5921 H   0  0  0  0  0  0  0  0  0  0  0  0  # atno 8010 bound_to 7997
  140.7215  143.5239  150.9600 H   0  0  0  0  0  0  0  0  0  0  0  0  # atno 10167 bound_to 10162
  156.2151  130.4163  149.9065 H   0  0  0  0  0  0  0  0  0  0  0  0  # atno 10718 bound_to 10713
  153.0025  135.6269  154.2196 H   0  0  0  0  0  0  0  0  0  0  0  0  # atno 10763 bound_to 10752
  154.1939  135.2807  155.3015 H   0  0  0  0  0  0  0  0  0  0  0  0  # atno 10764 bound_to 10752
  154.5738  135.5668  153.7179 H   0  0  0  0  0  0  0  0  0  0  0  0  # atno 10765 bound_to 10752
  140.9356  134.1262  157.4196 H   0  0  0  0  0  0  0  0  0  0  0  0  # atno 11005 bound_to 11000
  146.3494  139.9803  142.8696 LP  0  0  0  0  0  0  0  0  0  0  0  0  # atno 17320 bound_to 7965
  145.1817  140.9770  143.4262 LP  0  0  0  0  0  0  0  0  0  0  0  0  # atno 17321 bound_to 7965
  139.8957  143.6898  152.3139 LP  0  0  0  0  0  0  0  0  0  0  0  0  # atno 17342 bound_to 10162
  139.7229  144.7599  151.0925 LP  0  0  0  0  0  0  0  0  0  0  0  0  # atno 17343 bound_to 10162
  156.6730  130.8828  151.3565 LP  0  0  0  0  0  0  0  0  0  0  0  0  # atno 17370 bound_to 10713
  157.7059  130.9384  150.0929 LP  0  0  0  0  0  0  0  0  0  0  0  0  # atno 17371 bound_to 10713
  139.8807  135.0020  156.6098 LP  0  0  0  0  0  0  0  0  0  0  0  0  # atno 17394 bound_to 11000
  140.7804  133.8665  155.8563 LP  0  0  0  0  0  0  0  0  0  0  0  0  # atno 17395 bound_to 11000

$$$$
