AV-unprocessed.smi:2355|AV-procd|sdf|9387|dock8
  -GOLD-   2272013 23D 1   1.00000     0.00000
 Structure written by MMmdl.
 48 49  0  0  0  0  0  0  0  0  1 V2000
  153.5794  140.3313  159.2516 C   0  0  0  0  0  0  0  0  0  0  0  0
  152.6885  141.5526  159.1635 C   0  0  0  0  0  0  0  0  0  0  0  0
  152.8539  142.6335  160.0505 C   0  0  0  0  0  0  0  0  0  0  0  0
  151.9932  143.7405  159.9176 C   0  0  0  0  0  0  0  0  0  0  0  0
  152.1125  144.9342  160.8414 C   0  0  0  0  0  0  0  0  0  0  0  0
  151.0212  143.8099  158.9830 N   0  0  0  0  0  0  0  0  0  0  0  0
  150.8532  142.7751  158.1227 C   0  0  0  0  0  0  0  0  0  0  0  0
  149.8626  142.7499  157.1056 N   0  0  0  0  0  0  0  0  0  0  0  0
  149.1138  141.7091  156.7011 C   0  0  0  0  0  0  0  0  0  0  0  0
  149.1634  140.5703  157.1675 O   0  0  0  0  0  0  0  0  0  0  0  0
  148.2849  142.0662  155.7088 N   0  0  0  0  0  0  0  0  0  0  0  0
  147.3301  141.1809  155.0430 C   0  0  2  0  0  0  0  0  0  0  0  0
  147.6651  141.1268  153.5421 C   0  0  0  0  0  0  0  0  0  0  0  0
  145.8498  141.5931  155.3350 C   0  0  1  0  0  0  0  0  0  0  0  0
  145.4737  141.2200  156.7931 C   0  0  0  0  0  0  0  0  0  0  0  0
  145.5402  143.0036  154.9998 N   0  0  0  0  0  0  0  0  0  0  0  0
  144.2379  143.4345  155.5209 C   0  0  0  0  0  0  0  0  0  0  0  0
  143.9035  144.8916  155.1582 C   0  0  0  0  0  0  0  0  0  0  0  0
  143.9397  145.0533  153.7470 O   0  0  0  0  0  0  0  0  0  0  0  0
  145.2092  144.7178  153.2041 C   0  0  0  0  0  0  0  0  0  0  0  0
  145.5567  143.2610  153.5553 C   0  0  0  0  0  0  0  0  0  0  0  0
  151.6750  141.6274  158.1869 C   0  0  0  0  0  0  0  0  0  0  0  0
  154.2551  140.3947  160.1051 H   0  0  0  0  0  0  0  0  0  0  0  0
  154.1799  140.2360  158.3468 H   0  0  0  0  0  0  0  0  0  0  0  0
  152.9762  139.4299  159.3620 H   0  0  0  0  0  0  0  0  0  0  0  0
  153.6187  142.6145  160.8131 H   0  0  0  0  0  0  0  0  0  0  0  0
  153.0674  144.9299  161.3678 H   0  0  0  0  0  0  0  0  0  0  0  0
  151.3129  144.9178  161.5823 H   0  0  0  0  0  0  0  0  0  0  0  0
  152.0408  145.8653  160.2780 H   0  0  0  0  0  0  0  0  0  0  0  0
  149.7087  143.6259  156.6289 H   0  0  0  0  0  0  0  0  0  0  0  0
  148.3121  143.0230  155.3886 H   0  0  0  0  0  0  0  0  0  0  0  0
  147.5272  140.1903  155.4509 H   0  0  0  0  0  0  0  0  0  0  0  0
  147.0067  140.4373  153.0135 H   0  0  0  0  0  0  0  0  0  0  0  0
  148.6879  140.7831  153.3839 H   0  0  0  0  0  0  0  0  0  0  0  0
  147.5725  142.1046  153.0693 H   0  0  0  0  0  0  0  0  0  0  0  0
  145.2253  140.9683  154.6944 H   0  0  0  0  0  0  0  0  0  0  0  0
  145.7904  140.2133  157.0632 H   0  0  0  0  0  0  0  0  0  0  0  0
  144.3958  141.2327  156.9493 H   0  0  0  0  0  0  0  0  0  0  0  0
  145.9222  141.9085  157.5095 H   0  0  0  0  0  0  0  0  0  0  0  0
  143.4524  142.7784  155.1430 H   0  0  0  0  0  0  0  0  0  0  0  0
  144.2159  143.3615  156.6070 H   0  0  0  0  0  0  0  0  0  0  0  0
  142.9091  145.1532  155.5203 H   0  0  0  0  0  0  0  0  0  0  0  0
  144.6076  145.5789  155.6301 H   0  0  0  0  0  0  0  0  0  0  0  0
  145.1794  144.8488  152.1224 H   0  0  0  0  0  0  0  0  0  0  0  0
  145.9700  145.3992  153.5878 H   0  0  0  0  0  0  0  0  0  0  0  0
  146.5423  143.0651  153.1386 H   0  0  0  0  0  0  0  0  0  0  0  0
  144.8587  142.5903  153.0521 H   0  0  0  0  0  0  0  0  0  0  0  0
  151.5305  140.8098  157.4951 H   0  0  0  0  0  0  0  0  0  0  0  0
  1  2  1  0  0  0  0
  1 23  1  0  0  0  0
  1 24  1  0  0  0  0
  1 25  1  0  0  0  0
  2 22  1  0  0  0  0
  2  3  2  0  0  0  0
  3  4  1  0  0  0  0
  3 26  1  0  0  0  0
  4  5  1  0  0  0  0
  4  6  2  0  0  0  0
  5 27  1  0  0  0  0
  5 28  1  0  0  0  0
  5 29  1  0  0  0  0
  6  7  1  0  0  0  0
  7  8  1  0  0  0  0
  7 22  2  0  0  0  0
  8  9  1  0  0  0  0
  8 30  1  0  0  0  0
  9 10  2  0  0  0  0
  9 11  1  0  0  0  0
 11 12  1  0  0  0  0
 11 31  1  0  0  0  0
 12 13  1  0  0  0  0
 12 14  1  0  0  0  0
 12 32  1  0  0  0  0
 13 33  1  0  0  0  0
 13 34  1  0  0  0  0
 13 35  1  0  0  0  0
 14 15  1  0  0  0  0
 14 16  1  0  0  0  0
 14 36  1  0  0  0  0
 15 37  1  0  0  0  0
 15 38  1  0  0  0  0
 15 39  1  0  0  0  0
 16 21  1  0  0  0  0
 16 17  1  0  0  0  0
 17 18  1  0  0  0  0
 17 40  1  0  0  0  0
 17 41  1  0  0  0  0
 18 19  1  0  0  0  0
 18 42  1  0  0  0  0
 18 43  1  0  0  0  0
 19 20  1  0  0  0  0
 20 21  1  0  0  0  0
 20 44  1  0  0  0  0
 20 45  1  0  0  0  0
 21 46  1  0  0  0  0
 21 47  1  0  0  0  0
 22 48  1  0  0  0  0
M  END
> <s_m_source_file>
AV-unprocessed.smi

> <i_m_source_file_index>
2355

> <i_lp_mmshare_version>
43012

> <i_f3d_flags>
0

> <s_epik_input>
W0NIM11jMVtjSF1jKFtDSDNdKW5jKFtjSF0xKVtOSF1DKD1PKVtOSF1bQ0BIXShbQ0gzXSlbQ0BIXShbQ0gzXSlOMltDSDJdW0NIMl1PW0NIMl1bQ0gyXTI=

> <s_epik_cmdline>
J2VwaWtfcHl0aG9uJywgJy1waCcsICc3LjAnLCAnLXRuJywgJzgnLCAnLW1hJywgJzIwMCcsICctbWV0YWxfYmluZGluZycsICctaW1hZScsICc8aW5maWxlLm1hZT4nLCAnLW9tYWUnLCAnPG91dGZpbGUubWFlPic=

> <r_epik_Ionization_Penalty>
0.266238

> <r_epik_Ionization_Penalty_Charging>
0

> <r_epik_Ionization_Penalty_Neutral>
0.266238

> <r_epik_State_Penalty>
0.257924

> <r_epik_Charging_Adjusted_Penalty>
0.257924

> <i_epik_Tot_Q>
0

> <i_epik_Tot_abs_Q>
0

> <r_epik_Metal_State_Penalty>
0.257904

> <b_epik_Metal_Only>
0

> <s_lp_Force_Field>
OPLS_2005

> <r_lp_Energy>
33.2304

> <b_lp_Chiralities_Consistent>
1

> <s_lp_Variant>
AV-unprocessed.smi:2355-3

> <Gold.Version>
5.8.1

> <Gold.Id.Protein>
6NUR|6NUR_protein|mol2

> <Gold.PLP.Fitness>
43.2473

> <Gold.PLP.PLP>
-38.5135

> <Gold.PLP.part.hbond>
-2.2600

> <Gold.PLP.part.metal>
0.0000

> <Gold.PLP.part.buried>
-6.4065

> <Gold.PLP.part.nonpolar>
-30.7627

> <Gold.PLP.part.repulsive>
0.5203

> <Gold.PLP.ligand.clash>
0.0000

> <Gold.PLP.ligand.torsion>
0.6416

> <Gold.PLP.Chemscore.Hbond>
1.9760

> <Gold.PLP.Chemscore.CHOScore>
0.0000

> <Gold.PLP.Chemscore.Metal>
0.0000

> <Gold.Chemscore.Hbonds>
donor molecule, donor type, donor heavy atom, donor atom, acceptor molecule, acceptor atom, score
      L1  H     8    30       P1  8028  1.00
      L1  H    11    31       P1  8028  0.99

> <Gold.PLP.Chemscore.Internal.Correction>
0.0891

> <Gold.Rescore>
     Score         DG    S(hbond)    S(metal)    S(lipo)     H(rot)  DE(clash)    DE(int)     intcor
     17.74     -19.95       1.93        0.00      99.31       1.40       0.10       2.11       ----

> <Gold.Chemscore.Fitness>
17.7445

> <Gold.Chemscore.DG>
-19.9483

> <Gold.Chemscore.ZeroCoef>
-5.4800

> <Gold.Chemscore.Hbond>
1.9273

> <Gold.Chemscore.Metal>
0.0000

> <Gold.Chemscore.Lipo>
99.3083

> <Gold.Chemscore.Internal_Hbond>
0.0000

> <Gold.Chemscore.DEClash>
0.0960

> <Gold.Chemscore.DEInternal>
2.1078

> <Gold.Chemscore.Rot>
1.4015

> <Gold.Chemscore.Internal.Correction>
   9.000000E+99

> <Gold.Chemscore.Hbonds>
donor molecule, donor type, donor heavy atom, donor atom, acceptor molecule, acceptor atom, score
      L1  H     8    30       P1  8028  0.99
      L1  H    11    31       P1  8028  0.92

> <Gold.Chemscore.Hbond.Weighted>
-6.4370

> <Gold.Chemscore.Metal.Weighted>
-0.0000

> <Gold.Chemscore.Lipo.Weighted>
-11.6191

> <Gold.Chemscore.Internal_Hbond.Weighted>
0.0000

> <Gold.Chemscore.DEClash.Weighted>
0.0960

> <Gold.Chemscore.DEInternal.Weighted>
2.1078

> <Gold.Chemscore.Rot.Weighted>
3.5878

> <Gold.Chemscore.Internal.Correction.Weighted>
   9.000000E+99

> <Gold.Protein.RotatedTorsions>
[ 6907 6896 6895 6894 ] final -163.53 input  -60.11 | X-H torsion
[ 7974 7965 7964 7962 ] final -132.68 input  175.53 | X-H torsion
[ 8008 7997 7996 7995 ] final  -68.42 input   59.86 | X-H torsion
[ 10167 10162 10161 10158 ] final  131.90 input  -65.29 | X-H torsion
[ 10718 10713 10712 10709 ] final  -60.04 input   66.30 | X-H torsion
[ 10763 10752 10751 10750 ] final   15.49 input  -60.55 | X-H torsion
[ 11005 11000 10999 10996 ] final   -2.52 input  -57.11 | X-H torsion

> <Gold.Protein.ActiveResidues>
 VAL166  LYS551  ARG553  GLY616  TRP617  ASP618  TYR619  PRO620  LYS621  CYS622 
 ASP623  PHE694  ASN695  SER759  ASP760  ASP761  ALA762  ILE779  LEU786  VAL792 
 PHE793  MET794  SER795  GLU796  ALA797  LYS798  CYS799  TRP800  GLU811  SER814 

> <Gold.Protein.RotatedAtoms>
  151.3974  133.3768  159.2727 H   0  0  0  0  0  0  0  0  0  0  0  0  # atno 6907 bound_to 6896
  150.9459  134.8865  159.7652 H   0  0  0  0  0  0  0  0  0  0  0  0  # atno 6908 bound_to 6896
  152.5091  134.3927  159.9441 H   0  0  0  0  0  0  0  0  0  0  0  0  # atno 6909 bound_to 6896
  144.9262  140.7074  143.4934 H   0  0  0  0  0  0  0  0  0  0  0  0  # atno 7974 bound_to 7965
  154.4867  140.0873  156.7501 H   0  0  0  0  0  0  0  0  0  0  0  0  # atno 8008 bound_to 7997
  155.4333  140.3450  155.4264 H   0  0  0  0  0  0  0  0  0  0  0  0  # atno 8009 bound_to 7997
  156.1271  140.1490  156.9108 H   0  0  0  0  0  0  0  0  0  0  0  0  # atno 8010 bound_to 7997
  139.5363  144.6686  151.4774 H   0  0  0  0  0  0  0  0  0  0  0  0  # atno 10167 bound_to 10162
  156.1019  130.4185  150.0798 H   0  0  0  0  0  0  0  0  0  0  0  0  # atno 10718 bound_to 10713
  153.1520  135.6780  153.8868 H   0  0  0  0  0  0  0  0  0  0  0  0  # atno 10763 bound_to 10752
  153.8292  135.3120  155.3418 H   0  0  0  0  0  0  0  0  0  0  0  0  # atno 10764 bound_to 10752
  154.7869  135.4857  154.0053 H   0  0  0  0  0  0  0  0  0  0  0  0  # atno 10765 bound_to 10752
  140.6593  133.9335  155.8426 H   0  0  0  0  0  0  0  0  0  0  0  0  # atno 11005 bound_to 11000
  145.3215  139.1787  143.4585 LP  0  0  0  0  0  0  0  0  0  0  0  0  # atno 17320 bound_to 7965
  146.3227  140.3233  142.8635 LP  0  0  0  0  0  0  0  0  0  0  0  0  # atno 17321 bound_to 7965
  140.6571  143.8576  150.6847 LP  0  0  0  0  0  0  0  0  0  0  0  0  # atno 17342 bound_to 10162
  140.1959  143.3999  152.1828 LP  0  0  0  0  0  0  0  0  0  0  0  0  # atno 17343 bound_to 10162
  156.8783  130.9548  151.3602 LP  0  0  0  0  0  0  0  0  0  0  0  0  # atno 17370 bound_to 10713
  157.6190  130.8640  149.9077 LP  0  0  0  0  0  0  0  0  0  0  0  0  # atno 17371 bound_to 10713
  141.0478  134.0529  157.3822 LP  0  0  0  0  0  0  0  0  0  0  0  0  # atno 17394 bound_to 11000
  139.9018  135.0167  156.7306 LP  0  0  0  0  0  0  0  0  0  0  0  0  # atno 17395 bound_to 11000

$$$$
