AV-unprocessed.smi:1758|AV-procd|sdf|7084|dock5
  -GOLD-   22720 8303D 1   1.00000     0.00000
 Structure written by MMmdl.
 44 46  0  0  0  0  0  0  0  0  2 V2000
  150.7417  142.0454  156.5918 C   0  0  0  0  0  0  0  0  0  0  0  0
  149.5927  141.0728  156.8824 C   0  0  0  0  0  0  0  0  0  0  0  0
  149.4325  140.0978  155.8217 N   0  0  0  0  0  0  0  0  0  0  0  0
  148.6077  138.9909  155.7970 C   0  0  0  0  0  0  0  0  0  0  0  0
  148.8177  138.4014  154.5825 C   0  0  0  0  0  0  0  0  0  0  0  0
  148.2250  137.2367  154.0335 N   0  0  0  0  0  0  0  0  0  0  0  0
  147.0335  136.7039  154.3483 C   0  0  0  0  0  0  0  0  0  0  0  0
  146.2589  137.1492  155.1951 O   0  0  0  0  0  0  0  0  0  0  0  0
  146.7860  135.6033  153.6245 N   0  0  0  0  0  0  0  0  0  0  0  0
  145.5885  134.7761  153.7375 C   0  0  1  0  0  0  0  0  0  0  0  0
  144.2934  135.6032  153.8185 C   0  0  0  0  0  0  0  0  0  0  0  0
  143.2486  134.8068  153.0115 C   0  0  0  0  0  0  0  0  0  0  0  0
  143.9345  133.5678  152.5971 N   0  3  1  0  0  0  0  0  0  0  0  0
  143.4203  132.8841  151.3905 C   0  0  0  0  0  0  0  0  0  0  0  0
  144.2076  131.5763  151.1727 C   0  0  0  0  0  0  0  0  0  0  0  0
  145.7297  131.8232  151.1412 C   0  0  0  0  0  0  0  0  0  0  0  0
  146.1905  132.6192  152.3776 C   0  0  0  0  0  0  0  0  0  0  0  0
  145.3615  133.9093  152.4966 C   0  0  2  0  0  0  0  0  0  0  0  0
  149.7836  139.2053  153.9232 C   0  0  0  0  0  0  0  0  0  0  0  0
  150.1517  140.2281  154.6794 N   0  0  0  0  0  0  0  0  0  0  0  0
  150.8460  142.7732  157.3963 H   0  0  0  0  0  0  0  0  0  0  0  0
  150.5675  142.5943  155.6661 H   0  0  0  0  0  0  0  0  0  0  0  0
  151.6915  141.5185  156.4959 H   0  0  0  0  0  0  0  0  0  0  0  0
  149.7682  140.5451  157.8207 H   0  0  0  0  0  0  0  0  0  0  0  0
  148.6569  141.6206  156.9977 H   0  0  0  0  0  0  0  0  0  0  0  0
  147.9634  138.7372  156.6260 H   0  0  0  0  0  0  0  0  0  0  0  0
  148.7667  136.7609  153.3267 H   0  0  0  0  0  0  0  0  0  0  0  0
  147.4801  135.3137  152.9509 H   0  0  0  0  0  0  0  0  0  0  0  0
  145.6426  134.1383  154.6226 H   0  0  0  0  0  0  0  0  0  0  0  0
  143.9837  135.7479  154.8543 H   0  0  0  0  0  0  0  0  0  0  0  0
  144.4237  136.5919  153.3756 H   0  0  0  0  0  0  0  0  0  0  0  0
  142.3576  134.5765  153.5963 H   0  0  0  0  0  0  0  0  0  0  0  0
  142.9404  135.3775  152.1342 H   0  0  0  0  0  0  0  0  0  0  0  0
  142.3585  132.6688  151.5154 H   0  0  0  0  0  0  0  0  0  0  0  0
  143.5177  133.5380  150.5224 H   0  0  0  0  0  0  0  0  0  0  0  0
  143.9747  130.8773  151.9773 H   0  0  0  0  0  0  0  0  0  0  0  0
  143.8873  131.0967  150.2472 H   0  0  0  0  0  0  0  0  0  0  0  0
  146.2639  130.8744  151.0843 H   0  0  0  0  0  0  0  0  0  0  0  0
  145.9877  132.3774  150.2377 H   0  0  0  0  0  0  0  0  0  0  0  0
  146.0744  132.0124  153.2767 H   0  0  0  0  0  0  0  0  0  0  0  0
  147.2516  132.8542  152.2920 H   0  0  0  0  0  0  0  0  0  0  0  0
  145.5103  134.5197  151.6027 H   0  0  0  0  0  0  0  0  0  0  0  0
  150.2207  139.0843  152.9430 H   0  0  0  0  0  0  0  0  0  0  0  0
  143.8502  132.9214  153.3687 H   0  0  0  0  0  0  0  0  0  0  0  0
  1  2  1  0  0  0  0
  1 21  1  0  0  0  0
  1 22  1  0  0  0  0
  1 23  1  0  0  0  0
  2  3  1  0  0  0  0
  2 24  1  0  0  0  0
  2 25  1  0  0  0  0
  3 20  1  0  0  0  0
  3  4  1  0  0  0  0
  4  5  2  0  0  0  0
  4 26  1  0  0  0  0
  5  6  1  0  0  0  0
  5 19  1  0  0  0  0
  6  7  1  0  0  0  0
  6 27  1  0  0  0  0
  7  8  2  0  0  0  0
  7  9  1  0  0  0  0
  9 10  1  0  0  0  0
  9 28  1  0  0  0  0
 10 18  1  0  0  0  0
 10 11  1  0  0  0  0
 10 29  1  0  0  0  0
 11 12  1  0  0  0  0
 11 30  1  0  0  0  0
 11 31  1  0  0  0  0
 12 13  1  0  0  0  0
 12 32  1  0  0  0  0
 12 33  1  0  0  0  0
 13 18  1  0  0  0  0
 13 14  1  0  0  0  0
 13 44  1  0  0  0  0
 14 15  1  0  0  0  0
 14 34  1  0  0  0  0
 14 35  1  0  0  0  0
 15 16  1  0  0  0  0
 15 36  1  0  0  0  0
 15 37  1  0  0  0  0
 16 17  1  0  0  0  0
 16 38  1  0  0  0  0
 16 39  1  0  0  0  0
 17 18  1  0  0  0  0
 17 40  1  0  0  0  0
 17 41  1  0  0  0  0
 18 42  1  0  0  0  0
 19 20  2  0  0  0  0
 19 43  1  0  0  0  0
M  CHG  1  13   1
M  END
> <s_m_source_file>
AV-unprocessed.smi

> <i_m_source_file_index>
1758

> <i_lp_mmshare_version>
43012

> <i_f3d_flags>
0

> <s_epik_input>
W0NIM11bQ0gyXW4xW2NIXWMoW2NIXW4xKVtOSF1DKD1PKVtOSF1bQ0BIXShbQ0gyXVtDSDJdMilbQ0BASF0oTjIzKVtDSDJdW0NIMl1bQ0gyXVtDSDJdMw==

> <s_epik_cmdline>
J2VwaWtfcHl0aG9uJywgJy1waCcsICc3LjAnLCAnLXRuJywgJzgnLCAnLW1hJywgJzIwMCcsICctbWV0YWxfYmluZGluZycsICctaW1hZScsICc8aW5maWxlLm1hZT4nLCAnLW9tYWUnLCAnPG91dGZpbGUubWFlPic=

> <r_lp_tautomer_probability>
1

> <r_epik_Ionization_Penalty>
0.00111541

> <r_epik_Ionization_Penalty_Charging>
0.000974069

> <r_epik_Ionization_Penalty_Neutral>
0.000141346

> <r_epik_State_Penalty>
0.000633842

> <r_epik_Charging_Adjusted_Penalty>
0.00160791

> <i_epik_Tot_Q>
1

> <i_epik_Tot_abs_Q>
1

> <r_epik_Metal_State_Penalty>
-0

> <b_epik_Metal_Only>
0

> <s_lp_Force_Field>
OPLS_2005

> <r_lp_Energy>
38.7451

> <b_lp_Chiralities_Consistent>
1

> <s_lp_Variant>
AV-unprocessed.smi:1758-6

> <Gold.Version>
5.8.1

> <Gold.Id.Protein>
6NUR|6NUR_protein|mol2

> <Gold.PLP.Fitness>
38.7913

> <Gold.PLP.PLP>
-24.9634

> <Gold.PLP.part.hbond>
-3.6827

> <Gold.PLP.part.metal>
0.0000

> <Gold.PLP.part.buried>
-3.2723

> <Gold.PLP.part.nonpolar>
-20.0333

> <Gold.PLP.part.repulsive>
0.1129

> <Gold.PLP.ligand.clash>
0.0000

> <Gold.PLP.ligand.torsion>
0.4256

> <Gold.PLP.Chemscore.Hbond>
3.9279

> <Gold.PLP.Chemscore.CHOScore>
0.9616

> <Gold.PLP.Chemscore.Metal>
0.0000

> <Gold.Chemscore.Hbonds>
donor molecule, donor type, donor heavy atom, donor atom, acceptor molecule, acceptor atom, score
      L1  H     6    27       P1  7948  1.00
      L1  H     9    28       P1  7948  0.75
      L1  H    13    44       P1 10957  1.30
      P1  H  7989  7998       L1    20  0.85
      L1  C    19    43       P1  7957  0.96

> <Gold.PLP.Chemscore.Internal.Correction>
0.0105

> <Gold.Rescore>
     Score         DG    S(hbond)    S(metal)    S(lipo)     H(rot)  DE(clash)    DE(int)     intcor
     15.37     -19.50       2.76        0.00      67.10       1.19       1.35       2.78       ----

> <Gold.Chemscore.Fitness>
15.3657

> <Gold.Chemscore.DG>
-19.4969

> <Gold.Chemscore.ZeroCoef>
-5.4800

> <Gold.Chemscore.Hbond>
2.7572

> <Gold.Chemscore.Metal>
0.0000

> <Gold.Chemscore.Lipo>
67.0956

> <Gold.Chemscore.Internal_Hbond>
0.0000

> <Gold.Chemscore.DEClash>
1.3536

> <Gold.Chemscore.DEInternal>
2.7776

> <Gold.Chemscore.Rot>
1.1884

> <Gold.Chemscore.Internal.Correction>
   9.000000E+99

> <Gold.Chemscore.Hbonds>
donor molecule, donor type, donor heavy atom, donor atom, acceptor molecule, acceptor atom, score
      L1  H     6    27       P1  7948  0.92
      L1  H     9    28       P1  7948  0.68
      L1  H    13    44       P1 10957  0.44
      P1  H  7989  7998       L1    20  0.14

> <Gold.Chemscore.Hbond.Weighted>
-9.2090

> <Gold.Chemscore.Metal.Weighted>
-0.0000

> <Gold.Chemscore.Lipo.Weighted>
-7.8502

> <Gold.Chemscore.Internal_Hbond.Weighted>
0.0000

> <Gold.Chemscore.DEClash.Weighted>
1.3536

> <Gold.Chemscore.DEInternal.Weighted>
2.7776

> <Gold.Chemscore.Rot.Weighted>
3.0423

> <Gold.Chemscore.Internal.Correction.Weighted>
   9.000000E+99

> <Gold.Protein.RotatedTorsions>
[ 6907 6896 6895 6894 ] final  -51.71 input  -60.11 | X-H torsion
[ 7974 7965 7964 7962 ] final  109.60 input  175.53 | X-H torsion
[ 8008 7997 7996 7995 ] final  122.26 input   59.86 | X-H torsion
[ 10167 10162 10161 10158 ] final  -78.41 input  -65.29 | X-H torsion
[ 10718 10713 10712 10709 ] final  169.02 input   66.30 | X-H torsion
[ 10763 10752 10751 10750 ] final  -87.04 input  -60.55 | X-H torsion
[ 11005 11000 10999 10996 ] final  -22.56 input  -57.11 | X-H torsion

> <Gold.Protein.ActiveResidues>
 VAL166  LYS551  ARG553  GLY616  TRP617  ASP618  TYR619  PRO620  LYS621  CYS622 
 ASP623  PHE694  ASN695  SER759  ASP760  ASP761  ALA762  ILE779  LEU786  VAL792 
 PHE793  MET794  SER795  GLU796  ALA797  LYS798  CYS799  TRP800  GLU811  SER814 

> <Gold.Protein.RotatedAtoms>
  150.8586  134.7932  159.7064 H   0  0  0  0  0  0  0  0  0  0  0  0  # atno 6907 bound_to 6896
  152.4630  134.5137  159.9771 H   0  0  0  0  0  0  0  0  0  0  0  0  # atno 6908 bound_to 6896
  151.5245  133.3422  159.2943 H   0  0  0  0  0  0  0  0  0  0  0  0  # atno 6909 bound_to 6896
  145.2657  139.2685  143.3993 H   0  0  0  0  0  0  0  0  0  0  0  0  # atno 7974 bound_to 7965
  156.2720  140.2790  156.1438 H   0  0  0  0  0  0  0  0  0  0  0  0  # atno 8008 bound_to 7997
  155.0925  140.0389  157.2690 H   0  0  0  0  0  0  0  0  0  0  0  0  # atno 8009 bound_to 7997
  154.6878  140.2622  155.6849 H   0  0  0  0  0  0  0  0  0  0  0  0  # atno 8010 bound_to 7997
  140.4684  143.2433  151.8242 H   0  0  0  0  0  0  0  0  0  0  0  0  # atno 10167 bound_to 10162
  157.0287  131.0253  151.2751 H   0  0  0  0  0  0  0  0  0  0  0  0  # atno 10718 bound_to 10713
  154.6292  135.5427  153.7661 H   0  0  0  0  0  0  0  0  0  0  0  0  # atno 10763 bound_to 10752
  153.0276  135.6432  154.1326 H   0  0  0  0  0  0  0  0  0  0  0  0  # atno 10764 bound_to 10752
  154.1257  135.2917  155.3177 H   0  0  0  0  0  0  0  0  0  0  0  0  # atno 10765 bound_to 10752
  140.8668  133.7748  156.0140 H   0  0  0  0  0  0  0  0  0  0  0  0  # atno 11005 bound_to 11000
  146.3262  140.3086  142.8625 LP  0  0  0  0  0  0  0  0  0  0  0  0  # atno 17320 bound_to 7965
  144.9379  140.8046  143.5649 LP  0  0  0  0  0  0  0  0  0  0  0  0  # atno 17321 bound_to 7965
  139.4815  144.4922  151.9170 LP  0  0  0  0  0  0  0  0  0  0  0  0  # atno 17342 bound_to 10162
  140.4007  144.2497  150.5893 LP  0  0  0  0  0  0  0  0  0  0  0  0  # atno 17343 bound_to 10162
  157.5194  130.7988  149.7792 LP  0  0  0  0  0  0  0  0  0  0  0  0  # atno 17370 bound_to 10713
  156.0077  130.3848  150.2373 LP  0  0  0  0  0  0  0  0  0  0  0  0  # atno 17371 bound_to 10713
  140.8619  134.2830  157.5230 LP  0  0  0  0  0  0  0  0  0  0  0  0  # atno 17394 bound_to 11000
  139.8710  134.9522  156.4109 LP  0  0  0  0  0  0  0  0  0  0  0  0  # atno 17395 bound_to 11000

$$$$
