AV-unprocessed.smi:956|AV-procd|sdf|4264|dock7
  -GOLD-   22720 2173D 1   1.00000     0.00000
 Structure written by MMmdl.
 42 43  0  0  0  0  0  0  0  0  1 V2000
  146.8740  135.4840  156.7390 C   0  0  0  0  0  0  0  0  0  0  0  0
  147.4159  136.4528  155.2535 S   0  0  1  0  0  0  0  0  0  0  0  0
  146.9969  137.9061  155.4830 O   0  0  0  0  0  0  0  0  0  0  0  0
  149.1900  136.4194  155.6893 C   0  0  0  0  0  0  0  0  0  0  0  0
  149.7924  135.3821  156.2785 N   0  0  0  0  0  0  0  0  0  0  0  0
  151.1103  135.7720  156.4249 N   0  0  0  0  0  0  0  0  0  0  0  0
  151.1596  137.0023  155.9098 C   0  0  0  0  0  0  0  0  0  0  0  0
  149.9948  137.4667  155.4295 N   0  0  0  0  0  0  0  0  0  0  0  0
  149.7122  138.7538  154.8193 C   0  0  0  0  0  0  0  0  0  0  0  0
  150.6057  139.8425  155.4126 C   0  0  0  0  0  0  0  0  0  0  0  0
  151.8093  139.8568  155.1572 O   0  0  0  0  0  0  0  0  0  0  0  0
  150.0082  140.7409  156.2086 N   0  0  0  0  0  0  0  0  0  0  0  0
  150.6989  141.8308  156.8820 C   0  0  0  0  0  0  0  0  0  0  0  0
  151.5325  141.2956  158.0575 C   0  0  0  0  0  0  0  0  0  0  0  0
  152.1933  142.3968  158.9125 C   0  0  0  0  0  0  0  0  0  0  0  0
  152.3435  141.9340  160.3771 C   0  0  0  0  0  0  0  0  0  0  0  0
  153.0071  143.0086  161.2536 C   0  0  0  0  0  0  0  0  0  0  0  0
  152.2337  144.3336  161.1892 C   0  0  0  0  0  0  0  0  0  0  0  0
  152.0830  144.8109  159.7373 C   0  0  0  0  0  0  0  0  0  0  0  0
  151.4219  143.7348  158.8600 C   0  0  0  0  0  0  0  0  0  0  0  0
  147.6193  134.7360  157.0105 H   0  0  0  0  0  0  0  0  0  0  0  0
  145.9354  134.9721  156.5287 H   0  0  0  0  0  0  0  0  0  0  0  0
  146.7230  136.1490  157.5895 H   0  0  0  0  0  0  0  0  0  0  0  0
  152.0709  137.5816  155.8844 H   0  0  0  0  0  0  0  0  0  0  0  0
  149.8870  138.6798  153.7451 H   0  0  0  0  0  0  0  0  0  0  0  0
  148.6585  139.0007  154.9537 H   0  0  0  0  0  0  0  0  0  0  0  0
  149.0152  140.6558  156.3706 H   0  0  0  0  0  0  0  0  0  0  0  0
  151.3438  142.3433  156.1666 H   0  0  0  0  0  0  0  0  0  0  0  0
  149.9603  142.5531  157.2304 H   0  0  0  0  0  0  0  0  0  0  0  0
  150.9113  140.6618  158.6917 H   0  0  0  0  0  0  0  0  0  0  0  0
  152.3132  140.6472  157.6561 H   0  0  0  0  0  0  0  0  0  0  0  0
  153.1963  142.5685  158.5183 H   0  0  0  0  0  0  0  0  0  0  0  0
  151.3633  141.6873  160.7875 H   0  0  0  0  0  0  0  0  0  0  0  0
  152.9339  141.0182  160.4213 H   0  0  0  0  0  0  0  0  0  0  0  0
  153.0649  142.6624  162.2858 H   0  0  0  0  0  0  0  0  0  0  0  0
  154.0344  143.1676  160.9232 H   0  0  0  0  0  0  0  0  0  0  0  0
  151.2474  144.2045  161.6366 H   0  0  0  0  0  0  0  0  0  0  0  0
  152.7458  145.0932  161.7806 H   0  0  0  0  0  0  0  0  0  0  0  0
  151.4937  145.7277  159.7073 H   0  0  0  0  0  0  0  0  0  0  0  0
  153.0639  145.0612  159.3312 H   0  0  0  0  0  0  0  0  0  0  0  0
  151.3664  144.1056  157.8369 H   0  0  0  0  0  0  0  0  0  0  0  0
  150.3933  143.5803  159.1883 H   0  0  0  0  0  0  0  0  0  0  0  0
  1  2  1  0  0  0  0
  1 21  1  0  0  0  0
  1 22  1  0  0  0  0
  1 23  1  0  0  0  0
  2  3  2  0  0  0  0
  2  4  1  0  0  0  0
  4  8  1  0  0  0  0
  4  5  2  0  0  0  0
  5  6  1  0  0  0  0
  6  7  2  0  0  0  0
  7  8  1  0  0  0  0
  7 24  1  0  0  0  0
  8  9  1  0  0  0  0
  9 10  1  0  0  0  0
  9 25  1  0  0  0  0
  9 26  1  0  0  0  0
 10 11  2  0  0  0  0
 10 12  1  0  0  0  0
 12 13  1  0  0  0  0
 12 27  1  0  0  0  0
 13 14  1  0  0  0  0
 13 28  1  0  0  0  0
 13 29  1  0  0  0  0
 14 15  1  0  0  0  0
 14 30  1  0  0  0  0
 14 31  1  0  0  0  0
 15 20  1  0  0  0  0
 15 16  1  0  0  0  0
 15 32  1  0  0  0  0
 16 17  1  0  0  0  0
 16 33  1  0  0  0  0
 16 34  1  0  0  0  0
 17 18  1  0  0  0  0
 17 35  1  0  0  0  0
 17 36  1  0  0  0  0
 18 19  1  0  0  0  0
 18 37  1  0  0  0  0
 18 38  1  0  0  0  0
 19 20  1  0  0  0  0
 19 39  1  0  0  0  0
 19 40  1  0  0  0  0
 20 41  1  0  0  0  0
 20 42  1  0  0  0  0
M  END
> <s_m_source_file>
AV-unprocessed.smi

> <i_m_source_file_index>
956

> <i_lp_mmshare_version>
43012

> <i_f3d_flags>
0

> <s_epik_input>
W0NIM11bU0BdKD1PKWMxbm5bY0hdbjFbQ0gyXUMoPU8pW05IXVtDSDJdW0NIMl1bQ0hdMltDSDJdW0NIMl1bQ0gyXVtDSDJdW0NIMl0y

> <s_epik_cmdline>
J2VwaWtfcHl0aG9uJywgJy1waCcsICc3LjAnLCAnLXRuJywgJzgnLCAnLW1hJywgJzIwMCcsICctbWV0YWxfYmluZGluZycsICctaW1hZScsICc8aW5maWxlLm1hZT4nLCAnLW9tYWUnLCAnPG91dGZpbGUubWFlPic=

> <r_lp_tautomer_probability>
1

> <r_epik_Ionization_Penalty>
7.32521e-08

> <r_epik_Ionization_Penalty_Charging>
0

> <r_epik_Ionization_Penalty_Neutral>
7.32521e-08

> <r_epik_State_Penalty>
-0

> <r_epik_Charging_Adjusted_Penalty>
0

> <i_epik_Tot_Q>
0

> <i_epik_Tot_abs_Q>
0

> <r_epik_Metal_State_Penalty>
-0

> <b_epik_Metal_Only>
0

> <s_lp_Force_Field>
OPLS_2005

> <r_lp_Energy>
10.1233

> <b_lp_Chiralities_Consistent>
1

> <s_lp_Variant>
AV-unprocessed.smi:956-2

> <Gold.Version>
5.8.1

> <Gold.Id.Protein>
6NUR|6NUR_protein|mol2

> <Gold.PLP.Fitness>
40.4512

> <Gold.PLP.PLP>
-36.7291

> <Gold.PLP.part.hbond>
-2.0000

> <Gold.PLP.part.metal>
0.0000

> <Gold.PLP.part.buried>
-5.1077

> <Gold.PLP.part.nonpolar>
-29.9866

> <Gold.PLP.part.repulsive>
0.2419

> <Gold.PLP.ligand.clash>
0.0000

> <Gold.PLP.ligand.torsion>
1.4834

> <Gold.PLP.Chemscore.Hbond>
1.8720

> <Gold.PLP.Chemscore.CHOScore>
0.0000

> <Gold.PLP.Chemscore.Metal>
0.0000

> <Gold.Chemscore.Hbonds>
donor molecule, donor type, donor heavy atom, donor atom, acceptor molecule, acceptor atom, score
      P1  H  7989  7998       L1    11  0.77

> <Gold.PLP.Chemscore.Internal.Correction>
1.0730

> <Gold.Rescore>
     Score         DG    S(hbond)    S(metal)    S(lipo)     H(rot)  DE(clash)    DE(int)     intcor
     13.01     -15.54       1.92        0.00      80.41       2.26       0.00       2.53       ----

> <Gold.Chemscore.Fitness>
13.0131

> <Gold.Chemscore.DG>
-15.5437

> <Gold.Chemscore.ZeroCoef>
-5.4800

> <Gold.Chemscore.Hbond>
1.9249

> <Gold.Chemscore.Metal>
0.0000

> <Gold.Chemscore.Lipo>
80.4123

> <Gold.Chemscore.Internal_Hbond>
0.0000

> <Gold.Chemscore.DEClash>
0.0015

> <Gold.Chemscore.DEInternal>
2.5291

> <Gold.Chemscore.Rot>
2.2554

> <Gold.Chemscore.Internal.Correction>
   9.000000E+99

> <Gold.Chemscore.Hbonds>
donor molecule, donor type, donor heavy atom, donor atom, acceptor molecule, acceptor atom, score
      P1  H  7989  7998       L1    11  0.11

> <Gold.Chemscore.Hbond.Weighted>
-6.4293

> <Gold.Chemscore.Metal.Weighted>
-0.0000

> <Gold.Chemscore.Lipo.Weighted>
-9.4082

> <Gold.Chemscore.Internal_Hbond.Weighted>
0.0000

> <Gold.Chemscore.DEClash.Weighted>
0.0015

> <Gold.Chemscore.DEInternal.Weighted>
2.5291

> <Gold.Chemscore.Rot.Weighted>
5.7738

> <Gold.Chemscore.Internal.Correction.Weighted>
   9.000000E+99

> <Gold.Protein.RotatedTorsions>
[ 6907 6896 6895 6894 ] final  139.41 input  -60.11 | X-H torsion
[ 7974 7965 7964 7962 ] final   -8.02 input  175.53 | X-H torsion
[ 8008 7997 7996 7995 ] final  -70.87 input   59.86 | X-H torsion
[ 10167 10162 10161 10158 ] final  -39.16 input  -65.29 | X-H torsion
[ 10718 10713 10712 10709 ] final  114.82 input   66.30 | X-H torsion
[ 10763 10752 10751 10750 ] final -136.40 input  -60.55 | X-H torsion
[ 11005 11000 10999 10996 ] final  -25.14 input  -57.11 | X-H torsion

> <Gold.Protein.ActiveResidues>
 VAL166  LYS551  ARG553  GLY616  TRP617  ASP618  TYR619  PRO620  LYS621  CYS622 
 ASP623  PHE694  ASN695  SER759  ASP760  ASP761  ALA762  ILE779  LEU786  VAL792 
 PHE793  MET794  SER795  GLU796  ALA797  LYS798  CYS799  TRP800  GLU811  SER814 

> <Gold.Protein.RotatedAtoms>
  152.2552  133.5249  159.5348 H   0  0  0  0  0  0  0  0  0  0  0  0  # atno 6907 bound_to 6896
  150.7106  134.0906  159.3939 H   0  0  0  0  0  0  0  0  0  0  0  0  # atno 6908 bound_to 6896
  151.8824  135.0448  160.0541 H   0  0  0  0  0  0  0  0  0  0  0  0  # atno 6909 bound_to 6896
  146.2291  140.2406  142.8343 H   0  0  0  0  0  0  0  0  0  0  0  0  # atno 7974 bound_to 7965
  154.5044  140.0826  156.7865 H   0  0  0  0  0  0  0  0  0  0  0  0  # atno 8008 bound_to 7997
  155.3927  140.3433  155.4234 H   0  0  0  0  0  0  0  0  0  0  0  0  # atno 8009 bound_to 7997
  156.1497  140.1554  156.8777 H   0  0  0  0  0  0  0  0  0  0  0  0  # atno 8010 bound_to 7997
  140.7072  143.3231  151.2743 H   0  0  0  0  0  0  0  0  0  0  0  0  # atno 10167 bound_to 10162
  157.6259  131.1004  150.7240 H   0  0  0  0  0  0  0  0  0  0  0  0  # atno 10718 bound_to 10713
  154.8684  135.3674  154.5055 H   0  0  0  0  0  0  0  0  0  0  0  0  # atno 10763 bound_to 10752
  153.5693  135.7021  153.5517 H   0  0  0  0  0  0  0  0  0  0  0  0  # atno 10764 bound_to 10752
  153.3556  135.4060  155.1643 H   0  0  0  0  0  0  0  0  0  0  0  0  # atno 10765 bound_to 10752
  140.8910  133.7588  156.0421 H   0  0  0  0  0  0  0  0  0  0  0  0  # atno 11005 bound_to 11000
  144.9487  140.8155  143.5585 LP  0  0  0  0  0  0  0  0  0  0  0  0  # atno 17320 bound_to 7965
  145.2365  139.2091  143.5015 LP  0  0  0  0  0  0  0  0  0  0  0  0  # atno 17321 bound_to 7965
  139.6691  144.0051  152.2742 LP  0  0  0  0  0  0  0  0  0  0  0  0  # atno 17342 bound_to 10162
  139.9644  144.6536  150.8049 LP  0  0  0  0  0  0  0  0  0  0  0  0  # atno 17343 bound_to 10162
  156.7589  130.4792  149.5441 LP  0  0  0  0  0  0  0  0  0  0  0  0  # atno 17370 bound_to 10713
  156.1431  130.6258  151.0494 LP  0  0  0  0  0  0  0  0  0  0  0  0  # atno 17371 bound_to 10713
  140.8347  134.3137  157.5336 LP  0  0  0  0  0  0  0  0  0  0  0  0  # atno 17394 bound_to 11000
  139.8729  134.9383  156.3710 LP  0  0  0  0  0  0  0  0  0  0  0  0  # atno 17395 bound_to 11000

$$$$
