AV-unprocessed.smi:39|AV-procd|sdf|362|dock10
  -GOLD-   2262016203D 1   1.00000     0.00000
 Structure written by MMmdl.
 31 32  0  0  0  0  0  0  0  0  4 V2000
  151.7710  144.3685  158.7966 C   0  0  0  0  0  0  0  0  0  0  0  0
  152.0087  142.8697  158.8536 C   0  0  0  0  0  0  0  0  0  0  0  0
  151.4469  142.0166  157.9684 C   0  0  0  0  0  0  0  0  0  0  0  0
  151.6661  140.6495  158.0235 N   0  0  0  0  0  0  0  0  0  0  0  0
  151.0235  139.6948  157.0351 C   0  0  2  0  0  0  0  0  0  0  0  0
  151.9271  139.4911  155.8035 C   0  0  0  0  0  0  0  0  0  0  0  0
  150.9837  139.7566  154.6384 C   0  0  1  0  0  0  0  0  0  0  0  0
  150.2848  138.5305  154.2275 N   0  0  0  0  0  0  0  0  0  0  0  0
  150.6516  137.4773  154.7646 N   0  3  0  0  0  0  0  0  0  0  0  0
  151.0286  136.4729  155.1443 N   0  5  0  0  0  0  0  0  0  0  0  0
  150.0319  140.7805  155.2680 C   0  0  1  0  0  0  0  0  0  0  0  0
  148.6979  140.9793  154.5280 C   0  0  0  0  0  0  0  0  0  0  0  0
  148.9080  141.7056  153.3356 O   0  0  0  0  0  0  0  0  0  0  0  0
  149.8205  140.2312  156.5636 O   0  0  0  0  0  0  0  0  0  0  0  0
  152.4892  140.1156  159.0499 C   0  0  0  0  0  0  0  0  0  0  0  0
  152.6513  138.8953  159.0836 O   0  0  0  0  0  0  0  0  0  0  0  0
  153.0621  140.9688  159.9459 N   0  5  0  0  0  0  0  0  0  0  0  0
  152.8717  142.3186  159.9052 C   0  0  0  0  0  0  0  0  0  0  0  0
  153.3977  143.0782  160.7184 O   0  0  0  0  0  0  0  0  0  0  0  0
  150.8192  138.7822  157.5973 H   0  0  0  0  0  0  0  0  0  0  0  0
  151.5130  140.2026  153.7941 H   0  0  0  0  0  0  0  0  0  0  0  0
  150.5582  141.7336  155.3530 H   0  0  0  0  0  0  0  0  0  0  0  0
  151.1257  144.6365  157.9595 H   0  0  0  0  0  0  0  0  0  0  0  0
  152.7157  144.9002  158.6780 H   0  0  0  0  0  0  0  0  0  0  0  0
  151.2941  144.7122  159.7150 H   0  0  0  0  0  0  0  0  0  0  0  0
  150.8086  142.4294  157.2026 H   0  0  0  0  0  0  0  0  0  0  0  0
  152.7334  140.2265  155.8071 H   0  0  0  0  0  0  0  0  0  0  0  0
  152.3695  138.4942  155.8035 H   0  0  0  0  0  0  0  0  0  0  0  0
  148.2753  140.0129  154.2519 H   0  0  0  0  0  0  0  0  0  0  0  0
  147.9658  141.4883  155.1559 H   0  0  0  0  0  0  0  0  0  0  0  0
  148.7475  141.1316  152.6022 H   0  0  0  0  0  0  0  0  0  0  0  0
  1  2  1  0  0  0  0
  1 23  1  0  0  0  0
  1 24  1  0  0  0  0
  1 25  1  0  0  0  0
  2 18  1  0  0  0  0
  2  3  2  0  0  0  0
  3  4  1  0  0  0  0
  3 26  1  0  0  0  0
  4  5  1  0  0  0  0
  4 15  1  0  0  0  0
  5 20  1  0  0  0  0
  5 14  1  0  0  0  0
  5  6  1  0  0  0  0
  6  7  1  0  0  0  0
  6 27  1  0  0  0  0
  6 28  1  0  0  0  0
  7 21  1  0  0  0  0
  7  8  1  0  0  0  0
  7 11  1  0  0  0  0
  8  9  2  0  0  0  0
  9 10  2  0  0  0  0
 11 22  1  0  0  0  0
 11 12  1  0  0  0  0
 11 14  1  0  0  0  0
 12 13  1  0  0  0  0
 12 29  1  0  0  0  0
 12 30  1  0  0  0  0
 13 31  1  0  0  0  0
 15 16  2  0  0  0  0
 15 17  1  0  0  0  0
 17 18  1  0  0  0  0
 18 19  2  0  0  0  0
M  CHG  1   9   1
M  CHG  1  10  -1
M  CHG  1  17  -1
M  END
> <s_m_source_file>
AV-unprocessed.smi

> <i_m_source_file_index>
39

> <i_lp_mmshare_version>
43012

> <i_f3d_flags>
0

> <s_epik_input>
Tz1jMVtuSF1jKD1PKW4oW2NIXWMxW0NIM10pW0NASF0yW0NIMl1bQ0BIXShOPVtOK109W04tXSlbQ0BIXShPMilbQ0gyXVtPSF0=

> <s_epik_cmdline>
J2VwaWtfcHl0aG9uJywgJy1waCcsICc3LjAnLCAnLXRuJywgJzgnLCAnLW1hJywgJzIwMCcsICctbWV0YWxfYmluZGluZycsICctaW1hZScsICc8aW5maWxlLm1hZT4nLCAnLW9tYWUnLCAnPG91dGZpbGUubWFlPic=

> <r_lp_tautomer_probability>
0.999537

> <r_epik_Ionization_Penalty>
3.6393

> <r_epik_Ionization_Penalty_Charging>
9.76484e-08

> <r_epik_Ionization_Penalty_Neutral>
3.6393

> <r_epik_State_Penalty>
3.63887

> <r_epik_Charging_Adjusted_Penalty>
3.63887

> <i_epik_Tot_Q>
-1

> <i_epik_Tot_abs_Q>
3

> <r_epik_Metal_State_Penalty>
0.225911

> <b_epik_Metal_Only>
1

> <s_epik_Chemistry_Notes>
This compound contains an acetal/aminal-like group ( X-CH(R)-Y where X, Y are N, S, or O) that may be acid/base labile, releasing an aldehyde.

> <s_lp_Force_Field>
OPLS_2005

> <r_lp_Energy>
37.741

> <b_lp_Chiralities_Consistent>
1

> <s_lp_Variant>
AV-unprocessed.smi:39-12

> <Gold.Version>
5.8.1

> <Gold.Id.Protein>
6NUR|6NUR_protein|mol2

> <Gold.PLP.Fitness>
40.5402

> <Gold.PLP.PLP>
-33.7521

> <Gold.PLP.part.hbond>
-3.3292

> <Gold.PLP.part.metal>
0.0000

> <Gold.PLP.part.buried>
-2.5269

> <Gold.PLP.part.nonpolar>
-26.8788

> <Gold.PLP.part.repulsive>
0.4218

> <Gold.PLP.ligand.clash>
0.0000

> <Gold.PLP.ligand.torsion>
0.8351

> <Gold.PLP.Chemscore.Hbond>
2.8039

> <Gold.PLP.Chemscore.CHOScore>
0.0000

> <Gold.PLP.Chemscore.Metal>
0.0000

> <Gold.Chemscore.Hbonds>
donor molecule, donor type, donor heavy atom, donor atom, acceptor molecule, acceptor atom, score
      L1  H    13    31       P1  7957  0.90
      P1  H  8011  8017       L1    13  0.11
      P1  H 10752 10765       L1    10  0.59

> <Gold.PLP.Chemscore.Internal.Correction>
0.0464

> <Gold.Rescore>
     Score         DG    S(hbond)    S(metal)    S(lipo)     H(rot)  DE(clash)    DE(int)     intcor
     12.55     -13.21       2.28        0.00      60.37       2.72       0.07       0.59       ----

> <Gold.Chemscore.Fitness>
12.5531

> <Gold.Chemscore.DG>
-13.2132

> <Gold.Chemscore.ZeroCoef>
-5.4800

> <Gold.Chemscore.Hbond>
2.2817

> <Gold.Chemscore.Metal>
0.0000

> <Gold.Chemscore.Lipo>
60.3732

> <Gold.Chemscore.Internal_Hbond>
0.0000

> <Gold.Chemscore.DEClash>
0.0673

> <Gold.Chemscore.DEInternal>
0.5929

> <Gold.Chemscore.Rot>
2.7153

> <Gold.Chemscore.Internal.Correction>
   9.000000E+99

> <Gold.Chemscore.Hbonds>
donor molecule, donor type, donor heavy atom, donor atom, acceptor molecule, acceptor atom, score
      L1  H    13    31       P1  7957  0.85
      P1  H 10752 10765       L1    10  0.58

> <Gold.Chemscore.Hbond.Weighted>
-7.6207

> <Gold.Chemscore.Metal.Weighted>
-0.0000

> <Gold.Chemscore.Lipo.Weighted>
-7.0637

> <Gold.Chemscore.Internal_Hbond.Weighted>
0.0000

> <Gold.Chemscore.DEClash.Weighted>
0.0673

> <Gold.Chemscore.DEInternal.Weighted>
0.5929

> <Gold.Chemscore.Rot.Weighted>
6.9512

> <Gold.Chemscore.Internal.Correction.Weighted>
   9.000000E+99

> <Gold.Protein.RotatedTorsions>
[ 6907 6896 6895 6894 ] final  170.32 input  -60.11 | X-H torsion
[ 7974 7965 7964 7962 ] final  133.74 input  175.53 | X-H torsion
[ 8008 7997 7996 7995 ] final  -11.34 input   59.86 | X-H torsion
[ 10167 10162 10161 10158 ] final   76.84 input  -65.29 | X-H torsion
[ 10718 10713 10712 10709 ] final   55.88 input   66.30 | X-H torsion
[ 10763 10752 10751 10750 ] final -167.59 input  -60.55 | X-H torsion
[ 11005 11000 10999 10996 ] final   51.98 input  -57.11 | X-H torsion

> <Gold.Protein.ActiveResidues>
 VAL166  LYS551  ARG553  GLY616  TRP617  ASP618  TYR619  PRO620  LYS621  CYS622 
 ASP623  PHE694  ASN695  SER759  ASP760  ASP761  ALA762  ILE779  LEU786  VAL792 
 PHE793  MET794  SER795  GLU796  ALA797  LYS798  CYS799  TRP800  GLU811  SER814 

> <Gold.Protein.RotatedAtoms>
  151.8180  133.3390  159.3575 H   0  0  0  0  0  0  0  0  0  0  0  0  # atno 6907 bound_to 6896
  150.7304  134.5601  159.5847 H   0  0  0  0  0  0  0  0  0  0  0  0  # atno 6908 bound_to 6896
  152.3027  134.7593  160.0405 H   0  0  0  0  0  0  0  0  0  0  0  0  # atno 6909 bound_to 6896
  144.9834  139.4480  143.5375 H   0  0  0  0  0  0  0  0  0  0  0  0  # atno 7974 bound_to 7965
  154.5473  140.2305  155.8542 H   0  0  0  0  0  0  0  0  0  0  0  0  # atno 8008 bound_to 7997
  156.1914  140.3076  155.9302 H   0  0  0  0  0  0  0  0  0  0  0  0  # atno 8009 bound_to 7997
  155.3139  140.0437  157.3027 H   0  0  0  0  0  0  0  0  0  0  0  0  # atno 8010 bound_to 7997
  139.9879  144.5779  150.7843 H   0  0  0  0  0  0  0  0  0  0  0  0  # atno 10167 bound_to 10162
  157.5383  130.8679  149.8785 H   0  0  0  0  0  0  0  0  0  0  0  0  # atno 10718 bound_to 10713
  154.6716  135.2940  154.9734 H   0  0  0  0  0  0  0  0  0  0  0  0  # atno 10763 bound_to 10752
  154.0760  135.6611  153.4835 H   0  0  0  0  0  0  0  0  0  0  0  0  # atno 10764 bound_to 10752
  153.0490  135.5186  154.7714 H   0  0  0  0  0  0  0  0  0  0  0  0  # atno 10765 bound_to 10752
  140.0887  134.5239  155.8873 H   0  0  0  0  0  0  0  0  0  0  0  0  # atno 11005 bound_to 11000
  146.3414  139.9121  142.8779 LP  0  0  0  0  0  0  0  0  0  0  0  0  # atno 17320 bound_to 7965
  145.2388  141.0001  143.3948 LP  0  0  0  0  0  0  0  0  0  0  0  0  # atno 17321 bound_to 7965
  140.7465  143.2892  151.3377 LP  0  0  0  0  0  0  0  0  0  0  0  0  # atno 17342 bound_to 10162
  139.6361  144.0627  152.2517 LP  0  0  0  0  0  0  0  0  0  0  0  0  # atno 17343 bound_to 10162
  156.0476  130.3724  150.1279 LP  0  0  0  0  0  0  0  0  0  0  0  0  # atno 17370 bound_to 10713
  156.9460  130.9759  151.3507 LP  0  0  0  0  0  0  0  0  0  0  0  0  # atno 17371 bound_to 10713
  141.2071  133.6661  156.6283 LP  0  0  0  0  0  0  0  0  0  0  0  0  # atno 17394 bound_to 11000
  140.3383  134.7870  157.4378 LP  0  0  0  0  0  0  0  0  0  0  0  0  # atno 17395 bound_to 11000

$$$$
