#       Name:                AV-unprocessed.smi:1136
#       Creating user name   scv26
#       Creation time:       Fri Mar 27 03:43:25 2020


#       File generated by GOLD software.
#

@<TRIPOS>MOLECULE
AV-unprocessed.smi:1136
    47    48     1
SMALL
NO_CHARGES


@<TRIPOS>ATOM
      1 ****        -4.7120  -0.2397  -2.9389 C.3            1 S1                 0.0000
      2 ****        -3.4984  -1.1168  -2.8473 C.2            1 S1                 0.0000
      3 ****        -3.4342  -2.5068  -2.5494 C.2            1 S1                 0.0000
      4 ****        -2.1004  -2.8007  -2.5941 C.2            1 S1                 0.0000
      5 ****        -1.3910  -4.0955  -2.3685 C.3            1 S1                 0.0000
      6 ****        -1.4403  -1.6242  -2.9032 N.pl3          1 S1                 0.0000
      7 ****        -0.0127  -1.3852  -3.0655 C.3            1 S1                 0.0000
      8 ****         0.7158  -1.2946  -1.7208 C.2            1 S1                 0.0000
      9 ****         1.7369  -1.9553  -1.5330 O.2            1 S1                 0.0000
     10 ****         0.1922  -0.4692  -0.7999 N.am           1 S1                 0.0000
     11 ****         0.7365  -0.2329   0.5351 C.3            1 S1                 0.0000
     12 ****         1.7431   0.9319   0.5895 C.2            1 S1                 0.0000
     13 ****         2.0463   1.5125  -0.4548 O.2            1 S1                 0.0000
     14 ****         2.2583   1.2935   1.7901 N.am           1 S1                 0.0000
     15 ****         1.9064   0.6950   3.0854 C.3            1 S1                 0.0000
     16 ****         1.0709   1.7095   3.8871 C.3            1 S1                 0.0000
     17 ****         1.8316   3.0393   4.0519 C.3            1 S1                 0.0000
     18 ****         2.3717   3.5581   2.7051 C.3            1 S1                 0.0000
     19 ****         3.1424   2.4546   1.9564 C.3            1 S1                 0.0000
     20 ****        -2.3016  -0.5945  -3.0581 N.2            1 S1                 0.0000
     21 ****        -5.6279  -0.8210  -2.8303 H              1 S1                 0.0000
     22 ****        -4.7566   0.2710  -3.9012 H              1 S1                 0.0000
     23 ****        -4.7062   0.5201  -2.1572 H              1 S1                 0.0000
     24 ****        -4.2462  -3.1857  -2.3346 H              1 S1                 0.0000
     25 ****        -2.0948  -4.8829  -2.0983 H              1 S1                 0.0000
     26 ****        -0.6642  -4.0072  -1.5609 H              1 S1                 0.0000
     27 ****        -0.8630  -4.4110  -3.2684 H              1 S1                 0.0000
     28 ****         0.4106  -2.1908  -3.6667 H              1 S1                 0.0000
     29 ****         0.1426  -0.4593  -3.6217 H              1 S1                 0.0000
     30 ****        -0.6451   0.0390  -1.0462 H              1 S1                 0.0000
     31 ****        -0.1038  -0.0070   1.1919 H              1 S1                 0.0000
     32 ****         1.2047  -1.1432   0.9132 H              1 S1                 0.0000
     33 ****         1.3675  -0.2473   3.0040 H              1 S1                 0.0000
     34 ****         2.8217   0.4559   3.6287 H              1 S1                 0.0000
     35 ****         0.1253   1.8891   3.3733 H              1 S1                 0.0000
     36 ****         0.8197   1.2998   4.8657 H              1 S1                 0.0000
     37 ****         1.1879   3.7878   4.5145 H              1 S1                 0.0000
     38 ****         2.6680   2.8875   4.7353 H              1 S1                 0.0000
     39 ****         1.5412   3.9027   2.0873 H              1 S1                 0.0000
     40 ****         3.0156   4.4225   2.8687 H              1 S1                 0.0000
     41 ****         4.0253   2.1598   2.5253 H              1 S1                 0.0000
     42 ****         3.5177   2.8425   1.0086 H              1 S1                 0.0000
     43 ****         2.0885  -2.5489  -2.2568 LP             1 S1                 0.0000
     44 ****         2.2149  -1.8986  -0.6565 LP             1 S1                 0.0000
     45 ****         1.6401   1.2256  -1.3224 LP             1 S1                 0.0000
     46 ****         2.6984   2.2703  -0.4343 LP             1 S1                 0.0000
     47 ****        -2.0822   0.3548  -3.2829 LP             1 S1                 0.0000
@<TRIPOS>BOND
    1    1    2 1     
    2    1   21 1     
    3    1   22 1     
    4    1   23 1     
    5    2   20 2     
    6    2    3 1     
    7    3    4 2     
    8    3   24 1     
    9    4    5 1     
   10    4    6 1     
   11    5   25 1     
   12    5   26 1     
   13    5   27 1     
   14    6    7 1     
   15    6   20 1     
   16    7    8 1     
   17    7   28 1     
   18    7   29 1     
   19    8    9 2     
   20    8   10 am    
   21   10   11 1     
   22   10   30 1     
   23   11   12 1     
   24   11   31 1     
   25   11   32 1     
   26   12   13 2     
   27   12   14 am    
   28   14   19 1     
   29   14   15 1     
   30   15   16 1     
   31   15   33 1     
   32   15   34 1     
   33   16   17 1     
   34   16   35 1     
   35   16   36 1     
   36   17   18 1     
   37   17   37 1     
   38   17   38 1     
   39   18   19 1     
   40   18   39 1     
   41   18   40 1     
   42   19   41 1     
   43   19   42 1     
   44    9   43 1     
   45    9   44 1     
   46   13   45 1     
   47   13   46 1     
   48   20   47 1     
@<TRIPOS>SUBSTRUCTURE
      1 S1             1
@<TRIPOS>SET
LONE_PAIRS      STATIC     ATOMS    <user>   **** ""
5 43 44 45 46 47
DONOR_HYDROGENS      STATIC     ATOMS    <user>   **** ""
1 30
ATOM$BLUE        STATIC     ATOMS    COLORGROUP SYSTEM
5 43 44 45 46 47
ATOM$RED        STATIC     ATOMS    COLORGROUP SYSTEM
1 30
