AV-unprocessed.smi:2268|AV-procd|sdf|9150|dock2
  -GOLD-   2272012353D 1   1.00000     0.00000
 Structure written by MMmdl.
 37 38  0  0  0  0  0  0  0  0  1 V2000
  147.3928  142.2881  154.0233 C   0  0  0  0  0  0  0  0  0  0  0  0
  147.3673  141.4781  155.3080 C   0  0  0  0  0  0  0  0  0  0  0  0
  146.1238  141.2546  155.9383 C   0  0  0  0  0  0  0  0  0  0  0  0
  146.0494  140.5232  157.1376 C   0  0  0  0  0  0  0  0  0  0  0  0
  144.8508  140.3160  157.7324 F   0  0  0  0  0  0  0  0  0  0  0  0
  147.2221  140.0117  157.7192 C   0  0  0  0  0  0  0  0  0  0  0  0
  148.4656  140.2283  157.0978 C   0  0  0  0  0  0  0  0  0  0  0  0
  148.5544  140.9533  155.8863 C   0  0  0  0  0  0  0  0  0  0  0  0
  149.9268  141.1681  155.2476 C   0  0  2  0  0  0  0  0  0  0  0  0
  150.0508  140.4507  154.0341 O   0  0  0  0  0  0  0  0  0  0  0  0
  151.0546  140.7184  156.2035 C   0  0  0  0  0  0  0  0  0  0  0  0
  151.3708  141.7357  157.2218 N   0  0  0  0  0  0  0  0  0  0  0  0
  151.0461  143.0631  156.8958 C   0  0  0  0  0  0  0  0  0  0  0  0
  151.2739  144.0390  157.7127 N   0  0  0  0  0  0  0  0  0  0  0  0
  151.8549  143.7845  158.9581 C   0  0  0  0  0  0  0  0  0  0  0  0
  152.0745  145.0005  159.8406 C   0  0  0  0  0  0  0  0  0  0  0  0
  152.1923  142.5212  159.3357 C   0  0  0  0  0  0  0  0  0  0  0  0
  152.8259  142.1833  160.6796 C   0  0  0  0  0  0  0  0  0  0  0  0
  151.9405  141.4005  158.4155 C   0  0  0  0  0  0  0  0  0  0  0  0
  152.2189  140.2332  158.6947 O   0  0  0  0  0  0  0  0  0  0  0  0
  146.4032  142.6725  153.7747 H   0  0  0  0  0  0  0  0  0  0  0  0
  147.7298  141.6740  153.1880 H   0  0  0  0  0  0  0  0  0  0  0  0
  148.0615  143.1425  154.1238 H   0  0  0  0  0  0  0  0  0  0  0  0
  145.2157  141.6474  155.5046 H   0  0  0  0  0  0  0  0  0  0  0  0
  147.1690  139.4539  158.6425 H   0  0  0  0  0  0  0  0  0  0  0  0
  149.3573  139.8332  157.5621 H   0  0  0  0  0  0  0  0  0  0  0  0
  150.0531  142.2186  154.9909 H   0  0  0  0  0  0  0  0  0  0  0  0
  149.4773  140.8446  153.3945 H   0  0  0  0  0  0  0  0  0  0  0  0
  150.7436  139.8072  156.7185 H   0  0  0  0  0  0  0  0  0  0  0  0
  151.9370  140.4176  155.6346 H   0  0  0  0  0  0  0  0  0  0  0  0
  150.5885  143.2081  155.9157 H   0  0  0  0  0  0  0  0  0  0  0  0
  153.1341  145.1229  160.0666 H   0  0  0  0  0  0  0  0  0  0  0  0
  151.5271  144.8961  160.7776 H   0  0  0  0  0  0  0  0  0  0  0  0
  151.7291  145.9128  159.3529 H   0  0  0  0  0  0  0  0  0  0  0  0
  152.1889  141.4919  161.2320 H   0  0  0  0  0  0  0  0  0  0  0  0
  152.9867  143.0559  161.3103 H   0  0  0  0  0  0  0  0  0  0  0  0
  153.7941  141.7045  160.5290 H   0  0  0  0  0  0  0  0  0  0  0  0
  1  2  1  0  0  0  0
  1 21  1  0  0  0  0
  1 22  1  0  0  0  0
  1 23  1  0  0  0  0
  2  8  1  0  0  0  0
  2  3  2  0  0  0  0
  3  4  1  0  0  0  0
  3 24  1  0  0  0  0
  4  5  1  0  0  0  0
  4  6  2  0  0  0  0
  6  7  1  0  0  0  0
  6 25  1  0  0  0  0
  7  8  2  0  0  0  0
  7 26  1  0  0  0  0
  8  9  1  0  0  0  0
  9 10  1  0  0  0  0
  9 11  1  0  0  0  0
  9 27  1  0  0  0  0
 10 28  1  0  0  0  0
 11 12  1  0  0  0  0
 11 29  1  0  0  0  0
 11 30  1  0  0  0  0
 12 19  1  0  0  0  0
 12 13  1  0  0  0  0
 13 14  2  0  0  0  0
 13 31  1  0  0  0  0
 14 15  1  0  0  0  0
 15 16  1  0  0  0  0
 15 17  2  0  0  0  0
 16 32  1  0  0  0  0
 16 33  1  0  0  0  0
 16 34  1  0  0  0  0
 17 18  1  0  0  0  0
 17 19  1  0  0  0  0
 18 35  1  0  0  0  0
 18 36  1  0  0  0  0
 18 37  1  0  0  0  0
 19 20  2  0  0  0  0
M  END
> <s_m_source_file>
AV-unprocessed.smi

> <i_m_source_file_index>
2268

> <i_lp_mmshare_version>
43012

> <i_f3d_flags>
0

> <s_epik_input>
W0NIM11jMVtjSF1jKEYpW2NIXVtjSF1jMVtDQEhdKFtPSF0pW0NIMl1uMltjSF1uYyhbQ0gzXSljKFtDSDNdKWMyPU8=

> <s_epik_cmdline>
J2VwaWtfcHl0aG9uJywgJy1waCcsICc3LjAnLCAnLXRuJywgJzgnLCAnLW1hJywgJzIwMCcsICctbWV0YWxfYmluZGluZycsICctaW1hZScsICc8aW5maWxlLm1hZT4nLCAnLW9tYWUnLCAnPG91dGZpbGUubWFlPic=

> <r_lp_tautomer_probability>
1

> <r_epik_Ionization_Penalty>
5.07449e-05

> <r_epik_Ionization_Penalty_Charging>
7.56727e-08

> <r_epik_Ionization_Penalty_Neutral>
5.06692e-05

> <r_epik_State_Penalty>
-0

> <r_epik_Charging_Adjusted_Penalty>
7.56727e-08

> <i_epik_Tot_Q>
0

> <i_epik_Tot_abs_Q>
0

> <r_epik_Metal_State_Penalty>
-0

> <b_epik_Metal_Only>
0

> <s_lp_Force_Field>
OPLS_2005

> <r_lp_Energy>
19.9067

> <b_lp_Chiralities_Consistent>
1

> <s_lp_Variant>
AV-unprocessed.smi:2268-1

> <Gold.Version>
5.8.1

> <Gold.Id.Protein>
6NUR|6NUR_protein|mol2

> <Gold.PLP.Fitness>
39.5646

> <Gold.PLP.PLP>
-36.1331

> <Gold.PLP.part.hbond>
-1.9617

> <Gold.PLP.part.metal>
0.0000

> <Gold.PLP.part.buried>
-3.7265

> <Gold.PLP.part.nonpolar>
-30.8311

> <Gold.PLP.part.repulsive>
0.1557

> <Gold.PLP.ligand.clash>
0.0143

> <Gold.PLP.ligand.torsion>
0.7287

> <Gold.PLP.Chemscore.Hbond>
0.8252

> <Gold.PLP.Chemscore.CHOScore>
0.8047

> <Gold.PLP.Chemscore.Metal>
0.0000

> <Gold.Chemscore.Hbonds>
donor molecule, donor type, donor heavy atom, donor atom, acceptor molecule, acceptor atom, score
      L1  H    10    28       P1  7957  0.05
      P1  H  7989  7998       L1    10  0.77
      L1  C    13    31       P1  8028  0.80

> <Gold.PLP.Chemscore.Internal.Correction>
0.0135

> <Gold.Rescore>
     Score         DG    S(hbond)    S(metal)    S(lipo)     H(rot)  DE(clash)    DE(int)     intcor
     10.38     -11.22       0.55        0.00      76.71       1.98       0.11       0.73       ----

> <Gold.Chemscore.Fitness>
10.3825

> <Gold.Chemscore.DG>
-11.2211

> <Gold.Chemscore.ZeroCoef>
-5.4800

> <Gold.Chemscore.Hbond>
0.5511

> <Gold.Chemscore.Metal>
0.0000

> <Gold.Chemscore.Lipo>
76.7122

> <Gold.Chemscore.Internal_Hbond>
0.0000

> <Gold.Chemscore.DEClash>
0.1065

> <Gold.Chemscore.DEInternal>
0.7321

> <Gold.Chemscore.Rot>
1.9823

> <Gold.Chemscore.Internal.Correction>
   9.000000E+99

> <Gold.Chemscore.Hbonds>
donor molecule, donor type, donor heavy atom, donor atom, acceptor molecule, acceptor atom, score
      L1  H    10    28       P1  7957  0.06
      P1  H  7989  7998       L1    10  0.13

> <Gold.Chemscore.Hbond.Weighted>
-1.8406

> <Gold.Chemscore.Metal.Weighted>
-0.0000

> <Gold.Chemscore.Lipo.Weighted>
-8.9753

> <Gold.Chemscore.Internal_Hbond.Weighted>
0.0000

> <Gold.Chemscore.DEClash.Weighted>
0.1065

> <Gold.Chemscore.DEInternal.Weighted>
0.7321

> <Gold.Chemscore.Rot.Weighted>
5.0748

> <Gold.Chemscore.Internal.Correction.Weighted>
   9.000000E+99

> <Gold.Protein.RotatedTorsions>
[ 6907 6896 6895 6894 ] final  123.15 input  -60.11 | X-H torsion
[ 7974 7965 7964 7962 ] final  -42.52 input  175.53 | X-H torsion
[ 8008 7997 7996 7995 ] final   49.67 input   59.86 | X-H torsion
[ 10167 10162 10161 10158 ] final    8.85 input  -65.29 | X-H torsion
[ 10718 10713 10712 10709 ] final  103.16 input   66.30 | X-H torsion
[ 10763 10752 10751 10750 ] final  177.68 input  -60.55 | X-H torsion
[ 11005 11000 10999 10996 ] final   88.17 input  -57.11 | X-H torsion

> <Gold.Protein.ActiveResidues>
 VAL166  LYS551  ARG553  GLY616  TRP617  ASP618  TYR619  PRO620  LYS621  CYS622 
 ASP623  PHE694  ASN695  SER759  ASP760  ASP761  ALA762  ILE779  LEU786  VAL792 
 PHE793  MET794  SER795  GLU796  ALA797  LYS798  CYS799  TRP800  GLU811  SER814 

> <Gold.Protein.RotatedAtoms>
  152.4186  133.7078  159.6460 H   0  0  0  0  0  0  0  0  0  0  0  0  # atno 6907 bound_to 6896
  150.8062  133.8495  159.3210 H   0  0  0  0  0  0  0  0  0  0  0  0  # atno 6908 bound_to 6896
  151.6218  135.1033  160.0155 H   0  0  0  0  0  0  0  0  0  0  0  0  # atno 6909 bound_to 6896
  146.0108  140.6966  142.9225 H   0  0  0  0  0  0  0  0  0  0  0  0  # atno 7974 bound_to 7965
  155.4060  140.3440  155.4260 H   0  0  0  0  0  0  0  0  0  0  0  0  # atno 8008 bound_to 7997
  156.1476  140.1561  156.8854 H   0  0  0  0  0  0  0  0  0  0  0  0  # atno 8009 bound_to 7997
  154.5024  140.0811  156.7806 H   0  0  0  0  0  0  0  0  0  0  0  0  # atno 8010 bound_to 7997
  140.6290  143.8036  150.7270 H   0  0  0  0  0  0  0  0  0  0  0  0  # atno 10167 bound_to 10162
  157.6781  131.0771  150.5512 H   0  0  0  0  0  0  0  0  0  0  0  0  # atno 10718 bound_to 10713
  154.4977  135.2782  155.1446 H   0  0  0  0  0  0  0  0  0  0  0  0  # atno 10763 bound_to 10752
  154.3092  135.6232  153.5462 H   0  0  0  0  0  0  0  0  0  0  0  0  # atno 10764 bound_to 10752
  152.9897  135.5715  154.5413 H   0  0  0  0  0  0  0  0  0  0  0  0  # atno 10765 bound_to 10752
  139.8902  134.8470  156.2963 H   0  0  0  0  0  0  0  0  0  0  0  0  # atno 11005 bound_to 11000
  144.6952  140.3395  143.7202 LP  0  0  0  0  0  0  0  0  0  0  0  0  # atno 17320 bound_to 7965
  145.7345  139.1746  143.2411 LP  0  0  0  0  0  0  0  0  0  0  0  0  # atno 17321 bound_to 7965
  140.1643  143.4248  152.2045 LP  0  0  0  0  0  0  0  0  0  0  0  0  # atno 17342 bound_to 10162
  139.5506  144.7335  151.4446 LP  0  0  0  0  0  0  0  0  0  0  0  0  # atno 17343 bound_to 10162
  156.5817  130.4306  149.5974 LP  0  0  0  0  0  0  0  0  0  0  0  0  # atno 17370 bound_to 10713
  156.2656  130.6987  151.1769 LP  0  0  0  0  0  0  0  0  0  0  0  0  # atno 17371 bound_to 10713
  140.9943  133.7189  156.0862 LP  0  0  0  0  0  0  0  0  0  0  0  0  # atno 17394 bound_to 11000
  140.7583  134.3968  157.5530 LP  0  0  0  0  0  0  0  0  0  0  0  0  # atno 17395 bound_to 11000

$$$$
