#       Name:                AV-unprocessed.smi:1381
#       Creating user name   scv26
#       Creation time:       Fri Mar 27 05:22:33 2020


#       File generated by GOLD software.
#

@<TRIPOS>MOLECULE
AV-unprocessed.smi:1381
    50    51     1
SMALL
NO_CHARGES


@<TRIPOS>ATOM
      1 ****        -3.9481   6.2149   3.1416 C.3            1 S1                 0.0000
      2 ****        -3.0736   5.5252   2.1513 C.2            1 S1                 0.0000
      3 ****        -3.3158   4.5682   1.2070 C.2            1 S1                 0.0000
      4 ****        -2.0378   4.3600   0.6205 C.2            1 S1                 0.0000
      5 ****        -1.7561   3.5073  -0.3768 N.pl3          1 S1                -1.0000
      6 ****        -1.4702   2.2138  -0.1052 C.2            1 S1                 0.0000
      7 ****        -1.4537   1.6853   1.0091 O.2            1 S1                 0.0000
      8 ****        -1.1787   1.4861  -1.1929 N.am           1 S1                 0.0000
      9 ****        -0.8084   0.0762  -1.1968 C.3            1 S1                 0.0000
     10 ****         0.6531  -0.1191  -0.7502 C.3            1 S1                 0.0000
     11 ****         1.0683  -1.5427  -0.7877 N.4            1 S1                 1.0000
     12 ****         2.5390  -1.7008  -0.8583 C.3            1 S1                 0.0000
     13 ****         2.9134  -3.1859  -1.0075 C.3            1 S1                 0.0000
     14 ****         4.4312  -3.3999  -0.9974 C.3            1 S1                 0.0000
     15 ****         2.3595  -3.9269   0.0767 O.3            1 S1                 0.0000
     16 ****         0.9416  -3.8265   0.2101 C.3            1 S1                 0.0000
     17 ****         0.1965  -4.5901  -0.8992 C.3            1 S1                 0.0000
     18 ****         0.5191  -2.3489   0.3303 C.3            1 S1                 0.0000
     19 ****        -1.1060   5.1351   1.1497 N.2            1 S1                 0.0000
     20 ****        -1.7609   5.8811   2.1368 O.3            1 S1                 0.0000
     21 ****        -4.5535   6.9788   2.6543 H              1 S1                 0.0000
     22 ****        -3.3557   6.6973   3.9195 H              1 S1                 0.0000
     23 ****        -4.6211   5.5050   3.6227 H              1 S1                 0.0000
     24 ****        -4.2552   4.0892   0.9753 H              1 S1                 0.0000
     25 ****        -1.2085   1.9563  -2.0860 H              1 S1                 0.0000
     26 ****        -1.5017  -0.4766  -0.5624 H              1 S1                 0.0000
     27 ****        -0.9417  -0.3057  -2.2091 H              1 S1                 0.0000
     28 ****         1.2901   0.4582  -1.4223 H              1 S1                 0.0000
     29 ****         0.8193   0.2831   0.2504 H              1 S1                 0.0000
     30 ****         2.9300  -1.1396  -1.7081 H              1 S1                 0.0000
     31 ****         2.9942  -1.2805   0.0403 H              1 S1                 0.0000
     32 ****         2.5251  -3.5681  -1.9518 H              1 S1                 0.0000
     33 ****         4.9113  -2.8541  -1.8100 H              1 S1                 0.0000
     34 ****         4.6761  -4.4556  -1.1172 H              1 S1                 0.0000
     35 ****         4.8723  -3.0607  -0.0595 H              1 S1                 0.0000
     36 ****         0.6927  -4.3192   1.1505 H              1 S1                 0.0000
     37 ****        -0.8743  -4.6173  -0.6960 H              1 S1                 0.0000
     38 ****         0.5454  -5.6211  -0.9622 H              1 S1                 0.0000
     39 ****         0.3273  -4.1313  -1.8789 H              1 S1                 0.0000
     40 ****         0.8841  -1.9409   1.2744 H              1 S1                 0.0000
     41 ****        -0.5679  -2.2824   0.3620 H              1 S1                 0.0000
     42 ****         0.6984  -1.9275  -1.6451 H              1 S1                 0.0000
     43 ****        -1.7576   3.8294  -1.3236 LP             1 S1                 0.0000
     44 ****        -1.6661   2.2268   1.8225 LP             1 S1                 0.0000
     45 ****        -1.2279   0.7153   1.0991 LP             1 S1                 0.0000
     46 ****         2.7756  -3.5962   0.9238 LP             1 S1                 0.0000
     47 ****         2.5919  -4.8906  -0.0548 LP             1 S1                 0.0000
     48 ****        -0.1391   5.1790   0.8981 LP             1 S1                 0.0000
     49 ****        -1.3509   5.6923   3.0291 LP             1 S1                 0.0000
     50 ****        -1.6786   6.8564   1.9318 LP             1 S1                 0.0000
@<TRIPOS>BOND
    1    1    2 1     
    2    1   21 1     
    3    1   22 1     
    4    1   23 1     
    5    2   20 1     
    6    2    3 2     
    7    3    4 1     
    8    3   24 1     
    9    4    5 1     
   10    4   19 2     
   11    5    6 1     
   12    6    7 2     
   13    6    8 am    
   14    8    9 1     
   15    8   25 1     
   16    9   10 1     
   17    9   26 1     
   18    9   27 1     
   19   10   11 1     
   20   10   28 1     
   21   10   29 1     
   22   11   18 1     
   23   11   12 1     
   24   11   42 1     
   25   12   13 1     
   26   12   30 1     
   27   12   31 1     
   28   13   14 1     
   29   13   15 1     
   30   13   32 1     
   31   14   33 1     
   32   14   34 1     
   33   14   35 1     
   34   15   16 1     
   35   16   17 1     
   36   16   18 1     
   37   16   36 1     
   38   17   37 1     
   39   17   38 1     
   40   17   39 1     
   41   18   40 1     
   42   18   41 1     
   43   19   20 1     
   44    5   43 1     
   45    7   44 1     
   46    7   45 1     
   47   15   46 1     
   48   15   47 1     
   49   19   48 1     
   50   20   49 1     
   51   20   50 1     
@<TRIPOS>SUBSTRUCTURE
      1 S1             1
@<TRIPOS>SET
LONE_PAIRS      STATIC     ATOMS    <user>   **** ""
8 43 44 45 46 47 48 49 50
DONOR_HYDROGENS      STATIC     ATOMS    <user>   **** ""
2 25 42
ATOM$BLUE        STATIC     ATOMS    COLORGROUP SYSTEM
8 43 44 45 46 47 48 49 50
ATOM$RED        STATIC     ATOMS    COLORGROUP SYSTEM
2 25 42
