AV-unprocessed.smi:2328|AV-procd|sdf|9301|dock10
  -GOLD-   2272012523D 1   1.00000     0.00000
 Structure written by MMmdl.
 40 40  0  0  0  0  0  0  0  0  1 V2000
  147.5257  138.3744  156.6231 C   0  0  0  0  0  0  0  0  0  0  0  0
  148.6354  137.4993  156.0028 C   0  0  0  0  0  0  0  0  0  0  0  0
  150.0131  138.1720  155.6616 C   0  0  2  0  0  0  0  0  0  0  0  0
  150.5509  138.8256  156.8766 N   0  0  0  0  0  0  0  0  0  0  0  0
  151.5479  139.7096  157.0923 C   0  0  0  0  0  0  0  0  0  0  0  0
  152.2034  140.1280  156.1394 O   0  0  0  0  0  0  0  0  0  0  0  0
  151.8736  140.2149  158.5094 C   0  0  0  0  0  0  0  0  0  0  0  0
  151.8155  141.7316  158.5898 C   0  0  0  0  0  0  0  0  0  0  0  0
  152.4186  142.4269  159.6585 C   0  0  0  0  0  0  0  0  0  0  0  0
  152.3359  143.8325  159.6855 C   0  0  0  0  0  0  0  0  0  0  0  0
  151.6521  144.4841  158.6397 C   0  0  0  0  0  0  0  0  0  0  0  0
  151.0704  143.8291  157.6118 N   0  0  0  0  0  0  0  0  0  0  0  0
  151.1540  142.4816  157.5938 C   0  0  0  0  0  0  0  0  0  0  0  0
  149.8532  139.1866  154.4867 C   0  0  0  0  0  0  0  0  0  0  0  0
  149.4358  138.7413  153.2955 N   0  0  0  0  0  0  0  0  0  0  0  0
  150.0798  140.3825  154.6540 O   0  0  0  0  0  0  0  0  0  0  0  0
  151.0742  137.0867  155.2462 C   0  0  0  0  0  0  0  0  0  0  0  0
  151.3225  136.0160  156.3335 C   0  0  0  0  0  0  0  0  0  0  0  0
  152.4445  137.6666  154.8196 C   0  0  0  0  0  0  0  0  0  0  0  0
  146.6311  137.7747  156.7916 H   0  0  0  0  0  0  0  0  0  0  0  0
  147.2325  139.1976  155.9733 H   0  0  0  0  0  0  0  0  0  0  0  0
  147.8078  138.7917  157.5878 H   0  0  0  0  0  0  0  0  0  0  0  0
  148.7856  136.6785  156.7009 H   0  0  0  0  0  0  0  0  0  0  0  0
  148.2291  137.0317  155.1051 H   0  0  0  0  0  0  0  0  0  0  0  0
  150.0344  138.5868  157.7106 H   0  0  0  0  0  0  0  0  0  0  0  0
  151.1784  139.8229  159.2485 H   0  0  0  0  0  0  0  0  0  0  0  0
  152.8699  139.8716  158.7895 H   0  0  0  0  0  0  0  0  0  0  0  0
  152.9371  141.8951  160.4428 H   0  0  0  0  0  0  0  0  0  0  0  0
  152.7864  144.3978  160.4877 H   0  0  0  0  0  0  0  0  0  0  0  0
  151.5698  145.5609  158.6293 H   0  0  0  0  0  0  0  0  0  0  0  0
  150.6799  141.9866  156.7588 H   0  0  0  0  0  0  0  0  0  0  0  0
  149.3334  139.3863  152.5252 H   0  0  0  0  0  0  0  0  0  0  0  0
  149.2303  137.7606  153.1704 H   0  0  0  0  0  0  0  0  0  0  0  0
  150.6945  136.5613  154.3692 H   0  0  0  0  0  0  0  0  0  0  0  0
  151.7412  136.4495  157.2420 H   0  0  0  0  0  0  0  0  0  0  0  0
  152.0280  135.2632  155.9812 H   0  0  0  0  0  0  0  0  0  0  0  0
  150.4140  135.4834  156.6104 H   0  0  0  0  0  0  0  0  0  0  0  0
  152.9143  138.2329  155.6242 H   0  0  0  0  0  0  0  0  0  0  0  0
  152.3679  138.3214  153.9517 H   0  0  0  0  0  0  0  0  0  0  0  0
  153.1338  136.8687  154.5422 H   0  0  0  0  0  0  0  0  0  0  0  0
  1  2  1  0  0  0  0
  1 20  1  0  0  0  0
  1 21  1  0  0  0  0
  1 22  1  0  0  0  0
  2  3  1  0  0  0  0
  2 23  1  0  0  0  0
  2 24  1  0  0  0  0
  3  4  1  0  0  0  0
  3 14  1  0  0  0  0
  3 17  1  0  0  0  0
  4  5  1  0  0  0  0
  4 25  1  0  0  0  0
  5  6  2  0  0  0  0
  5  7  1  0  0  0  0
  7  8  1  0  0  0  0
  7 26  1  0  0  0  0
  7 27  1  0  0  0  0
  8 13  1  0  0  0  0
  8  9  2  0  0  0  0
  9 10  1  0  0  0  0
  9 28  1  0  0  0  0
 10 11  2  0  0  0  0
 10 29  1  0  0  0  0
 11 12  1  0  0  0  0
 11 30  1  0  0  0  0
 12 13  2  0  0  0  0
 13 31  1  0  0  0  0
 14 15  1  0  0  0  0
 14 16  2  0  0  0  0
 15 32  1  0  0  0  0
 15 33  1  0  0  0  0
 17 18  1  0  0  0  0
 17 19  1  0  0  0  0
 17 34  1  0  0  0  0
 18 35  1  0  0  0  0
 18 36  1  0  0  0  0
 18 37  1  0  0  0  0
 19 38  1  0  0  0  0
 19 39  1  0  0  0  0
 19 40  1  0  0  0  0
M  END
> <s_m_source_file>
AV-unprocessed.smi

> <i_m_source_file_index>
2328

> <i_lp_mmshare_version>
43012

> <i_f3d_flags>
0

> <s_epik_input>
W0NIM11bQ0gyXVtDQEBdKEMoPU8pW05IMl0pKFtDSF0oW0NIM10pW0NIM10pW05IXUMoPU8pW0NIMl1jMVtjSF1bY0hdW2NIXW5bY0hdMQ==

> <s_epik_cmdline>
J2VwaWtfcHl0aG9uJywgJy1waCcsICc3LjAnLCAnLXRuJywgJzgnLCAnLW1hJywgJzIwMCcsICctbWV0YWxfYmluZGluZycsICctaW1hZScsICc8aW5maWxlLm1hZT4nLCAnLW9tYWUnLCAnPG91dGZpbGUubWFlPic=

> <r_epik_Ionization_Penalty>
0.00378489

> <r_epik_Ionization_Penalty_Charging>
0

> <r_epik_Ionization_Penalty_Neutral>
0.00378489

> <r_epik_State_Penalty>
0.00269972

> <r_epik_Charging_Adjusted_Penalty>
0.00269972

> <i_epik_Tot_Q>
0

> <i_epik_Tot_abs_Q>
0

> <r_epik_Metal_State_Penalty>
-0

> <b_epik_Metal_Only>
0

> <s_lp_Force_Field>
OPLS_2005

> <r_lp_Energy>
16.0565

> <b_lp_Chiralities_Consistent>
1

> <s_lp_Variant>
AV-unprocessed.smi:2328-2

> <Gold.Version>
5.8.1

> <Gold.Id.Protein>
6NUR|6NUR_protein|mol2

> <Gold.PLP.Fitness>
41.5599

> <Gold.PLP.PLP>
-30.9455

> <Gold.PLP.part.hbond>
-3.8762

> <Gold.PLP.part.metal>
0.0000

> <Gold.PLP.part.buried>
-2.2079

> <Gold.PLP.part.nonpolar>
-25.9906

> <Gold.PLP.part.repulsive>
0.3485

> <Gold.PLP.ligand.clash>
0.0000

> <Gold.PLP.ligand.torsion>
0.5850

> <Gold.PLP.Chemscore.Hbond>
3.8793

> <Gold.PLP.Chemscore.CHOScore>
0.0000

> <Gold.PLP.Chemscore.Metal>
0.0000

> <Gold.Chemscore.Hbonds>
donor molecule, donor type, donor heavy atom, donor atom, acceptor molecule, acceptor atom, score
      L1  H    15    32       P1  7957  1.00
      L1  H    15    33       P1  7948  0.91
      P1  H  7989  7998       L1    16  0.96
      P1  H  7997  8010       L1     6  0.73

> <Gold.PLP.Chemscore.Internal.Correction>
0.1466

> <Gold.Rescore>
     Score         DG    S(hbond)    S(metal)    S(lipo)     H(rot)  DE(clash)    DE(int)     intcor
     12.43     -21.03       3.56        0.00      81.48       2.29       1.42       7.19       ----

> <Gold.Chemscore.Fitness>
12.4284

> <Gold.Chemscore.DG>
-21.0292

> <Gold.Chemscore.ZeroCoef>
-5.4800

> <Gold.Chemscore.Hbond>
3.5578

> <Gold.Chemscore.Metal>
0.0000

> <Gold.Chemscore.Lipo>
81.4850

> <Gold.Chemscore.Internal_Hbond>
0.0000

> <Gold.Chemscore.DEClash>
1.4158

> <Gold.Chemscore.DEInternal>
7.1851

> <Gold.Chemscore.Rot>
2.2921

> <Gold.Chemscore.Internal.Correction>
   9.000000E+99

> <Gold.Chemscore.Hbonds>
donor molecule, donor type, donor heavy atom, donor atom, acceptor molecule, acceptor atom, score
      L1  H    15    32       P1  7957  0.93
      L1  H    15    33       P1  7948  0.85
      P1  H  7989  7998       L1    16  0.58
      P1  H  7997  8010       L1     6  0.69

> <Gold.Chemscore.Hbond.Weighted>
-11.8832

> <Gold.Chemscore.Metal.Weighted>
-0.0000

> <Gold.Chemscore.Lipo.Weighted>
-9.5337

> <Gold.Chemscore.Internal_Hbond.Weighted>
0.0000

> <Gold.Chemscore.DEClash.Weighted>
1.4158

> <Gold.Chemscore.DEInternal.Weighted>
7.1851

> <Gold.Chemscore.Rot.Weighted>
5.8677

> <Gold.Chemscore.Internal.Correction.Weighted>
   9.000000E+99

> <Gold.Protein.RotatedTorsions>
[ 6907 6896 6895 6894 ] final -107.57 input  -60.11 | X-H torsion
[ 7974 7965 7964 7962 ] final   90.25 input  175.53 | X-H torsion
[ 8008 7997 7996 7995 ] final   77.60 input   59.86 | X-H torsion
[ 10167 10162 10161 10158 ] final -170.46 input  -65.29 | X-H torsion
[ 10718 10713 10712 10709 ] final   30.42 input   66.30 | X-H torsion
[ 10763 10752 10751 10750 ] final   18.65 input  -60.55 | X-H torsion
[ 11005 11000 10999 10996 ] final   -5.06 input  -57.11 | X-H torsion

> <Gold.Protein.ActiveResidues>
 VAL166  LYS551  ARG553  GLY616  TRP617  ASP618  TYR619  PRO620  LYS621  CYS622 
 ASP623  PHE694  ASN695  SER759  ASP760  ASP761  ALA762  ILE779  LEU786  VAL792 
 PHE793  MET794  SER795  GLU796  ALA797  LYS798  CYS799  TRP800  GLU811  SER814 

> <Gold.Protein.RotatedAtoms>
  150.7452  133.9806  159.3574 H   0  0  0  0  0  0  0  0  0  0  0  0  # atno 6907 bound_to 6896
  151.7747  135.0775  160.0374 H   0  0  0  0  0  0  0  0  0  0  0  0  # atno 6908 bound_to 6896
  152.3315  133.5927  159.5849 H   0  0  0  0  0  0  0  0  0  0  0  0  # atno 6909 bound_to 6896
  145.5215  139.2279  143.2669 H   0  0  0  0  0  0  0  0  0  0  0  0  # atno 7974 bound_to 7965
  155.8439  140.3461  155.5649 H   0  0  0  0  0  0  0  0  0  0  0  0  # atno 8008 bound_to 7997
  155.8111  140.0899  157.1923 H   0  0  0  0  0  0  0  0  0  0  0  0  # atno 8009 bound_to 7997
  154.4005  140.1447  156.3375 H   0  0  0  0  0  0  0  0  0  0  0  0  # atno 8010 bound_to 7997
  139.5860  144.1317  152.1576 H   0  0  0  0  0  0  0  0  0  0  0  0  # atno 10167 bound_to 10162
  157.2594  130.7153  149.6446 H   0  0  0  0  0  0  0  0  0  0  0  0  # atno 10718 bound_to 10713
  153.1230  135.6723  153.9303 H   0  0  0  0  0  0  0  0  0  0  0  0  # atno 10763 bound_to 10752
  153.8812  135.3058  155.3446 H   0  0  0  0  0  0  0  0  0  0  0  0  # atno 10764 bound_to 10752
  154.7639  135.4974  153.9597 H   0  0  0  0  0  0  0  0  0  0  0  0  # atno 10765 bound_to 10752
  140.6870  133.9104  155.8593 H   0  0  0  0  0  0  0  0  0  0  0  0  # atno 11005 bound_to 11000
  146.2103  140.6027  142.9062 LP  0  0  0  0  0  0  0  0  0  0  0  0  # atno 17320 bound_to 7965
  144.7673  140.5560  143.6694 LP  0  0  0  0  0  0  0  0  0  0  0  0  # atno 17321 bound_to 7965
  140.0881  144.5644  150.7074 LP  0  0  0  0  0  0  0  0  0  0  0  0  # atno 17342 bound_to 10162
  140.7132  143.2522  151.4517 LP  0  0  0  0  0  0  0  0  0  0  0  0  # atno 17343 bound_to 10162
  155.9664  130.4402  150.5291 LP  0  0  0  0  0  0  0  0  0  0  0  0  # atno 17370 bound_to 10713
  157.3192  131.0678  151.1944 LP  0  0  0  0  0  0  0  0  0  0  0  0  # atno 17371 bound_to 10713
  141.0272  134.0807  157.4055 LP  0  0  0  0  0  0  0  0  0  0  0  0  # atno 17394 bound_to 11000
  139.8934  135.0130  156.6899 LP  0  0  0  0  0  0  0  0  0  0  0  0  # atno 17395 bound_to 11000

$$$$
