AV-unprocessed.smi:1525|AV-procd|sdf|6144|dock3
  -GOLD-   22720 6293D 1   1.00000     0.00000
 Structure written by MMmdl.
 50 52  0  0  0  0  0  0  0  0  3 V2000
  141.6296  136.7939  153.3826 O   0  0  0  0  0  0  0  0  0  0  0  0
  142.4053  137.7418  153.2623 C   0  0  0  0  0  0  0  0  0  0  0  0
  142.1190  138.9863  153.6703 N   0  0  0  0  0  0  0  0  0  0  0  0
  140.8689  139.3879  154.3053 C   0  0  0  0  0  0  0  0  0  0  0  0
  140.7211  140.9214  154.3434 C   0  0  0  0  0  0  0  0  0  0  0  0
  139.3024  141.3581  154.3463 N   0  3  0  0  0  0  0  0  0  0  0  0
  139.1301  142.8295  154.2543 C   0  0  0  0  0  0  0  0  0  0  0  0
  137.6376  143.2003  154.2935 C   0  0  0  0  0  0  0  0  0  0  0  0
  136.9499  142.5327  153.2431 O   0  0  0  0  0  0  0  0  0  0  0  0
  137.0310  141.1188  153.3702 C   0  0  0  0  0  0  0  0  0  0  0  0
  138.5031  140.6795  153.2977 C   0  0  0  0  0  0  0  0  0  0  0  0
  143.6372  137.6714  152.7302 N   0  0  0  0  0  0  0  0  0  0  0  0
  144.3054  136.5234  152.2157 C   0  0  0  0  0  0  0  0  0  0  0  0
  143.6077  135.4880  151.5424 C   0  0  0  0  0  0  0  0  0  0  0  0
  144.3177  134.3930  151.0138 C   0  0  0  0  0  0  0  0  0  0  0  0
  145.7158  134.3533  151.1573 C   0  0  0  0  0  0  0  0  0  0  0  0
  146.3519  135.3611  151.7897 N   0  3  0  0  0  0  0  0  0  0  0  0
  145.7218  136.4402  152.3163 C   0  0  0  0  0  0  0  0  0  0  0  0
  146.4900  137.4237  152.9752 N   0  0  0  0  0  0  0  0  0  0  0  0
  146.6150  138.6799  152.2405 C   0  0  0  0  0  0  0  0  0  0  0  0
  146.6261  139.7948  153.2885 C   0  0  0  0  0  0  0  0  0  0  0  0
  145.8369  139.1906  154.4432 C   0  0  0  0  0  0  0  0  0  0  0  0
  146.2420  137.7187  154.3859 C   0  0  0  0  0  0  0  0  0  0  0  0
  142.8146  139.7062  153.5380 H   0  0  0  0  0  0  0  0  0  0  0  0
  140.0228  138.9336  153.7864 H   0  0  0  0  0  0  0  0  0  0  0  0
  140.8739  138.9736  155.3130 H   0  0  0  0  0  0  0  0  0  0  0  0
  141.2384  141.3389  155.2087 H   0  0  0  0  0  0  0  0  0  0  0  0
  141.2105  141.3376  153.4614 H   0  0  0  0  0  0  0  0  0  0  0  0
  139.6413  143.3276  155.0769 H   0  0  0  0  0  0  0  0  0  0  0  0
  139.5795  143.1945  153.3293 H   0  0  0  0  0  0  0  0  0  0  0  0
  137.1967  142.9401  155.2572 H   0  0  0  0  0  0  0  0  0  0  0  0
  137.5150  144.2763  154.1679 H   0  0  0  0  0  0  0  0  0  0  0  0
  136.5734  140.7978  154.3073 H   0  0  0  0  0  0  0  0  0  0  0  0
  136.4609  140.6581  152.5632 H   0  0  0  0  0  0  0  0  0  0  0  0
  138.9148  140.9139  152.3145 H   0  0  0  0  0  0  0  0  0  0  0  0
  138.5670  139.5978  153.4229 H   0  0  0  0  0  0  0  0  0  0  0  0
  144.1945  138.5116  152.7831 H   0  0  0  0  0  0  0  0  0  0  0  0
  142.5376  135.5228  151.4058 H   0  0  0  0  0  0  0  0  0  0  0  0
  143.7965  133.5986  150.4997 H   0  0  0  0  0  0  0  0  0  0  0  0
  146.3410  133.5548  150.7848 H   0  0  0  0  0  0  0  0  0  0  0  0
  147.5226  138.6975  151.6372 H   0  0  0  0  0  0  0  0  0  0  0  0
  145.7643  138.8077  151.5689 H   0  0  0  0  0  0  0  0  0  0  0  0
  147.6500  139.9939  153.6079 H   0  0  0  0  0  0  0  0  0  0  0  0
  146.2001  140.7285  152.9202 H   0  0  0  0  0  0  0  0  0  0  0  0
  146.0590  139.6556  155.4039 H   0  0  0  0  0  0  0  0  0  0  0  0
  144.7670  139.2910  154.2554 H   0  0  0  0  0  0  0  0  0  0  0  0
  145.5011  137.0788  154.8644 H   0  0  0  0  0  0  0  0  0  0  0  0
  147.1790  137.5715  154.9234 H   0  0  0  0  0  0  0  0  0  0  0  0
  138.9112  141.0683  155.2313 H   0  0  0  0  0  0  0  0  0  0  0  0
  147.3667  135.3054  151.8794 H   0  0  0  0  0  0  0  0  0  0  0  0
  1  2  2  0  0  0  0
  2  3  1  0  0  0  0
  2 12  1  0  0  0  0
  3  4  1  0  0  0  0
  3 24  1  0  0  0  0
  4  5  1  0  0  0  0
  4 25  1  0  0  0  0
  4 26  1  0  0  0  0
  5  6  1  0  0  0  0
  5 27  1  0  0  0  0
  5 28  1  0  0  0  0
  6 11  1  0  0  0  0
  6  7  1  0  0  0  0
  6 49  1  0  0  0  0
  7  8  1  0  0  0  0
  7 29  1  0  0  0  0
  7 30  1  0  0  0  0
  8  9  1  0  0  0  0
  8 31  1  0  0  0  0
  8 32  1  0  0  0  0
  9 10  1  0  0  0  0
 10 11  1  0  0  0  0
 10 33  1  0  0  0  0
 10 34  1  0  0  0  0
 11 35  1  0  0  0  0
 11 36  1  0  0  0  0
 12 13  1  0  0  0  0
 12 37  1  0  0  0  0
 13 18  1  0  0  0  0
 13 14  2  0  0  0  0
 14 15  1  0  0  0  0
 14 38  1  0  0  0  0
 15 16  2  0  0  0  0
 15 39  1  0  0  0  0
 16 17  1  0  0  0  0
 16 40  1  0  0  0  0
 17 18  2  0  0  0  0
 17 50  1  0  0  0  0
 18 19  1  0  0  0  0
 19 23  1  0  0  0  0
 19 20  1  0  0  0  0
 20 21  1  0  0  0  0
 20 41  1  0  0  0  0
 20 42  1  0  0  0  0
 21 22  1  0  0  0  0
 21 43  1  0  0  0  0
 21 44  1  0  0  0  0
 22 23  1  0  0  0  0
 22 45  1  0  0  0  0
 22 46  1  0  0  0  0
 23 47  1  0  0  0  0
 23 48  1  0  0  0  0
M  CHG  1   6   1
M  CHG  1  17   1
M  END
> <s_m_source_file>
AV-unprocessed.smi

> <i_m_source_file_index>
1525

> <i_lp_mmshare_version>
43012

> <i_f3d_flags>
0

> <s_epik_input>
W0NIMl0xW0NIMl1PW0NIMl1bQ0gyXU4xW0NIMl1bQ0gyXVtOSF1DKD1PKVtOSF1jMltjSF1bY0hdW2NIXW5jMk4zW0NIMl1bQ0gyXVtDSDJdW0NIMl0z

> <s_epik_cmdline>
J2VwaWtfcHl0aG9uJywgJy1waCcsICc3LjAnLCAnLXRuJywgJzgnLCAnLW1hJywgJzIwMCcsICctbWV0YWxfYmluZGluZycsICctaW1hZScsICc8aW5maWxlLm1hZT4nLCAnLW9tYWUnLCAnPG91dGZpbGUubWFlPic=

> <r_lp_tautomer_probability>
0.999994

> <r_epik_Ionization_Penalty>
1.81601

> <r_epik_Ionization_Penalty_Charging>
1.81599

> <r_epik_Ionization_Penalty_Neutral>
2.02981e-05

> <r_epik_State_Penalty>
1.85672

> <r_epik_Charging_Adjusted_Penalty>
3.6727

> <i_epik_Tot_Q>
2

> <i_epik_Tot_abs_Q>
2

> <r_epik_Metal_State_Penalty>
1.93796

> <b_epik_Metal_Only>
0

> <s_lp_Force_Field>
OPLS_2005

> <r_lp_Energy>
52.6706

> <b_lp_Chiralities_Consistent>
1

> <s_lp_Variant>
AV-unprocessed.smi:1525-4

> <Gold.Version>
5.8.1

> <Gold.Id.Protein>
6NUR|6NUR_protein|mol2

> <Gold.PLP.Fitness>
38.4082

> <Gold.PLP.PLP>
-29.0508

> <Gold.PLP.part.hbond>
-3.4634

> <Gold.PLP.part.metal>
0.0000

> <Gold.PLP.part.buried>
-2.3929

> <Gold.PLP.part.nonpolar>
-25.4751

> <Gold.PLP.part.repulsive>
1.7641

> <Gold.PLP.ligand.clash>
0.0000

> <Gold.PLP.ligand.torsion>
0.6496

> <Gold.PLP.Chemscore.Hbond>
3.4880

> <Gold.PLP.Chemscore.CHOScore>
0.0000

> <Gold.PLP.Chemscore.Metal>
0.0000

> <Gold.Chemscore.Hbonds>
donor molecule, donor type, donor heavy atom, donor atom, acceptor molecule, acceptor atom, score
      L1  H     3    24       P1 10175  0.81
      L1  H    12    37       P1 10175  0.58
      L1  H    17    50       P1  7948  1.89

> <Gold.PLP.Chemscore.Internal.Correction>
0.1927

> <Gold.Rescore>
     Score         DG    S(hbond)    S(metal)    S(lipo)     H(rot)  DE(clash)    DE(int)     intcor
     15.85     -17.75       2.50        0.00      70.53       1.70       0.27       1.63       ----

> <Gold.Chemscore.Fitness>
15.8474

> <Gold.Chemscore.DG>
-17.7489

> <Gold.Chemscore.ZeroCoef>
-5.4800

> <Gold.Chemscore.Hbond>
2.5021

> <Gold.Chemscore.Metal>
0.0000

> <Gold.Chemscore.Lipo>
70.5274

> <Gold.Chemscore.Internal_Hbond>
0.0000

> <Gold.Chemscore.DEClash>
0.2721

> <Gold.Chemscore.DEInternal>
1.6294

> <Gold.Chemscore.Rot>
1.6952

> <Gold.Chemscore.Internal.Correction>
   9.000000E+99

> <Gold.Chemscore.Hbonds>
donor molecule, donor type, donor heavy atom, donor atom, acceptor molecule, acceptor atom, score
      L1  H     3    24       P1 10175  0.78
      L1  H    12    37       P1 10175  0.54
      L1  H    17    50       P1  7948  0.89

> <Gold.Chemscore.Hbond.Weighted>
-8.3569

> <Gold.Chemscore.Metal.Weighted>
-0.0000

> <Gold.Chemscore.Lipo.Weighted>
-8.2517

> <Gold.Chemscore.Internal_Hbond.Weighted>
0.0000

> <Gold.Chemscore.DEClash.Weighted>
0.2721

> <Gold.Chemscore.DEInternal.Weighted>
1.6294

> <Gold.Chemscore.Rot.Weighted>
4.3397

> <Gold.Chemscore.Internal.Correction.Weighted>
   9.000000E+99

> <Gold.Protein.RotatedTorsions>
[ 6907 6896 6895 6894 ] final   39.33 input  -60.11 | X-H torsion
[ 7974 7965 7964 7962 ] final  -77.58 input  175.53 | X-H torsion
[ 8008 7997 7996 7995 ] final -167.16 input   59.86 | X-H torsion
[ 10167 10162 10161 10158 ] final   -4.66 input  -65.29 | X-H torsion
[ 10718 10713 10712 10709 ] final  -16.76 input   66.30 | X-H torsion
[ 10763 10752 10751 10750 ] final   57.74 input  -60.55 | X-H torsion
[ 11005 11000 10999 10996 ] final  157.38 input  -57.11 | X-H torsion

> <Gold.Protein.ActiveResidues>
 VAL166  LYS551  ARG553  GLY616  TRP617  ASP618  TYR619  PRO620  LYS621  CYS622 
 ASP623  PHE694  ASN695  SER759  ASP760  ASP761  ALA762  ILE779  LEU786  VAL792 
 PHE793  MET794  SER795  GLU796  ALA797  LYS798  CYS799  TRP800  GLU811  SER814 

> <Gold.Protein.RotatedAtoms>
  152.1681  134.8857  160.0536 H   0  0  0  0  0  0  0  0  0  0  0  0  # atno 6907 bound_to 6896
  151.9827  133.3758  159.4122 H   0  0  0  0  0  0  0  0  0  0  0  0  # atno 6908 bound_to 6896
  150.6897  134.3944  159.5135 H   0  0  0  0  0  0  0  0  0  0  0  0  # atno 6909 bound_to 6896
  145.5978  140.9415  143.1257 H   0  0  0  0  0  0  0  0  0  0  0  0  # atno 7974 bound_to 7965
  155.8739  140.0998  157.1531 H   0  0  0  0  0  0  0  0  0  0  0  0  # atno 8008 bound_to 7997
  154.3999  140.1342  156.4175 H   0  0  0  0  0  0  0  0  0  0  0  0  # atno 8009 bound_to 7997
  155.7719  140.3460  155.5254 H   0  0  0  0  0  0  0  0  0  0  0  0  # atno 8010 bound_to 7997
  140.6936  143.6397  150.8446 H   0  0  0  0  0  0  0  0  0  0  0  0  # atno 10167 bound_to 10162
  156.5831  130.4779  149.6311 H   0  0  0  0  0  0  0  0  0  0  0  0  # atno 10718 bound_to 10713
  152.9856  135.5631  154.5440 H   0  0  0  0  0  0  0  0  0  0  0  0  # atno 10763 bound_to 10752
  154.4889  135.2792  155.1514 H   0  0  0  0  0  0  0  0  0  0  0  0  # atno 10764 bound_to 10752
  154.2992  135.6311  153.5470 H   0  0  0  0  0  0  0  0  0  0  0  0  # atno 10765 bound_to 10752
  140.1764  134.8507  157.2751 H   0  0  0  0  0  0  0  0  0  0  0  0  # atno 11005 bound_to 11000
  144.7323  139.7689  143.7342 LP  0  0  0  0  0  0  0  0  0  0  0  0  # atno 17320 bound_to 7965
  146.1599  139.4709  142.9995 LP  0  0  0  0  0  0  0  0  0  0  0  0  # atno 17321 bound_to 7965
  140.0113  143.5640  152.2838 LP  0  0  0  0  0  0  0  0  0  0  0  0  # atno 17342 bound_to 10162
  139.6364  144.7650  151.2428 LP  0  0  0  0  0  0  0  0  0  0  0  0  # atno 17343 bound_to 10162
  156.2614  130.6964  151.1734 LP  0  0  0  0  0  0  0  0  0  0  0  0  # atno 17370 bound_to 10713
  157.7322  131.0602  150.5642 LP  0  0  0  0  0  0  0  0  0  0  0  0  # atno 17371 bound_to 10713
  140.2318  134.3900  155.7518 LP  0  0  0  0  0  0  0  0  0  0  0  0  # atno 17394 bound_to 11000
  141.2220  133.7219  156.8652 LP  0  0  0  0  0  0  0  0  0  0  0  0  # atno 17395 bound_to 11000

$$$$
