AV-unprocessed.smi:1760|AV-procd|sdf|7094|dock1
  -GOLD-   22720 8313D 1   1.00000     0.00000
 Structure written by MMmdl.
 42 44  0  0  0  0  0  0  0  0  2 V2000
  150.6387  134.3468  155.8447 O   0  0  0  0  0  0  0  0  0  0  0  0
  150.0966  134.8518  154.8621 C   0  0  0  0  0  0  0  0  0  0  0  0
  149.3725  134.1985  153.9349 N   0  0  0  0  0  0  0  0  0  0  0  0
  149.0462  132.8337  153.8477 C   0  0  0  0  0  0  0  0  0  0  0  0
  149.7789  131.8185  154.3845 C   0  0  0  0  0  0  0  0  0  0  0  0
  149.3835  130.4209  154.2616 C   0  0  0  0  0  0  0  0  0  0  0  0
  150.2258  129.2582  154.7557 C   0  0  0  0  0  0  0  0  0  0  0  0
  149.7597  128.0986  154.2915 F   0  0  0  0  0  0  0  0  0  0  0  0
  151.4946  129.3866  154.3674 F   0  0  0  0  0  0  0  0  0  0  0  0
  150.2003  129.2123  156.0869 F   0  0  0  0  0  0  0  0  0  0  0  0
  148.2113  130.2685  153.5471 C   0  0  0  0  0  0  0  0  0  0  0  0
  147.4128  131.2168  153.0103 N   0  5  0  0  0  0  0  0  0  0  0  0
  147.7926  132.5201  153.1301 C   0  0  0  0  0  0  0  0  0  0  0  0
  147.1157  133.4334  152.6562 O   0  0  0  0  0  0  0  0  0  0  0  0
  150.1757  136.1574  154.5661 N   0  0  0  0  0  0  0  0  0  0  0  0
  150.9049  137.1674  155.3292 C   0  0  0  0  0  0  0  0  0  0  0  0
  150.2777  137.3362  156.7218 C   0  0  0  0  0  0  0  0  0  0  0  0
  150.9297  138.5050  157.4815 C   0  0  0  0  0  0  0  0  0  0  0  0
  150.7858  139.7460  156.7201 N   0  0  0  0  0  0  0  0  0  0  0  0
  151.3714  140.8360  157.4833 C   0  0  0  0  0  0  0  0  0  0  0  0
  150.4454  141.6597  158.3490 C   0  0  0  0  0  0  0  0  0  0  0  0
  151.0094  142.2466  157.0777 C   0  0  0  0  0  0  0  0  0  0  0  0
  151.4912  139.6313  155.4433 C   0  0  0  0  0  0  0  0  0  0  0  0
  150.8673  138.5135  154.5891 C   0  0  0  0  0  0  0  0  0  0  0  0
  149.0380  134.7507  153.1586 H   0  0  0  0  0  0  0  0  0  0  0  0
  150.6807  132.0171  154.9388 H   0  0  0  0  0  0  0  0  0  0  0  0
  147.8664  129.2264  153.3757 H   0  0  0  0  0  0  0  0  0  0  0  0
  149.7004  136.4783  153.7354 H   0  0  0  0  0  0  0  0  0  0  0  0
  151.9494  136.8772  155.4558 H   0  0  0  0  0  0  0  0  0  0  0  0
  149.2055  137.5182  156.6310 H   0  0  0  0  0  0  0  0  0  0  0  0
  150.3883  136.4153  157.2954 H   0  0  0  0  0  0  0  0  0  0  0  0
  150.4507  138.6175  158.4548 H   0  0  0  0  0  0  0  0  0  0  0  0
  151.9847  138.2956  157.6661 H   0  0  0  0  0  0  0  0  0  0  0  0
  152.3797  140.7113  157.8747 H   0  0  0  0  0  0  0  0  0  0  0  0
  149.3881  141.4011  158.3556 H   0  0  0  0  0  0  0  0  0  0  0  0
  150.8400  142.0299  159.2929 H   0  0  0  0  0  0  0  0  0  0  0  0
  151.7796  143.0091  157.1744 H   0  0  0  0  0  0  0  0  0  0  0  0
  150.3259  142.3785  156.2409 H   0  0  0  0  0  0  0  0  0  0  0  0
  151.4270  140.5780  154.9056 H   0  0  0  0  0  0  0  0  0  0  0  0
  152.5504  139.4312  155.6137 H   0  0  0  0  0  0  0  0  0  0  0  0
  151.4002  138.4324  153.6411 H   0  0  0  0  0  0  0  0  0  0  0  0
  149.8375  138.7783  154.3440 H   0  0  0  0  0  0  0  0  0  0  0  0
  1  2  2  0  0  0  0
  2  3  1  0  0  0  0
  2 15  1  0  0  0  0
  3  4  1  0  0  0  0
  3 25  1  0  0  0  0
  4 13  1  0  0  0  0
  4  5  2  0  0  0  0
  5  6  1  0  0  0  0
  5 26  1  0  0  0  0
  6  7  1  0  0  0  0
  6 11  2  0  0  0  0
  7  8  1  0  0  0  0
  7  9  1  0  0  0  0
  7 10  1  0  0  0  0
 11 12  1  0  0  0  0
 11 27  1  0  0  0  0
 12 13  1  0  0  0  0
 13 14  2  0  0  0  0
 15 16  1  0  0  0  0
 15 28  1  0  0  0  0
 16 24  1  0  0  0  0
 16 17  1  0  0  0  0
 16 29  1  0  0  0  0
 17 18  1  0  0  0  0
 17 30  1  0  0  0  0
 17 31  1  0  0  0  0
 18 19  1  0  0  0  0
 18 32  1  0  0  0  0
 18 33  1  0  0  0  0
 19 20  1  0  0  0  0
 19 23  1  0  0  0  0
 20 22  1  0  0  0  0
 20 21  1  0  0  0  0
 20 34  1  0  0  0  0
 21 22  1  0  0  0  0
 21 35  1  0  0  0  0
 21 36  1  0  0  0  0
 22 37  1  0  0  0  0
 22 38  1  0  0  0  0
 23 24  1  0  0  0  0
 23 39  1  0  0  0  0
 23 40  1  0  0  0  0
 24 41  1  0  0  0  0
 24 42  1  0  0  0  0
M  CHG  1  12  -1
M  END
> <s_m_source_file>
AV-unprocessed.smi

> <i_m_source_file_index>
1760

> <i_lp_mmshare_version>
43012

> <i_f3d_flags>
0

> <s_epik_input>
W0NIMl0xW0NIMl1bQ0hdMU4oW0NIMl1bQ0gyXTIpW0NIMl1bQ0gyXVtDSF0yW05IXUMoPU8pW05IXWMzW2NIXWMoQyhGKShGKUYpW2NIXVtuSF1jMz1P

> <s_epik_cmdline>
J2VwaWtfcHl0aG9uJywgJy1waCcsICc3LjAnLCAnLXRuJywgJzgnLCAnLW1hJywgJzIwMCcsICctbWV0YWxfYmluZGluZycsICctaW1hZScsICc8aW5maWxlLm1hZT4nLCAnLW9tYWUnLCAnPG91dGZpbGUubWFlPic=

> <r_lp_tautomer_probability>
0.999

> <r_epik_Ionization_Penalty>
4.20788

> <r_epik_Ionization_Penalty_Charging>
0.176783

> <r_epik_Ionization_Penalty_Neutral>
4.0311

> <r_epik_State_Penalty>
4.02505

> <r_epik_Charging_Adjusted_Penalty>
4.20183

> <i_epik_Tot_Q>
-1

> <i_epik_Tot_abs_Q>
1

> <r_epik_Metal_State_Penalty>
1.4828

> <b_epik_Metal_Only>
1

> <s_lp_Force_Field>
OPLS_2005

> <r_lp_Energy>
35.3535

> <b_lp_Chiralities_Consistent>
1

> <s_lp_Variant>
AV-unprocessed.smi:1760-6

> <Gold.Version>
5.8.1

> <Gold.Id.Protein>
6NUR|6NUR_protein|mol2

> <Gold.PLP.Fitness>
41.6477

> <Gold.PLP.PLP>
-37.3677

> <Gold.PLP.part.hbond>
-2.5692

> <Gold.PLP.part.metal>
0.0000

> <Gold.PLP.part.buried>
-3.6750

> <Gold.PLP.part.nonpolar>
-31.7021

> <Gold.PLP.part.repulsive>
0.3690

> <Gold.PLP.ligand.clash>
0.0000

> <Gold.PLP.ligand.torsion>
1.0536

> <Gold.PLP.Chemscore.Hbond>
1.7000

> <Gold.PLP.Chemscore.CHOScore>
0.0000

> <Gold.PLP.Chemscore.Metal>
0.0000

> <Gold.Chemscore.Hbonds>
donor molecule, donor type, donor heavy atom, donor atom, acceptor molecule, acceptor atom, score
      L1  H     3    25       P1  7948  0.70
      L1  H    15    28       P1  7948  1.00

> <Gold.PLP.Chemscore.Internal.Correction>
1.2871

> <Gold.Rescore>
     Score         DG    S(hbond)    S(metal)    S(lipo)     H(rot)  DE(clash)    DE(int)     intcor
     12.70     -14.63       1.13        0.00      73.53       1.26       0.25       1.68       ----

> <Gold.Chemscore.Fitness>
12.6999

> <Gold.Chemscore.DG>
-14.6296

> <Gold.Chemscore.ZeroCoef>
-5.4800

> <Gold.Chemscore.Hbond>
1.1327

> <Gold.Chemscore.Metal>
0.0000

> <Gold.Chemscore.Lipo>
73.5321

> <Gold.Chemscore.Internal_Hbond>
0.0000

> <Gold.Chemscore.DEClash>
0.2476

> <Gold.Chemscore.DEInternal>
1.6821

> <Gold.Chemscore.Rot>
1.2644

> <Gold.Chemscore.Internal.Correction>
   9.000000E+99

> <Gold.Chemscore.Hbonds>
donor molecule, donor type, donor heavy atom, donor atom, acceptor molecule, acceptor atom, score
      L1  H     3    25       P1  7948  0.07
      L1  H    15    28       P1  7948  0.46

> <Gold.Chemscore.Hbond.Weighted>
-3.7831

> <Gold.Chemscore.Metal.Weighted>
-0.0000

> <Gold.Chemscore.Lipo.Weighted>
-8.6033

> <Gold.Chemscore.Internal_Hbond.Weighted>
0.0000

> <Gold.Chemscore.DEClash.Weighted>
0.2476

> <Gold.Chemscore.DEInternal.Weighted>
1.6821

> <Gold.Chemscore.Rot.Weighted>
3.2367

> <Gold.Chemscore.Internal.Correction.Weighted>
   9.000000E+99

> <Gold.Protein.RotatedTorsions>
[ 6907 6896 6895 6894 ] final  -26.23 input  -60.11 | X-H torsion
[ 7974 7965 7964 7962 ] final   88.04 input  175.53 | X-H torsion
[ 8008 7997 7996 7995 ] final   27.54 input   59.86 | X-H torsion
[ 10167 10162 10161 10158 ] final  155.87 input  -65.29 | X-H torsion
[ 10718 10713 10712 10709 ] final  -58.96 input   66.30 | X-H torsion
[ 10763 10752 10751 10750 ] final  -85.68 input  -60.55 | X-H torsion
[ 11005 11000 10999 10996 ] final   75.54 input  -57.11 | X-H torsion

> <Gold.Protein.ActiveResidues>
 VAL166  LYS551  ARG553  GLY616  TRP617  ASP618  TYR619  PRO620  LYS621  CYS622 
 ASP623  PHE694  ASN695  SER759  ASP760  ASP761  ALA762  ILE779  LEU786  VAL792 
 PHE793  MET794  SER795  GLU796  ALA797  LYS798  CYS799  TRP800  GLU811  SER814 

> <Gold.Protein.RotatedAtoms>
  151.1639  135.0286  159.8722 H   0  0  0  0  0  0  0  0  0  0  0  0  # atno 6907 bound_to 6896
  152.5451  134.1247  159.8424 H   0  0  0  0  0  0  0  0  0  0  0  0  # atno 6908 bound_to 6896
  151.1346  133.4967  159.2631 H   0  0  0  0  0  0  0  0  0  0  0  0  # atno 6909 bound_to 6896
  145.5509  139.2295  143.2513 H   0  0  0  0  0  0  0  0  0  0  0  0  # atno 7974 bound_to 7965
  155.0445  140.3173  155.4713 H   0  0  0  0  0  0  0  0  0  0  0  0  # atno 8008 bound_to 7997
  156.2848  140.2157  156.5513 H   0  0  0  0  0  0  0  0  0  0  0  0  # atno 8009 bound_to 7997
  154.7262  140.0485  157.0672 H   0  0  0  0  0  0  0  0  0  0  0  0  # atno 8010 bound_to 7997
  139.4821  144.5060  151.8097 H   0  0  0  0  0  0  0  0  0  0  0  0  # atno 10167 bound_to 10162
  156.1096  130.4176  150.0649 H   0  0  0  0  0  0  0  0  0  0  0  0  # atno 10718 bound_to 10713
  154.6138  135.5476  153.7502 H   0  0  0  0  0  0  0  0  0  0  0  0  # atno 10763 bound_to 10752
  153.0207  135.6396  154.1539 H   0  0  0  0  0  0  0  0  0  0  0  0  # atno 10764 bound_to 10752
  154.1476  135.2904  155.3124 H   0  0  0  0  0  0  0  0  0  0  0  0  # atno 10765 bound_to 10752
  139.9339  134.7526  156.1284 H   0  0  0  0  0  0  0  0  0  0  0  0  # atno 11005 bound_to 11000
  146.1917  140.6332  142.9142 LP  0  0  0  0  0  0  0  0  0  0  0  0  # atno 17320 bound_to 7965
  144.7530  140.5237  143.6789 LP  0  0  0  0  0  0  0  0  0  0  0  0  # atno 17321 bound_to 7965
  140.4558  144.1791  150.5901 LP  0  0  0  0  0  0  0  0  0  0  0  0  # atno 17342 bound_to 10162
  140.4537  143.2476  151.9314 LP  0  0  0  0  0  0  0  0  0  0  0  0  # atno 17343 bound_to 10162
  156.8616  130.9493  151.3617 LP  0  0  0  0  0  0  0  0  0  0  0  0  # atno 17370 bound_to 10713
  157.6277  130.8704  149.9218 LP  0  0  0  0  0  0  0  0  0  0  0  0  # atno 17371 bound_to 10713
  141.0942  133.6702  156.2608 LP  0  0  0  0  0  0  0  0  0  0  0  0  # atno 17394 bound_to 11000
  140.6128  134.5441  157.5536 LP  0  0  0  0  0  0  0  0  0  0  0  0  # atno 17395 bound_to 11000

$$$$
