AV-unprocessed.smi:1110|AV-procd|sdf|4790|dock6
  -GOLD-   22720 3333D 1   1.00000     0.00000
 Structure written by MMmdl.
 44 45  0  0  0  0  0  0  0  0  2 V2000
  145.7672  143.5168  153.6765 C   0  0  0  0  0  0  0  0  0  0  0  0
  147.0556  142.6833  153.7004 C   0  0  0  0  0  0  0  0  0  0  0  0
  146.9251  141.3644  154.5045 C   0  0  2  0  0  0  0  0  0  0  0  0
  148.2837  140.8757  155.0635 C   0  0  0  0  0  0  0  0  0  0  0  0
  148.7093  141.6655  156.2166 N   0  0  0  0  0  0  0  0  0  0  0  0
  149.8886  141.5502  156.8460 C   0  0  0  0  0  0  0  0  0  0  0  0
  150.8041  140.8312  156.4461 O   0  0  0  0  0  0  0  0  0  0  0  0
  150.0444  142.3530  158.1435 C   0  0  0  0  0  0  0  0  0  0  0  0
  151.2976  142.0371  158.8508 N   0  0  0  0  0  0  0  0  0  0  0  0
  152.1707  143.1087  159.1253 C   0  0  0  0  0  0  0  0  0  0  0  0
  153.3357  142.9290  159.7678 C   0  0  0  0  0  0  0  0  0  0  0  0
  153.6876  141.5920  160.1835 C   0  0  0  0  0  0  0  0  0  0  0  0
  152.8628  140.5585  159.9228 C   0  0  0  0  0  0  0  0  0  0  0  0
  151.5903  140.7492  159.2176 C   0  0  0  0  0  0  0  0  0  0  0  0
  150.8354  139.8081  158.9670 O   0  0  0  0  0  0  0  0  0  0  0  0
  146.2258  140.2791  153.7547 N   0  3  0  0  0  0  0  0  0  0  0  0
  146.9037  139.8153  152.5222 C   0  0  0  0  0  0  0  0  0  0  0  0
  146.4669  138.3639  152.3382 C   0  0  0  0  0  0  0  0  0  0  0  0
  146.3319  137.8675  153.7730 C   0  0  0  0  0  0  0  0  0  0  0  0
  145.7898  139.0862  154.5236 C   0  0  0  0  0  0  0  0  0  0  0  0
  145.8935  144.4015  153.0521 H   0  0  0  0  0  0  0  0  0  0  0  0
  145.4897  143.8599  154.6728 H   0  0  0  0  0  0  0  0  0  0  0  0
  144.9324  142.9440  153.2720 H   0  0  0  0  0  0  0  0  0  0  0  0
  147.3314  142.4709  152.6682 H   0  0  0  0  0  0  0  0  0  0  0  0
  147.8590  143.2999  154.1027 H   0  0  0  0  0  0  0  0  0  0  0  0
  146.2924  141.5698  155.3699 H   0  0  0  0  0  0  0  0  0  0  0  0
  148.2312  139.8148  155.3138 H   0  0  0  0  0  0  0  0  0  0  0  0
  149.0587  140.9674  154.3029 H   0  0  0  0  0  0  0  0  0  0  0  0
  148.0287  142.3024  156.6061 H   0  0  0  0  0  0  0  0  0  0  0  0
  149.9856  143.4134  157.8946 H   0  0  0  0  0  0  0  0  0  0  0  0
  149.1980  142.1631  158.8067 H   0  0  0  0  0  0  0  0  0  0  0  0
  151.8389  144.0766  158.7790 H   0  0  0  0  0  0  0  0  0  0  0  0
  153.9934  143.7623  159.9671 H   0  0  0  0  0  0  0  0  0  0  0  0
  154.6168  141.4197  160.7070 H   0  0  0  0  0  0  0  0  0  0  0  0
  153.1428  139.5653  160.2425 H   0  0  0  0  0  0  0  0  0  0  0  0
  146.6384  140.4394  151.6684 H   0  0  0  0  0  0  0  0  0  0  0  0
  147.9870  139.8553  152.6361 H   0  0  0  0  0  0  0  0  0  0  0  0
  145.4971  138.3267  151.8395 H   0  0  0  0  0  0  0  0  0  0  0  0
  147.1739  137.7788  151.7496 H   0  0  0  0  0  0  0  0  0  0  0  0
  145.6855  136.9936  153.8615 H   0  0  0  0  0  0  0  0  0  0  0  0
  147.3149  137.5998  154.1635 H   0  0  0  0  0  0  0  0  0  0  0  0
  146.0912  139.0895  155.5701 H   0  0  0  0  0  0  0  0  0  0  0  0
  144.6999  139.0655  154.5087 H   0  0  0  0  0  0  0  0  0  0  0  0
  145.3666  140.6978  153.4266 H   0  0  0  0  0  0  0  0  0  0  0  0
  1  2  1  0  0  0  0
  1 21  1  0  0  0  0
  1 22  1  0  0  0  0
  1 23  1  0  0  0  0
  2  3  1  0  0  0  0
  2 24  1  0  0  0  0
  2 25  1  0  0  0  0
  3  4  1  0  0  0  0
  3 16  1  0  0  0  0
  3 26  1  0  0  0  0
  4  5  1  0  0  0  0
  4 27  1  0  0  0  0
  4 28  1  0  0  0  0
  5  6  1  0  0  0  0
  5 29  1  0  0  0  0
  6  7  2  0  0  0  0
  6  8  1  0  0  0  0
  8  9  1  0  0  0  0
  8 30  1  0  0  0  0
  8 31  1  0  0  0  0
  9 14  1  0  0  0  0
  9 10  1  0  0  0  0
 10 11  2  0  0  0  0
 10 32  1  0  0  0  0
 11 12  1  0  0  0  0
 11 33  1  0  0  0  0
 12 13  2  0  0  0  0
 12 34  1  0  0  0  0
 13 14  1  0  0  0  0
 13 35  1  0  0  0  0
 14 15  2  0  0  0  0
 16 20  1  0  0  0  0
 16 17  1  0  0  0  0
 16 44  1  0  0  0  0
 17 18  1  0  0  0  0
 17 36  1  0  0  0  0
 17 37  1  0  0  0  0
 18 19  1  0  0  0  0
 18 38  1  0  0  0  0
 18 39  1  0  0  0  0
 19 20  1  0  0  0  0
 19 40  1  0  0  0  0
 19 41  1  0  0  0  0
 20 42  1  0  0  0  0
 20 43  1  0  0  0  0
M  CHG  1  16   1
M  END
> <s_m_source_file>
AV-unprocessed.smi

> <i_m_source_file_index>
1110

> <i_lp_mmshare_version>
43012

> <i_f3d_flags>
0

> <s_epik_input>
W0NIMl0xW0NIMl1bQ0gyXVtDSDJdTjFbQ0BIXShbQ0gyXVtDSDNdKVtDSDJdW05IXUMoPU8pW0NIMl1uMltjSF1bY0hdW2NIXVtjSF1jMj1P

> <s_epik_cmdline>
J2VwaWtfcHl0aG9uJywgJy1waCcsICc3LjAnLCAnLXRuJywgJzgnLCAnLW1hJywgJzIwMCcsICctbWV0YWxfYmluZGluZycsICctaW1hZScsICc8aW5maWxlLm1hZT4nLCAnLW9tYWUnLCAnPG91dGZpbGUubWFlPic=

> <r_lp_tautomer_probability>
1

> <r_epik_Ionization_Penalty>
0.00361135

> <r_epik_Ionization_Penalty_Charging>
0.00361127

> <r_epik_Ionization_Penalty_Neutral>
7.8489e-08

> <r_epik_State_Penalty>
0.00256751

> <r_epik_Charging_Adjusted_Penalty>
0.00617878

> <i_epik_Tot_Q>
1

> <i_epik_Tot_abs_Q>
1

> <r_epik_Metal_State_Penalty>
-0

> <b_epik_Metal_Only>
0

> <s_lp_Force_Field>
OPLS_2005

> <r_lp_Energy>
45.664

> <b_lp_Chiralities_Consistent>
1

> <s_lp_Variant>
AV-unprocessed.smi:1110-1

> <Gold.Version>
5.8.1

> <Gold.Id.Protein>
6NUR|6NUR_protein|mol2

> <Gold.PLP.Fitness>
45.0630

> <Gold.PLP.PLP>
-39.9523

> <Gold.PLP.part.hbond>
-1.9952

> <Gold.PLP.part.metal>
0.0000

> <Gold.PLP.part.buried>
-3.4556

> <Gold.PLP.part.nonpolar>
-36.0477

> <Gold.PLP.part.repulsive>
0.0779

> <Gold.PLP.ligand.clash>
0.0000

> <Gold.PLP.ligand.torsion>
0.5438

> <Gold.PLP.Chemscore.Hbond>
1.9840

> <Gold.PLP.Chemscore.CHOScore>
0.0000

> <Gold.PLP.Chemscore.Metal>
0.0000

> <Gold.Chemscore.Hbonds>
donor molecule, donor type, donor heavy atom, donor atom, acceptor molecule, acceptor atom, score
      L1  H    16    44       P1 10175  1.95

> <Gold.PLP.Chemscore.Internal.Correction>
0.2464

> <Gold.Rescore>
     Score         DG    S(hbond)    S(metal)    S(lipo)     H(rot)  DE(clash)    DE(int)     intcor
     13.83     -14.77       0.97        0.00      95.15       1.99       0.23       0.72       ----

> <Gold.Chemscore.Fitness>
13.8305

> <Gold.Chemscore.DG>
-14.7739

> <Gold.Chemscore.ZeroCoef>
-5.4800

> <Gold.Chemscore.Hbond>
0.9742

> <Gold.Chemscore.Metal>
0.0000

> <Gold.Chemscore.Lipo>
95.1512

> <Gold.Chemscore.Internal_Hbond>
0.0000

> <Gold.Chemscore.DEClash>
0.2265

> <Gold.Chemscore.DEInternal>
0.7169

> <Gold.Chemscore.Rot>
1.9893

> <Gold.Chemscore.Internal.Correction>
   9.000000E+99

> <Gold.Chemscore.Hbonds>
donor molecule, donor type, donor heavy atom, donor atom, acceptor molecule, acceptor atom, score
      L1  H    16    44       P1 10175  0.84

> <Gold.Chemscore.Hbond.Weighted>
-3.2539

> <Gold.Chemscore.Metal.Weighted>
-0.0000

> <Gold.Chemscore.Lipo.Weighted>
-11.1327

> <Gold.Chemscore.Internal_Hbond.Weighted>
0.0000

> <Gold.Chemscore.DEClash.Weighted>
0.2265

> <Gold.Chemscore.DEInternal.Weighted>
0.7169

> <Gold.Chemscore.Rot.Weighted>
5.0927

> <Gold.Chemscore.Internal.Correction.Weighted>
   9.000000E+99

> <Gold.Protein.RotatedTorsions>
[ 6907 6896 6895 6894 ] final  103.64 input  -60.11 | X-H torsion
[ 7974 7965 7964 7962 ] final  133.99 input  175.53 | X-H torsion
[ 8008 7997 7996 7995 ] final  -86.76 input   59.86 | X-H torsion
[ 10167 10162 10161 10158 ] final   77.54 input  -65.29 | X-H torsion
[ 10718 10713 10712 10709 ] final   90.39 input   66.30 | X-H torsion
[ 10763 10752 10751 10750 ] final  169.29 input  -60.55 | X-H torsion
[ 11005 11000 10999 10996 ] final  160.51 input  -57.11 | X-H torsion

> <Gold.Protein.ActiveResidues>
 VAL166  LYS551  ARG553  GLY616  TRP617  ASP618  TYR619  PRO620  LYS621  CYS622 
 ASP623  PHE694  ASN695  SER759  ASP760  ASP761  ALA762  ILE779  LEU786  VAL792 
 PHE793  MET794  SER795  GLU796  ALA797  LYS798  CYS799  TRP800  GLU811  SER814 

> <Gold.Protein.RotatedAtoms>
  152.5289  133.9795  159.7799 H   0  0  0  0  0  0  0  0  0  0  0  0  # atno 6907 bound_to 6896
  151.0051  133.6010  159.2697 H   0  0  0  0  0  0  0  0  0  0  0  0  # atno 6908 bound_to 6896
  151.3105  135.0799  159.9324 H   0  0  0  0  0  0  0  0  0  0  0  0  # atno 6909 bound_to 6896
  144.9809  139.4505  143.5387 H   0  0  0  0  0  0  0  0  0  0  0  0  # atno 7974 bound_to 7965
  154.6555  140.0574  157.0003 H   0  0  0  0  0  0  0  0  0  0  0  0  # atno 8008 bound_to 7997
  155.1307  140.3256  155.4456 H   0  0  0  0  0  0  0  0  0  0  0  0  # atno 8009 bound_to 7997
  156.2595  140.1981  156.6426 H   0  0  0  0  0  0  0  0  0  0  0  0  # atno 8010 bound_to 7997
  139.9805  144.5830  150.7905 H   0  0  0  0  0  0  0  0  0  0  0  0  # atno 10167 bound_to 10162
  157.6959  131.0369  150.3571 H   0  0  0  0  0  0  0  0  0  0  0  0  # atno 10718 bound_to 10713
  154.3810  135.2753  155.2211 H   0  0  0  0  0  0  0  0  0  0  0  0  # atno 10763 bound_to 10752
  154.4318  135.5975  153.6077 H   0  0  0  0  0  0  0  0  0  0  0  0  # atno 10764 bound_to 10752
  152.9834  135.5997  154.4053 H   0  0  0  0  0  0  0  0  0  0  0  0  # atno 10765 bound_to 10752
  140.2066  134.8298  157.3076 H   0  0  0  0  0  0  0  0  0  0  0  0  # atno 11005 bound_to 11000
  146.3408  139.9081  142.8784 LP  0  0  0  0  0  0  0  0  0  0  0  0  # atno 17320 bound_to 7965
  145.2422  141.0013  143.3929 LP  0  0  0  0  0  0  0  0  0  0  0  0  # atno 17321 bound_to 7965
  140.7491  143.2932  151.3273 LP  0  0  0  0  0  0  0  0  0  0  0  0  # atno 17342 bound_to 10162
  139.6413  144.0534  152.2557 LP  0  0  0  0  0  0  0  0  0  0  0  0  # atno 17343 bound_to 10162
  156.4012  130.3916  149.6958 LP  0  0  0  0  0  0  0  0  0  0  0  0  # atno 17370 bound_to 10713
  156.4275  130.7799  151.2818 LP  0  0  0  0  0  0  0  0  0  0  0  0  # atno 17371 bound_to 10713
  140.1996  134.4271  155.7670 LP  0  0  0  0  0  0  0  0  0  0  0  0  # atno 17394 bound_to 11000
  141.2227  133.7065  156.8162 LP  0  0  0  0  0  0  0  0  0  0  0  0  # atno 17395 bound_to 11000

$$$$
