AV-unprocessed.smi:2002|AV-procd|sdf|8116|dock1
  -GOLD-   2272010343D 1   1.00000     0.00000
 Structure written by MMmdl.
 39 40  0  0  0  0  0  0  0  0  2 V2000
  144.9382  136.5738  152.2856 C   0  0  0  0  0  0  0  0  0  0  0  0
  145.8748  136.2787  151.1062 C   0  0  0  0  0  0  0  0  0  0  0  0
  145.5851  134.9703  150.4729 N   0  3  2  0  0  0  0  0  0  0  0  0
  144.1465  134.7270  150.2103 C   0  0  0  0  0  0  0  0  0  0  0  0
  143.8314  133.3227  150.7356 C   0  0  0  0  0  0  0  0  0  0  0  0
  145.1937  132.6332  150.8091 C   0  0  2  0  0  0  0  0  0  0  0  0
  145.2706  131.4295  151.7678 C   0  0  0  0  0  0  0  0  0  0  0  0
  146.3587  130.5210  151.4181 N   0  0  0  0  0  0  0  0  0  0  0  0
  146.4143  129.2171  151.7280 C   0  0  0  0  0  0  0  0  0  0  0  0
  145.5288  128.6303  152.3500 O   0  0  0  0  0  0  0  0  0  0  0  0
  147.5426  128.6547  151.2633 N   0  0  0  0  0  0  0  0  0  0  0  0
  147.9791  127.3115  151.3994 C   0  0  0  0  0  0  0  0  0  0  0  0
  148.7025  126.5564  150.4305 C   0  0  0  0  0  0  0  0  0  0  0  0
  148.8584  125.3442  151.0412 C   0  0  0  0  0  0  0  0  0  0  0  0
  149.5101  124.0726  150.6183 C   0  0  0  0  0  0  0  0  0  0  0  0
  148.2840  125.3570  152.2741 O   0  0  0  0  0  0  0  0  0  0  0  0
  147.7215  126.6199  152.4942 N   0  0  0  0  0  0  0  0  0  0  0  0
  146.1099  133.7930  151.2003 C   0  0  0  0  0  0  0  0  0  0  0  0
  145.2056  137.5175  152.7618 H   0  0  0  0  0  0  0  0  0  0  0  0
  144.9996  135.7922  153.0433 H   0  0  0  0  0  0  0  0  0  0  0  0
  143.8990  136.6526  151.9657 H   0  0  0  0  0  0  0  0  0  0  0  0
  145.8144  137.0746  150.3623 H   0  0  0  0  0  0  0  0  0  0  0  0
  146.9025  136.2693  151.4723 H   0  0  0  0  0  0  0  0  0  0  0  0
  143.5023  135.4705  150.6822 H   0  0  0  0  0  0  0  0  0  0  0  0
  143.9799  134.7817  149.1343 H   0  0  0  0  0  0  0  0  0  0  0  0
  143.3996  133.3988  151.7346 H   0  0  0  0  0  0  0  0  0  0  0  0
  143.1190  132.7898  150.1051 H   0  0  0  0  0  0  0  0  0  0  0  0
  145.4684  132.3057  149.8047 H   0  0  0  0  0  0  0  0  0  0  0  0
  145.4519  131.7845  152.7827 H   0  0  0  0  0  0  0  0  0  0  0  0
  144.3172  130.8990  151.7989 H   0  0  0  0  0  0  0  0  0  0  0  0
  147.1335  130.9182  150.9066 H   0  0  0  0  0  0  0  0  0  0  0  0
  148.1667  129.2586  150.7490 H   0  0  0  0  0  0  0  0  0  0  0  0
  149.0518  126.8372  149.4485 H   0  0  0  0  0  0  0  0  0  0  0  0
  149.7790  124.1061  149.5623 H   0  0  0  0  0  0  0  0  0  0  0  0
  148.8407  123.2255  150.7690 H   0  0  0  0  0  0  0  0  0  0  0  0
  150.4185  123.8941  151.1935 H   0  0  0  0  0  0  0  0  0  0  0  0
  147.1533  133.6001  150.9491 H   0  0  0  0  0  0  0  0  0  0  0  0
  146.0494  133.9669  152.2763 H   0  0  0  0  0  0  0  0  0  0  0  0
  146.0324  134.9719  149.5670 H   0  0  0  0  0  0  0  0  0  0  0  0
  1  2  1  0  0  0  0
  1 19  1  0  0  0  0
  1 20  1  0  0  0  0
  1 21  1  0  0  0  0
  2  3  1  0  0  0  0
  2 22  1  0  0  0  0
  2 23  1  0  0  0  0
  3 18  1  0  0  0  0
  3  4  1  0  0  0  0
  3 39  1  0  0  0  0
  4  5  1  0  0  0  0
  4 24  1  0  0  0  0
  4 25  1  0  0  0  0
  5  6  1  0  0  0  0
  5 26  1  0  0  0  0
  5 27  1  0  0  0  0
  6  7  1  0  0  0  0
  6 18  1  0  0  0  0
  6 28  1  0  0  0  0
  7  8  1  0  0  0  0
  7 29  1  0  0  0  0
  7 30  1  0  0  0  0
  8  9  1  0  0  0  0
  8 31  1  0  0  0  0
  9 10  2  0  0  0  0
  9 11  1  0  0  0  0
 11 12  1  0  0  0  0
 11 32  1  0  0  0  0
 12 17  2  0  0  0  0
 12 13  1  0  0  0  0
 13 14  2  0  0  0  0
 13 33  1  0  0  0  0
 14 15  1  0  0  0  0
 14 16  1  0  0  0  0
 15 34  1  0  0  0  0
 15 35  1  0  0  0  0
 15 36  1  0  0  0  0
 16 17  1  0  0  0  0
 18 37  1  0  0  0  0
 18 38  1  0  0  0  0
M  CHG  1   3   1
M  END
> <s_m_source_file>
AV-unprocessed.smi

> <i_m_source_file_index>
2002

> <i_lp_mmshare_version>
43012

> <i_f3d_flags>
0

> <s_epik_input>
W0NIM11bQ0gyXU4xW0NIMl1bQ0gyXVtDQEhdKFtDSDJdMSlbQ0gyXVtOSF1DKD1PKVtOSF1jMltjSF1jKFtDSDNdKW9uMg==

> <s_epik_cmdline>
J2VwaWtfcHl0aG9uJywgJy1waCcsICc3LjAnLCAnLXRuJywgJzgnLCAnLW1hJywgJzIwMCcsICctbWV0YWxfYmluZGluZycsICctaW1hZScsICc8aW5maWxlLm1hZT4nLCAnLW9tYWUnLCAnPG91dGZpbGUubWFlPic=

> <r_epik_Ionization_Penalty>
0.000632871

> <r_epik_Ionization_Penalty_Charging>
0.000610951

> <r_epik_Ionization_Penalty_Neutral>
2.19198e-05

> <r_epik_State_Penalty>
0.000385263

> <r_epik_Charging_Adjusted_Penalty>
0.000996214

> <i_epik_Tot_Q>
1

> <i_epik_Tot_abs_Q>
1

> <r_epik_Metal_State_Penalty>
-0

> <b_epik_Metal_Only>
0

> <s_lp_Force_Field>
OPLS_2005

> <r_lp_Energy>
28.1542

> <b_lp_Chiralities_Consistent>
1

> <s_lp_Variant>
AV-unprocessed.smi:2002-4

> <Gold.Version>
5.8.1

> <Gold.Id.Protein>
6NUR|6NUR_protein|mol2

> <Gold.PLP.Fitness>
43.7371

> <Gold.PLP.PLP>
-36.3202

> <Gold.PLP.part.hbond>
-3.3960

> <Gold.PLP.part.metal>
0.0000

> <Gold.PLP.part.buried>
-5.9761

> <Gold.PLP.part.nonpolar>
-27.9834

> <Gold.PLP.part.repulsive>
0.4000

> <Gold.PLP.ligand.clash>
0.0000

> <Gold.PLP.ligand.torsion>
0.8067

> <Gold.PLP.Chemscore.Hbond>
3.0000

> <Gold.PLP.Chemscore.CHOScore>
0.0000

> <Gold.PLP.Chemscore.Metal>
0.0000

> <Gold.Chemscore.Hbonds>
donor molecule, donor type, donor heavy atom, donor atom, acceptor molecule, acceptor atom, score
      L1  H     3    39       P1  7921  1.00
      L1  H     8    31       P1 10747  1.00
      L1  H    11    32       P1 10747  0.95

> <Gold.PLP.Chemscore.Internal.Correction>
0.0304

> <Gold.Rescore>
     Score         DG    S(hbond)    S(metal)    S(lipo)     H(rot)  DE(clash)    DE(int)     intcor
     14.47     -16.81       2.16        0.00      68.57       1.52       0.42       1.91       ----

> <Gold.Chemscore.Fitness>
14.4690

> <Gold.Chemscore.DG>
-16.8069

> <Gold.Chemscore.ZeroCoef>
-5.4800

> <Gold.Chemscore.Hbond>
2.1559

> <Gold.Chemscore.Metal>
0.0000

> <Gold.Chemscore.Lipo>
68.5739

> <Gold.Chemscore.Internal_Hbond>
0.0000

> <Gold.Chemscore.DEClash>
0.4238

> <Gold.Chemscore.DEInternal>
1.9142

> <Gold.Chemscore.Rot>
1.5223

> <Gold.Chemscore.Internal.Correction>
   9.000000E+99

> <Gold.Chemscore.Hbonds>
donor molecule, donor type, donor heavy atom, donor atom, acceptor molecule, acceptor atom, score
      L1  H     3    39       P1  7921  0.77
      L1  H     8    31       P1 10747  0.95
      L1  H    11    32       P1 10747  0.21

> <Gold.Chemscore.Hbond.Weighted>
-7.2008

> <Gold.Chemscore.Metal.Weighted>
-0.0000

> <Gold.Chemscore.Lipo.Weighted>
-8.0231

> <Gold.Chemscore.Internal_Hbond.Weighted>
0.0000

> <Gold.Chemscore.DEClash.Weighted>
0.4238

> <Gold.Chemscore.DEInternal.Weighted>
1.9142

> <Gold.Chemscore.Rot.Weighted>
3.8971

> <Gold.Chemscore.Internal.Correction.Weighted>
   9.000000E+99

> <Gold.Protein.RotatedTorsions>
[ 6907 6896 6895 6894 ] final  138.79 input  -60.11 | X-H torsion
[ 7974 7965 7964 7962 ] final  139.67 input  175.53 | X-H torsion
[ 8008 7997 7996 7995 ] final   32.32 input   59.86 | X-H torsion
[ 10167 10162 10161 10158 ] final -168.69 input  -65.29 | X-H torsion
[ 10718 10713 10712 10709 ] final  -32.57 input   66.30 | X-H torsion
[ 10763 10752 10751 10750 ] final  -55.60 input  -60.55 | X-H torsion
[ 11005 11000 10999 10996 ] final  -52.09 input  -57.11 | X-H torsion

> <Gold.Protein.ActiveResidues>
 VAL166  LYS551  ARG553  GLY616  TRP617  ASP618  TYR619  PRO620  LYS621  CYS622 
 ASP623  PHE694  ASN695  SER759  ASP760  ASP761  ALA762  ILE779  LEU786  VAL792 
 PHE793  MET794  SER795  GLU796  ALA797  LYS798  CYS799  TRP800  GLU811  SER814 

> <Gold.Protein.RotatedAtoms>
  152.2625  133.5310  159.5389 H   0  0  0  0  0  0  0  0  0  0  0  0  # atno 6907 bound_to 6896
  150.7130  134.0810  159.3907 H   0  0  0  0  0  0  0  0  0  0  0  0  # atno 6908 bound_to 6896
  151.8727  135.0483  160.0531 H   0  0  0  0  0  0  0  0  0  0  0  0  # atno 6909 bound_to 6896
  144.9257  139.5111  143.5642 H   0  0  0  0  0  0  0  0  0  0  0  0  # atno 7974 bound_to 7965
  155.1206  140.3248  155.4498 H   0  0  0  0  0  0  0  0  0  0  0  0  # atno 8008 bound_to 7997
  156.2664  140.2028  156.6276 H   0  0  0  0  0  0  0  0  0  0  0  0  # atno 8009 bound_to 7997
  154.6687  140.0539  157.0128 H   0  0  0  0  0  0  0  0  0  0  0  0  # atno 8010 bound_to 7997
  139.5969  144.1092  152.1700 H   0  0  0  0  0  0  0  0  0  0  0  0  # atno 10167 bound_to 10162
  156.3733  130.4343  149.7527 H   0  0  0  0  0  0  0  0  0  0  0  0  # atno 10718 bound_to 10713
  154.1933  135.6423  153.5066 H   0  0  0  0  0  0  0  0  0  0  0  0  # atno 10763 bound_to 10752
  153.0029  135.5434  154.6392 H   0  0  0  0  0  0  0  0  0  0  0  0  # atno 10764 bound_to 10752
  154.5786  135.2923  155.0728 H   0  0  0  0  0  0  0  0  0  0  0  0  # atno 10765 bound_to 10752
  141.0906  133.6633  156.3972 H   0  0  0  0  0  0  0  0  0  0  0  0  # atno 11005 bound_to 11000
  146.3225  139.8170  142.8934 LP  0  0  0  0  0  0  0  0  0  0  0  0  # atno 17320 bound_to 7965
  145.3223  141.0247  143.3493 LP  0  0  0  0  0  0  0  0  0  0  0  0  # atno 17321 bound_to 7965
  140.0679  144.5803  150.7213 LP  0  0  0  0  0  0  0  0  0  0  0  0  # atno 17342 bound_to 10162
  140.7219  143.2597  151.4249 LP  0  0  0  0  0  0  0  0  0  0  0  0  # atno 17343 bound_to 10162
  156.4646  130.7968  151.2987 LP  0  0  0  0  0  0  0  0  0  0  0  0  # atno 17370 bound_to 10713
  157.7486  131.0055  150.3116 LP  0  0  0  0  0  0  0  0  0  0  0  0  # atno 17371 bound_to 10713
  140.5262  134.6257  157.5335 LP  0  0  0  0  0  0  0  0  0  0  0  0  # atno 17394 bound_to 11000
  139.9731  134.7260  156.0003 LP  0  0  0  0  0  0  0  0  0  0  0  0  # atno 17395 bound_to 11000

$$$$
