AV-unprocessed.smi:2341|AV-procd|sdf|9352|dock10
  -GOLD-   2272012573D 1   1.00000     0.00000
 Structure written by MMmdl.
 52 54  0  0  0  0  0  0  0  0  2 V2000
  148.9354  129.5666  153.9628 C   0  0  0  0  0  0  0  0  0  0  0  0
  149.1703  131.0584  154.0728 C   0  0  0  0  0  0  0  0  0  0  0  0
  150.0336  131.5911  155.0490 C   0  0  0  0  0  0  0  0  0  0  0  0
  150.2143  132.9864  155.1062 C   0  0  0  0  0  0  0  0  0  0  0  0
  149.5291  133.8148  154.1892 C   0  0  0  0  0  0  0  0  0  0  0  0
  149.7803  135.2054  154.3322 N   0  0  0  0  0  0  0  0  0  0  0  0
  150.2517  135.8584  155.4090 C   0  0  0  0  0  0  0  0  0  0  0  0
  150.5550  135.3384  156.4832 O   0  0  0  0  0  0  0  0  0  0  0  0
  150.3578  137.1740  155.1713 N   0  0  0  0  0  0  0  0  0  0  0  0
  150.8276  138.1642  156.1359 C   0  0  2  0  0  0  0  0  0  0  0  0
  149.6980  138.5242  157.1095 C   0  0  0  0  0  0  0  0  0  0  0  0
  150.1303  139.6247  158.0941 C   0  0  0  0  0  0  0  0  0  0  0  0
  150.6018  140.8486  157.3822 N   0  3  1  0  0  0  0  0  0  0  0  0
  150.9314  142.0254  158.2523 C   0  0  0  0  0  0  0  0  0  0  0  0
  151.3045  143.3161  157.4740 C   0  0  0  0  0  0  0  0  0  0  0  0
  151.6654  144.4782  158.4133 C   0  0  0  0  0  0  0  0  0  0  0  0
  152.8081  144.0959  159.3614 C   0  0  0  0  0  0  0  0  0  0  0  0
  152.4524  142.8326  160.1544 C   0  0  0  0  0  0  0  0  0  0  0  0
  152.0897  141.6690  159.2180 C   0  0  0  0  0  0  0  0  0  0  0  0
  151.7159  140.5143  156.4490 C   0  0  0  0  0  0  0  0  0  0  0  0
  151.3049  139.4422  155.4278 C   0  0  0  0  0  0  0  0  0  0  0  0
  148.6986  133.2921  153.2529 N   0  0  0  0  0  0  0  0  0  0  0  0
  148.5261  131.9548  153.1985 C   0  0  0  0  0  0  0  0  0  0  0  0
  149.6352  129.0090  154.5858 H   0  0  0  0  0  0  0  0  0  0  0  0
  149.0619  129.2372  152.9313 H   0  0  0  0  0  0  0  0  0  0  0  0
  147.9222  129.3206  154.2808 H   0  0  0  0  0  0  0  0  0  0  0  0
  150.5503  130.9457  155.7443 H   0  0  0  0  0  0  0  0  0  0  0  0
  150.8736  133.4114  155.8491 H   0  0  0  0  0  0  0  0  0  0  0  0
  149.5753  135.7677  153.5196 H   0  0  0  0  0  0  0  0  0  0  0  0
  150.0863  137.5157  154.2607 H   0  0  0  0  0  0  0  0  0  0  0  0
  151.6540  137.7398  156.7095 H   0  0  0  0  0  0  0  0  0  0  0  0
  148.8228  138.8634  156.5529 H   0  0  0  0  0  0  0  0  0  0  0  0
  149.3859  137.6383  157.6640 H   0  0  0  0  0  0  0  0  0  0  0  0
  149.2633  139.8454  158.7154 H   0  0  0  0  0  0  0  0  0  0  0  0
  150.9183  139.2561  158.7528 H   0  0  0  0  0  0  0  0  0  0  0  0
  150.0432  142.2593  158.8424 H   0  0  0  0  0  0  0  0  0  0  0  0
  152.1457  143.1201  156.8074 H   0  0  0  0  0  0  0  0  0  0  0  0
  150.4736  143.6475  156.8508 H   0  0  0  0  0  0  0  0  0  0  0  0
  151.9474  145.3544  157.8286 H   0  0  0  0  0  0  0  0  0  0  0  0
  150.7880  144.7649  158.9944 H   0  0  0  0  0  0  0  0  0  0  0  0
  153.7212  143.9273  158.7890 H   0  0  0  0  0  0  0  0  0  0  0  0
  153.0176  144.9192  160.0451 H   0  0  0  0  0  0  0  0  0  0  0  0
  153.2903  142.5486  160.7918 H   0  0  0  0  0  0  0  0  0  0  0  0
  151.6145  143.0413  160.8209 H   0  0  0  0  0  0  0  0  0  0  0  0
  151.8412  140.8065  159.8343 H   0  0  0  0  0  0  0  0  0  0  0  0
  152.9706  141.3841  158.6407 H   0  0  0  0  0  0  0  0  0  0  0  0
  152.0461  141.3962  155.9028 H   0  0  0  0  0  0  0  0  0  0  0  0
  152.5766  140.1664  157.0226 H   0  0  0  0  0  0  0  0  0  0  0  0
  152.1503  139.2184  154.7762 H   0  0  0  0  0  0  0  0  0  0  0  0
  150.5143  139.8337  154.7856 H   0  0  0  0  0  0  0  0  0  0  0  0
  147.8539  131.5915  152.4351 H   0  0  0  0  0  0  0  0  0  0  0  0
  149.8222  141.1417  156.8107 H   0  0  0  0  0  0  0  0  0  0  0  0
  1  2  1  0  0  0  0
  1 24  1  0  0  0  0
  1 25  1  0  0  0  0
  1 26  1  0  0  0  0
  2 23  1  0  0  0  0
  2  3  2  0  0  0  0
  3  4  1  0  0  0  0
  3 27  1  0  0  0  0
  4  5  2  0  0  0  0
  4 28  1  0  0  0  0
  5  6  1  0  0  0  0
  5 22  1  0  0  0  0
  6  7  1  0  0  0  0
  6 29  1  0  0  0  0
  7  8  2  0  0  0  0
  7  9  1  0  0  0  0
  9 10  1  0  0  0  0
  9 30  1  0  0  0  0
 10 21  1  0  0  0  0
 10 11  1  0  0  0  0
 10 31  1  0  0  0  0
 11 12  1  0  0  0  0
 11 32  1  0  0  0  0
 11 33  1  0  0  0  0
 12 13  1  0  0  0  0
 12 34  1  0  0  0  0
 12 35  1  0  0  0  0
 13 14  1  0  0  0  0
 13 20  1  0  0  0  0
 13 52  1  0  0  0  0
 14 19  1  0  0  0  0
 14 15  1  0  0  0  0
 14 36  1  0  0  0  0
 15 16  1  0  0  0  0
 15 37  1  0  0  0  0
 15 38  1  0  0  0  0
 16 17  1  0  0  0  0
 16 39  1  0  0  0  0
 16 40  1  0  0  0  0
 17 18  1  0  0  0  0
 17 41  1  0  0  0  0
 17 42  1  0  0  0  0
 18 19  1  0  0  0  0
 18 43  1  0  0  0  0
 18 44  1  0  0  0  0
 19 45  1  0  0  0  0
 19 46  1  0  0  0  0
 20 21  1  0  0  0  0
 20 47  1  0  0  0  0
 20 48  1  0  0  0  0
 21 49  1  0  0  0  0
 21 50  1  0  0  0  0
 22 23  2  0  0  0  0
 23 51  1  0  0  0  0
M  CHG  1  13   1
M  END
> <s_m_source_file>
AV-unprocessed.smi

> <i_m_source_file_index>
2341

> <i_lp_mmshare_version>
43012

> <i_f3d_flags>
0

> <s_epik_input>
W0NIM11jMVtjSF1bY0hdYyhuW2NIXTEpW05IXUMoPU8pW05IXVtDSF0yW0NIMl1bQ0gyXU4oW0NIMl1bQ0gyXTIpW0NIXTNbQ0gyXVtDSDJdW0NIMl1bQ0gyXVtDSDJdMw==

> <s_epik_cmdline>
J2VwaWtfcHl0aG9uJywgJy1waCcsICc3LjAnLCAnLXRuJywgJzgnLCAnLW1hJywgJzIwMCcsICctbWV0YWxfYmluZGluZycsICctaW1hZScsICc8aW5maWxlLm1hZT4nLCAnLW9tYWUnLCAnPG91dGZpbGUubWFlPic=

> <r_epik_Ionization_Penalty>
0.00176486

> <r_epik_Ionization_Penalty_Charging>
0.00171891

> <r_epik_Ionization_Penalty_Neutral>
4.59494e-05

> <r_epik_State_Penalty>
0.00116222

> <r_epik_Charging_Adjusted_Penalty>
0.00288114

> <i_epik_Tot_Q>
1

> <i_epik_Tot_abs_Q>
1

> <r_epik_Metal_State_Penalty>
-0

> <b_epik_Metal_Only>
0

> <s_lp_Force_Field>
OPLS_2005

> <r_lp_Energy>
29.4095

> <b_lp_Chiralities_Consistent>
1

> <s_lp_Variant>
AV-unprocessed.smi:2341-1

> <Gold.Version>
5.8.1

> <Gold.Id.Protein>
6NUR|6NUR_protein|mol2

> <Gold.PLP.Fitness>
46.5329

> <Gold.PLP.PLP>
-42.5036

> <Gold.PLP.part.hbond>
-1.3383

> <Gold.PLP.part.metal>
0.0000

> <Gold.PLP.part.buried>
-4.4989

> <Gold.PLP.part.nonpolar>
-36.8560

> <Gold.PLP.part.repulsive>
0.3455

> <Gold.PLP.ligand.clash>
0.1203

> <Gold.PLP.ligand.torsion>
0.3956

> <Gold.PLP.Chemscore.Hbond>
0.9500

> <Gold.PLP.Chemscore.CHOScore>
0.6836

> <Gold.PLP.Chemscore.Metal>
0.0000

> <Gold.Chemscore.Hbonds>
donor molecule, donor type, donor heavy atom, donor atom, acceptor molecule, acceptor atom, score
      L1  H     6    29       P1  7948  0.95
      L1  C    23    51       P1 10747  0.68

> <Gold.PLP.Chemscore.Internal.Correction>
0.0398

> <Gold.Rescore>
     Score         DG    S(hbond)    S(metal)    S(lipo)     H(rot)  DE(clash)    DE(int)     intcor
     17.03     -19.04       0.82        0.00     118.44       1.19       0.16       1.85       ----

> <Gold.Chemscore.Fitness>
17.0278

> <Gold.Chemscore.DG>
-19.0370

> <Gold.Chemscore.ZeroCoef>
-5.4800

> <Gold.Chemscore.Hbond>
0.8235

> <Gold.Chemscore.Metal>
0.0000

> <Gold.Chemscore.Lipo>
118.4419

> <Gold.Chemscore.Internal_Hbond>
0.0000

> <Gold.Chemscore.DEClash>
0.1590

> <Gold.Chemscore.DEInternal>
1.8503

> <Gold.Chemscore.Rot>
1.1918

> <Gold.Chemscore.Internal.Correction>
   9.000000E+99

> <Gold.Chemscore.Hbonds>
donor molecule, donor type, donor heavy atom, donor atom, acceptor molecule, acceptor atom, score
      L1  H     6    29       P1  7948  0.21

> <Gold.Chemscore.Hbond.Weighted>
-2.7505

> <Gold.Chemscore.Metal.Weighted>
-0.0000

> <Gold.Chemscore.Lipo.Weighted>
-13.8577

> <Gold.Chemscore.Internal_Hbond.Weighted>
0.0000

> <Gold.Chemscore.DEClash.Weighted>
0.1590

> <Gold.Chemscore.DEInternal.Weighted>
1.8503

> <Gold.Chemscore.Rot.Weighted>
3.0511

> <Gold.Chemscore.Internal.Correction.Weighted>
   9.000000E+99

> <Gold.Protein.RotatedTorsions>
[ 6907 6896 6895 6894 ] final  100.53 input  -60.11 | X-H torsion
[ 7974 7965 7964 7962 ] final  145.09 input  175.53 | X-H torsion
[ 8008 7997 7996 7995 ] final  112.13 input   59.86 | X-H torsion
[ 10167 10162 10161 10158 ] final  -87.68 input  -65.29 | X-H torsion
[ 10718 10713 10712 10709 ] final -140.99 input   66.30 | X-H torsion
[ 10763 10752 10751 10750 ] final -118.89 input  -60.55 | X-H torsion
[ 11005 11000 10999 10996 ] final  -94.34 input  -57.11 | X-H torsion

> <Gold.Protein.ActiveResidues>
 VAL166  LYS551  ARG553  GLY616  TRP617  ASP618  TYR619  PRO620  LYS621  CYS622 
 ASP623  PHE694  ASN695  SER759  ASP760  ASP761  ALA762  ILE779  LEU786  VAL792 
 PHE793  MET794  SER795  GLU796  ALA797  LYS798  CYS799  TRP800  GLU811  SER814 

> <Gold.Protein.RotatedAtoms>
  152.5370  134.0263  159.8004 H   0  0  0  0  0  0  0  0  0  0  0  0  # atno 6907 bound_to 6896
  151.0441  133.5673  159.2655 H   0  0  0  0  0  0  0  0  0  0  0  0  # atno 6908 bound_to 6896
  151.2632  135.0668  159.9159 H   0  0  0  0  0  0  0  0  0  0  0  0  # atno 6909 bound_to 6896
  144.8781  139.5741  143.5855 H   0  0  0  0  0  0  0  0  0  0  0  0  # atno 7974 bound_to 7965
  156.2171  140.3005  155.9865 H   0  0  0  0  0  0  0  0  0  0  0  0  # atno 8008 bound_to 7997
  155.2577  140.0428  157.3011 H   0  0  0  0  0  0  0  0  0  0  0  0  # atno 8009 bound_to 7997
  154.5784  140.2368  155.8097 H   0  0  0  0  0  0  0  0  0  0  0  0  # atno 8010 bound_to 7997
  140.3821  143.2744  151.9371 H   0  0  0  0  0  0  0  0  0  0  0  0  # atno 10167 bound_to 10162
  156.3288  130.7575  151.1688 H   0  0  0  0  0  0  0  0  0  0  0  0  # atno 10718 bound_to 10713
  154.8601  135.4258  154.2211 H   0  0  0  0  0  0  0  0  0  0  0  0  # atno 10763 bound_to 10752
  153.3216  135.6982  153.7031 H   0  0  0  0  0  0  0  0  0  0  0  0  # atno 10764 bound_to 10752
  153.6084  135.3524  155.2944 H   0  0  0  0  0  0  0  0  0  0  0  0  # atno 10765 bound_to 10752
  141.1473  133.7949  157.0284 H   0  0  0  0  0  0  0  0  0  0  0  0  # atno 11005 bound_to 11000
  146.2976  139.7327  142.9115 LP  0  0  0  0  0  0  0  0  0  0  0  0  # atno 17320 bound_to 7965
  145.4005  141.0384  143.3073 LP  0  0  0  0  0  0  0  0  0  0  0  0  # atno 17321 bound_to 7965
  139.4794  144.5809  151.7934 LP  0  0  0  0  0  0  0  0  0  0  0  0  # atno 17342 bound_to 10162
  140.4927  144.1286  150.5953 LP  0  0  0  0  0  0  0  0  0  0  0  0  # atno 17343 bound_to 10162
  157.7426  131.0487  150.5009 LP  0  0  0  0  0  0  0  0  0  0  0  0  # atno 17370 bound_to 10713
  156.5171  130.4153  149.6270 LP  0  0  0  0  0  0  0  0  0  0  0  0  # atno 17371 bound_to 10713
  140.0770  134.9670  157.1562 LP  0  0  0  0  0  0  0  0  0  0  0  0  # atno 17394 bound_to 11000
  140.3630  134.2473  155.7185 LP  0  0  0  0  0  0  0  0  0  0  0  0  # atno 17395 bound_to 11000

$$$$
