AV-unprocessed.smi:75|AV-procd|sdf|766|dock6
  -GOLD-   2262017113D 1   1.00000     0.00000
 Structure written by MMmdl.
 51 54  0  0  0  0  0  0  0  0  1 V2000
  149.7716  138.5842  153.2510 N   0  0  0  0  0  0  0  0  0  0  0  0
  149.9528  139.0478  154.4900 C   0  0  0  0  0  0  0  0  0  0  0  0
  150.3641  140.1846  154.7108 O   0  0  0  0  0  0  0  0  0  0  0  0
  149.6557  138.0855  155.6452 C   0  0  0  0  0  0  0  0  0  0  0  0
  148.5117  138.5360  156.5973 C   0  0  1  0  0  0  0  0  0  0  0  0
  148.7546  140.0022  157.0210 C   0  0  0  0  0  0  0  0  0  0  0  0
  147.7256  140.4507  157.8946 O   0  0  0  0  0  0  0  0  0  0  0  0
  146.4528  140.4254  157.2631 C   0  0  0  0  0  0  0  0  0  0  0  0
  146.1190  138.9781  156.8804 C   0  0  0  0  0  0  0  0  0  0  0  0
  147.1614  138.4228  156.0226 N   0  0  0  0  0  0  0  0  0  0  0  0
  146.7872  137.2128  155.5531 C   0  0  0  0  0  0  0  0  0  0  0  0
  147.1678  136.1285  156.2717 N   0  0  0  0  0  0  0  0  0  0  0  0
  146.8221  134.9041  155.8630 C   0  0  0  0  0  0  0  0  0  0  0  0
  146.1185  134.5504  154.7849 N   0  0  0  0  0  0  0  0  0  0  0  0
  145.7423  135.6406  154.0557 C   0  0  0  0  0  0  0  0  0  0  0  0
  146.0367  136.9986  154.3622 C   0  0  0  0  0  0  0  0  0  0  0  0
  145.4924  137.8337  153.3941 N   0  0  0  0  0  0  0  0  0  0  0  0
  144.9056  137.0156  152.5638 C   0  0  0  0  0  0  0  0  0  0  0  0
  145.0058  135.6797  152.8837 N   0  0  0  0  0  0  0  0  0  0  0  0
  144.4591  134.5775  152.1449 C   0  0  0  0  0  0  0  0  0  0  0  0
  145.0178  133.1630  152.3160 C   0  0  0  0  0  0  0  0  0  0  0  0
  144.7143  132.8778  150.8260 C   0  0  0  0  0  0  0  0  0  0  0  0
  145.7650  132.0786  150.0302 C   0  0  0  0  0  0  0  0  0  0  0  0
  147.0729  132.5902  150.1946 O   0  0  0  0  0  0  0  0  0  0  0  0
  143.3432  132.2348  150.5444 C   0  0  0  0  0  0  0  0  0  0  0  0
  143.0569  132.2067  149.1607 O   0  0  0  0  0  0  0  0  0  0  0  0
  144.7384  134.4142  150.6484 C   0  0  0  0  0  0  0  0  0  0  0  0
  149.9536  139.1850  152.4600 H   0  0  0  0  0  0  0  0  0  0  0  0
  149.4521  137.6372  153.1073 H   0  0  0  0  0  0  0  0  0  0  0  0
  149.3979  137.1285  155.1889 H   0  0  0  0  0  0  0  0  0  0  0  0
  150.5683  137.9004  156.2140 H   0  0  0  0  0  0  0  0  0  0  0  0
  148.5445  137.9286  157.5027 H   0  0  0  0  0  0  0  0  0  0  0  0
  149.7069  140.0911  157.5445 H   0  0  0  0  0  0  0  0  0  0  0  0
  148.8114  140.6561  156.1488 H   0  0  0  0  0  0  0  0  0  0  0  0
  145.7042  140.8143  157.9534 H   0  0  0  0  0  0  0  0  0  0  0  0
  146.4496  141.0745  156.3859 H   0  0  0  0  0  0  0  0  0  0  0  0
  146.0230  138.3754  157.7845 H   0  0  0  0  0  0  0  0  0  0  0  0
  145.1559  138.9456  156.3684 H   0  0  0  0  0  0  0  0  0  0  0  0
  147.1554  134.0908  156.4902 H   0  0  0  0  0  0  0  0  0  0  0  0
  144.3801  137.3677  151.6879 H   0  0  0  0  0  0  0  0  0  0  0  0
  143.3829  134.5771  152.3255 H   0  0  0  0  0  0  0  0  0  0  0  0
  146.0826  133.1584  152.5526 H   0  0  0  0  0  0  0  0  0  0  0  0
  144.4640  132.5494  153.0270 H   0  0  0  0  0  0  0  0  0  0  0  0
  145.7813  131.0331  150.3390 H   0  0  0  0  0  0  0  0  0  0  0  0
  145.5334  132.0881  148.9646 H   0  0  0  0  0  0  0  0  0  0  0  0
  147.6881  131.8808  150.0868 H   0  0  0  0  0  0  0  0  0  0  0  0
  143.3023  131.2096  150.9128 H   0  0  0  0  0  0  0  0  0  0  0  0
  142.5447  132.7735  151.0560 H   0  0  0  0  0  0  0  0  0  0  0  0
  142.3963  132.8578  148.9787 H   0  0  0  0  0  0  0  0  0  0  0  0
  143.9555  134.8118  150.0018 H   0  0  0  0  0  0  0  0  0  0  0  0
  145.7128  134.8098  150.3589 H   0  0  0  0  0  0  0  0  0  0  0  0
  1  2  1  0  0  0  0
  1 28  1  0  0  0  0
  1 29  1  0  0  0  0
  2  3  2  0  0  0  0
  2  4  1  0  0  0  0
  4  5  1  0  0  0  0
  4 30  1  0  0  0  0
  4 31  1  0  0  0  0
  5 10  1  0  0  0  0
  5  6  1  0  0  0  0
  5 32  1  0  0  0  0
  6  7  1  0  0  0  0
  6 33  1  0  0  0  0
  6 34  1  0  0  0  0
  7  8  1  0  0  0  0
  8  9  1  0  0  0  0
  8 35  1  0  0  0  0
  8 36  1  0  0  0  0
  9 10  1  0  0  0  0
  9 37  1  0  0  0  0
  9 38  1  0  0  0  0
 10 11  1  0  0  0  0
 11 16  1  0  0  0  0
 11 12  2  0  0  0  0
 12 13  1  0  0  0  0
 13 14  2  0  0  0  0
 13 39  1  0  0  0  0
 14 15  1  0  0  0  0
 15 19  1  0  0  0  0
 15 16  2  0  0  0  0
 16 17  1  0  0  0  0
 17 18  2  0  0  0  0
 18 19  1  0  0  0  0
 18 40  1  0  0  0  0
 19 20  1  0  0  0  0
 20 27  1  0  0  0  0
 20 21  1  0  0  0  0
 20 41  1  0  0  0  0
 21 22  1  0  0  0  0
 21 42  1  0  0  0  0
 21 43  1  0  0  0  0
 22 23  1  0  0  0  0
 22 25  1  0  0  0  0
 22 27  1  0  0  0  0
 23 24  1  0  0  0  0
 23 44  1  0  0  0  0
 23 45  1  0  0  0  0
 24 46  1  0  0  0  0
 25 26  1  0  0  0  0
 25 47  1  0  0  0  0
 25 48  1  0  0  0  0
 26 49  1  0  0  0  0
 27 50  1  0  0  0  0
 27 51  1  0  0  0  0
M  END
> <s_m_source_file>
AV-unprocessed.smi

> <i_m_source_file_index>
75

> <i_lp_mmshare_version>
43012

> <i_f3d_flags>
0

> <s_epik_input>
W05IMl1DKD1PKVtDSDJdW0NAQEhdMVtDSDJdT1tDSDJdW0NIMl1OMWMobltjSF1uMiljKGMyMyluW2NIXW4zW0NIXShbQ0gyXTQpW0NIMl1DNChbQ0gyXVtPSF0pW0NIMl1bT0hd

> <s_epik_cmdline>
J2VwaWtfcHl0aG9uJywgJy1waCcsICc3LjAnLCAnLXRuJywgJzgnLCAnLW1hJywgJzIwMCcsICctbWV0YWxfYmluZGluZycsICctaW1hZScsICc8aW5maWxlLm1hZT4nLCAnLW9tYWUnLCAnPG91dGZpbGUubWFlPic=

> <r_lp_tautomer_probability>
1

> <r_epik_Ionization_Penalty>
5.29078e-05

> <r_epik_Ionization_Penalty_Charging>
0

> <r_epik_Ionization_Penalty_Neutral>
5.29078e-05

> <r_epik_State_Penalty>
-0

> <r_epik_Charging_Adjusted_Penalty>
0

> <i_epik_Tot_Q>
0

> <i_epik_Tot_abs_Q>
0

> <r_epik_Metal_State_Penalty>
-0

> <b_epik_Metal_Only>
0

> <s_lp_Force_Field>
OPLS_2005

> <r_lp_Energy>
41.8109

> <b_lp_Chiralities_Consistent>
1

> <s_lp_Variant>
AV-unprocessed.smi:75-2

> <Gold.Version>
5.8.1

> <Gold.Id.Protein>
6NUR|6NUR_protein|mol2

> <Gold.PLP.Fitness>
49.7067

> <Gold.PLP.PLP>
-31.6583

> <Gold.PLP.part.hbond>
-8.2106

> <Gold.PLP.part.metal>
0.0000

> <Gold.PLP.part.buried>
-6.3545

> <Gold.PLP.part.nonpolar>
-17.9689

> <Gold.PLP.part.repulsive>
0.4319

> <Gold.PLP.ligand.clash>
0.0000

> <Gold.PLP.ligand.torsion>
1.2118

> <Gold.PLP.Chemscore.Hbond>
5.6008

> <Gold.PLP.Chemscore.CHOScore>
1.0000

> <Gold.PLP.Chemscore.Metal>
0.0000

> <Gold.Chemscore.Hbonds>
donor molecule, donor type, donor heavy atom, donor atom, acceptor molecule, acceptor atom, score
      L1  H     1    28       P1  7957  1.00
      L1  H     1    29       P1  7948  0.94
      L1  H    24    46       P1 10747  1.00
      L1  H    26    49       P1 10186  0.68
      P1  H  7989  7998       L1     3  1.00
      P1  H 10785 10796       L1    26  0.80
      L1  C    18    40       P1 10171  1.00

> <Gold.PLP.Chemscore.Internal.Correction>
0.6696

> <Gold.Rescore>
     Score         DG    S(hbond)    S(metal)    S(lipo)     H(rot)  DE(clash)    DE(int)     intcor
     12.93     -16.42       5.18        0.00      46.85       4.63       0.00       3.49       ----

> <Gold.Chemscore.Fitness>
12.9295

> <Gold.Chemscore.DG>
-16.4239

> <Gold.Chemscore.ZeroCoef>
-5.4800

> <Gold.Chemscore.Hbond>
5.1812

> <Gold.Chemscore.Metal>
0.0000

> <Gold.Chemscore.Lipo>
46.8497

> <Gold.Chemscore.Internal_Hbond>
0.0000

> <Gold.Chemscore.DEClash>
0.0048

> <Gold.Chemscore.DEInternal>
3.4896

> <Gold.Chemscore.Rot>
4.6261

> <Gold.Chemscore.Internal.Correction>
   9.000000E+99

> <Gold.Chemscore.Hbonds>
donor molecule, donor type, donor heavy atom, donor atom, acceptor molecule, acceptor atom, score
      L1  H     1    28       P1  7957  0.72
      L1  H     1    29       P1  7948  0.82
      L1  H    24    46       P1 10747  1.00
      L1  H    26    49       P1 10186  0.67
      P1  H  7989  7998       L1     3  0.93
      P1  H 10785 10796       L1    26  0.27

> <Gold.Chemscore.Hbond.Weighted>
-17.3054

> <Gold.Chemscore.Metal.Weighted>
-0.0000

> <Gold.Chemscore.Lipo.Weighted>
-5.4814

> <Gold.Chemscore.Internal_Hbond.Weighted>
0.0000

> <Gold.Chemscore.DEClash.Weighted>
0.0048

> <Gold.Chemscore.DEInternal.Weighted>
3.4896

> <Gold.Chemscore.Rot.Weighted>
11.8429

> <Gold.Chemscore.Internal.Correction.Weighted>
   9.000000E+99

> <Gold.Protein.RotatedTorsions>
[ 6907 6896 6895 6894 ] final -158.30 input  -60.11 | X-H torsion
[ 7974 7965 7964 7962 ] final   44.01 input  175.53 | X-H torsion
[ 8008 7997 7996 7995 ] final   85.45 input   59.86 | X-H torsion
[ 10167 10162 10161 10158 ] final  -12.50 input  -65.29 | X-H torsion
[ 10718 10713 10712 10709 ] final  146.12 input   66.30 | X-H torsion
[ 10763 10752 10751 10750 ] final -144.91 input  -60.55 | X-H torsion
[ 11005 11000 10999 10996 ] final -133.57 input  -57.11 | X-H torsion

> <Gold.Protein.ActiveResidues>
 VAL166  LYS551  ARG553  GLY616  TRP617  ASP618  TYR619  PRO620  LYS621  CYS622 
 ASP623  PHE694  ASN695  SER759  ASP760  ASP761  ALA762  ILE779  LEU786  VAL792 
 PHE793  MET794  SER795  GLU796  ALA797  LYS798  CYS799  TRP800  GLU811  SER814 

> <Gold.Protein.RotatedAtoms>
  151.3161  133.4060  159.2650 H   0  0  0  0  0  0  0  0  0  0  0  0  # atno 6907 bound_to 6896
  151.0073  134.9370  159.7998 H   0  0  0  0  0  0  0  0  0  0  0  0  # atno 6908 bound_to 6896
  152.5291  134.3126  159.9171 H   0  0  0  0  0  0  0  0  0  0  0  0  # atno 6909 bound_to 6896
  146.0605  139.5122  142.9661 H   0  0  0  0  0  0  0  0  0  0  0  0  # atno 7974 bound_to 7965
  155.9502  140.3401  155.6401 H   0  0  0  0  0  0  0  0  0  0  0  0  # atno 8008 bound_to 7997
  155.6930  140.0751  157.2459 H   0  0  0  0  0  0  0  0  0  0  0  0  # atno 8009 bound_to 7997
  154.4120  140.1654  156.2094 H   0  0  0  0  0  0  0  0  0  0  0  0  # atno 8010 bound_to 7997
  140.7162  143.5526  150.9284 H   0  0  0  0  0  0  0  0  0  0  0  0  # atno 10167 bound_to 10162
  157.3370  131.0929  151.1114 H   0  0  0  0  0  0  0  0  0  0  0  0  # atno 10718 bound_to 10713
  154.8407  135.3427  154.6421 H   0  0  0  0  0  0  0  0  0  0  0  0  # atno 10763 bound_to 10752
  153.7032  135.6968  153.5062 H   0  0  0  0  0  0  0  0  0  0  0  0  # atno 10764 bound_to 10752
  153.2507  135.4354  155.0748 H   0  0  0  0  0  0  0  0  0  0  0  0  # atno 10765 bound_to 10752
  140.9068  134.1619  157.4419 H   0  0  0  0  0  0  0  0  0  0  0  0  # atno 11005 bound_to 11000
  145.6568  141.0250  143.1730 LP  0  0  0  0  0  0  0  0  0  0  0  0  # atno 17320 bound_to 7965
  144.7172  139.8154  143.7394 LP  0  0  0  0  0  0  0  0  0  0  0  0  # atno 17321 bound_to 7965
  139.9250  143.6560  152.3089 LP  0  0  0  0  0  0  0  0  0  0  0  0  # atno 17342 bound_to 10162
  139.6991  144.7637  151.1305 LP  0  0  0  0  0  0  0  0  0  0  0  0  # atno 17343 bound_to 10162
  157.2341  130.6538  149.5862 LP  0  0  0  0  0  0  0  0  0  0  0  0  # atno 17370 bound_to 10713
  155.9703  130.4589  150.6018 LP  0  0  0  0  0  0  0  0  0  0  0  0  # atno 17371 bound_to 10713
  139.8751  134.9920  156.5576 LP  0  0  0  0  0  0  0  0  0  0  0  0  # atno 17394 bound_to 11000
  140.8160  133.8391  155.8852 LP  0  0  0  0  0  0  0  0  0  0  0  0  # atno 17395 bound_to 11000

$$$$
