#       Name:                AV-unprocessed.smi:2058
#       Creating user name   scv26
#       Creation time:       Fri Mar 27 11:01:31 2020


#       File generated by GOLD software.
#

@<TRIPOS>MOLECULE
AV-unprocessed.smi:2058
    48    49     1
SMALL
NO_CHARGES


@<TRIPOS>ATOM
      1 ****        -5.2345  -3.9773   1.2535 C.3            1 S1                 0.0000
      2 ****        -4.6172  -3.0747   0.1738 C.3            1 S1                 0.0000
      3 ****        -4.7238  -3.6563  -1.2512 C.3            1 S1                 0.0000
      4 ****        -4.1871  -4.9620  -1.3209 O.3            1 S1                 0.0000
      5 ****        -3.2305  -2.7551   0.5061 N.am           1 S1                 0.0000
      6 ****        -2.5773  -1.6435   0.1386 C.2            1 S1                 0.0000
      7 ****        -3.0952  -0.7377  -0.5139 O.2            1 S1                 0.0000
      8 ****        -1.3096  -1.6585   0.5855 N.am           1 S1                 0.0000
      9 ****        -0.2828  -0.6936   0.3952 C.ar           1 S1                 0.0000
     10 ****         0.8596  -0.7801   1.2140 C.ar           1 S1                 0.0000
     11 ****         1.9032   0.1487   1.0434 C.ar           1 S1                 0.0000
     12 ****         1.7826   1.1458   0.0476 C.ar           1 S1                 0.0000
     13 ****         2.8151   2.0909  -0.1391 N.3            1 S1                 0.0000
     14 ****         3.2145   2.8284   1.0615 C.3            1 S1                 0.0000
     15 ****         4.5798   3.5098   0.8661 C.3            1 S1                 0.0000
     16 ****         4.5813   4.3910  -0.3915 C.3            1 S1                 0.0000
     17 ****         4.1612   3.5619  -1.6139 C.3            1 S1                 0.0000
     18 ****         2.8053   2.8745  -1.3776 C.3            1 S1                 0.0000
     19 ****         0.6911   1.2184  -0.7526 N.ar           1 S1                 0.0000
     20 ****        -0.3084   0.3269  -0.5851 C.ar           1 S1                 0.0000
     21 ****        -6.2745  -4.2078   1.0213 H              1 S1                 0.0000
     22 ****        -5.2161  -3.4887   2.2282 H              1 S1                 0.0000
     23 ****        -4.6967  -4.9212   1.3473 H              1 S1                 0.0000
     24 ****        -5.1844  -2.1422   0.1858 H              1 S1                 0.0000
     25 ****        -5.7702  -3.7057  -1.5528 H              1 S1                 0.0000
     26 ****        -4.2181  -3.0182  -1.9767 H              1 S1                 0.0000
     27 ****        -4.2696  -5.2725  -2.2094 H              1 S1                 0.0000
     28 ****        -2.7259  -3.4459   1.0417 H              1 S1                 0.0000
     29 ****        -1.0560  -2.4470   1.1627 H              1 S1                 0.0000
     30 ****         0.9399  -1.5502   1.9673 H              1 S1                 0.0000
     31 ****         2.7846   0.0777   1.6632 H              1 S1                 0.0000
     32 ****         2.4531   3.5797   1.2751 H              1 S1                 0.0000
     33 ****         3.2656   2.1814   1.9360 H              1 S1                 0.0000
     34 ****         4.8273   4.1083   1.7430 H              1 S1                 0.0000
     35 ****         5.3573   2.7495   0.7803 H              1 S1                 0.0000
     36 ****         3.8921   5.2257  -0.2577 H              1 S1                 0.0000
     37 ****         5.5703   4.8222  -0.5491 H              1 S1                 0.0000
     38 ****         4.1075   4.1974  -2.4979 H              1 S1                 0.0000
     39 ****         4.9210   2.8070  -1.8205 H              1 S1                 0.0000
     40 ****         2.5818   2.2302  -2.2291 H              1 S1                 0.0000
     41 ****         2.0127   3.6220  -1.3216 H              1 S1                 0.0000
     42 ****        -1.1279   0.4426  -1.2762 H              1 S1                 0.0000
     43 ****        -4.6903  -5.5671  -0.7039 LP             1 S1                 0.0000
     44 ****        -3.2226  -4.9449  -1.0576 LP             1 S1                 0.0000
     45 ****        -4.0515  -0.8095  -0.7975 LP             1 S1                 0.0000
     46 ****        -2.5598   0.0700  -0.7605 LP             1 S1                 0.0000
     47 ****         3.5861   1.4792  -0.3164 LP             1 S1                 0.0000
     48 ****         0.6270   1.9238  -1.4585 LP             1 S1                 0.0000
@<TRIPOS>BOND
    1    1    2 1     
    2    1   21 1     
    3    1   22 1     
    4    1   23 1     
    5    2    3 1     
    6    2    5 1     
    7    2   24 1     
    8    3    4 1     
    9    3   25 1     
   10    3   26 1     
   11    4   27 1     
   12    5    6 am    
   13    5   28 1     
   14    6    7 2     
   15    6    8 am    
   16    8    9 1     
   17    8   29 1     
   18    9   20 ar    
   19    9   10 ar    
   20   10   11 ar    
   21   10   30 1     
   22   11   12 ar    
   23   11   31 1     
   24   12   13 1     
   25   12   19 ar    
   26   13   18 1     
   27   13   14 1     
   28   14   15 1     
   29   14   32 1     
   30   14   33 1     
   31   15   16 1     
   32   15   34 1     
   33   15   35 1     
   34   16   17 1     
   35   16   36 1     
   36   16   37 1     
   37   17   18 1     
   38   17   38 1     
   39   17   39 1     
   40   18   40 1     
   41   18   41 1     
   42   19   20 ar    
   43   20   42 1     
   44    4   43 1     
   45    4   44 1     
   46    7   45 1     
   47    7   46 1     
   48   13   47 1     
   49   19   48 1     
@<TRIPOS>SUBSTRUCTURE
      1 S1             1
@<TRIPOS>SET
LONE_PAIRS      STATIC     ATOMS    <user>   **** ""
6 43 44 45 46 47 48
DONOR_HYDROGENS      STATIC     ATOMS    <user>   **** ""
3 27 28 29
ATOM$BLUE        STATIC     ATOMS    COLORGROUP SYSTEM
6 43 44 45 46 47 48
ATOM$RED        STATIC     ATOMS    COLORGROUP SYSTEM
3 27 28 29
