AV-unprocessed.smi:196|AV-procd|sdf|1533|dock1
  -GOLD-   2262019383D 1   1.00000     0.00000
 Structure written by MMmdl.
 47 50  0  0  0  0  0  0  0  0  1 V2000
  147.2246  134.4019  162.0444 C   0  0  0  0  0  0  0  0  0  0  0  0
  146.4143  135.1597  160.9798 C   0  0  1  0  0  0  0  0  0  0  0  0
  145.1317  135.5250  161.4881 O   0  0  0  0  0  0  0  0  0  0  0  0
  144.9496  136.9305  161.3922 C   0  0  0  0  0  0  0  0  0  0  0  0
  145.8412  137.3478  160.2300 C   0  0  0  0  0  0  0  0  0  0  0  0
  147.0546  136.4456  160.4056 C   0  0  1  0  0  0  0  0  0  0  0  0
  147.9226  137.0469  161.3538 O   0  0  0  0  0  0  0  0  0  0  0  0
  147.8484  136.1972  159.1012 C   0  0  0  0  0  0  0  0  0  0  0  0
  148.5890  137.3630  158.6449 N   0  0  0  0  0  0  0  0  0  0  0  0
  148.1317  138.3540  157.8049 C   0  0  0  0  0  0  0  0  0  0  0  0
  148.9890  139.3030  157.5434 N   0  0  0  0  0  0  0  0  0  0  0  0
  150.1249  138.9337  158.2519 C   0  0  0  0  0  0  0  0  0  0  0  0
  151.4141  139.5038  158.4161 C   0  0  0  0  0  0  0  0  0  0  0  0
  151.7657  140.6674  157.8209 N   0  0  0  0  0  0  0  0  0  0  0  0
  152.6195  141.5411  158.6229 C   0  0  0  0  0  0  0  0  0  0  0  0
  151.8167  142.8193  158.8393 C   0  0  1  0  0  0  0  0  0  0  0  0
  152.5896  143.8866  159.0377 F   0  0  0  0  0  0  0  0  0  0  0  0
  151.0060  142.9132  157.5558 C   0  0  0  0  0  0  0  0  0  0  0  0
  150.6474  141.4463  157.2646 C   0  0  1  0  0  0  0  0  0  0  0  0
  150.3955  141.2123  155.7638 C   0  0  0  0  0  0  0  0  0  0  0  0
  149.5779  142.0426  155.1089 N   0  0  0  0  0  0  0  0  0  0  0  0
  150.9510  140.2761  155.1934 O   0  0  0  0  0  0  0  0  0  0  0  0
  152.3073  138.8434  159.2001 N   0  0  0  0  0  0  0  0  0  0  0  0
  151.9558  137.6975  159.7918 C   0  0  0  0  0  0  0  0  0  0  0  0
  150.7887  137.0516  159.7339 N   0  0  0  0  0  0  0  0  0  0  0  0
  149.8942  137.7127  158.9444 C   0  0  0  0  0  0  0  0  0  0  0  0
  151.1557  142.7167  159.7011 H   0  0  0  0  0  0  0  0  0  0  0  0
  149.7223  141.2077  157.7937 H   0  0  0  0  0  0  0  0  0  0  0  0
  148.2079  134.1241  161.6642 H   0  0  0  0  0  0  0  0  0  0  0  0
  146.7120  133.4859  162.3385 H   0  0  0  0  0  0  0  0  0  0  0  0
  147.3654  134.9998  162.9451 H   0  0  0  0  0  0  0  0  0  0  0  0
  146.2126  134.4711  160.1583 H   0  0  0  0  0  0  0  0  0  0  0  0
  143.9024  137.1890  161.2349 H   0  0  0  0  0  0  0  0  0  0  0  0
  145.2816  137.3979  162.3204 H   0  0  0  0  0  0  0  0  0  0  0  0
  145.3344  137.1190  159.2914 H   0  0  0  0  0  0  0  0  0  0  0  0
  146.0785  138.4126  160.2326 H   0  0  0  0  0  0  0  0  0  0  0  0
  148.3867  136.3636  161.8130 H   0  0  0  0  0  0  0  0  0  0  0  0
  148.5478  135.3708  159.2346 H   0  0  0  0  0  0  0  0  0  0  0  0
  147.1724  135.8968  158.2996 H   0  0  0  0  0  0  0  0  0  0  0  0
  147.1328  138.3535  157.3929 H   0  0  0  0  0  0  0  0  0  0  0  0
  152.9434  141.1031  159.5689 H   0  0  0  0  0  0  0  0  0  0  0  0
  153.5181  141.7503  158.0409 H   0  0  0  0  0  0  0  0  0  0  0  0
  150.1268  143.5493  157.6625 H   0  0  0  0  0  0  0  0  0  0  0  0
  151.6267  143.3284  156.7593 H   0  0  0  0  0  0  0  0  0  0  0  0
  149.3999  141.9002  154.1248 H   0  0  0  0  0  0  0  0  0  0  0  0
  149.1386  142.8069  155.6012 H   0  0  0  0  0  0  0  0  0  0  0  0
  152.7182  137.2317  160.3988 H   0  0  0  0  0  0  0  0  0  0  0  0
  1  2  1  0  0  0  0
  1 29  1  0  0  0  0
  1 30  1  0  0  0  0
  1 31  1  0  0  0  0
  2  6  1  0  0  0  0
  2  3  1  0  0  0  0
  2 32  1  0  0  0  0
  3  4  1  0  0  0  0
  4  5  1  0  0  0  0
  4 33  1  0  0  0  0
  4 34  1  0  0  0  0
  5  6  1  0  0  0  0
  5 35  1  0  0  0  0
  5 36  1  0  0  0  0
  6  7  1  0  0  0  0
  6  8  1  0  0  0  0
  7 37  1  0  0  0  0
  8  9  1  0  0  0  0
  8 38  1  0  0  0  0
  8 39  1  0  0  0  0
  9 26  1  0  0  0  0
  9 10  1  0  0  0  0
 10 11  2  0  0  0  0
 10 40  1  0  0  0  0
 11 12  1  0  0  0  0
 12 26  2  0  0  0  0
 12 13  1  0  0  0  0
 13 14  1  0  0  0  0
 13 23  2  0  0  0  0
 14 19  1  0  0  0  0
 14 15  1  0  0  0  0
 15 16  1  0  0  0  0
 15 41  1  0  0  0  0
 15 42  1  0  0  0  0
 16 27  1  0  0  0  0
 16 17  1  0  0  0  0
 16 18  1  0  0  0  0
 18 19  1  0  0  0  0
 18 43  1  0  0  0  0
 18 44  1  0  0  0  0
 19 28  1  0  0  0  0
 19 20  1  0  0  0  0
 20 21  1  0  0  0  0
 20 22  2  0  0  0  0
 21 45  1  0  0  0  0
 21 46  1  0  0  0  0
 23 24  1  0  0  0  0
 24 25  2  0  0  0  0
 24 47  1  0  0  0  0
 25 26  1  0  0  0  0
M  END
> <s_m_source_file>
AV-unprocessed.smi

> <i_m_source_file_index>
196

> <i_lp_mmshare_version>
43012

> <i_f3d_flags>
0

> <s_epik_input>
W0NIMl0xW0NIMl1PW0NAQEhdKFtDSDNdKVtDQEBdMShbT0hdKVtDSDJdbihbY0hdbjIpYyhjMjMpbltjSF1uYzNONFtDSDJdW0NASF0oRilbQ0gyXVtDQEhdNEMoPU8pW05IMl0=

> <s_epik_cmdline>
J2VwaWtfcHl0aG9uJywgJy1waCcsICc3LjAnLCAnLXRuJywgJzgnLCAnLW1hJywgJzIwMCcsICctbWV0YWxfYmluZGluZycsICctaW1hZScsICc8aW5maWxlLm1hZT4nLCAnLW9tYWUnLCAnPG91dGZpbGUubWFlPic=

> <r_lp_tautomer_probability>
1

> <r_epik_Ionization_Penalty>
0.000857933

> <r_epik_Ionization_Penalty_Charging>
0

> <r_epik_Ionization_Penalty_Neutral>
0.000857933

> <r_epik_State_Penalty>
0.000462053

> <r_epik_Charging_Adjusted_Penalty>
0.000462053

> <i_epik_Tot_Q>
0

> <i_epik_Tot_abs_Q>
0

> <r_epik_Metal_State_Penalty>
-0

> <b_epik_Metal_Only>
0

> <s_lp_Force_Field>
OPLS_2005

> <r_lp_Energy>
45.9197

> <b_lp_Chiralities_Consistent>
1

> <s_lp_Variant>
AV-unprocessed.smi:196-6

> <Gold.Version>
5.8.1

> <Gold.Id.Protein>
6NUR|6NUR_protein|mol2

> <Gold.PLP.Fitness>
48.6068

> <Gold.PLP.PLP>
-40.0584

> <Gold.PLP.part.hbond>
-4.7766

> <Gold.PLP.part.metal>
0.0000

> <Gold.PLP.part.buried>
-7.0016

> <Gold.PLP.part.nonpolar>
-28.5571

> <Gold.PLP.part.repulsive>
0.2407

> <Gold.PLP.ligand.clash>
0.9354

> <Gold.PLP.ligand.torsion>
1.1664

> <Gold.PLP.Chemscore.Hbond>
3.8854

> <Gold.PLP.Chemscore.CHOScore>
0.0000

> <Gold.PLP.Chemscore.Metal>
0.0000

> <Gold.Chemscore.Hbonds>
donor molecule, donor type, donor heavy atom, donor atom, acceptor molecule, acceptor atom, score
      L1  H    21    46       P1  8028  0.90
      P1  H  6896  6909       L1    25  1.00
      P1  H  6931  6943       L1     7  0.60
      P1  H  6934  6947       L1     7  0.34
      P1  H  7989  7998       L1    22  1.00

> <Gold.PLP.Chemscore.Internal.Correction>
0.1605

> <Gold.Rescore>
     Score         DG    S(hbond)    S(metal)    S(lipo)     H(rot)  DE(clash)    DE(int)     intcor
     14.45     -17.85       3.61        0.00      69.24       3.04       0.05       3.35       ----

> <Gold.Chemscore.Fitness>
14.4519

> <Gold.Chemscore.DG>
-17.8494

> <Gold.Chemscore.ZeroCoef>
-5.4800

> <Gold.Chemscore.Hbond>
3.6090

> <Gold.Chemscore.Metal>
0.0000

> <Gold.Chemscore.Lipo>
69.2391

> <Gold.Chemscore.Internal_Hbond>
0.0000

> <Gold.Chemscore.DEClash>
0.0472

> <Gold.Chemscore.DEInternal>
3.3503

> <Gold.Chemscore.Rot>
3.0413

> <Gold.Chemscore.Internal.Correction>
   9.000000E+99

> <Gold.Chemscore.Hbonds>
donor molecule, donor type, donor heavy atom, donor atom, acceptor molecule, acceptor atom, score
      L1  H    21    46       P1  8028  0.88
      P1  H  6896  6909       L1    25  0.54
      P1  H  6931  6943       L1     7  0.04
      P1  H  6934  6947       L1     7  0.03
      P1  H  7989  7998       L1    22  0.68

> <Gold.Chemscore.Hbond.Weighted>
-12.0541

> <Gold.Chemscore.Metal.Weighted>
-0.0000

> <Gold.Chemscore.Lipo.Weighted>
-8.1010

> <Gold.Chemscore.Internal_Hbond.Weighted>
0.0000

> <Gold.Chemscore.DEClash.Weighted>
0.0472

> <Gold.Chemscore.DEInternal.Weighted>
3.3503

> <Gold.Chemscore.Rot.Weighted>
7.7856

> <Gold.Chemscore.Internal.Correction.Weighted>
   9.000000E+99

> <Gold.Protein.RotatedTorsions>
[ 6907 6896 6895 6894 ] final   98.99 input  -60.11 | X-H torsion
[ 7974 7965 7964 7962 ] final -164.02 input  175.53 | X-H torsion
[ 8008 7997 7996 7995 ] final   20.43 input   59.86 | X-H torsion
[ 10167 10162 10161 10158 ] final  -81.40 input  -65.29 | X-H torsion
[ 10718 10713 10712 10709 ] final  161.15 input   66.30 | X-H torsion
[ 10763 10752 10751 10750 ] final   18.64 input  -60.55 | X-H torsion
[ 11005 11000 10999 10996 ] final  175.88 input  -57.11 | X-H torsion

> <Gold.Protein.ActiveResidues>
 VAL166  LYS551  ARG553  GLY616  TRP617  ASP618  TYR619  PRO620  LYS621  CYS622 
 ASP623  PHE694  ASN695  SER759  ASP760  ASP761  ALA762  ILE779  LEU786  VAL792 
 PHE793  MET794  SER795  GLU796  ALA797  LYS798  CYS799  TRP800  GLU811  SER814 

> <Gold.Protein.RotatedAtoms>
  152.5400  134.0496  159.8103 H   0  0  0  0  0  0  0  0  0  0  0  0  # atno 6907 bound_to 6896
  151.0640  133.5513  159.2639 H   0  0  0  0  0  0  0  0  0  0  0  0  # atno 6908 bound_to 6896
  151.2401  135.0594  159.9075 H   0  0  0  0  0  0  0  0  0  0  0  0  # atno 6909 bound_to 6896
  144.7309  140.3022  143.6202 H   0  0  0  0  0  0  0  0  0  0  0  0  # atno 7974 bound_to 7965
  154.9354  140.3046  155.5147 H   0  0  0  0  0  0  0  0  0  0  0  0  # atno 8008 bound_to 7997
  156.3000  140.2346  156.4355 H   0  0  0  0  0  0  0  0  0  0  0  0  # atno 8009 bound_to 7997
  154.8196  140.0424  157.1390 H   0  0  0  0  0  0  0  0  0  0  0  0  # atno 8010 bound_to 7997
  140.4415  143.2513  151.8619 H   0  0  0  0  0  0  0  0  0  0  0  0  # atno 10167 bound_to 10162
  157.1405  131.0539  151.2329 H   0  0  0  0  0  0  0  0  0  0  0  0  # atno 10718 bound_to 10713
  153.1232  135.6724  153.9301 H   0  0  0  0  0  0  0  0  0  0  0  0  # atno 10763 bound_to 10752
  153.8810  135.3058  155.3446 H   0  0  0  0  0  0  0  0  0  0  0  0  # atno 10764 bound_to 10752
  154.7640  135.4973  153.9599 H   0  0  0  0  0  0  0  0  0  0  0  0  # atno 10765 bound_to 10752
  140.3670  134.7063  157.4368 H   0  0  0  0  0  0  0  0  0  0  0  0  # atno 11005 bound_to 11000
  145.7749  139.1870  143.2191 LP  0  0  0  0  0  0  0  0  0  0  0  0  # atno 17320 bound_to 7965
  146.0881  140.7688  142.9609 LP  0  0  0  0  0  0  0  0  0  0  0  0  # atno 17321 bound_to 7965
  139.4790  144.5223  151.8784 LP  0  0  0  0  0  0  0  0  0  0  0  0  # atno 17342 bound_to 10162
  140.4313  144.2112  150.5888 LP  0  0  0  0  0  0  0  0  0  0  0  0  # atno 17343 bound_to 10162
  157.4311  130.7491  149.6991 LP  0  0  0  0  0  0  0  0  0  0  0  0  # atno 17370 bound_to 10713
  155.9789  130.4045  150.3617 LP  0  0  0  0  0  0  0  0  0  0  0  0  # atno 17371 bound_to 10713
  140.0581  134.6034  155.8781 LP  0  0  0  0  0  0  0  0  0  0  0  0  # atno 17394 bound_to 11000
  141.1966  133.6592  156.5701 LP  0  0  0  0  0  0  0  0  0  0  0  0  # atno 17395 bound_to 11000

$$$$
