#       Name:                AV-unprocessed.smi:3158
#       Creating user name   scv26
#       Creation time:       Fri Mar 27 17:46:22 2020


#       File generated by GOLD software.
#

@<TRIPOS>MOLECULE
AV-unprocessed.smi:3158
    43    43     1
SMALL
NO_CHARGES


@<TRIPOS>ATOM
      1 ****        -1.9267   2.5411  -3.5164 C.3            1 S1                 0.0000
      2 ****        -2.1645   3.0626  -2.0915 C.3            1 S1                 0.0000
      3 ****        -1.9283   2.0047  -0.9975 C.3            1 S1                 0.0000
      4 ****        -2.2767   2.5454   0.3982 C.3            1 S1                 0.0000
      5 ****        -0.5392   1.5520  -1.0261 N.am           1 S1                 0.0000
      6 ****        -0.1088   0.3343  -0.6614 C.2            1 S1                 0.0000
      7 ****        -0.8573  -0.5520  -0.2469 O.2            1 S1                 0.0000
      8 ****         1.3995   0.0780  -0.7946 C.3            1 S1                 0.0000
      9 ****         1.7329  -0.3561  -2.2303 C.3            1 S1                 0.0000
     10 ****         1.8665  -0.9521   0.1600 N.4            1 S1                 1.0000
     11 ****         2.0016  -0.4983   1.5621 C.3            1 S1                 0.0000
     12 ****         2.2791  -1.6764   2.5077 C.3            1 S1                 0.0000
     13 ****         1.1539  -2.5913   2.5734 N.pl3          1 S1                 0.0000
     14 ****         0.0604  -2.5462   3.4124 C.2            1 S1                 0.0000
     15 ****        -0.7412  -3.6039   3.0913 C.2            1 S1                 0.0000
     16 ****        -0.0445  -4.2467   2.0301 C.2            1 S1                 0.0000
     17 ****         1.0883  -3.6365   1.7203 N.2            1 S1                 0.0000
     18 ****        -2.1506   3.3132  -4.2525 H              1 S1                 0.0000
     19 ****        -2.5644   1.6834  -3.7318 H              1 S1                 0.0000
     20 ****        -0.8910   2.2353  -3.6661 H              1 S1                 0.0000
     21 ****        -1.5256   3.9289  -1.9140 H              1 S1                 0.0000
     22 ****        -3.1908   3.4252  -2.0221 H              1 S1                 0.0000
     23 ****        -2.5852   1.1586  -1.2076 H              1 S1                 0.0000
     24 ****        -3.3158   2.8726   0.4431 H              1 S1                 0.0000
     25 ****        -1.6489   3.3969   0.6629 H              1 S1                 0.0000
     26 ****        -2.1425   1.7809   1.1640 H              1 S1                 0.0000
     27 ****         0.1440   2.2161  -1.3610 H              1 S1                 0.0000
     28 ****         1.9371   1.0047  -0.5855 H              1 S1                 0.0000
     29 ****         1.4296   0.4004  -2.9555 H              1 S1                 0.0000
     30 ****         1.2320  -1.2889  -2.4938 H              1 S1                 0.0000
     31 ****         2.8053  -0.5107  -2.3524 H              1 S1                 0.0000
     32 ****         1.2135  -1.7233   0.1316 H              1 S1                 0.0000
     33 ****         2.8160   0.2245   1.6201 H              1 S1                 0.0000
     34 ****         1.0963   0.0184   1.8832 H              1 S1                 0.0000
     35 ****         3.1711  -2.2228   2.1969 H              1 S1                 0.0000
     36 ****         2.4742  -1.3059   3.5148 H              1 S1                 0.0000
     37 ****        -0.0570  -1.7728   4.1572 H              1 S1                 0.0000
     38 ****        -1.6826  -3.8770   3.5448 H              1 S1                 0.0000
     39 ****        -0.3273  -5.1313   1.4786 H              1 S1                 0.0000
     40 ****         2.7695  -1.2864  -0.1441 H              1 S1                 0.0000
     41 ****        -1.8395  -0.3809  -0.1688 LP             1 S1                 0.0000
     42 ****        -0.4828  -1.4425   0.0114 LP             1 S1                 0.0000
     43 ****         1.7477  -3.8919   1.0132 LP             1 S1                 0.0000
@<TRIPOS>BOND
    1    1    2 1     
    2    1   18 1     
    3    1   19 1     
    4    1   20 1     
    5    2    3 1     
    6    2   21 1     
    7    2   22 1     
    8    3    4 1     
    9    3    5 1     
   10    3   23 1     
   11    4   24 1     
   12    4   25 1     
   13    4   26 1     
   14    5    6 am    
   15    5   27 1     
   16    6    7 2     
   17    6    8 1     
   18    8    9 1     
   19    8   10 1     
   20    8   28 1     
   21    9   29 1     
   22    9   30 1     
   23    9   31 1     
   24   10   11 1     
   25   10   32 1     
   26   10   40 1     
   27   11   12 1     
   28   11   33 1     
   29   11   34 1     
   30   12   13 1     
   31   12   35 1     
   32   12   36 1     
   33   13   17 1     
   34   13   14 1     
   35   14   15 2     
   36   14   37 1     
   37   15   16 1     
   38   15   38 1     
   39   16   17 2     
   40   16   39 1     
   41    7   41 1     
   42    7   42 1     
   43   17   43 1     
@<TRIPOS>SUBSTRUCTURE
      1 S1             1
@<TRIPOS>SET
LONE_PAIRS      STATIC     ATOMS    <user>   **** ""
3 41 42 43
DONOR_HYDROGENS      STATIC     ATOMS    <user>   **** ""
3 27 32 40
ATOM$BLUE        STATIC     ATOMS    COLORGROUP SYSTEM
3 41 42 43
ATOM$RED        STATIC     ATOMS    COLORGROUP SYSTEM
3 27 32 40
