AV-unprocessed.smi:2645|AV-procd|sdf|10280|dock7
  -GOLD-   2272014293D 1   1.00000     0.00000
 Structure written by MMmdl.
 50 52  0  0  0  0  0  0  0  0  2 V2000
  147.2176  132.6643  154.0183 O   0  0  0  0  0  0  0  0  0  0  0  0
  147.5125  133.6824  153.3913 C   0  0  0  0  0  0  0  0  0  0  0  0
  148.4669  134.5372  153.7882 N   0  0  0  0  0  0  0  0  0  0  0  0
  149.2843  134.3691  154.9846 C   0  0  0  0  0  0  0  0  0  0  0  0
  150.5105  135.3033  154.9716 C   0  0  0  0  0  0  0  0  0  0  0  0
  150.1586  136.7008  154.6164 N   0  3  0  0  0  0  0  0  0  0  0  0
  148.9335  137.1653  155.3231 C   0  0  0  0  0  0  0  0  0  0  0  0
  148.5804  138.6189  154.9567 C   0  0  0  0  0  0  0  0  0  0  0  0
  149.7403  139.4717  155.2313 N   0  0  0  0  0  0  0  0  0  0  0  0
  149.7506  140.4099  156.2096 C   0  0  0  0  0  0  0  0  0  0  0  0
  148.7436  140.6769  156.8663 O   0  0  0  0  0  0  0  0  0  0  0  0
  151.0758  141.1302  156.5405 C   0  0  0  0  0  0  0  0  0  0  0  0
  151.5206  141.1097  158.0167 C   0  0  0  0  0  0  0  0  0  0  0  0
  151.0210  142.5492  158.1713 C   0  0  0  0  0  0  0  0  0  0  0  0
  150.9472  142.6595  156.6452 C   0  0  0  0  0  0  0  0  0  0  0  0
  150.8831  139.0869  154.3986 C   0  0  0  0  0  0  0  0  0  0  0  0
  151.2996  137.6494  154.7575 C   0  0  0  0  0  0  0  0  0  0  0  0
  146.9404  134.0834  152.2422 N   0  0  0  0  0  0  0  0  0  0  0  0
  145.8909  133.4545  151.5202 C   0  0  0  0  0  0  0  0  0  0  0  0
  145.7759  132.0604  151.7222 C   0  0  0  0  0  0  0  0  0  0  0  0
  144.7665  131.3441  151.0501 C   0  0  0  0  0  0  0  0  0  0  0  0
  143.8983  132.0408  150.1907 C   0  0  0  0  0  0  0  0  0  0  0  0
  144.0822  133.4279  150.0442 C   0  0  0  0  0  0  0  0  0  0  0  0
  145.0483  134.1166  150.6882 N   0  0  0  0  0  0  0  0  0  0  0  0
  148.6509  135.3487  153.2159 H   0  0  0  0  0  0  0  0  0  0  0  0
  148.6603  134.5381  155.8624 H   0  0  0  0  0  0  0  0  0  0  0  0
  149.6098  133.3296  155.0303 H   0  0  0  0  0  0  0  0  0  0  0  0
  150.9557  135.2887  155.9678 H   0  0  0  0  0  0  0  0  0  0  0  0
  151.2788  134.9392  154.2879 H   0  0  0  0  0  0  0  0  0  0  0  0
  148.0966  136.5127  155.0721 H   0  0  0  0  0  0  0  0  0  0  0  0
  149.0871  137.0846  156.4006 H   0  0  0  0  0  0  0  0  0  0  0  0
  148.3235  138.6893  153.8989 H   0  0  0  0  0  0  0  0  0  0  0  0
  147.6861  138.9268  155.5000 H   0  0  0  0  0  0  0  0  0  0  0  0
  151.8893  140.8068  155.8901 H   0  0  0  0  0  0  0  0  0  0  0  0
  151.0179  140.3950  158.6691 H   0  0  0  0  0  0  0  0  0  0  0  0
  152.6036  141.0288  158.1193 H   0  0  0  0  0  0  0  0  0  0  0  0
  150.0397  142.6055  158.6444 H   0  0  0  0  0  0  0  0  0  0  0  0
  151.7351  143.2275  158.6396 H   0  0  0  0  0  0  0  0  0  0  0  0
  151.8027  143.1806  156.2137 H   0  0  0  0  0  0  0  0  0  0  0  0
  150.0067  143.0750  156.2809 H   0  0  0  0  0  0  0  0  0  0  0  0
  150.5883  139.1349  153.3492 H   0  0  0  0  0  0  0  0  0  0  0  0
  151.7363  139.7578  154.4845 H   0  0  0  0  0  0  0  0  0  0  0  0
  151.6716  137.6202  155.7831 H   0  0  0  0  0  0  0  0  0  0  0  0
  152.1247  137.3494  154.1131 H   0  0  0  0  0  0  0  0  0  0  0  0
  147.2963  134.9355  151.8347 H   0  0  0  0  0  0  0  0  0  0  0  0
  146.4514  131.5399  152.3859 H   0  0  0  0  0  0  0  0  0  0  0  0
  144.6614  130.2785  151.1919 H   0  0  0  0  0  0  0  0  0  0  0  0
  143.1122  131.5266  149.6579 H   0  0  0  0  0  0  0  0  0  0  0  0
  143.4374  134.0004  149.3936 H   0  0  0  0  0  0  0  0  0  0  0  0
  149.9166  136.6921  153.6359 H   0  0  0  0  0  0  0  0  0  0  0  0
  1  2  2  0  0  0  0
  2  3  1  0  0  0  0
  2 18  1  0  0  0  0
  3  4  1  0  0  0  0
  3 25  1  0  0  0  0
  4  5  1  0  0  0  0
  4 26  1  0  0  0  0
  4 27  1  0  0  0  0
  5  6  1  0  0  0  0
  5 28  1  0  0  0  0
  5 29  1  0  0  0  0
  6 17  1  0  0  0  0
  6  7  1  0  0  0  0
  6 50  1  0  0  0  0
  7  8  1  0  0  0  0
  7 30  1  0  0  0  0
  7 31  1  0  0  0  0
  8  9  1  0  0  0  0
  8 32  1  0  0  0  0
  8 33  1  0  0  0  0
  9 10  1  0  0  0  0
  9 16  1  0  0  0  0
 10 11  2  0  0  0  0
 10 12  1  0  0  0  0
 12 15  1  0  0  0  0
 12 13  1  0  0  0  0
 12 34  1  0  0  0  0
 13 14  1  0  0  0  0
 13 35  1  0  0  0  0
 13 36  1  0  0  0  0
 14 15  1  0  0  0  0
 14 37  1  0  0  0  0
 14 38  1  0  0  0  0
 15 39  1  0  0  0  0
 15 40  1  0  0  0  0
 16 17  1  0  0  0  0
 16 41  1  0  0  0  0
 16 42  1  0  0  0  0
 17 43  1  0  0  0  0
 17 44  1  0  0  0  0
 18 19  1  0  0  0  0
 18 45  1  0  0  0  0
 19 24  1  0  0  0  0
 19 20  2  0  0  0  0
 20 21  1  0  0  0  0
 20 46  1  0  0  0  0
 21 22  2  0  0  0  0
 21 47  1  0  0  0  0
 22 23  1  0  0  0  0
 22 48  1  0  0  0  0
 23 24  2  0  0  0  0
 23 49  1  0  0  0  0
M  CHG  1   6   1
M  END
> <s_m_source_file>
AV-unprocessed.smi

> <i_m_source_file_index>
2645

> <i_lp_mmshare_version>
43012

> <i_f3d_flags>
0

> <s_epik_input>
bjFbY0hdW2NIXVtjSF1bY0hdYzFbTkhdQyg9TylbTkhdW0NIMl1bQ0gyXU4yW0NIMl1bQ0gyXU4oW0NIMl1bQ0gyXTIpQyg9TylbQ0hdM1tDSDJdW0NIMl1bQ0gyXTM=

> <s_epik_cmdline>
J2VwaWtfcHl0aG9uJywgJy1waCcsICc3LjAnLCAnLXRuJywgJzgnLCAnLW1hJywgJzIwMCcsICctbWV0YWxfYmluZGluZycsICctaW1hZScsICc8aW5maWxlLm1hZT4nLCAnLW9tYWUnLCAnPG91dGZpbGUubWFlPic=

> <r_epik_Ionization_Penalty>
0.58203

> <r_epik_Ionization_Penalty_Charging>
0.581996

> <r_epik_Ionization_Penalty_Neutral>
3.43439e-05

> <r_epik_State_Penalty>
0.594836

> <r_epik_Charging_Adjusted_Penalty>
1.17683

> <i_epik_Tot_Q>
1

> <i_epik_Tot_abs_Q>
1

> <r_epik_Metal_State_Penalty>
0.594839

> <b_epik_Metal_Only>
0

> <s_lp_Force_Field>
OPLS_2005

> <r_lp_Energy>
52.325

> <b_lp_Chiralities_Consistent>
1

> <s_lp_Variant>
AV-unprocessed.smi:2645-2

> <Gold.Version>
5.8.1

> <Gold.Id.Protein>
6NUR|6NUR_protein|mol2

> <Gold.PLP.Fitness>
53.6210

> <Gold.PLP.PLP>
-39.7271

> <Gold.PLP.part.hbond>
-3.0768

> <Gold.PLP.part.metal>
0.0000

> <Gold.PLP.part.buried>
-5.0128

> <Gold.PLP.part.nonpolar>
-32.6249

> <Gold.PLP.part.repulsive>
0.3453

> <Gold.PLP.ligand.clash>
0.0000

> <Gold.PLP.ligand.torsion>
0.5292

> <Gold.PLP.Chemscore.Hbond>
3.8424

> <Gold.PLP.Chemscore.CHOScore>
1.0000

> <Gold.PLP.Chemscore.Metal>
0.0000

> <Gold.Chemscore.Hbonds>
donor molecule, donor type, donor heavy atom, donor atom, acceptor molecule, acceptor atom, score
      L1  H     3    25       P1  7948  1.00
      L1  H     6    50       P1  7948  1.98
      L1  H    18    45       P1  7948  0.79
      L1  C    23    49       P1 10186  1.00

> <Gold.PLP.Chemscore.Internal.Correction>
0.4251

> <Gold.Rescore>
     Score         DG    S(hbond)    S(metal)    S(lipo)     H(rot)  DE(clash)    DE(int)     intcor
     16.83     -18.84       1.98        0.00      96.78       1.79       0.04       1.97       ----

> <Gold.Chemscore.Fitness>
16.8320

> <Gold.Chemscore.DG>
-18.8446

> <Gold.Chemscore.ZeroCoef>
-5.4800

> <Gold.Chemscore.Hbond>
1.9828

> <Gold.Chemscore.Metal>
0.0000

> <Gold.Chemscore.Lipo>
96.7761

> <Gold.Chemscore.Internal_Hbond>
0.0000

> <Gold.Chemscore.DEClash>
0.0378

> <Gold.Chemscore.DEInternal>
1.9748

> <Gold.Chemscore.Rot>
1.7894

> <Gold.Chemscore.Internal.Correction>
   9.000000E+99

> <Gold.Chemscore.Hbonds>
donor molecule, donor type, donor heavy atom, donor atom, acceptor molecule, acceptor atom, score
      L1  H     3    25       P1  7948  0.86
      L1  H     6    50       P1  7948  0.28
      L1  H    18    45       P1  7948  0.66

> <Gold.Chemscore.Hbond.Weighted>
-6.6225

> <Gold.Chemscore.Metal.Weighted>
-0.0000

> <Gold.Chemscore.Lipo.Weighted>
-11.3228

> <Gold.Chemscore.Internal_Hbond.Weighted>
0.0000

> <Gold.Chemscore.DEClash.Weighted>
0.0378

> <Gold.Chemscore.DEInternal.Weighted>
1.9748

> <Gold.Chemscore.Rot.Weighted>
4.5807

> <Gold.Chemscore.Internal.Correction.Weighted>
   9.000000E+99

> <Gold.Protein.RotatedTorsions>
[ 6907 6896 6895 6894 ] final -158.77 input  -60.11 | X-H torsion
[ 7974 7965 7964 7962 ] final   52.11 input  175.53 | X-H torsion
[ 8008 7997 7996 7995 ] final -172.54 input   59.86 | X-H torsion
[ 10167 10162 10161 10158 ] final  -11.63 input  -65.29 | X-H torsion
[ 10718 10713 10712 10709 ] final   -9.12 input   66.30 | X-H torsion
[ 10763 10752 10751 10750 ] final  143.01 input  -60.55 | X-H torsion
[ 11005 11000 10999 10996 ] final -142.58 input  -57.11 | X-H torsion

> <Gold.Protein.ActiveResidues>
 VAL166  LYS551  ARG553  GLY616  TRP617  ASP618  TYR619  PRO620  LYS621  CYS622 
 ASP623  PHE694  ASN695  SER759  ASP760  ASP761  ALA762  ILE779  LEU786  VAL792 
 PHE793  MET794  SER795  GLU796  ALA797  LYS798  CYS799  TRP800  GLU811  SER814 

> <Gold.Protein.RotatedAtoms>
  151.3232  133.4031  159.2656 H   0  0  0  0  0  0  0  0  0  0  0  0  # atno 6907 bound_to 6896
  151.0017  134.9328  159.7968 H   0  0  0  0  0  0  0  0  0  0  0  0  # atno 6908 bound_to 6896
  152.5277  134.3197  159.9196 H   0  0  0  0  0  0  0  0  0  0  0  0  # atno 6909 bound_to 6896
  145.9846  139.4277  143.0111 H   0  0  0  0  0  0  0  0  0  0  0  0  # atno 7974 bound_to 7965
  155.9459  140.1117  157.1017 H   0  0  0  0  0  0  0  0  0  0  0  0  # atno 8008 bound_to 7997
  154.4099  140.1210  156.5054 H   0  0  0  0  0  0  0  0  0  0  0  0  # atno 8009 bound_to 7997
  155.6904  140.3472  155.4893 H   0  0  0  0  0  0  0  0  0  0  0  0  # atno 8010 bound_to 7997
  140.7143  143.5619  150.9186 H   0  0  0  0  0  0  0  0  0  0  0  0  # atno 10167 bound_to 10162
  156.6926  130.5069  149.5939 H   0  0  0  0  0  0  0  0  0  0  0  0  # atno 10718 bound_to 10713
  153.9653  135.2956  155.3431 H   0  0  0  0  0  0  0  0  0  0  0  0  # atno 10763 bound_to 10752
  154.7352  135.5049  153.9033 H   0  0  0  0  0  0  0  0  0  0  0  0  # atno 10764 bound_to 10752
  153.0926  135.6712  153.9935 H   0  0  0  0  0  0  0  0  0  0  0  0  # atno 10765 bound_to 10752
  140.8211  134.2630  157.4900 H   0  0  0  0  0  0  0  0  0  0  0  0  # atno 11005 bound_to 11000
  145.7719  140.9893  143.1145 LP  0  0  0  0  0  0  0  0  0  0  0  0  # atno 17320 bound_to 7965
  144.6871  139.9458  143.7476 LP  0  0  0  0  0  0  0  0  0  0  0  0  # atno 17321 bound_to 7965
  139.9344  143.6455  152.3068 LP  0  0  0  0  0  0  0  0  0  0  0  0  # atno 17342 bound_to 10162
  139.6917  144.7646  151.1427 LP  0  0  0  0  0  0  0  0  0  0  0  0  # atno 17343 bound_to 10162
  156.1786  130.6484  151.0925 LP  0  0  0  0  0  0  0  0  0  0  0  0  # atno 17370 bound_to 10713
  157.7003  131.0778  150.6841 LP  0  0  0  0  0  0  0  0  0  0  0  0  # atno 17371 bound_to 10713
  139.8708  134.9536  156.4149 LP  0  0  0  0  0  0  0  0  0  0  0  0  # atno 17394 bound_to 11000
  140.9098  133.7720  155.9778 LP  0  0  0  0  0  0  0  0  0  0  0  0  # atno 17395 bound_to 11000

$$$$
