AV-unprocessed.smi:3215|AV-procd|sdf|12285|dock8
  -GOLD-   2272018123D 1   1.00000     0.00000
 Structure written by MMmdl.
 38 39  0  0  0  0  0  0  0  0  2 V2000
  146.6981  138.9893  152.4187 C   0  0  0  0  0  0  0  0  0  0  0  0
  147.7328  139.5102  153.3743 C   0  0  0  0  0  0  0  0  0  0  0  0
  148.7173  138.7694  154.0881 C   0  0  0  0  0  0  0  0  0  0  0  0
  149.4818  139.5337  154.8508 N   0  0  0  0  0  0  0  0  0  0  0  0
  149.0187  140.7853  154.6479 N   0  0  0  0  0  0  0  0  0  0  0  0
  149.6311  141.9059  155.3404 C   0  0  0  0  0  0  0  0  0  0  0  0
  149.4900  141.8067  156.8691 C   0  0  0  0  0  0  0  0  0  0  0  0
  149.9705  143.0337  157.5353 N   0  3  0  0  0  0  0  0  0  0  0  0
  151.4401  143.1781  157.5593 C   0  0  0  0  0  0  0  0  0  0  0  0
  152.0973  142.2551  158.5955 C   0  0  0  0  0  0  0  0  0  0  0  0
  152.4470  141.1205  158.2656 O   0  0  0  0  0  0  0  0  0  0  0  0
  152.2708  142.7230  159.8486 N   0  0  0  0  0  0  0  0  0  0  0  0
  152.8668  141.9375  160.9277 C   0  0  0  0  0  0  0  0  0  0  0  0
  152.6314  142.7440  162.2047 C   0  0  0  0  0  0  0  0  0  0  0  0
  152.5116  144.1814  161.7184 C   0  0  0  0  0  0  0  0  0  0  0  0
  151.8968  144.0548  160.3239 C   0  0  0  0  0  0  0  0  0  0  0  0
  147.9553  140.7986  153.7702 C   0  0  0  0  0  0  0  0  0  0  0  0
  146.7693  137.9087  152.2927 H   0  0  0  0  0  0  0  0  0  0  0  0
  146.8034  139.4352  151.4296 H   0  0  0  0  0  0  0  0  0  0  0  0
  145.6872  139.2064  152.7636 H   0  0  0  0  0  0  0  0  0  0  0  0
  148.8978  137.7047  154.0740 H   0  0  0  0  0  0  0  0  0  0  0  0
  150.6844  141.9571  155.0613 H   0  0  0  0  0  0  0  0  0  0  0  0
  149.1669  142.8248  154.9800 H   0  0  0  0  0  0  0  0  0  0  0  0
  148.4433  141.6463  157.1297 H   0  0  0  0  0  0  0  0  0  0  0  0
  150.0456  140.9468  157.2462 H   0  0  0  0  0  0  0  0  0  0  0  0
  149.5836  143.8316  157.0508 H   0  0  0  0  0  0  0  0  0  0  0  0
  151.8346  142.9501  156.5683 H   0  0  0  0  0  0  0  0  0  0  0  0
  151.6931  144.2140  157.7892 H   0  0  0  0  0  0  0  0  0  0  0  0
  152.4288  140.9408  161.0024 H   0  0  0  0  0  0  0  0  0  0  0  0
  153.9351  141.8254  160.7369 H   0  0  0  0  0  0  0  0  0  0  0  0
  151.6912  142.4353  162.6637 H   0  0  0  0  0  0  0  0  0  0  0  0
  153.4229  142.6098  162.9426 H   0  0  0  0  0  0  0  0  0  0  0  0
  151.9200  144.8070  162.3875 H   0  0  0  0  0  0  0  0  0  0  0  0
  153.5064  144.6223  161.6408 H   0  0  0  0  0  0  0  0  0  0  0  0
  152.2547  144.8491  159.6676 H   0  0  0  0  0  0  0  0  0  0  0  0
  150.8092  144.1210  160.3802 H   0  0  0  0  0  0  0  0  0  0  0  0
  147.4518  141.7146  153.4972 H   0  0  0  0  0  0  0  0  0  0  0  0
  149.6329  143.0434  158.4873 H   0  0  0  0  0  0  0  0  0  0  0  0
  1  2  1  0  0  0  0
  1 18  1  0  0  0  0
  1 19  1  0  0  0  0
  1 20  1  0  0  0  0
  2 17  2  0  0  0  0
  2  3  1  0  0  0  0
  3  4  2  0  0  0  0
  3 21  1  0  0  0  0
  4  5  1  0  0  0  0
  5  6  1  0  0  0  0
  5 17  1  0  0  0  0
  6  7  1  0  0  0  0
  6 22  1  0  0  0  0
  6 23  1  0  0  0  0
  7  8  1  0  0  0  0
  7 24  1  0  0  0  0
  7 25  1  0  0  0  0
  8  9  1  0  0  0  0
  8 26  1  0  0  0  0
  8 38  1  0  0  0  0
  9 10  1  0  0  0  0
  9 27  1  0  0  0  0
  9 28  1  0  0  0  0
 10 11  2  0  0  0  0
 10 12  1  0  0  0  0
 12 16  1  0  0  0  0
 12 13  1  0  0  0  0
 13 14  1  0  0  0  0
 13 29  1  0  0  0  0
 13 30  1  0  0  0  0
 14 15  1  0  0  0  0
 14 31  1  0  0  0  0
 14 32  1  0  0  0  0
 15 16  1  0  0  0  0
 15 33  1  0  0  0  0
 15 34  1  0  0  0  0
 16 35  1  0  0  0  0
 16 36  1  0  0  0  0
 17 37  1  0  0  0  0
M  CHG  1   8   1
M  END
> <s_m_source_file>
AV-unprocessed.smi

> <i_m_source_file_index>
3215

> <i_lp_mmshare_version>
43012

> <i_f3d_flags>
0

> <s_epik_input>
W0NIM11jMVtjSF1ubihbY0hdMSlbQ0gyXVtDSDJdW05IXVtDSDJdQyg9TylOMltDSDJdW0NIMl1bQ0gyXVtDSDJdMg==

> <s_epik_cmdline>
J2VwaWtfcHl0aG9uJywgJy1waCcsICc3LjAnLCAnLXRuJywgJzgnLCAnLW1hJywgJzIwMCcsICctbWV0YWxfYmluZGluZycsICctaW1hZScsICc8aW5maWxlLm1hZT4nLCAnLW9tYWUnLCAnPG91dGZpbGUubWFlPic=

> <r_lp_tautomer_probability>
1

> <r_epik_Ionization_Penalty>
0.203173

> <r_epik_Ionization_Penalty_Charging>
0.203168

> <r_epik_Ionization_Penalty_Neutral>
4.79177e-06

> <r_epik_State_Penalty>
0.193773

> <r_epik_Charging_Adjusted_Penalty>
0.396942

> <i_epik_Tot_Q>
1

> <i_epik_Tot_abs_Q>
1

> <r_epik_Metal_State_Penalty>
0.194058

> <b_epik_Metal_Only>
0

> <s_lp_Force_Field>
OPLS_2005

> <r_lp_Energy>
25.9096

> <b_lp_Chiralities_Consistent>
1

> <s_lp_Variant>
AV-unprocessed.smi:3215-1

> <Gold.Version>
5.8.1

> <Gold.Id.Protein>
6NUR|6NUR_protein|mol2

> <Gold.PLP.Fitness>
45.9627

> <Gold.PLP.PLP>
-38.2423

> <Gold.PLP.part.hbond>
-1.0444

> <Gold.PLP.part.metal>
0.0000

> <Gold.PLP.part.buried>
1.7319

> <Gold.PLP.part.nonpolar>
-37.5649

> <Gold.PLP.part.repulsive>
0.1265

> <Gold.PLP.ligand.clash>
0.0000

> <Gold.PLP.ligand.torsion>
0.5041

> <Gold.PLP.Chemscore.Hbond>
2.0000

> <Gold.PLP.Chemscore.CHOScore>
0.8998

> <Gold.PLP.Chemscore.Metal>
0.0000

> <Gold.Chemscore.Hbonds>
donor molecule, donor type, donor heavy atom, donor atom, acceptor molecule, acceptor atom, score
      L1  H     8    26       P1  8028  2.00
      L1  C     3    21       P1  7948  0.63

> <Gold.PLP.Chemscore.Internal.Correction>
0.0290

> <Gold.Rescore>
     Score         DG    S(hbond)    S(metal)    S(lipo)     H(rot)  DE(clash)    DE(int)     intcor
     14.88     -15.52       0.98        0.00      97.49       1.81       0.11       0.53       ----

> <Gold.Chemscore.Fitness>
14.8787

> <Gold.Chemscore.DG>
-15.5188

> <Gold.Chemscore.ZeroCoef>
-5.4800

> <Gold.Chemscore.Hbond>
0.9807

> <Gold.Chemscore.Metal>
0.0000

> <Gold.Chemscore.Lipo>
97.4895

> <Gold.Chemscore.Internal_Hbond>
0.0000

> <Gold.Chemscore.DEClash>
0.1112

> <Gold.Chemscore.DEInternal>
0.5289

> <Gold.Chemscore.Rot>
1.8137

> <Gold.Chemscore.Internal.Correction>
   9.000000E+99

> <Gold.Chemscore.Hbonds>
donor molecule, donor type, donor heavy atom, donor atom, acceptor molecule, acceptor atom, score
      L1  H     8    26       P1  8028  0.81

> <Gold.Chemscore.Hbond.Weighted>
-3.2756

> <Gold.Chemscore.Metal.Weighted>
-0.0000

> <Gold.Chemscore.Lipo.Weighted>
-11.4063

> <Gold.Chemscore.Internal_Hbond.Weighted>
0.0000

> <Gold.Chemscore.DEClash.Weighted>
0.1112

> <Gold.Chemscore.DEInternal.Weighted>
0.5289

> <Gold.Chemscore.Rot.Weighted>
4.6431

> <Gold.Chemscore.Internal.Correction.Weighted>
   9.000000E+99

> <Gold.Protein.RotatedTorsions>
[ 6907 6896 6895 6894 ] final  -23.12 input  -60.11 | X-H torsion
[ 7974 7965 7964 7962 ] final  -82.53 input  175.53 | X-H torsion
[ 8008 7997 7996 7995 ] final  -82.66 input   59.86 | X-H torsion
[ 10167 10162 10161 10158 ] final   15.39 input  -65.29 | X-H torsion
[ 10718 10713 10712 10709 ] final  122.65 input   66.30 | X-H torsion
[ 10763 10752 10751 10750 ] final   70.42 input  -60.55 | X-H torsion
[ 11005 11000 10999 10996 ] final  -63.57 input  -57.11 | X-H torsion

> <Gold.Protein.ActiveResidues>
 VAL166  LYS551  ARG553  GLY616  TRP617  ASP618  TYR619  PRO620  LYS621  CYS622 
 ASP623  PHE694  ASN695  SER759  ASP760  ASP761  ALA762  ILE779  LEU786  VAL792 
 PHE793  MET794  SER795  GLU796  ALA797  LYS798  CYS799  TRP800  GLU811  SER814 

> <Gold.Protein.RotatedAtoms>
  151.2086  135.0472  159.8901 H   0  0  0  0  0  0  0  0  0  0  0  0  # atno 6907 bound_to 6896
  152.5426  134.0770  159.8229 H   0  0  0  0  0  0  0  0  0  0  0  0  # atno 6908 bound_to 6896
  151.0920  133.5261  159.2646 H   0  0  0  0  0  0  0  0  0  0  0  0  # atno 6909 bound_to 6896
  145.5321  140.9520  143.1597 H   0  0  0  0  0  0  0  0  0  0  0  0  # atno 7974 bound_to 7965
  154.6109  140.0630  156.9492 H   0  0  0  0  0  0  0  0  0  0  0  0  # atno 8008 bound_to 7997
  155.1975  140.3312  155.4330 H   0  0  0  0  0  0  0  0  0  0  0  0  # atno 8009 bound_to 7997
  156.2376  140.1870  156.7061 H   0  0  0  0  0  0  0  0  0  0  0  0  # atno 8010 bound_to 7997
  140.5870  143.8869  150.6839 H   0  0  0  0  0  0  0  0  0  0  0  0  # atno 10167 bound_to 10162
  157.5726  131.1082  150.8339 H   0  0  0  0  0  0  0  0  0  0  0  0  # atno 10718 bound_to 10713
  153.0341  135.5174  154.7439 H   0  0  0  0  0  0  0  0  0  0  0  0  # atno 10763 bound_to 10752
  154.6430  135.2915  155.0083 H   0  0  0  0  0  0  0  0  0  0  0  0  # atno 10764 bound_to 10752
  154.0994  135.6638  153.4918 H   0  0  0  0  0  0  0  0  0  0  0  0  # atno 10765 bound_to 10752
  141.1397  133.6653  156.5700 H   0  0  0  0  0  0  0  0  0  0  0  0  # atno 11005 bound_to 11000
  144.7620  139.6933  143.7230 LP  0  0  0  0  0  0  0  0  0  0  0  0  # atno 17320 bound_to 7965
  146.2037  139.5348  142.9726 LP  0  0  0  0  0  0  0  0  0  0  0  0  # atno 17321 bound_to 7965
  140.2383  143.3683  152.1508 LP  0  0  0  0  0  0  0  0  0  0  0  0  # atno 17342 bound_to 10162
  139.5204  144.7032  151.5431 LP  0  0  0  0  0  0  0  0  0  0  0  0  # atno 17343 bound_to 10162
  156.8807  130.5178  149.5291 LP  0  0  0  0  0  0  0  0  0  0  0  0  # atno 17370 bound_to 10713
  156.0771  130.5790  150.9493 LP  0  0  0  0  0  0  0  0  0  0  0  0  # atno 17371 bound_to 10713
  140.3921  134.7431  157.4728 LP  0  0  0  0  0  0  0  0  0  0  0  0  # atno 17394 bound_to 11000
  140.0559  134.6065  155.8806 LP  0  0  0  0  0  0  0  0  0  0  0  0  # atno 17395 bound_to 11000

$$$$
