#       Name:                AV-unprocessed.smi:1809
#       Creating user name   scv26
#       Creation time:       Fri Mar 27 08:57:15 2020


#       File generated by GOLD software.
#

@<TRIPOS>MOLECULE
AV-unprocessed.smi:1809
    46    48     1
SMALL
NO_CHARGES


@<TRIPOS>ATOM
      1 ****        -8.0759   2.3513   0.4350 C.3            1 S1                 0.0000
      2 ****        -6.7141   1.7455   0.4527 C.2            1 S1                 0.0000
      3 ****        -6.4843   0.4698   0.1181 N.2            1 S1                 0.0000
      4 ****        -5.1409   0.1346   0.2136 N.2            1 S1                 0.0000
      5 ****        -4.3943   1.1718   0.6171 C.2            1 S1                 0.0000
      6 ****        -2.9877   1.1062   0.8016 N.am           1 S1                 0.0000
      7 ****        -2.1797   0.0405   0.6630 C.2            1 S1                 0.0000
      8 ****        -2.5404  -1.0904   0.3363 O.2            1 S1                 0.0000
      9 ****        -0.9043   0.3562   0.9307 N.am           1 S1                 0.0000
     10 ****         0.2111  -0.5835   0.8880 C.3            1 S1                 0.0000
     11 ****         0.6689  -0.8750  -0.5593 C.3            1 S1                 0.0000
     12 ****         1.7967  -1.9330  -0.6321 C.3            1 S1                 0.0000
     13 ****         3.0661  -1.3158  -0.2055 N.4            1 S1                 1.0000
     14 ****         4.2767  -2.1547  -0.1943 C.3            1 S1                 0.0000
     15 ****         5.4482  -1.1594  -0.3110 C.3            1 S1                 0.0000
     16 ****         4.8052   0.2140  -0.5763 C.3            1 S1                 0.0000
     17 ****         3.3900  -0.1434  -1.0207 C.3            1 S1                 0.0000
     18 ****         2.2915   0.9104  -0.8409 C.3            1 S1                 0.0000
     19 ****         1.0493   0.3281  -1.2464 O.3            1 S1                 0.0000
     20 ****        -5.2811   2.6582   0.9103 S.3            1 S1                 0.0000
     21 ****        -8.8416   1.5751   0.4642 H              1 S1                 0.0000
     22 ****        -8.2088   2.9406  -0.4723 H              1 S1                 0.0000
     23 ****        -8.2080   3.0021   1.2994 H              1 S1                 0.0000
     24 ****        -2.5486   1.9697   1.0845 H              1 S1                 0.0000
     25 ****        -0.6917   1.3084   1.1908 H              1 S1                 0.0000
     26 ****         1.0263  -0.1751   1.4845 H              1 S1                 0.0000
     27 ****        -0.0811  -1.5122   1.3811 H              1 S1                 0.0000
     28 ****        -0.1861  -1.2811  -1.1007 H              1 S1                 0.0000
     29 ****         1.5660  -2.7932  -0.0028 H              1 S1                 0.0000
     30 ****         1.8978  -2.3019  -1.6539 H              1 S1                 0.0000
     31 ****         4.3269  -2.7587   0.7120 H              1 S1                 0.0000
     32 ****         4.2709  -2.8283  -1.0531 H              1 S1                 0.0000
     33 ****         6.0493  -1.1369   0.5988 H              1 S1                 0.0000
     34 ****         6.1060  -1.4470  -1.1318 H              1 S1                 0.0000
     35 ****         4.7756   0.7933   0.3478 H              1 S1                 0.0000
     36 ****         5.3458   0.7975  -1.3223 H              1 S1                 0.0000
     37 ****         3.4255  -0.4463  -2.0696 H              1 S1                 0.0000
     38 ****         2.2394   1.2628   0.1895 H              1 S1                 0.0000
     39 ****         2.4945   1.7807  -1.4650 H              1 S1                 0.0000
     40 ****         2.9392  -0.9826   0.7394 H              1 S1                 0.0000
     41 ****        -7.1988  -0.1686  -0.1680 LP             1 S1                 0.0000
     42 ****        -4.7740  -0.7722   0.0062 LP             1 S1                 0.0000
     43 ****        -3.5057  -1.2729   0.1498 LP             1 S1                 0.0000
     44 ****        -1.8680  -1.8264   0.2574 LP             1 S1                 0.0000
     45 ****         0.3297   1.0066  -1.0985 LP             1 S1                 0.0000
     46 ****         1.1133   0.1173  -2.2218 LP             1 S1                 0.0000
@<TRIPOS>BOND
    1    1    2 1     
    2    1   21 1     
    3    1   22 1     
    4    1   23 1     
    5    2   20 1     
    6    2    3 2     
    7    3    4 1     
    8    4    5 2     
    9    5    6 1     
   10    5   20 1     
   11    6    7 am    
   12    6   24 1     
   13    7    8 2     
   14    7    9 am    
   15    9   10 1     
   16    9   25 1     
   17   10   11 1     
   18   10   26 1     
   19   10   27 1     
   20   11   19 1     
   21   11   12 1     
   22   11   28 1     
   23   12   13 1     
   24   12   29 1     
   25   12   30 1     
   26   13   17 1     
   27   13   14 1     
   28   13   40 1     
   29   14   15 1     
   30   14   31 1     
   31   14   32 1     
   32   15   16 1     
   33   15   33 1     
   34   15   34 1     
   35   16   17 1     
   36   16   35 1     
   37   16   36 1     
   38   17   18 1     
   39   17   37 1     
   40   18   19 1     
   41   18   38 1     
   42   18   39 1     
   43    3   41 1     
   44    4   42 1     
   45    8   43 1     
   46    8   44 1     
   47   19   45 1     
   48   19   46 1     
@<TRIPOS>SUBSTRUCTURE
      1 S1             1
@<TRIPOS>SET
LONE_PAIRS      STATIC     ATOMS    <user>   **** ""
6 41 42 43 44 45 46
DONOR_HYDROGENS      STATIC     ATOMS    <user>   **** ""
3 24 25 40
ATOM$BLUE        STATIC     ATOMS    COLORGROUP SYSTEM
6 41 42 43 44 45 46
ATOM$RED        STATIC     ATOMS    COLORGROUP SYSTEM
3 24 25 40
