AV-unprocessed.smi:1430|AV-procd|sdf|5825|dock7
  -GOLD-   22720 5483D 1   1.00000     0.00000
 Structure written by MMmdl.
 47 48  0  0  0  0  0  0  0  0  2 V2000
  152.7072  141.6035  159.2383 C   0  0  0  0  0  0  0  0  0  0  0  0
  153.0772  140.5547  158.3501 O   0  0  0  0  0  0  0  0  0  0  0  0
  152.2038  140.2147  157.3374 C   0  0  0  0  0  0  0  0  0  0  0  0
  150.8531  140.5984  157.4546 C   0  0  0  0  0  0  0  0  0  0  0  0
  149.9550  140.2558  156.4258 C   0  0  0  0  0  0  0  0  0  0  0  0
  150.4403  139.5425  155.3034 C   0  0  0  0  0  0  0  0  0  0  0  0
  149.6367  139.1190  154.2101 N   0  0  0  0  0  0  0  0  0  0  0  0
  148.3928  139.5072  153.8818 C   0  0  0  0  0  0  0  0  0  0  0  0
  147.7346  140.3662  154.4668 O   0  0  0  0  0  0  0  0  0  0  0  0
  147.9432  138.8373  152.8111 N   0  0  0  0  0  0  0  0  0  0  0  0
  146.6332  139.0211  152.1894 C   0  0  0  0  0  0  0  0  0  0  0  0
  146.3108  137.9640  151.1099 C   0  0  0  0  0  0  0  0  0  0  0  0
  146.0673  136.6100  151.6687 N   0  3  1  0  0  0  0  0  0  0  0  0
  145.3692  136.6481  152.9744 C   0  0  0  0  0  0  0  0  0  0  0  0
  145.2165  135.2245  153.5424 C   0  0  1  0  0  0  0  0  0  0  0  0
  144.4308  135.2082  154.8581 C   0  0  0  0  0  0  0  0  0  0  0  0
  144.5204  134.4190  152.5970 O   0  0  0  0  0  0  0  0  0  0  0  0
  145.2149  134.3004  151.3597 C   0  0  1  0  0  0  0  0  0  0  0  0
  144.4267  133.3450  150.4570 C   0  0  0  0  0  0  0  0  0  0  0  0
  145.3675  135.6987  150.7322 C   0  0  0  0  0  0  0  0  0  0  0  0
  151.8072  139.1956  155.2887 C   0  0  0  0  0  0  0  0  0  0  0  0
  152.6729  139.5208  156.2712 N   0  0  0  0  0  0  0  0  0  0  0  0
  153.4956  141.7446  159.9774 H   0  0  0  0  0  0  0  0  0  0  0  0
  151.7886  141.3647  159.7764 H   0  0  0  0  0  0  0  0  0  0  0  0
  152.5768  142.5483  158.7090 H   0  0  0  0  0  0  0  0  0  0  0  0
  150.5102  141.1429  158.3221 H   0  0  0  0  0  0  0  0  0  0  0  0
  148.9179  140.5335  156.5287 H   0  0  0  0  0  0  0  0  0  0  0  0
  150.0788  138.4650  153.5809 H   0  0  0  0  0  0  0  0  0  0  0  0
  148.5583  138.1603  152.3833 H   0  0  0  0  0  0  0  0  0  0  0  0
  145.8579  139.0213  152.9570 H   0  0  0  0  0  0  0  0  0  0  0  0
  146.6173  140.0174  151.7474 H   0  0  0  0  0  0  0  0  0  0  0  0
  145.4147  138.2857  150.5780 H   0  0  0  0  0  0  0  0  0  0  0  0
  147.1050  137.9258  150.3630 H   0  0  0  0  0  0  0  0  0  0  0  0
  145.9344  137.2644  153.6749 H   0  0  0  0  0  0  0  0  0  0  0  0
  144.3909  137.1158  152.8509 H   0  0  0  0  0  0  0  0  0  0  0  0
  146.2029  134.7934  153.7232 H   0  0  0  0  0  0  0  0  0  0  0  0
  144.9305  135.8054  155.6211 H   0  0  0  0  0  0  0  0  0  0  0  0
  144.3350  134.1923  155.2422 H   0  0  0  0  0  0  0  0  0  0  0  0
  143.4258  135.6093  154.7237 H   0  0  0  0  0  0  0  0  0  0  0  0
  146.2014  133.8701  151.5415 H   0  0  0  0  0  0  0  0  0  0  0  0
  144.9221  133.2150  149.4945 H   0  0  0  0  0  0  0  0  0  0  0  0
  143.4206  133.7204  150.2675 H   0  0  0  0  0  0  0  0  0  0  0  0
  144.3334  132.3610  150.9172 H   0  0  0  0  0  0  0  0  0  0  0  0
  144.3878  136.1116  150.4856 H   0  0  0  0  0  0  0  0  0  0  0  0
  145.9261  135.6191  149.7997 H   0  0  0  0  0  0  0  0  0  0  0  0
  152.2229  138.6404  154.4603 H   0  0  0  0  0  0  0  0  0  0  0  0
  146.9768  136.2088  151.8478 H   0  0  0  0  0  0  0  0  0  0  0  0
  1  2  1  0  0  0  0
  1 23  1  0  0  0  0
  1 24  1  0  0  0  0
  1 25  1  0  0  0  0
  2  3  1  0  0  0  0
  3 22  1  0  0  0  0
  3  4  2  0  0  0  0
  4  5  1  0  0  0  0
  4 26  1  0  0  0  0
  5  6  2  0  0  0  0
  5 27  1  0  0  0  0
  6  7  1  0  0  0  0
  6 21  1  0  0  0  0
  7  8  1  0  0  0  0
  7 28  1  0  0  0  0
  8  9  2  0  0  0  0
  8 10  1  0  0  0  0
 10 11  1  0  0  0  0
 10 29  1  0  0  0  0
 11 12  1  0  0  0  0
 11 30  1  0  0  0  0
 11 31  1  0  0  0  0
 12 13  1  0  0  0  0
 12 32  1  0  0  0  0
 12 33  1  0  0  0  0
 13 20  1  0  0  0  0
 13 14  1  0  0  0  0
 13 47  1  0  0  0  0
 14 15  1  0  0  0  0
 14 34  1  0  0  0  0
 14 35  1  0  0  0  0
 15 16  1  0  0  0  0
 15 17  1  0  0  0  0
 15 36  1  0  0  0  0
 16 37  1  0  0  0  0
 16 38  1  0  0  0  0
 16 39  1  0  0  0  0
 17 18  1  0  0  0  0
 18 19  1  0  0  0  0
 18 20  1  0  0  0  0
 18 40  1  0  0  0  0
 19 41  1  0  0  0  0
 19 42  1  0  0  0  0
 19 43  1  0  0  0  0
 20 44  1  0  0  0  0
 20 45  1  0  0  0  0
 21 22  2  0  0  0  0
 21 46  1  0  0  0  0
M  CHG  1  13   1
M  END
> <s_m_source_file>
AV-unprocessed.smi

> <i_m_source_file_index>
1430

> <i_lp_mmshare_version>
43012

> <i_f3d_flags>
0

> <s_epik_input>
W0NIM11PYzFbY0hdW2NIXWMoW2NIXW4xKVtOSF1DKD1PKVtOSF1bQ0gyXVtDSDJdTjJbQ0gyXVtDQEBIXShbQ0gzXSlPW0NAQEhdKFtDSDNdKVtDSDJdMg==

> <s_epik_cmdline>
J2VwaWtfcHl0aG9uJywgJy1waCcsICc3LjAnLCAnLXRuJywgJzgnLCAnLW1hJywgJzIwMCcsICctbWV0YWxfYmluZGluZycsICctaW1hZScsICc8aW5maWxlLm1hZT4nLCAnLW9tYWUnLCAnPG91dGZpbGUubWFlPic=

> <r_lp_tautomer_probability>
1

> <r_epik_Ionization_Penalty>
0.602607

> <r_epik_Ionization_Penalty_Charging>
0.602531

> <r_epik_Ionization_Penalty_Neutral>
7.66983e-05

> <r_epik_State_Penalty>
0.617039

> <r_epik_Charging_Adjusted_Penalty>
1.21957

> <i_epik_Tot_Q>
1

> <i_epik_Tot_abs_Q>
1

> <r_epik_Metal_State_Penalty>
0.617043

> <b_epik_Metal_Only>
0

> <s_lp_Force_Field>
OPLS_2005

> <r_lp_Energy>
23.5338

> <b_lp_Chiralities_Consistent>
1

> <s_lp_Variant>
AV-unprocessed.smi:1430-4

> <Gold.Version>
5.8.1

> <Gold.Id.Protein>
6NUR|6NUR_protein|mol2

> <Gold.PLP.Fitness>
43.9238

> <Gold.PLP.PLP>
-33.0380

> <Gold.PLP.part.hbond>
-5.4546

> <Gold.PLP.part.metal>
0.0000

> <Gold.PLP.part.buried>
1.0859

> <Gold.PLP.part.nonpolar>
-29.3337

> <Gold.PLP.part.repulsive>
0.3787

> <Gold.PLP.ligand.clash>
0.0000

> <Gold.PLP.ligand.torsion>
0.5774

> <Gold.PLP.Chemscore.Hbond>
4.0000

> <Gold.PLP.Chemscore.CHOScore>
0.0000

> <Gold.PLP.Chemscore.Metal>
0.0000

> <Gold.Chemscore.Hbonds>
donor molecule, donor type, donor heavy atom, donor atom, acceptor molecule, acceptor atom, score
      L1  H    10    29       P1  7948  1.00
      L1  H    13    47       P1  7948  2.00
      P1  H  7997  8008       L1    22  1.00

> <Gold.PLP.Chemscore.Internal.Correction>
0.0407

> <Gold.Rescore>
     Score         DG    S(hbond)    S(metal)    S(lipo)     H(rot)  DE(clash)    DE(int)     intcor
     16.78     -19.37       2.80        0.00      77.20       1.76       1.16       1.43       ----

> <Gold.Chemscore.Fitness>
16.7785

> <Gold.Chemscore.DG>
-19.3732

> <Gold.Chemscore.ZeroCoef>
-5.4800

> <Gold.Chemscore.Hbond>
2.8048

> <Gold.Chemscore.Metal>
0.0000

> <Gold.Chemscore.Lipo>
77.1993

> <Gold.Chemscore.Internal_Hbond>
0.0000

> <Gold.Chemscore.DEClash>
1.1639

> <Gold.Chemscore.DEInternal>
1.4308

> <Gold.Chemscore.Rot>
1.7606

> <Gold.Chemscore.Internal.Correction>
   9.000000E+99

> <Gold.Chemscore.Hbonds>
donor molecule, donor type, donor heavy atom, donor atom, acceptor molecule, acceptor atom, score
      L1  H    10    29       P1  7948  0.92
      L1  H    13    47       P1  7948  0.97
      P1  H  7997  8008       L1    22  0.34

> <Gold.Chemscore.Hbond.Weighted>
-9.3681

> <Gold.Chemscore.Metal.Weighted>
-0.0000

> <Gold.Chemscore.Lipo.Weighted>
-9.0323

> <Gold.Chemscore.Internal_Hbond.Weighted>
0.0000

> <Gold.Chemscore.DEClash.Weighted>
1.1639

> <Gold.Chemscore.DEInternal.Weighted>
1.4308

> <Gold.Chemscore.Rot.Weighted>
4.5072

> <Gold.Chemscore.Internal.Correction.Weighted>
   9.000000E+99

> <Gold.Protein.RotatedTorsions>
[ 6907 6896 6895 6894 ] final   15.40 input  -60.11 | X-H torsion
[ 7974 7965 7964 7962 ] final  115.41 input  175.53 | X-H torsion
[ 8008 7997 7996 7995 ] final  -29.63 input   59.86 | X-H torsion
[ 10167 10162 10161 10158 ] final  168.85 input  -65.29 | X-H torsion
[ 10718 10713 10712 10709 ] final -169.07 input   66.30 | X-H torsion
[ 10763 10752 10751 10750 ] final  152.09 input  -60.55 | X-H torsion
[ 11005 11000 10999 10996 ] final  135.83 input  -57.11 | X-H torsion

> <Gold.Protein.ActiveResidues>
 VAL166  LYS551  ARG553  GLY616  TRP617  ASP618  TYR619  PRO620  LYS621  CYS622 
 ASP623  PHE694  ASN695  SER759  ASP760  ASP761  ALA762  ILE779  LEU786  VAL792 
 PHE793  MET794  SER795  GLU796  ALA797  LYS798  CYS799  TRP800  GLU811  SER814 

> <Gold.Protein.RotatedAtoms>
  151.8175  135.0662  160.0420 H   0  0  0  0  0  0  0  0  0  0  0  0  # atno 6907 bound_to 6896
  152.2975  133.5618  159.5605 H   0  0  0  0  0  0  0  0  0  0  0  0  # atno 6908 bound_to 6896
  150.7258  134.0255  159.3758 H   0  0  0  0  0  0  0  0  0  0  0  0  # atno 6909 bound_to 6896
  145.1923  139.2994  143.4362 H   0  0  0  0  0  0  0  0  0  0  0  0  # atno 7974 bound_to 7965
  154.4282  140.1813  156.1278 H   0  0  0  0  0  0  0  0  0  0  0  0  # atno 8008 bound_to 7997
  156.0092  140.3352  155.6898 H   0  0  0  0  0  0  0  0  0  0  0  0  # atno 8009 bound_to 7997
  155.6135  140.0652  157.2690 H   0  0  0  0  0  0  0  0  0  0  0  0  # atno 8010 bound_to 7997
  139.4978  144.3770  151.9664 H   0  0  0  0  0  0  0  0  0  0  0  0  # atno 10167 bound_to 10162
  156.7062  130.9216  151.3085 H   0  0  0  0  0  0  0  0  0  0  0  0  # atno 10718 bound_to 10713
  154.1143  135.2837  155.3223 H   0  0  0  0  0  0  0  0  0  0  0  0  # atno 10763 bound_to 10752
  154.6468  135.5383  153.7857 H   0  0  0  0  0  0  0  0  0  0  0  0  # atno 10764 bound_to 10752
  153.0334  135.6500  154.1300 H   0  0  0  0  0  0  0  0  0  0  0  0  # atno 10765 bound_to 10752
  140.0005  134.9480  157.0062 H   0  0  0  0  0  0  0  0  0  0  0  0  # atno 11005 bound_to 11000
  146.3434  140.2139  142.8590 LP  0  0  0  0  0  0  0  0  0  0  0  0  # atno 17320 bound_to 7965
  145.0029  140.8648  143.5270 LP  0  0  0  0  0  0  0  0  0  0  0  0  # atno 17321 bound_to 7965
  140.3206  144.3432  150.6010 LP  0  0  0  0  0  0  0  0  0  0  0  0  # atno 17342 bound_to 10162
  140.5726  143.2179  151.7573 LP  0  0  0  0  0  0  0  0  0  0  0  0  # atno 17343 bound_to 10162
  157.6954  130.9276  150.0629 LP  0  0  0  0  0  0  0  0  0  0  0  0  # atno 17370 bound_to 10713
  156.1693  130.3646  149.9187 LP  0  0  0  0  0  0  0  0  0  0  0  0  # atno 17371 bound_to 10713
  140.4736  134.1361  155.7206 LP  0  0  0  0  0  0  0  0  0  0  0  0  # atno 17394 bound_to 11000
  141.1638  133.8741  157.1772 LP  0  0  0  0  0  0  0  0  0  0  0  0  # atno 17395 bound_to 11000

$$$$
