AV-unprocessed.smi:2932|AV-procd|sdf|11251|dock5
  -GOLD-   2272016143D 1   1.00000     0.00000
 Structure written by MMmdl.
 30 30  0  0  0  0  0  0  0  0  2 V2000
  154.4087  140.6464  160.8798 C   0  0  0  0  0  0  0  0  0  0  0  0
  153.4691  141.7074  160.3855 C   0  0  0  0  0  0  0  0  0  0  0  0
  153.0928  141.7190  159.1160 N   0  0  0  0  0  0  0  0  0  0  0  0
  152.2684  142.7907  158.9928 N   0  0  0  0  0  0  0  0  0  0  0  0
  151.6918  143.0893  157.6896 C   0  0  0  0  0  0  0  0  0  0  0  0
  151.0397  141.8541  157.0634 C   0  0  0  0  0  0  0  0  0  0  0  0
  151.4132  140.7294  157.3965 O   0  0  0  0  0  0  0  0  0  0  0  0
  150.0678  142.0774  156.1649 N   0  0  0  0  0  0  0  0  0  0  0  0
  149.2998  141.0550  155.4612 C   0  0  1  0  0  0  0  0  0  0  0  0
  148.2745  141.6990  154.5128 C   0  0  0  0  0  0  0  0  0  0  0  0
  150.2449  140.0704  154.7669 C   0  0  0  0  0  0  0  0  0  0  0  0
  151.4704  140.3121  154.8251 O   0  0  0  0  0  0  0  0  0  0  0  0
  149.7263  139.0899  154.1876 O   0  5  0  0  0  0  0  0  0  0  0  0
  152.1065  143.4664  160.1926 C   0  0  0  0  0  0  0  0  0  0  0  0
  151.2516  144.6832  160.3427 C   0  0  0  0  0  0  0  0  0  0  0  0
  152.8730  142.7848  161.0908 C   0  0  0  0  0  0  0  0  0  0  0  0
  153.0828  143.1619  162.7621 Cl  0  0  0  0  0  0  0  0  0  0  0  0
  148.7434  140.4807  156.2048 H   0  0  0  0  0  0  0  0  0  0  0  0
  154.3738  140.5615  161.9659 H   0  0  0  0  0  0  0  0  0  0  0  0
  155.4365  140.8741  160.5969 H   0  0  0  0  0  0  0  0  0  0  0  0
  154.1569  139.6700  160.4648 H   0  0  0  0  0  0  0  0  0  0  0  0
  150.9475  143.8809  157.7888 H   0  0  0  0  0  0  0  0  0  0  0  0
  152.4778  143.4715  157.0372 H   0  0  0  0  0  0  0  0  0  0  0  0
  149.8328  143.0361  155.9488 H   0  0  0  0  0  0  0  0  0  0  0  0
  147.7033  140.9390  153.9787 H   0  0  0  0  0  0  0  0  0  0  0  0
  148.7627  142.3315  153.7704 H   0  0  0  0  0  0  0  0  0  0  0  0
  147.5635  142.3183  155.0602 H   0  0  0  0  0  0  0  0  0  0  0  0
  151.1664  144.9770  161.3888 H   0  0  0  0  0  0  0  0  0  0  0  0
  150.2456  144.5025  159.9640 H   0  0  0  0  0  0  0  0  0  0  0  0
  151.6755  145.5237  159.7931 H   0  0  0  0  0  0  0  0  0  0  0  0
  1  2  1  0  0  0  0
  1 19  1  0  0  0  0
  1 20  1  0  0  0  0
  1 21  1  0  0  0  0
  2 16  1  0  0  0  0
  2  3  2  0  0  0  0
  3  4  1  0  0  0  0
  4  5  1  0  0  0  0
  4 14  1  0  0  0  0
  5  6  1  0  0  0  0
  5 22  1  0  0  0  0
  5 23  1  0  0  0  0
  6  7  2  0  0  0  0
  6  8  1  0  0  0  0
  8  9  1  0  0  0  0
  8 24  1  0  0  0  0
  9 18  1  0  0  0  0
  9 10  1  0  0  0  0
  9 11  1  0  0  0  0
 10 25  1  0  0  0  0
 10 26  1  0  0  0  0
 10 27  1  0  0  0  0
 11 12  2  0  0  0  0
 11 13  1  0  0  0  0
 14 15  1  0  0  0  0
 14 16  2  0  0  0  0
 15 28  1  0  0  0  0
 15 29  1  0  0  0  0
 15 30  1  0  0  0  0
 16 17  1  0  0  0  0
M  CHG  1  13  -1
M  END
> <s_m_source_file>
AV-unprocessed.smi

> <i_m_source_file_index>
2932

> <i_lp_mmshare_version>
43012

> <i_f3d_flags>
0

> <s_epik_input>
W0NIM11jMW5uKGMoW0NIM10pYzFDbClbQ0gyXUMoPU8pW05IXVtDQEhdKFtDSDNdKUMoPU8pW09IXQ==

> <s_epik_cmdline>
J2VwaWtfcHl0aG9uJywgJy1waCcsICc3LjAnLCAnLXRuJywgJzgnLCAnLW1hJywgJzIwMCcsICctbWV0YWxfYmluZGluZycsICctaW1hZScsICc8aW5maWxlLm1hZT4nLCAnLW9tYWUnLCAnPG91dGZpbGUubWFlPic=

> <r_lp_tautomer_probability>
1

> <r_epik_Ionization_Penalty>
0.000148999

> <r_epik_Ionization_Penalty_Charging>
0.000144005

> <r_epik_Ionization_Penalty_Neutral>
4.99331e-06

> <r_epik_State_Penalty>
-0

> <r_epik_Charging_Adjusted_Penalty>
0.000144005

> <i_epik_Tot_Q>
-1

> <i_epik_Tot_abs_Q>
1

> <r_epik_Metal_State_Penalty>
-0

> <b_epik_Metal_Only>
0

> <s_lp_Force_Field>
OPLS_2005

> <r_lp_Energy>
1.5608

> <b_lp_Chiralities_Consistent>
1

> <s_lp_Variant>
AV-unprocessed.smi:2932-2

> <Gold.Version>
5.8.1

> <Gold.Id.Protein>
6NUR|6NUR_protein|mol2

> <Gold.PLP.Fitness>
45.9346

> <Gold.PLP.PLP>
-40.8222

> <Gold.PLP.part.hbond>
-2.0000

> <Gold.PLP.part.metal>
0.0000

> <Gold.PLP.part.buried>
-5.7073

> <Gold.PLP.part.nonpolar>
-33.0217

> <Gold.PLP.part.repulsive>
0.3268

> <Gold.PLP.ligand.clash>
0.0000

> <Gold.PLP.ligand.torsion>
0.4760

> <Gold.PLP.Chemscore.Hbond>
2.0000

> <Gold.PLP.Chemscore.CHOScore>
0.0000

> <Gold.PLP.Chemscore.Metal>
0.0000

> <Gold.Chemscore.Hbonds>
donor molecule, donor type, donor heavy atom, donor atom, acceptor molecule, acceptor atom, score
      L1  H     8    24       P1  8028  1.00
      P1  H  7989  7998       L1    12  0.74

> <Gold.PLP.Chemscore.Internal.Correction>
0.0643

> <Gold.Rescore>
     Score         DG    S(hbond)    S(metal)    S(lipo)     H(rot)  DE(clash)    DE(int)     intcor
     11.16     -16.52       1.96        0.00      85.52       2.15       0.02       5.34       ----

> <Gold.Chemscore.Fitness>
11.1616

> <Gold.Chemscore.DG>
-16.5231

> <Gold.Chemscore.ZeroCoef>
-5.4800

> <Gold.Chemscore.Hbond>
1.9616

> <Gold.Chemscore.Metal>
0.0000

> <Gold.Chemscore.Lipo>
85.5208

> <Gold.Chemscore.Internal_Hbond>
0.0000

> <Gold.Chemscore.DEClash>
0.0237

> <Gold.Chemscore.DEInternal>
5.3378

> <Gold.Chemscore.Rot>
2.1542

> <Gold.Chemscore.Internal.Correction>
   9.000000E+99

> <Gold.Chemscore.Hbonds>
donor molecule, donor type, donor heavy atom, donor atom, acceptor molecule, acceptor atom, score
      L1  H     8    24       P1  8028  0.99
      P1  H  7989  7998       L1    12  0.16

> <Gold.Chemscore.Hbond.Weighted>
-6.5518

> <Gold.Chemscore.Metal.Weighted>
-0.0000

> <Gold.Chemscore.Lipo.Weighted>
-10.0059

> <Gold.Chemscore.Internal_Hbond.Weighted>
0.0000

> <Gold.Chemscore.DEClash.Weighted>
0.0237

> <Gold.Chemscore.DEInternal.Weighted>
5.3378

> <Gold.Chemscore.Rot.Weighted>
5.5146

> <Gold.Chemscore.Internal.Correction.Weighted>
   9.000000E+99

> <Gold.Protein.RotatedTorsions>
[ 6907 6896 6895 6894 ] final -147.79 input  -60.11 | X-H torsion
[ 7974 7965 7964 7962 ] final  154.93 input  175.53 | X-H torsion
[ 8008 7997 7996 7995 ] final   12.06 input   59.86 | X-H torsion
[ 10167 10162 10161 10158 ] final -113.45 input  -65.29 | X-H torsion
[ 10718 10713 10712 10709 ] final  154.79 input   66.30 | X-H torsion
[ 10763 10752 10751 10750 ] final  -42.10 input  -60.55 | X-H torsion
[ 11005 11000 10999 10996 ] final  -27.75 input  -57.11 | X-H torsion

> <Gold.Protein.ActiveResidues>
 VAL166  LYS551  ARG553  GLY616  TRP617  ASP618  TYR619  PRO620  LYS621  CYS622 
 ASP623  PHE694  ASN695  SER759  ASP760  ASP761  ALA762  ILE779  LEU786  VAL792 
 PHE793  MET794  SER795  GLU796  ALA797  LYS798  CYS799  TRP800  GLU811  SER814 

> <Gold.Protein.RotatedAtoms>
  151.1606  133.4848  159.2594 H   0  0  0  0  0  0  0  0  0  0  0  0  # atno 6907 bound_to 6896
  151.1458  135.0202  159.8656 H   0  0  0  0  0  0  0  0  0  0  0  0  # atno 6908 bound_to 6896
  152.5463  134.1495  159.8565 H   0  0  0  0  0  0  0  0  0  0  0  0  # atno 6909 bound_to 6896
  144.8057  139.7000  143.6163 H   0  0  0  0  0  0  0  0  0  0  0  0  # atno 7974 bound_to 7965
  154.8154  140.2875  155.5824 H   0  0  0  0  0  0  0  0  0  0  0  0  # atno 8008 bound_to 7997
  156.2992  140.2560  156.2981 H   0  0  0  0  0  0  0  0  0  0  0  0  # atno 8009 bound_to 7997
  154.9399  140.0381  157.2081 H   0  0  0  0  0  0  0  0  0  0  0  0  # atno 8010 bound_to 7997
  140.1117  143.4522  152.1748 H   0  0  0  0  0  0  0  0  0  0  0  0  # atno 10167 bound_to 10162
  157.2269  131.0730  151.1877 H   0  0  0  0  0  0  0  0  0  0  0  0  # atno 10718 bound_to 10713
  153.9735  135.6725  153.4748 H   0  0  0  0  0  0  0  0  0  0  0  0  # atno 10763 bound_to 10752
  153.0782  135.4937  154.8444 H   0  0  0  0  0  0  0  0  0  0  0  0  # atno 10764 bound_to 10752
  154.7205  135.3116  154.9015 H   0  0  0  0  0  0  0  0  0  0  0  0  # atno 10765 bound_to 10752
  140.9147  133.7438  156.0719 H   0  0  0  0  0  0  0  0  0  0  0  0  # atno 11005 bound_to 11000
  146.2347  139.5882  142.9531 LP  0  0  0  0  0  0  0  0  0  0  0  0  # atno 17320 bound_to 7965
  145.5445  141.0418  143.2312 LP  0  0  0  0  0  0  0  0  0  0  0  0  # atno 17321 bound_to 7965
  139.5616  144.7409  151.4140 LP  0  0  0  0  0  0  0  0  0  0  0  0  # atno 17342 bound_to 10162
  140.6922  143.7835  150.7272 LP  0  0  0  0  0  0  0  0  0  0  0  0  # atno 17343 bound_to 10162
  157.3518  130.7086  149.6445 LP  0  0  0  0  0  0  0  0  0  0  0  0  # atno 17370 bound_to 10713
  155.9678  130.4250  150.4635 LP  0  0  0  0  0  0  0  0  0  0  0  0  # atno 17371 bound_to 10713
  140.8065  134.3449  157.5424 LP  0  0  0  0  0  0  0  0  0  0  0  0  # atno 17394 bound_to 11000
  139.8764  134.9229  156.3310 LP  0  0  0  0  0  0  0  0  0  0  0  0  # atno 17395 bound_to 11000

$$$$
