AV-unprocessed.smi:3079|AV-procd|sdf|11737|dock5
  -GOLD-   2272017133D 1   1.00000     0.00000
 Structure written by MMmdl.
 24 25  0  0  0  0  0  0  0  0  2 V2000
  148.8686  138.6724  153.3669 N   0  3  0  0  0  0  0  0  0  0  0  0
  149.7844  138.9614  154.4827 C   0  0  0  0  0  0  0  0  0  0  0  0
  149.7081  140.4352  154.9023 C   0  0  0  0  0  0  0  0  0  0  0  0
  150.5787  140.7375  156.0754 C   0  0  0  0  0  0  0  0  0  0  0  0
  150.5758  141.9130  156.7086 N   0  0  0  0  0  0  0  0  0  0  0  0
  151.4526  141.9407  157.7968 C   0  0  0  0  0  0  0  0  0  0  0  0
  151.5865  143.1924  158.6082 C   0  0  0  0  0  0  0  0  0  0  0  0
  151.9966  144.4983  157.9672 C   0  0  0  0  0  0  0  0  0  0  0  0
  152.9469  143.7827  158.8965 C   0  0  0  0  0  0  0  0  0  0  0  0
  152.1190  140.7553  157.9853 C   0  0  0  0  0  0  0  0  0  0  0  0
  151.6597  139.5572  156.8070 S   0  0  0  0  0  0  0  0  0  0  0  0
  148.9598  139.3907  152.6625 H   0  0  0  0  0  0  0  0  0  0  0  0
  147.9174  138.6538  153.7061 H   0  0  0  0  0  0  0  0  0  0  0  0
  149.5275  138.3143  155.3221 H   0  0  0  0  0  0  0  0  0  0  0  0
  150.7997  138.7063  154.1773 H   0  0  0  0  0  0  0  0  0  0  0  0
  150.0077  141.0797  154.0752 H   0  0  0  0  0  0  0  0  0  0  0  0
  148.6808  140.7044  155.1518 H   0  0  0  0  0  0  0  0  0  0  0  0
  150.8436  143.2391  159.4019 H   0  0  0  0  0  0  0  0  0  0  0  0
  152.2389  144.4938  156.9062 H   0  0  0  0  0  0  0  0  0  0  0  0
  151.5235  145.4069  158.3336 H   0  0  0  0  0  0  0  0  0  0  0  0
  153.1074  144.2140  159.8824 H   0  0  0  0  0  0  0  0  0  0  0  0
  153.8144  143.2995  158.4513 H   0  0  0  0  0  0  0  0  0  0  0  0
  152.8470  140.5142  158.7458 H   0  0  0  0  0  0  0  0  0  0  0  0
  149.1006  137.7759  152.9634 H   0  0  0  0  0  0  0  0  0  0  0  0
  1  2  1  0  0  0  0
  1 12  1  0  0  0  0
  1 13  1  0  0  0  0
  1 24  1  0  0  0  0
  2  3  1  0  0  0  0
  2 14  1  0  0  0  0
  2 15  1  0  0  0  0
  3  4  1  0  0  0  0
  3 16  1  0  0  0  0
  3 17  1  0  0  0  0
  4 11  1  0  0  0  0
  4  5  2  0  0  0  0
  5  6  1  0  0  0  0
  6  7  1  0  0  0  0
  6 10  2  0  0  0  0
  7  9  1  0  0  0  0
  7  8  1  0  0  0  0
  7 18  1  0  0  0  0
  8  9  1  0  0  0  0
  8 19  1  0  0  0  0
  8 20  1  0  0  0  0
  9 21  1  0  0  0  0
  9 22  1  0  0  0  0
 10 11  1  0  0  0  0
 10 23  1  0  0  0  0
M  CHG  1   1   1
M  END
> <s_m_source_file>
AV-unprocessed.smi

> <i_m_source_file_index>
3079

> <i_lp_mmshare_version>
43012

> <i_f3d_flags>
0

> <s_epik_input>
W05IMl1bQ0gyXVtDSDJdYzFuYyhbY0hdczEpW0NIXTJbQ0gyXVtDSDJdMg==

> <s_epik_cmdline>
J2VwaWtfcHl0aG9uJywgJy1waCcsICc3LjAnLCAnLXRuJywgJzgnLCAnLW1hJywgJzIwMCcsICctbWV0YWxfYmluZGluZycsICctaW1hZScsICc8aW5maWxlLm1hZT4nLCAnLW9tYWUnLCAnPG91dGZpbGUubWFlPic=

> <r_lp_tautomer_probability>
1

> <r_epik_Ionization_Penalty>
0.00466735

> <r_epik_Ionization_Penalty_Charging>
0.00465044

> <r_epik_Ionization_Penalty_Neutral>
1.6915e-05

> <r_epik_State_Penalty>
-0

> <r_epik_Charging_Adjusted_Penalty>
0.00465044

> <i_epik_Tot_Q>
1

> <i_epik_Tot_abs_Q>
1

> <r_epik_Metal_State_Penalty>
-0

> <b_epik_Metal_Only>
0

> <s_lp_Force_Field>
OPLS_2005

> <r_lp_Energy>
-1.43879

> <b_lp_Chiralities_Consistent>
1

> <s_lp_Variant>
AV-unprocessed.smi:3079-1

> <Gold.Version>
5.8.1

> <Gold.Id.Protein>
6NUR|6NUR_protein|mol2

> <Gold.PLP.Fitness>
36.3269

> <Gold.PLP.PLP>
-27.4390

> <Gold.PLP.part.hbond>
-1.8199

> <Gold.PLP.part.metal>
0.0000

> <Gold.PLP.part.buried>
-2.8260

> <Gold.PLP.part.nonpolar>
-23.1222

> <Gold.PLP.part.repulsive>
0.1785

> <Gold.PLP.ligand.clash>
0.0000

> <Gold.PLP.ligand.torsion>
0.1213

> <Gold.PLP.Chemscore.Hbond>
3.0000

> <Gold.PLP.Chemscore.CHOScore>
0.0000

> <Gold.PLP.Chemscore.Metal>
0.0000

> <Gold.Chemscore.Hbonds>
donor molecule, donor type, donor heavy atom, donor atom, acceptor molecule, acceptor atom, score
      L1  H     1    12       P1  7957  1.00
      L1  H     1    24       P1  7948  2.00

> <Gold.PLP.Chemscore.Internal.Correction>
0.1304

> <Gold.Rescore>
     Score         DG    S(hbond)    S(metal)    S(lipo)     H(rot)  DE(clash)    DE(int)     intcor
     17.69     -17.87       1.99        0.00      81.40       1.47       0.06       0.12       ----

> <Gold.Chemscore.Fitness>
17.6935

> <Gold.Chemscore.DG>
-17.8704

> <Gold.Chemscore.ZeroCoef>
-5.4800

> <Gold.Chemscore.Hbond>
1.9861

> <Gold.Chemscore.Metal>
0.0000

> <Gold.Chemscore.Lipo>
81.3971

> <Gold.Chemscore.Internal_Hbond>
0.0000

> <Gold.Chemscore.DEClash>
0.0589

> <Gold.Chemscore.DEInternal>
0.1180

> <Gold.Chemscore.Rot>
1.4714

> <Gold.Chemscore.Internal.Correction>
   9.000000E+99

> <Gold.Chemscore.Hbonds>
donor molecule, donor type, donor heavy atom, donor atom, acceptor molecule, acceptor atom, score
      L1  H     1    12       P1  7957  0.96
      L1  H     1    24       P1  7948  0.99

> <Gold.Chemscore.Hbond.Weighted>
-6.6337

> <Gold.Chemscore.Metal.Weighted>
-0.0000

> <Gold.Chemscore.Lipo.Weighted>
-9.5235

> <Gold.Chemscore.Internal_Hbond.Weighted>
0.0000

> <Gold.Chemscore.DEClash.Weighted>
0.0589

> <Gold.Chemscore.DEInternal.Weighted>
0.1180

> <Gold.Chemscore.Rot.Weighted>
3.7668

> <Gold.Chemscore.Internal.Correction.Weighted>
   9.000000E+99

> <Gold.Protein.RotatedTorsions>
[ 6907 6896 6895 6894 ] final  -33.44 input  -60.11 | X-H torsion
[ 7974 7965 7964 7962 ] final -131.12 input  175.53 | X-H torsion
[ 8008 7997 7996 7995 ] final  -28.31 input   59.86 | X-H torsion
[ 10167 10162 10161 10158 ] final   48.48 input  -65.29 | X-H torsion
[ 10718 10713 10712 10709 ] final   -5.72 input   66.30 | X-H torsion
[ 10763 10752 10751 10750 ] final  -13.83 input  -60.55 | X-H torsion
[ 11005 11000 10999 10996 ] final -143.97 input  -57.11 | X-H torsion

> <Gold.Protein.ActiveResidues>
 VAL166  LYS551  ARG553  GLY616  TRP617  ASP618  TYR619  PRO620  LYS621  CYS622 
 ASP623  PHE694  ASN695  SER759  ASP760  ASP761  ALA762  ILE779  LEU786  VAL792 
 PHE793  MET794  SER795  GLU796  ALA797  LYS798  CYS799  TRP800  GLU811  SER814 

> <Gold.Protein.RotatedAtoms>
  151.0655  134.9765  159.8282 H   0  0  0  0  0  0  0  0  0  0  0  0  # atno 6907 bound_to 6896
  152.5401  134.2364  159.8855 H   0  0  0  0  0  0  0  0  0  0  0  0  # atno 6908 bound_to 6896
  151.2386  133.4368  159.2640 H   0  0  0  0  0  0  0  0  0  0  0  0  # atno 6909 bound_to 6896
  144.9410  140.7238  143.4847 H   0  0  0  0  0  0  0  0  0  0  0  0  # atno 7974 bound_to 7965
  154.4338  140.1849  156.1069 H   0  0  0  0  0  0  0  0  0  0  0  0  # atno 8008 bound_to 7997
  156.0248  140.3337  155.7051 H   0  0  0  0  0  0  0  0  0  0  0  0  # atno 8009 bound_to 7997
  155.5924  140.0632  157.2746 H   0  0  0  0  0  0  0  0  0  0  0  0  # atno 8010 bound_to 7997
  140.2929  144.3025  150.6236 H   0  0  0  0  0  0  0  0  0  0  0  0  # atno 10167 bound_to 10162
  156.7424  130.5214  149.5821 H   0  0  0  0  0  0  0  0  0  0  0  0  # atno 10718 bound_to 10713
  153.5192  135.7016  153.5740 H   0  0  0  0  0  0  0  0  0  0  0  0  # atno 10763 bound_to 10752
  153.3797  135.3923  155.1848 H   0  0  0  0  0  0  0  0  0  0  0  0  # atno 10764 bound_to 10752
  154.8696  135.3832  154.4679 H   0  0  0  0  0  0  0  0  0  0  0  0  # atno 10765 bound_to 10752
  140.8071  134.2788  157.4956 H   0  0  0  0  0  0  0  0  0  0  0  0  # atno 11005 bound_to 11000
  145.2992  139.1856  143.4699 LP  0  0  0  0  0  0  0  0  0  0  0  0  # atno 17320 bound_to 7965
  146.3285  140.2980  142.8619 LP  0  0  0  0  0  0  0  0  0  0  0  0  # atno 17321 bound_to 7965
  140.5717  143.2180  151.7587 LP  0  0  0  0  0  0  0  0  0  0  0  0  # atno 17342 bound_to 10162
  139.4933  144.4207  151.9981 LP  0  0  0  0  0  0  0  0  0  0  0  0  # atno 17343 bound_to 10162
  156.1456  130.6274  151.0526 LP  0  0  0  0  0  0  0  0  0  0  0  0  # atno 17370 bound_to 10713
  157.6813  131.0837  150.7363 LP  0  0  0  0  0  0  0  0  0  0  0  0  # atno 17371 bound_to 10713
  139.8717  134.9462  156.3932 LP  0  0  0  0  0  0  0  0  0  0  0  0  # atno 17394 bound_to 11000
  140.9235  133.7628  155.9936 LP  0  0  0  0  0  0  0  0  0  0  0  0  # atno 17395 bound_to 11000

$$$$
