AV-unprocessed.smi:1965|AV-procd|sdf|7939|dock6
  -GOLD-   2272010103D 1   1.00000     0.00000
 Structure written by MMmdl.
 37 39  0  0  0  0  0  0  0  0  2 V2000
  148.7464  141.7799  159.2048 O   0  0  0  0  0  0  0  0  0  0  0  0
  148.6512  142.8312  158.5738 C   0  0  0  0  0  0  0  0  0  0  0  0
  147.7273  143.7593  158.9023 N   0  0  0  0  0  0  0  0  0  0  0  0
  146.7401  143.7883  159.9301 C   0  0  0  0  0  0  0  0  0  0  0  0
  146.5864  142.8580  160.8815 N   0  0  0  0  0  0  0  0  0  0  0  0
  145.5248  143.1516  161.7413 C   0  0  0  0  0  0  0  0  0  0  0  0
  144.8698  144.3150  161.4252 C   0  0  0  0  0  0  0  0  0  0  0  0
  145.5646  145.0921  160.0282 S   0  0  0  0  0  0  0  0  0  0  0  0
  149.4424  143.1231  157.5285 N   0  0  0  0  0  0  0  0  0  0  0  0
  150.5032  142.2721  156.9994 C   0  0  1  0  0  0  0  0  0  0  0  0
  151.4542  141.7652  158.0771 C   0  0  0  0  0  0  0  0  0  0  0  0
  152.1056  140.5623  157.3927 C   0  0  0  0  0  0  0  0  0  0  0  0
  151.0635  139.9779  156.5172 N   0  3  2  0  0  0  0  0  0  0  0  0
  151.5743  139.4072  155.2468 C   0  0  0  0  0  0  0  0  0  0  0  0
  150.4233  138.8105  154.4156 C   0  0  0  0  0  0  0  0  0  0  0  0
  149.2303  139.7757  154.2525 C   0  0  0  0  0  0  0  0  0  0  0  0
  149.4830  141.1381  154.9164 C   0  0  0  0  0  0  0  0  0  0  0  0
  149.9632  140.9738  156.3764 C   0  0  2  0  0  0  0  0  0  0  0  0
  147.7197  144.5694  158.2994 H   0  0  0  0  0  0  0  0  0  0  0  0
  145.3031  142.4750  162.5533 H   0  0  0  0  0  0  0  0  0  0  0  0
  144.0230  144.7598  161.9269 H   0  0  0  0  0  0  0  0  0  0  0  0
  149.2946  144.0097  157.0667 H   0  0  0  0  0  0  0  0  0  0  0  0
  151.0963  142.8181  156.2625 H   0  0  0  0  0  0  0  0  0  0  0  0
  152.1789  142.5160  158.3936 H   0  0  0  0  0  0  0  0  0  0  0  0
  150.8967  141.4383  158.9567 H   0  0  0  0  0  0  0  0  0  0  0  0
  152.9479  140.9060  156.7900 H   0  0  0  0  0  0  0  0  0  0  0  0
  152.4838  139.8295  158.1060 H   0  0  0  0  0  0  0  0  0  0  0  0
  152.0873  140.1822  154.6749 H   0  0  0  0  0  0  0  0  0  0  0  0
  152.3147  138.6371  155.4658 H   0  0  0  0  0  0  0  0  0  0  0  0
  150.7989  138.5154  153.4352 H   0  0  0  0  0  0  0  0  0  0  0  0
  150.0752  137.8922  154.8905 H   0  0  0  0  0  0  0  0  0  0  0  0
  149.0020  139.9158  153.1954 H   0  0  0  0  0  0  0  0  0  0  0  0
  148.3422  139.3232  154.6953 H   0  0  0  0  0  0  0  0  0  0  0  0
  150.2264  141.6874  154.3372 H   0  0  0  0  0  0  0  0  0  0  0  0
  148.5737  141.7388  154.8854 H   0  0  0  0  0  0  0  0  0  0  0  0
  149.1372  140.5971  156.9823 H   0  0  0  0  0  0  0  0  0  0  0  0
  150.6599  139.2062  157.0290 H   0  0  0  0  0  0  0  0  0  0  0  0
  1  2  2  0  0  0  0
  2  3  1  0  0  0  0
  2  9  1  0  0  0  0
  3  4  1  0  0  0  0
  3 19  1  0  0  0  0
  4  8  1  0  0  0  0
  4  5  2  0  0  0  0
  5  6  1  0  0  0  0
  6  7  2  0  0  0  0
  6 20  1  0  0  0  0
  7  8  1  0  0  0  0
  7 21  1  0  0  0  0
  9 10  1  0  0  0  0
  9 22  1  0  0  0  0
 10 18  1  0  0  0  0
 10 11  1  0  0  0  0
 10 23  1  0  0  0  0
 11 12  1  0  0  0  0
 11 24  1  0  0  0  0
 11 25  1  0  0  0  0
 12 13  1  0  0  0  0
 12 26  1  0  0  0  0
 12 27  1  0  0  0  0
 13 18  1  0  0  0  0
 13 14  1  0  0  0  0
 13 37  1  0  0  0  0
 14 15  1  0  0  0  0
 14 28  1  0  0  0  0
 14 29  1  0  0  0  0
 15 16  1  0  0  0  0
 15 30  1  0  0  0  0
 15 31  1  0  0  0  0
 16 17  1  0  0  0  0
 16 32  1  0  0  0  0
 16 33  1  0  0  0  0
 17 18  1  0  0  0  0
 17 34  1  0  0  0  0
 17 35  1  0  0  0  0
 18 36  1  0  0  0  0
M  CHG  1  13   1
M  END
> <s_m_source_file>
AV-unprocessed.smi

> <i_m_source_file_index>
1965

> <i_lp_mmshare_version>
43012

> <i_f3d_flags>
0

> <s_epik_input>
czFbY0hdW2NIXW5jMVtOSF1DKD1PKVtOSF1bQ0BIXShbQ0gyXVtDSDJdMilbQ0BASF0oTjIzKVtDSDJdW0NIMl1bQ0gyXVtDSDJdMw==

> <s_epik_cmdline>
J2VwaWtfcHl0aG9uJywgJy1waCcsICc3LjAnLCAnLXRuJywgJzgnLCAnLW1hJywgJzIwMCcsICctbWV0YWxfYmluZGluZycsICctaW1hZScsICc8aW5maWxlLm1hZT4nLCAnLW9tYWUnLCAnPG91dGZpbGUubWFlPic=

> <r_lp_tautomer_probability>
1

> <r_epik_Ionization_Penalty>
0.00125962

> <r_epik_Ionization_Penalty_Charging>
0.00107044

> <r_epik_Ionization_Penalty_Neutral>
0.000189176

> <r_epik_State_Penalty>
-0

> <r_epik_Charging_Adjusted_Penalty>
0.00107044

> <i_epik_Tot_Q>
1

> <i_epik_Tot_abs_Q>
1

> <r_epik_Metal_State_Penalty>
0.0179285

> <b_epik_Metal_Only>
0

> <s_lp_Force_Field>
OPLS_2005

> <r_lp_Energy>
40.5286

> <b_lp_Chiralities_Consistent>
1

> <s_lp_Variant>
AV-unprocessed.smi:1965-8

> <Gold.Version>
5.8.1

> <Gold.Id.Protein>
6NUR|6NUR_protein|mol2

> <Gold.PLP.Fitness>
39.9251

> <Gold.PLP.PLP>
-28.9809

> <Gold.PLP.part.hbond>
-6.3313

> <Gold.PLP.part.metal>
0.0000

> <Gold.PLP.part.buried>
1.6855

> <Gold.PLP.part.nonpolar>
-25.4139

> <Gold.PLP.part.repulsive>
0.2461

> <Gold.PLP.ligand.clash>
0.0000

> <Gold.PLP.ligand.torsion>
0.0762

> <Gold.PLP.Chemscore.Hbond>
3.6963

> <Gold.PLP.Chemscore.CHOScore>
0.0000

> <Gold.PLP.Chemscore.Metal>
0.0000

> <Gold.Chemscore.Hbonds>
donor molecule, donor type, donor heavy atom, donor atom, acceptor molecule, acceptor atom, score
      L1  H     3    19       P1  8029  1.00
      L1  H     9    22       P1  8028  0.93
      P1  H  6933  6944       L1     5  0.86
      P1  H  6934  6946       L1     5  0.90

> <Gold.PLP.Chemscore.Internal.Correction>
0.0078

> <Gold.Rescore>
     Score         DG    S(hbond)    S(metal)    S(lipo)     H(rot)  DE(clash)    DE(int)     intcor
     16.18     -20.00       2.59        0.00      72.02       1.00       1.36       2.46       ----

> <Gold.Chemscore.Fitness>
16.1782

> <Gold.Chemscore.DG>
-20.0029

> <Gold.Chemscore.ZeroCoef>
-5.4800

> <Gold.Chemscore.Hbond>
2.5918

> <Gold.Chemscore.Metal>
0.0000

> <Gold.Chemscore.Lipo>
72.0180

> <Gold.Chemscore.Internal_Hbond>
0.0000

> <Gold.Chemscore.DEClash>
1.3599

> <Gold.Chemscore.DEInternal>
2.4648

> <Gold.Chemscore.Rot>
1.0000

> <Gold.Chemscore.Internal.Correction>
   9.000000E+99

> <Gold.Chemscore.Hbonds>
donor molecule, donor type, donor heavy atom, donor atom, acceptor molecule, acceptor atom, score
      L1  H     3    19       P1  8029  0.82
      L1  H     9    22       P1  8028  0.35
      P1  H  6933  6944       L1     5  0.44
      P1  H  6934  6946       L1     5  0.68

> <Gold.Chemscore.Hbond.Weighted>
-8.6568

> <Gold.Chemscore.Metal.Weighted>
-0.0000

> <Gold.Chemscore.Lipo.Weighted>
-8.4261

> <Gold.Chemscore.Internal_Hbond.Weighted>
0.0000

> <Gold.Chemscore.DEClash.Weighted>
1.3599

> <Gold.Chemscore.DEInternal.Weighted>
2.4648

> <Gold.Chemscore.Rot.Weighted>
2.5600

> <Gold.Chemscore.Internal.Correction.Weighted>
   9.000000E+99

> <Gold.Protein.RotatedTorsions>
[ 6907 6896 6895 6894 ] final -131.19 input  -60.11 | X-H torsion
[ 7974 7965 7964 7962 ] final -162.16 input  175.53 | X-H torsion
[ 8008 7997 7996 7995 ] final -170.62 input   59.86 | X-H torsion
[ 10167 10162 10161 10158 ] final  -90.72 input  -65.29 | X-H torsion
[ 10718 10713 10712 10709 ] final   48.46 input   66.30 | X-H torsion
[ 10763 10752 10751 10750 ] final  151.25 input  -60.55 | X-H torsion
[ 11005 11000 10999 10996 ] final -164.62 input  -57.11 | X-H torsion

> <Gold.Protein.ActiveResidues>
 VAL166  LYS551  ARG553  GLY616  TRP617  ASP618  TYR619  PRO620  LYS621  CYS622 
 ASP623  PHE694  ASN695  SER759  ASP760  ASP761  ALA762  ILE779  LEU786  VAL792 
 PHE793  MET794  SER795  GLU796  ALA797  LYS798  CYS799  TRP800  GLU811  SER814 

> <Gold.Protein.RotatedAtoms>
  150.9481  133.6580  159.2777 H   0  0  0  0  0  0  0  0  0  0  0  0  # atno 6907 bound_to 6896
  151.3945  135.0960  159.9546 H   0  0  0  0  0  0  0  0  0  0  0  0  # atno 6908 bound_to 6896
  152.5098  133.8989  159.7486 H   0  0  0  0  0  0  0  0  0  0  0  0  # atno 6909 bound_to 6896
  144.7366  140.3293  143.6156 H   0  0  0  0  0  0  0  0  0  0  0  0  # atno 7974 bound_to 7965
  155.9207  140.1074  157.1209 H   0  0  0  0  0  0  0  0  0  0  0  0  # atno 8008 bound_to 7997
  154.4054  140.1256  156.4741 H   0  0  0  0  0  0  0  0  0  0  0  0  # atno 8009 bound_to 7997
  155.7199  140.3470  155.5013 H   0  0  0  0  0  0  0  0  0  0  0  0  # atno 8010 bound_to 7997
  140.3521  143.2886  151.9714 H   0  0  0  0  0  0  0  0  0  0  0  0  # atno 10167 bound_to 10162
  157.4689  130.8243  149.7966 H   0  0  0  0  0  0  0  0  0  0  0  0  # atno 10718 bound_to 10713
  154.1007  135.2846  155.3252 H   0  0  0  0  0  0  0  0  0  0  0  0  # atno 10763 bound_to 10752
  154.6557  135.5353  153.7959 H   0  0  0  0  0  0  0  0  0  0  0  0  # atno 10764 bound_to 10752
  153.0380  135.6521  154.1171 H   0  0  0  0  0  0  0  0  0  0  0  0  # atno 10765 bound_to 10752
  140.5849  134.5104  157.5184 H   0  0  0  0  0  0  0  0  0  0  0  0  # atno 11005 bound_to 11000
  145.7488  139.1787  143.2333 LP  0  0  0  0  0  0  0  0  0  0  0  0  # atno 17320 bound_to 7965
  146.1077  140.7467  142.9518 LP  0  0  0  0  0  0  0  0  0  0  0  0  # atno 17321 bound_to 7965
  139.4825  144.6067  151.7508 LP  0  0  0  0  0  0  0  0  0  0  0  0  # atno 17342 bound_to 10162
  140.5209  144.0880  150.6022 LP  0  0  0  0  0  0  0  0  0  0  0  0  # atno 17343 bound_to 10162
  156.0064  130.3854  150.2418 LP  0  0  0  0  0  0  0  0  0  0  0  0  # atno 17370 bound_to 10713
  157.0599  131.0087  151.3226 LP  0  0  0  0  0  0  0  0  0  0  0  0  # atno 17371 bound_to 10713
  139.9300  134.7981  156.0957 LP  0  0  0  0  0  0  0  0  0  0  0  0  # atno 17394 bound_to 11000
  141.0972  133.6691  156.2673 LP  0  0  0  0  0  0  0  0  0  0  0  0  # atno 17395 bound_to 11000

$$$$
