AV-unprocessed.smi:1410|AV-procd|sdf|5735|dock2
  -GOLD-   22720 5363D 1   1.00000     0.00000
 Structure written by MMmdl.
 39 40  0  0  0  0  0  0  0  0  3 V2000
  148.5822  142.2623  156.8951 N   0  5  0  0  0  0  0  0  0  0  0  0
  147.4341  141.8844  157.4887 C   0  0  0  0  0  0  0  0  0  0  0  0
  147.2380  141.6623  158.6818 O   0  0  0  0  0  0  0  0  0  0  0  0
  146.2877  141.7061  156.4872 C   0  0  0  0  0  0  0  0  0  0  0  0
  146.5093  140.4900  155.6660 N   0  3  2  0  0  0  0  0  0  0  0  0
  147.0882  140.7848  154.3275 C   0  0  0  0  0  0  0  0  0  0  0  0
  147.4275  139.4886  153.5742 C   0  0  0  0  0  0  0  0  0  0  0  0
  146.1901  138.5884  153.4360 C   0  0  1  0  0  0  0  0  0  0  0  0
  146.5611  137.3347  152.7869 N   0  0  0  0  0  0  0  0  0  0  0  0
  145.7034  136.3717  152.4198 C   0  0  0  0  0  0  0  0  0  0  0  0
  144.4903  136.4330  152.6191 O   0  0  0  0  0  0  0  0  0  0  0  0
  146.3470  135.3460  151.8360 N   0  0  0  0  0  0  0  0  0  0  0  0
  145.8016  134.1597  151.2742 C   0  0  0  0  0  0  0  0  0  0  0  0
  144.3972  134.0419  151.2245 C   0  0  0  0  0  0  0  0  0  0  0  0
  143.8328  132.8672  150.6888 C   0  0  0  0  0  0  0  0  0  0  0  0
  144.5688  131.8349  150.2260 N   0  0  0  0  0  0  0  0  0  0  0  0
  145.9130  131.9431  150.2881 C   0  0  0  0  0  0  0  0  0  0  0  0
  146.5781  133.0737  150.8035 C   0  0  0  0  0  0  0  0  0  0  0  0
  145.5830  138.3300  154.8270 C   0  0  0  0  0  0  0  0  0  0  0  0
  145.2891  139.6502  155.5595 C   0  0  0  0  0  0  0  0  0  0  0  0
  148.7292  143.2591  156.6954 H   0  0  0  0  0  0  0  0  0  0  0  0
  145.3729  141.5994  157.0716 H   0  0  0  0  0  0  0  0  0  0  0  0
  146.1455  142.5791  155.8462 H   0  0  0  0  0  0  0  0  0  0  0  0
  146.3825  141.3825  153.7483 H   0  0  0  0  0  0  0  0  0  0  0  0
  147.9950  141.3814  154.4294 H   0  0  0  0  0  0  0  0  0  0  0  0
  147.8274  139.7302  152.5887 H   0  0  0  0  0  0  0  0  0  0  0  0
  148.2181  138.9579  154.1073 H   0  0  0  0  0  0  0  0  0  0  0  0
  145.4562  139.1097  152.8179 H   0  0  0  0  0  0  0  0  0  0  0  0
  147.5419  137.1964  152.5909 H   0  0  0  0  0  0  0  0  0  0  0  0
  147.3549  135.4018  151.8263 H   0  0  0  0  0  0  0  0  0  0  0  0
  143.7593  134.8360  151.5841 H   0  0  0  0  0  0  0  0  0  0  0  0
  142.7603  132.7535  150.6338 H   0  0  0  0  0  0  0  0  0  0  0  0
  146.4781  131.0988  149.9220 H   0  0  0  0  0  0  0  0  0  0  0  0
  147.6565  133.0778  150.8383 H   0  0  0  0  0  0  0  0  0  0  0  0
  144.6638  137.7500  154.7359 H   0  0  0  0  0  0  0  0  0  0  0  0
  146.2692  137.7294  155.4263 H   0  0  0  0  0  0  0  0  0  0  0  0
  144.9064  139.4269  156.5561 H   0  0  0  0  0  0  0  0  0  0  0  0
  144.5086  140.2058  155.0368 H   0  0  0  0  0  0  0  0  0  0  0  0
  147.1920  139.9408  156.1684 H   0  0  0  0  0  0  0  0  0  0  0  0
  1  2  1  0  0  0  0
  1 21  1  0  0  0  0
  2  3  2  0  0  0  0
  2  4  1  0  0  0  0
  4  5  1  0  0  0  0
  4 22  1  0  0  0  0
  4 23  1  0  0  0  0
  5 20  1  0  0  0  0
  5  6  1  0  0  0  0
  5 39  1  0  0  0  0
  6  7  1  0  0  0  0
  6 24  1  0  0  0  0
  6 25  1  0  0  0  0
  7  8  1  0  0  0  0
  7 26  1  0  0  0  0
  7 27  1  0  0  0  0
  8  9  1  0  0  0  0
  8 19  1  0  0  0  0
  8 28  1  0  0  0  0
  9 10  1  0  0  0  0
  9 29  1  0  0  0  0
 10 11  2  0  0  0  0
 10 12  1  0  0  0  0
 12 13  1  0  0  0  0
 12 30  1  0  0  0  0
 13 18  1  0  0  0  0
 13 14  2  0  0  0  0
 14 15  1  0  0  0  0
 14 31  1  0  0  0  0
 15 16  2  0  0  0  0
 15 32  1  0  0  0  0
 16 17  1  0  0  0  0
 17 18  2  0  0  0  0
 17 33  1  0  0  0  0
 18 34  1  0  0  0  0
 19 20  1  0  0  0  0
 19 35  1  0  0  0  0
 19 36  1  0  0  0  0
 20 37  1  0  0  0  0
 20 38  1  0  0  0  0
M  CHG  1   1  -1
M  CHG  1   5   1
M  END
> <s_m_source_file>
AV-unprocessed.smi

> <i_m_source_file_index>
1410

> <i_lp_mmshare_version>
43012

> <i_f3d_flags>
0

> <s_epik_input>
W05IMl1DKD1PKVtDSDJdTjFbQ0gyXVtDSDJdW0NIXShbQ0gyXVtDSDJdMSlbTkhdQyg9TylbTkhdYzJbY0hdW2NIXW5bY0hdW2NIXTI=

> <s_epik_cmdline>
J2VwaWtfcHl0aG9uJywgJy1waCcsICc3LjAnLCAnLXRuJywgJzgnLCAnLW1hJywgJzIwMCcsICctbWV0YWxfYmluZGluZycsICctaW1hZScsICc8aW5maWxlLm1hZT4nLCAnLW9tYWUnLCAnPG91dGZpbGUubWFlPic=

> <r_epik_Ionization_Penalty>
5.8279

> <r_epik_Ionization_Penalty_Charging>
5.7288

> <r_epik_Ionization_Penalty_Neutral>
0.0990993

> <r_epik_State_Penalty>
6.63321

> <r_epik_Charging_Adjusted_Penalty>
12.362

> <i_epik_Tot_Q>
0

> <i_epik_Tot_abs_Q>
2

> <r_epik_Metal_State_Penalty>
2.69435

> <b_epik_Metal_Only>
1

> <s_lp_Force_Field>
OPLS_2005

> <r_lp_Energy>
12.3591

> <b_lp_Chiralities_Consistent>
1

> <s_lp_Variant>
AV-unprocessed.smi:1410-7

> <Gold.Version>
5.8.1

> <Gold.Id.Protein>
6NUR|6NUR_protein|mol2

> <Gold.PLP.Fitness>
40.9776

> <Gold.PLP.PLP>
-26.9776

> <Gold.PLP.part.hbond>
-4.0783

> <Gold.PLP.part.metal>
0.0000

> <Gold.PLP.part.buried>
-5.2913

> <Gold.PLP.part.nonpolar>
-19.2916

> <Gold.PLP.part.repulsive>
0.4335

> <Gold.PLP.ligand.clash>
0.0000

> <Gold.PLP.ligand.torsion>
0.7698

> <Gold.PLP.Chemscore.Hbond>
3.2917

> <Gold.PLP.Chemscore.CHOScore>
1.8809

> <Gold.PLP.Chemscore.Metal>
0.0000

> <Gold.Chemscore.Hbonds>
donor molecule, donor type, donor heavy atom, donor atom, acceptor molecule, acceptor atom, score
      L1  H     1    21       P1  8028  1.00
      L1  H     9    29       P1  7948  1.00
      L1  H    12    30       P1  7948  1.00
      P1  H  6934  6946       L1     3  0.26
      L1  C    15    32       P1 10186  0.68
      L1  C    17    33       P1 10747  0.88

> <Gold.PLP.Chemscore.Internal.Correction>
0.0217

> <Gold.Rescore>
     Score         DG    S(hbond)    S(metal)    S(lipo)     H(rot)  DE(clash)    DE(int)     intcor
     15.63     -17.96       3.20        0.00      57.62       1.94       0.06       2.27       ----

> <Gold.Chemscore.Fitness>
15.6328

> <Gold.Chemscore.DG>
-17.9645

> <Gold.Chemscore.ZeroCoef>
-5.4800

> <Gold.Chemscore.Hbond>
3.2035

> <Gold.Chemscore.Metal>
0.0000

> <Gold.Chemscore.Lipo>
57.6163

> <Gold.Chemscore.Internal_Hbond>
0.0000

> <Gold.Chemscore.DEClash>
0.0601

> <Gold.Chemscore.DEInternal>
2.2716

> <Gold.Chemscore.Rot>
1.9361

> <Gold.Chemscore.Internal.Correction>
   9.000000E+99

> <Gold.Chemscore.Hbonds>
donor molecule, donor type, donor heavy atom, donor atom, acceptor molecule, acceptor atom, score
      L1  H     1    21       P1  8028  0.77
      L1  H     9    29       P1  7948  0.96
      L1  H    12    30       P1  7948  0.98
      P1  H  6934  6946       L1     3  0.26

> <Gold.Chemscore.Hbond.Weighted>
-10.6997

> <Gold.Chemscore.Metal.Weighted>
-0.0000

> <Gold.Chemscore.Lipo.Weighted>
-6.7411

> <Gold.Chemscore.Internal_Hbond.Weighted>
0.0000

> <Gold.Chemscore.DEClash.Weighted>
0.0601

> <Gold.Chemscore.DEInternal.Weighted>
2.2716

> <Gold.Chemscore.Rot.Weighted>
4.9563

> <Gold.Chemscore.Internal.Correction.Weighted>
   9.000000E+99

> <Gold.Protein.RotatedTorsions>
[ 6907 6896 6895 6894 ] final   -0.89 input  -60.11 | X-H torsion
[ 7974 7965 7964 7962 ] final   17.90 input  175.53 | X-H torsion
[ 8008 7997 7996 7995 ] final  -74.60 input   59.86 | X-H torsion
[ 10167 10162 10161 10158 ] final -162.33 input  -65.29 | X-H torsion
[ 10718 10713 10712 10709 ] final  -22.77 input   66.30 | X-H torsion
[ 10763 10752 10751 10750 ] final   87.63 input  -60.55 | X-H torsion
[ 11005 11000 10999 10996 ] final   17.12 input  -57.11 | X-H torsion

> <Gold.Protein.ActiveResidues>
 VAL166  LYS551  ARG553  GLY616  TRP617  ASP618  TYR619  PRO620  LYS621  CYS622 
 ASP623  PHE694  ASN695  SER759  ASP760  ASP761  ALA762  ILE779  LEU786  VAL792 
 PHE793  MET794  SER795  GLU796  ALA797  LYS798  CYS799  TRP800  GLU811  SER814 

> <Gold.Protein.RotatedAtoms>
  151.5549  135.1067  159.9958 H   0  0  0  0  0  0  0  0  0  0  0  0  # atno 6907 bound_to 6896
  152.4474  133.7558  159.6730 H   0  0  0  0  0  0  0  0  0  0  0  0  # atno 6908 bound_to 6896
  150.8393  133.7895  159.3091 H   0  0  0  0  0  0  0  0  0  0  0  0  # atno 6909 bound_to 6896
  146.2203  139.8534  142.8618 H   0  0  0  0  0  0  0  0  0  0  0  0  # atno 7974 bound_to 7965
  154.5344  140.0758  156.8402 H   0  0  0  0  0  0  0  0  0  0  0  0  # atno 8008 bound_to 7997
  155.3308  140.3401  155.4221 H   0  0  0  0  0  0  0  0  0  0  0  0  # atno 8009 bound_to 7997
  156.1814  140.1653  156.8254 H   0  0  0  0  0  0  0  0  0  0  0  0  # atno 8010 bound_to 7997
  139.6400  144.0278  152.2084 H   0  0  0  0  0  0  0  0  0  0  0  0  # atno 10167 bound_to 10162
  156.5001  130.4586  149.6706 H   0  0  0  0  0  0  0  0  0  0  0  0  # atno 10718 bound_to 10713
  153.1687  135.4536  154.9873 H   0  0  0  0  0  0  0  0  0  0  0  0  # atno 10763 bound_to 10752
  154.7950  135.3234  154.7690 H   0  0  0  0  0  0  0  0  0  0  0  0  # atno 10764 bound_to 10752
  153.8169  135.6950  153.4887 H   0  0  0  0  0  0  0  0  0  0  0  0  # atno 10765 bound_to 10752
  140.4394  134.1337  155.7689 H   0  0  0  0  0  0  0  0  0  0  0  0  # atno 11005 bound_to 11000
  145.2778  141.0129  143.3735 LP  0  0  0  0  0  0  0  0  0  0  0  0  # atno 17320 bound_to 7965
  144.9174  139.4454  143.6558 LP  0  0  0  0  0  0  0  0  0  0  0  0  # atno 17321 bound_to 7965
  139.9965  144.6324  150.7768 LP  0  0  0  0  0  0  0  0  0  0  0  0  # atno 17342 bound_to 10162
  140.7486  143.2924  151.3294 LP  0  0  0  0  0  0  0  0  0  0  0  0  # atno 17343 bound_to 10162
  156.3341  130.7347  151.2282 LP  0  0  0  0  0  0  0  0  0  0  0  0  # atno 17370 bound_to 10713
  157.7464  131.0421  150.4681 LP  0  0  0  0  0  0  0  0  0  0  0  0  # atno 17371 bound_to 10713
  141.1712  133.8605  157.1565 LP  0  0  0  0  0  0  0  0  0  0  0  0  # atno 17394 bound_to 11000
  140.0080  135.0000  157.0334 LP  0  0  0  0  0  0  0  0  0  0  0  0  # atno 17395 bound_to 11000

$$$$
