AV-unprocessed.smi:910|AV-procd|sdf|4129|dock10
  -GOLD-   22720 2 33D 1   1.00000     0.00000
 Structure written by MMmdl.
 47 48  0  0  0  0  0  0  0  0  2 V2000
  149.2678  132.8932  153.0009 C   0  0  0  0  0  0  0  0  0  0  0  0
  149.8698  133.6818  154.1209 C   0  0  0  0  0  0  0  0  0  0  0  0
  150.0270  135.0430  154.2256 N   0  3  0  0  0  0  0  0  0  0  0  0
  150.6119  135.3409  155.3866 C   0  0  0  0  0  0  0  0  0  0  0  0
  150.9488  136.6305  155.8696 N   0  0  0  0  0  0  0  0  0  0  0  0
  150.9807  137.0326  157.1508 C   0  0  0  0  0  0  0  0  0  0  0  0
  150.7245  136.3179  158.1205 O   0  0  0  0  0  0  0  0  0  0  0  0
  151.3201  138.3255  157.2518 N   0  0  0  0  0  0  0  0  0  0  0  0
  151.3814  139.0826  158.4981 C   0  0  0  0  0  0  0  0  0  0  0  0
  151.9449  140.4936  158.2747 C   0  0  0  0  0  0  0  0  0  0  0  0
  152.1779  141.0904  159.5416 O   0  0  0  0  0  0  0  0  0  0  0  0
  153.2276  142.0512  159.5660 C   0  0  1  0  0  0  0  0  0  0  0  0
  152.7777  143.3617  158.8870 C   0  0  0  0  0  0  0  0  0  0  0  0
  151.6354  144.0399  159.6611 C   0  0  0  0  0  0  0  0  0  0  0  0
  152.0245  144.2830  161.1272 C   0  0  0  0  0  0  0  0  0  0  0  0
  152.4709  142.9811  161.8120 C   0  0  0  0  0  0  0  0  0  0  0  0
  153.6187  142.3001  161.0396 C   0  0  1  0  0  0  0  0  0  0  0  0
  154.0922  141.0130  161.7339 C   0  0  0  0  0  0  0  0  0  0  0  0
  150.8631  134.2072  156.0921 O   0  0  0  0  0  0  0  0  0  0  0  0
  150.3981  133.1830  155.2912 C   0  0  0  0  0  0  0  0  0  0  0  0
  150.5418  131.7924  155.8110 C   0  0  0  0  0  0  0  0  0  0  0  0
  150.0318  132.3359  152.4587 H   0  0  0  0  0  0  0  0  0  0  0  0
  148.7622  133.5425  152.2858 H   0  0  0  0  0  0  0  0  0  0  0  0
  148.5346  132.1765  153.3715 H   0  0  0  0  0  0  0  0  0  0  0  0
  149.7307  135.6927  153.5074 H   0  0  0  0  0  0  0  0  0  0  0  0
  151.5146  138.8391  156.4043 H   0  0  0  0  0  0  0  0  0  0  0  0
  150.3909  139.1368  158.9524 H   0  0  0  0  0  0  0  0  0  0  0  0
  152.0161  138.5385  159.1978 H   0  0  0  0  0  0  0  0  0  0  0  0
  152.8707  140.4429  157.7000 H   0  0  0  0  0  0  0  0  0  0  0  0
  151.2361  141.0866  157.6970 H   0  0  0  0  0  0  0  0  0  0  0  0
  154.1016  141.6564  159.0450 H   0  0  0  0  0  0  0  0  0  0  0  0
  153.6261  144.0450  158.8327 H   0  0  0  0  0  0  0  0  0  0  0  0
  152.4738  143.1813  157.8564 H   0  0  0  0  0  0  0  0  0  0  0  0
  151.3749  144.9855  159.1850 H   0  0  0  0  0  0  0  0  0  0  0  0
  150.7417  143.4165  159.6175 H   0  0  0  0  0  0  0  0  0  0  0  0
  152.8319  145.0149  161.1736 H   0  0  0  0  0  0  0  0  0  0  0  0
  151.1828  144.7173  161.6675 H   0  0  0  0  0  0  0  0  0  0  0  0
  152.7862  143.1977  162.8331 H   0  0  0  0  0  0  0  0  0  0  0  0
  151.6215  142.3013  161.8909 H   0  0  0  0  0  0  0  0  0  0  0  0
  154.4646  142.9891  161.0397 H   0  0  0  0  0  0  0  0  0  0  0  0
  153.2922  140.2747  161.7971 H   0  0  0  0  0  0  0  0  0  0  0  0
  154.4335  141.2190  162.7486 H   0  0  0  0  0  0  0  0  0  0  0  0
  154.9228  140.5583  161.1932 H   0  0  0  0  0  0  0  0  0  0  0  0
  149.5928  131.4275  156.2038 H   0  0  0  0  0  0  0  0  0  0  0  0
  151.2796  131.7471  156.6123 H   0  0  0  0  0  0  0  0  0  0  0  0
  150.8631  131.1145  155.0201 H   0  0  0  0  0  0  0  0  0  0  0  0
  151.1776  137.3189  155.1677 H   0  0  0  0  0  0  0  0  0  0  0  0
  1 22  1  0  0  0  0
  1 23  1  0  0  0  0
  1 24  1  0  0  0  0
  1  2  1  0  0  0  0
  2  3  1  0  0  0  0
  2 20  2  0  0  0  0
  3 25  1  0  0  0  0
  3  4  2  0  0  0  0
  4 19  1  0  0  0  0
  4  5  1  0  0  0  0
  5  6  1  0  0  0  0
  5 47  1  0  0  0  0
  6  8  1  0  0  0  0
  6  7  2  0  0  0  0
  8  9  1  0  0  0  0
  8 26  1  0  0  0  0
  9 10  1  0  0  0  0
  9 27  1  0  0  0  0
  9 28  1  0  0  0  0
 10 11  1  0  0  0  0
 10 29  1  0  0  0  0
 10 30  1  0  0  0  0
 11 12  1  0  0  0  0
 12 17  1  0  0  0  0
 12 13  1  0  0  0  0
 12 31  1  0  0  0  0
 13 14  1  0  0  0  0
 13 32  1  0  0  0  0
 13 33  1  0  0  0  0
 14 15  1  0  0  0  0
 14 34  1  0  0  0  0
 14 35  1  0  0  0  0
 15 16  1  0  0  0  0
 15 36  1  0  0  0  0
 15 37  1  0  0  0  0
 16 17  1  0  0  0  0
 16 38  1  0  0  0  0
 16 39  1  0  0  0  0
 17 18  1  0  0  0  0
 17 40  1  0  0  0  0
 18 41  1  0  0  0  0
 18 42  1  0  0  0  0
 18 43  1  0  0  0  0
 19 20  1  0  0  0  0
 20 21  1  0  0  0  0
 21 44  1  0  0  0  0
 21 45  1  0  0  0  0
 21 46  1  0  0  0  0
M  CHG  1   3   1
M  END
> <s_m_source_file>
AV-unprocessed.smi

> <i_m_source_file_index>
910

> <i_lp_mmshare_version>
43012

> <i_f3d_flags>
0

> <s_epik_input>
W0NIM11jMW5jKG9jMVtDSDNdKVtOSF1DKD1PKVtOSF1bQ0gyXVtDSDJdT1tDQEBIXTJbQ0gyXVtDSDJdW0NIMl1bQ0gyXVtDQEhdMltDSDNd

> <s_epik_cmdline>
J2VwaWtfcHl0aG9uJywgJy1waCcsICc3LjAnLCAnLXRuJywgJzgnLCAnLW1hJywgJzIwMCcsICctbWV0YWxfYmluZGluZycsICctaW1hZScsICc8aW5maWxlLm1hZT4nLCAnLW9tYWUnLCAnPG91dGZpbGUubWFlPic=

> <r_epik_Ionization_Penalty>
7.32931

> <r_epik_Ionization_Penalty_Charging>
7.12214

> <r_epik_Ionization_Penalty_Neutral>
0.207166

> <r_epik_State_Penalty>
2.61278

> <r_epik_Charging_Adjusted_Penalty>
9.73492

> <i_epik_Tot_Q>
1

> <i_epik_Tot_abs_Q>
1

> <r_epik_Metal_State_Penalty>
2.64585

> <b_epik_Metal_Only>
0

> <s_lp_Force_Field>
OPLS_2005

> <r_lp_Energy>
17.2334

> <b_lp_Chiralities_Consistent>
1

> <s_lp_Variant>
AV-unprocessed.smi:910-14

> <Gold.Version>
5.8.1

> <Gold.Id.Protein>
6NUR|6NUR_protein|mol2

> <Gold.PLP.Fitness>
51.4726

> <Gold.PLP.PLP>
-44.0542

> <Gold.PLP.part.hbond>
-2.0000

> <Gold.PLP.part.metal>
0.0000

> <Gold.PLP.part.buried>
-5.8447

> <Gold.PLP.part.nonpolar>
-35.9774

> <Gold.PLP.part.repulsive>
0.1287

> <Gold.PLP.ligand.clash>
0.0000

> <Gold.PLP.ligand.torsion>
0.5244

> <Gold.PLP.Chemscore.Hbond>
2.8089

> <Gold.PLP.Chemscore.CHOScore>
0.0000

> <Gold.PLP.Chemscore.Metal>
0.0000

> <Gold.Chemscore.Hbonds>
donor molecule, donor type, donor heavy atom, donor atom, acceptor molecule, acceptor atom, score
      L1  H     3    25       P1  7948  1.40
      P1  H  6896  6909       L1     7  0.55

> <Gold.PLP.Chemscore.Internal.Correction>
0.0408

> <Gold.Rescore>
     Score         DG    S(hbond)    S(metal)    S(lipo)     H(rot)  DE(clash)    DE(int)     intcor
     17.84     -19.52       1.58        0.00     112.07       1.69       0.01       1.67       ----

> <Gold.Chemscore.Fitness>
17.8362

> <Gold.Chemscore.DG>
-19.5171

> <Gold.Chemscore.ZeroCoef>
-5.4800

> <Gold.Chemscore.Hbond>
1.5758

> <Gold.Chemscore.Metal>
0.0000

> <Gold.Chemscore.Lipo>
112.0749

> <Gold.Chemscore.Internal_Hbond>
0.0000

> <Gold.Chemscore.DEClash>
0.0127

> <Gold.Chemscore.DEInternal>
1.6682

> <Gold.Chemscore.Rot>
1.6949

> <Gold.Chemscore.Internal.Correction>
   9.000000E+99

> <Gold.Chemscore.Hbonds>
donor molecule, donor type, donor heavy atom, donor atom, acceptor molecule, acceptor atom, score
      L1  H     3    25       P1  7948  0.07
      P1  H  6896  6909       L1     7  0.55

> <Gold.Chemscore.Hbond.Weighted>
-5.2633

> <Gold.Chemscore.Metal.Weighted>
-0.0000

> <Gold.Chemscore.Lipo.Weighted>
-13.1128

> <Gold.Chemscore.Internal_Hbond.Weighted>
0.0000

> <Gold.Chemscore.DEClash.Weighted>
0.0127

> <Gold.Chemscore.DEInternal.Weighted>
1.6682

> <Gold.Chemscore.Rot.Weighted>
4.3390

> <Gold.Chemscore.Internal.Correction.Weighted>
   9.000000E+99

> <Gold.Protein.RotatedTorsions>
[ 6907 6896 6895 6894 ] final   77.67 input  -60.11 | X-H torsion
[ 7974 7965 7964 7962 ] final  165.47 input  175.53 | X-H torsion
[ 8008 7997 7996 7995 ] final   22.42 input   59.86 | X-H torsion
[ 10167 10162 10161 10158 ] final -135.27 input  -65.29 | X-H torsion
[ 10718 10713 10712 10709 ] final  -84.08 input   66.30 | X-H torsion
[ 10763 10752 10751 10750 ] final  146.66 input  -60.55 | X-H torsion
[ 11005 11000 10999 10996 ] final  119.18 input  -57.11 | X-H torsion

> <Gold.Protein.ActiveResidues>
 VAL166  LYS551  ARG553  GLY616  TRP617  ASP618  TYR619  PRO620  LYS621  CYS622 
 ASP623  PHE694  ASN695  SER759  ASP760  ASP761  ALA762  ILE779  LEU786  VAL792 
 PHE793  MET794  SER795  GLU796  ALA797  LYS798  CYS799  TRP800  GLU811  SER814 

> <Gold.Protein.RotatedAtoms>
  152.5127  134.3782  159.9341 H   0  0  0  0  0  0  0  0  0  0  0  0  # atno 6907 bound_to 6896
  151.3738  133.3839  159.2710 H   0  0  0  0  0  0  0  0  0  0  0  0  # atno 6908 bound_to 6896
  150.9557  134.8972  159.7758 H   0  0  0  0  0  0  0  0  0  0  0  0  # atno 6909 bound_to 6896
  144.7501  139.8475  143.6369 H   0  0  0  0  0  0  0  0  0  0  0  0  # atno 7974 bound_to 7965
  154.9655  140.3083  155.5011 H   0  0  0  0  0  0  0  0  0  0  0  0  # atno 8008 bound_to 7997
  156.2972  140.2293  156.4682 H   0  0  0  0  0  0  0  0  0  0  0  0  # atno 8009 bound_to 7997
  154.7925  140.0439  157.1200 H   0  0  0  0  0  0  0  0  0  0  0  0  # atno 8010 bound_to 7997
  139.8796  143.6855  152.2629 H   0  0  0  0  0  0  0  0  0  0  0  0  # atno 10167 bound_to 10162
  156.0010  130.4686  150.4356 H   0  0  0  0  0  0  0  0  0  0  0  0  # atno 10718 bound_to 10713
  154.0255  135.2902  155.3375 H   0  0  0  0  0  0  0  0  0  0  0  0  # atno 10763 bound_to 10752
  154.7020  135.5184  153.8543 H   0  0  0  0  0  0  0  0  0  0  0  0  # atno 10764 bound_to 10752
  153.0662  135.6632  154.0473 H   0  0  0  0  0  0  0  0  0  0  0  0  # atno 10765 bound_to 10752
  139.9137  134.9626  156.7616 H   0  0  0  0  0  0  0  0  0  0  0  0  # atno 11005 bound_to 11000
  146.1439  139.4504  143.0091 LP  0  0  0  0  0  0  0  0  0  0  0  0  # atno 17320 bound_to 7965
  145.6975  141.0146  143.1522 LP  0  0  0  0  0  0  0  0  0  0  0  0  # atno 17321 bound_to 7965
  139.7208  144.7603  151.0958 LP  0  0  0  0  0  0  0  0  0  0  0  0  # atno 17342 bound_to 10162
  140.7747  143.5210  150.9536 LP  0  0  0  0  0  0  0  0  0  0  0  0  # atno 17343 bound_to 10162
  157.2401  131.0523  151.2441 LP  0  0  0  0  0  0  0  0  0  0  0  0  # atno 17370 bound_to 10713
  157.3628  130.7140  149.6513 LP  0  0  0  0  0  0  0  0  0  0  0  0  # atno 17371 bound_to 10713
  140.6693  133.9574  155.7847 LP  0  0  0  0  0  0  0  0  0  0  0  0  # atno 17394 bound_to 11000
  141.0589  134.0375  157.3685 LP  0  0  0  0  0  0  0  0  0  0  0  0  # atno 17395 bound_to 11000

$$$$
