#       Name:                AV-unprocessed.smi:2751
#       Creating user name   scv26
#       Creation time:       Fri Mar 27 15:05:21 2020


#       File generated by GOLD software.
#

@<TRIPOS>MOLECULE
AV-unprocessed.smi:2751
    41    42     1
SMALL
NO_CHARGES


@<TRIPOS>ATOM
      1 ****        -1.6678   1.7895   0.7566 O.2            1 S1                 0.0000
      2 ****        -2.2262   0.7017   0.9317 C.2            1 S1                 0.0000
      3 ****        -1.5226  -0.4307   1.0811 N.am           1 S1                 0.0000
      4 ****        -0.0673  -0.5325   1.0662 C.3            1 S1                 0.0000
      5 ****         0.4847  -0.5678  -0.3693 C.3            1 S1                 0.0000
      6 ****         2.0173  -0.6731  -0.4171 C.3            1 S1                 0.0000
      7 ****         2.5574  -0.5703  -1.8571 C.3            1 S1                 0.0000
      8 ****         4.0788  -0.7576  -1.8786 C.3            1 S1                 0.0000
      9 ****         4.4492  -2.0590  -1.1600 C.3            1 S1                 0.0000
     10 ****         3.8154  -2.0942   0.2396 C.3            1 S1                 0.0000
     11 ****         2.4043  -1.9295   0.1369 O.3            1 S1                 0.0000
     12 ****        -3.5851   0.4321   1.0160 N.2            1 S1                 0.0000
     13 ****        -4.4443   1.4053   1.0052 C.2            1 S1                 0.0000
     14 ****        -4.3114   2.7891   0.9251 N.pl3          1 S1                 0.0000
     15 ****        -5.5614   3.3407   0.9619 C.2            1 S1                 0.0000
     16 ****        -6.4449   2.3519   1.0597 C.2            1 S1                 0.0000
     17 ****        -5.7912   1.1566   1.0877 O.3            1 S1                 0.0000
     18 ****        -2.0368  -1.2886   1.2216 H              1 S1                 0.0000
     19 ****         0.3731   0.2938   1.6269 H              1 S1                 0.0000
     20 ****         0.2093  -1.4452   1.5945 H              1 S1                 0.0000
     21 ****         0.0430  -1.4032  -0.9142 H              1 S1                 0.0000
     22 ****         0.1761   0.3373  -0.8939 H              1 S1                 0.0000
     23 ****         2.4429   0.1315   0.1855 H              1 S1                 0.0000
     24 ****         2.0884  -1.3318  -2.4817 H              1 S1                 0.0000
     25 ****         2.2963   0.3948  -2.2921 H              1 S1                 0.0000
     26 ****         4.4468  -0.7707  -2.9047 H              1 S1                 0.0000
     27 ****         4.5598   0.0862  -1.3823 H              1 S1                 0.0000
     28 ****         4.0957  -2.9117  -1.7410 H              1 S1                 0.0000
     29 ****         5.5328  -2.1559  -1.0878 H              1 S1                 0.0000
     30 ****         4.0241  -3.0495   0.7216 H              1 S1                 0.0000
     31 ****         4.2377  -1.3167   0.8783 H              1 S1                 0.0000
     32 ****        -3.4627   3.3319   0.8526 H              1 S1                 0.0000
     33 ****        -5.6882   4.4122   0.9131 H              1 S1                 0.0000
     34 ****        -7.5232   2.3349   1.1179 H              1 S1                 0.0000
     35 ****        -2.2137   2.6212   0.6553 LP             1 S1                 0.0000
     36 ****        -0.6698   1.8384   0.7161 LP             1 S1                 0.0000
     37 ****         2.0421  -2.6574  -0.4454 LP             1 S1                 0.0000
     38 ****         2.0090  -2.0072   1.0522 LP             1 S1                 0.0000
     39 ****        -3.9029  -0.5136   1.0852 LP             1 S1                 0.0000
     40 ****        -5.9959   0.6782   1.9417 LP             1 S1                 0.0000
     41 ****        -6.0801   0.5940   0.3131 LP             1 S1                 0.0000
@<TRIPOS>BOND
    1    1    2 2     
    2    2   12 1     
    3    2    3 am    
    4    3    4 1     
    5    3   18 1     
    6    4    5 1     
    7    4   19 1     
    8    4   20 1     
    9    5    6 1     
   10    5   21 1     
   11    5   22 1     
   12    6   11 1     
   13    6    7 1     
   14    6   23 1     
   15    7    8 1     
   16    7   24 1     
   17    7   25 1     
   18    8    9 1     
   19    8   26 1     
   20    8   27 1     
   21    9   10 1     
   22    9   28 1     
   23    9   29 1     
   24   10   11 1     
   25   10   30 1     
   26   10   31 1     
   27   12   13 2     
   28   13   17 1     
   29   13   14 1     
   30   14   32 1     
   31   14   15 1     
   32   15   33 1     
   33   15   16 2     
   34   16   34 1     
   35   16   17 1     
   36    1   35 1     
   37    1   36 1     
   38   11   37 1     
   39   11   38 1     
   40   12   39 1     
   41   17   40 1     
   42   17   41 1     
@<TRIPOS>SUBSTRUCTURE
      1 S1             1
@<TRIPOS>SET
LONE_PAIRS      STATIC     ATOMS    <user>   **** ""
7 35 36 37 38 39 40 41
DONOR_HYDROGENS      STATIC     ATOMS    <user>   **** ""
2 18 32
ATOM$BLUE        STATIC     ATOMS    COLORGROUP SYSTEM
7 35 36 37 38 39 40 41
ATOM$RED        STATIC     ATOMS    COLORGROUP SYSTEM
2 18 32
