#       Name:                AV-unprocessed.smi:311
#       Creating user name   scv26
#       Creation time:       Thu Mar 26 22:19:59 2020


#       File generated by GOLD software.
#

@<TRIPOS>MOLECULE
AV-unprocessed.smi:311
    49    51     1
SMALL
NO_CHARGES


@<TRIPOS>ATOM
      1 ****        -1.5378   0.4763  -3.7222 C.3            1 S1                 0.0000
      2 ****        -2.3693   0.2501  -2.4923 C.2            1 S1                 0.0000
      3 ****        -3.1778   1.2057  -2.0666 N.2            1 S1                 0.0000
      4 ****        -3.7956   0.7019  -0.9181 O.3            1 S1                 0.0000
      5 ****        -3.3290  -0.5524  -0.6946 C.2            1 S1                 0.0000
      6 ****        -3.8618  -1.2573   0.5065 C.3            1 S1                 0.0000
      7 ****        -2.4184  -0.9010  -1.6546 C.2            1 S1                 0.0000
      8 ****        -1.6340  -2.1822  -1.7893 C.3            1 S1                 0.0000
      9 ****        -0.4774  -2.1725  -0.7901 C.2            1 S1                 0.0000
     10 ****        -0.4883  -2.9332   0.1770 O.2            1 S1                 0.0000
     11 ****         0.4994  -1.2805  -1.0166 N.am           1 S1                 0.0000
     12 ****         1.6188  -1.0251  -0.1168 C.3            1 S1                 0.0000
     13 ****         2.7363  -0.2132  -0.7585 C.3            1 S1                 0.0000
     14 ****         3.5097   0.3237   0.4503 C.3            1 S1                 0.0000
     15 ****         2.5461   0.4047   1.5758 N.4            1 S1                 1.0000
     16 ****         2.4461   1.7551   2.1917 C.3            1 S1                 0.0000
     17 ****         1.1810   1.8736   3.0545 C.3            1 S1                 0.0000
     18 ****        -0.0953   1.6936   2.2110 C.3            1 S1                 0.0000
     19 ****         0.1569   0.8813   0.9267 C.3            1 S1                 0.0000
     20 ****         1.2556  -0.1928   1.1290 C.3            1 S1                 0.0000
     21 ****        -1.4812   1.5342  -3.9817 H              1 S1                 0.0000
     22 ****        -1.9567  -0.0535  -4.5778 H              1 S1                 0.0000
     23 ****        -0.5183   0.1193  -3.5764 H              1 S1                 0.0000
     24 ****        -3.3771  -0.8918   1.4118 H              1 S1                 0.0000
     25 ****        -3.6866  -2.3310   0.4402 H              1 S1                 0.0000
     26 ****        -4.9353  -1.0967   0.6070 H              1 S1                 0.0000
     27 ****        -2.2640  -3.0528  -1.6033 H              1 S1                 0.0000
     28 ****        -1.2330  -2.3067  -2.7957 H              1 S1                 0.0000
     29 ****         0.4284  -0.6989  -1.8391 H              1 S1                 0.0000
     30 ****         2.0417  -1.9790   0.2057 H              1 S1                 0.0000
     31 ****         3.3601  -0.8042  -1.4298 H              1 S1                 0.0000
     32 ****         2.3207   0.6182  -1.3302 H              1 S1                 0.0000
     33 ****         4.2942  -0.3791   0.7335 H              1 S1                 0.0000
     34 ****         3.9933   1.2757   0.2269 H              1 S1                 0.0000
     35 ****         3.3387   1.9386   2.7907 H              1 S1                 0.0000
     36 ****         2.4230   2.5226   1.4161 H              1 S1                 0.0000
     37 ****         1.2124   1.1128   3.8359 H              1 S1                 0.0000
     38 ****         1.1554   2.8354   3.5675 H              1 S1                 0.0000
     39 ****        -0.8573   1.2046   2.8193 H              1 S1                 0.0000
     40 ****        -0.5053   2.6666   1.9380 H              1 S1                 0.0000
     41 ****        -0.7830   0.4325   0.6066 H              1 S1                 0.0000
     42 ****         0.4565   1.5574   0.1247 H              1 S1                 0.0000
     43 ****         0.9098  -0.8688   1.9124 H              1 S1                 0.0000
     44 ****         2.8986  -0.2129   2.2932 H              1 S1                 0.0000
     45 ****        -3.3186   2.1048  -2.4812 LP             1 S1                 0.0000
     46 ****        -4.7862   0.6747  -1.0520 LP             1 S1                 0.0000
     47 ****        -3.5811   1.2863  -0.1355 LP             1 S1                 0.0000
     48 ****        -1.2555  -3.5604   0.3112 LP             1 S1                 0.0000
     49 ****         0.2700  -2.9242   0.8288 LP             1 S1                 0.0000
@<TRIPOS>BOND
    1    1    2 1     
    2    1   21 1     
    3    1   22 1     
    4    1   23 1     
    5    2    7 1     
    6    2    3 2     
    7    3    4 1     
    8    4    5 1     
    9    5    6 1     
   10    5    7 2     
   11    6   24 1     
   12    6   25 1     
   13    6   26 1     
   14    7    8 1     
   15    8    9 1     
   16    8   27 1     
   17    8   28 1     
   18    9   10 2     
   19    9   11 am    
   20   11   12 1     
   21   11   29 1     
   22   12   20 1     
   23   12   13 1     
   24   12   30 1     
   25   13   14 1     
   26   13   31 1     
   27   13   32 1     
   28   14   15 1     
   29   14   33 1     
   30   14   34 1     
   31   15   20 1     
   32   15   16 1     
   33   15   44 1     
   34   16   17 1     
   35   16   35 1     
   36   16   36 1     
   37   17   18 1     
   38   17   37 1     
   39   17   38 1     
   40   18   19 1     
   41   18   39 1     
   42   18   40 1     
   43   19   20 1     
   44   19   41 1     
   45   19   42 1     
   46   20   43 1     
   47    3   45 1     
   48    4   46 1     
   49    4   47 1     
   50   10   48 1     
   51   10   49 1     
@<TRIPOS>SUBSTRUCTURE
      1 S1             1
@<TRIPOS>SET
LONE_PAIRS      STATIC     ATOMS    <user>   **** ""
5 45 46 47 48 49
DONOR_HYDROGENS      STATIC     ATOMS    <user>   **** ""
2 29 44
ATOM$BLUE        STATIC     ATOMS    COLORGROUP SYSTEM
5 45 46 47 48 49
ATOM$RED        STATIC     ATOMS    COLORGROUP SYSTEM
2 29 44
