AV-unprocessed.smi:281|AV-procd|sdf|2105|dock2
  -GOLD-   2262021393D 1   1.00000     0.00000
 Structure written by MMmdl.
 55 59  0  0  0  0  0  0  0  0  1 V2000
  148.5130  139.6218  154.6092 C   0  0  0  0  0  0  0  0  0  0  0  0
  148.3841  138.1974  155.1577 C   0  0  2  0  0  0  0  0  0  0  0  0
  147.2492  137.4175  154.4764 C   0  0  0  0  0  0  0  0  0  0  0  0
  147.1026  136.0971  155.0840 N   0  0  0  0  0  0  0  0  0  0  0  0
  146.2990  135.2007  154.4513 C   0  0  0  0  0  0  0  0  0  0  0  0
  146.1295  133.9559  154.9749 N   0  0  0  0  0  0  0  0  0  0  0  0
  145.3510  133.0601  154.3617 C   0  0  0  0  0  0  0  0  0  0  0  0
  144.6532  133.1961  153.2334 N   0  0  0  0  0  0  0  0  0  0  0  0
  144.8076  134.4433  152.7047 C   0  0  0  0  0  0  0  0  0  0  0  0
  145.6058  135.4944  153.2411 C   0  0  0  0  0  0  0  0  0  0  0  0
  145.5087  136.6163  152.4270 N   0  0  0  0  0  0  0  0  0  0  0  0
  144.7109  136.2486  151.4630 C   0  0  0  0  0  0  0  0  0  0  0  0
  144.2333  134.9612  151.5563 N   0  0  0  0  0  0  0  0  0  0  0  0
  143.3303  134.2977  150.6274 C   0  0  0  0  0  0  0  0  0  0  0  0
  143.9715  133.1005  149.8847 C   0  0  1  0  0  0  0  0  0  0  0  0
  143.7675  133.2643  148.4928 O   0  0  0  0  0  0  0  0  0  0  0  0
  145.4726  132.9811  150.1575 C   0  0  0  0  0  0  0  0  0  0  0  0
  145.5788  131.7441  151.0414 C   0  0  0  0  0  0  0  0  0  0  0  0
  144.5564  130.9096  150.5284 O   0  0  0  0  0  0  0  0  0  0  0  0
  143.4156  131.7296  150.3207 C   0  0  0  0  0  0  0  0  0  0  0  0
  146.9433  136.1435  156.5357 C   0  0  0  0  0  0  0  0  0  0  0  0
  148.0339  137.0176  157.2140 C   0  0  1  0  0  0  0  0  0  0  0  0
  147.6516  137.3058  158.6609 C   0  0  0  0  0  0  0  0  0  0  0  0
  148.3097  136.1665  159.4210 C   0  0  0  0  0  0  0  0  0  0  0  0
  149.5679  136.0405  158.7831 O   0  0  0  0  0  0  0  0  0  0  0  0
  149.4390  136.3727  157.4022 C   0  0  1  0  0  0  0  0  0  0  0  0
  149.7767  135.1326  156.5602 C   0  0  0  0  0  0  0  0  0  0  0  0
  148.1099  138.2828  156.5533 O   0  0  0  0  0  0  0  0  0  0  0  0
  148.7348  139.6128  153.5419 H   0  0  0  0  0  0  0  0  0  0  0  0
  149.3173  140.1601  155.1109 H   0  0  0  0  0  0  0  0  0  0  0  0
  147.5919  140.1867  154.7558 H   0  0  0  0  0  0  0  0  0  0  0  0
  149.3322  137.6832  154.9974 H   0  0  0  0  0  0  0  0  0  0  0  0
  146.3107  137.9667  154.5682 H   0  0  0  0  0  0  0  0  0  0  0  0
  147.4659  137.3158  153.4122 H   0  0  0  0  0  0  0  0  0  0  0  0
  145.2773  132.0966  154.8443 H   0  0  0  0  0  0  0  0  0  0  0  0
  144.4416  136.9139  150.6555 H   0  0  0  0  0  0  0  0  0  0  0  0
  142.4499  133.9712  151.1829 H   0  0  0  0  0  0  0  0  0  0  0  0
  142.9771  135.0361  149.9064 H   0  0  0  0  0  0  0  0  0  0  0  0
  144.5915  133.5053  148.0971 H   0  0  0  0  0  0  0  0  0  0  0  0
  146.0269  132.8045  149.2339 H   0  0  0  0  0  0  0  0  0  0  0  0
  145.9014  133.8654  150.6306 H   0  0  0  0  0  0  0  0  0  0  0  0
  146.5575  131.2671  150.9848 H   0  0  0  0  0  0  0  0  0  0  0  0
  145.3698  131.9864  152.0846 H   0  0  0  0  0  0  0  0  0  0  0  0
  142.8879  131.8020  151.2718 H   0  0  0  0  0  0  0  0  0  0  0  0
  142.7305  131.2844  149.5978 H   0  0  0  0  0  0  0  0  0  0  0  0
  145.9593  136.5696  156.7364 H   0  0  0  0  0  0  0  0  0  0  0  0
  146.9364  135.1480  156.9763 H   0  0  0  0  0  0  0  0  0  0  0  0
  148.0903  138.2501  158.9872 H   0  0  0  0  0  0  0  0  0  0  0  0
  146.5761  137.3663  158.8303 H   0  0  0  0  0  0  0  0  0  0  0  0
  148.4184  136.3737  160.4857 H   0  0  0  0  0  0  0  0  0  0  0  0
  147.7463  135.2398  159.3045 H   0  0  0  0  0  0  0  0  0  0  0  0
  150.2012  137.1291  157.2107 H   0  0  0  0  0  0  0  0  0  0  0  0
  149.6986  135.3332  155.4922 H   0  0  0  0  0  0  0  0  0  0  0  0
  149.1218  134.2973  156.8026 H   0  0  0  0  0  0  0  0  0  0  0  0
  150.7983  134.8065  156.7546 H   0  0  0  0  0  0  0  0  0  0  0  0
  1  2  1  0  0  0  0
  1 29  1  0  0  0  0
  1 30  1  0  0  0  0
  1 31  1  0  0  0  0
  2 28  1  0  0  0  0
  2  3  1  0  0  0  0
  2 32  1  0  0  0  0
  3  4  1  0  0  0  0
  3 33  1  0  0  0  0
  3 34  1  0  0  0  0
  4  5  1  0  0  0  0
  4 21  1  0  0  0  0
  5 10  1  0  0  0  0
  5  6  2  0  0  0  0
  6  7  1  0  0  0  0
  7  8  2  0  0  0  0
  7 35  1  0  0  0  0
  8  9  1  0  0  0  0
  9 13  1  0  0  0  0
  9 10  2  0  0  0  0
 10 11  1  0  0  0  0
 11 12  2  0  0  0  0
 12 13  1  0  0  0  0
 12 36  1  0  0  0  0
 13 14  1  0  0  0  0
 14 15  1  0  0  0  0
 14 37  1  0  0  0  0
 14 38  1  0  0  0  0
 15 20  1  0  0  0  0
 15 16  1  0  0  0  0
 15 17  1  0  0  0  0
 16 39  1  0  0  0  0
 17 18  1  0  0  0  0
 17 40  1  0  0  0  0
 17 41  1  0  0  0  0
 18 19  1  0  0  0  0
 18 42  1  0  0  0  0
 18 43  1  0  0  0  0
 19 20  1  0  0  0  0
 20 44  1  0  0  0  0
 20 45  1  0  0  0  0
 21 22  1  0  0  0  0
 21 46  1  0  0  0  0
 21 47  1  0  0  0  0
 22 26  1  0  0  0  0
 22 23  1  0  0  0  0
 22 28  1  0  0  0  0
 23 24  1  0  0  0  0
 23 48  1  0  0  0  0
 23 49  1  0  0  0  0
 24 25  1  0  0  0  0
 24 50  1  0  0  0  0
 24 51  1  0  0  0  0
 25 26  1  0  0  0  0
 26 27  1  0  0  0  0
 26 52  1  0  0  0  0
 27 53  1  0  0  0  0
 27 54  1  0  0  0  0
 27 55  1  0  0  0  0
M  END
> <s_m_source_file>
AV-unprocessed.smi

> <i_m_source_file_index>
281

> <i_lp_mmshare_version>
43012

> <i_f3d_flags>
0

> <s_epik_input>
W0NIM11bQ0BASF0xT1tDSDJdW0NIMl1bQ0BAXTEyW0NIMl1OKFtDSDJdW0NASF0oTzIpW0NIM10pYyhuW2NIXW4zKWMoYzM0KW5bY0hdbjRbQ0gyXVtDQEBdNShbT0hdKVtDSDJdW0NIMl1PW0NIMl01

> <s_epik_cmdline>
J2VwaWtfcHl0aG9uJywgJy1waCcsICc3LjAnLCAnLXRuJywgJzgnLCAnLW1hJywgJzIwMCcsICctbWV0YWxfYmluZGluZycsICctaW1hZScsICc8aW5maWxlLm1hZT4nLCAnLW9tYWUnLCAnPG91dGZpbGUubWFlPic=

> <r_lp_tautomer_probability>
1

> <r_epik_Ionization_Penalty>
0.00571331

> <r_epik_Ionization_Penalty_Charging>
0

> <r_epik_Ionization_Penalty_Neutral>
0.00571331

> <r_epik_State_Penalty>
0.00399586

> <r_epik_Charging_Adjusted_Penalty>
0.00399586

> <i_epik_Tot_Q>
0

> <i_epik_Tot_abs_Q>
0

> <r_epik_Metal_State_Penalty>
-0

> <b_epik_Metal_Only>
0

> <s_lp_Force_Field>
OPLS_2005

> <r_lp_Energy>
53.3416

> <b_lp_Chiralities_Consistent>
1

> <s_lp_Variant>
AV-unprocessed.smi:281-5

> <Gold.Version>
5.8.1

> <Gold.Id.Protein>
6NUR|6NUR_protein|mol2

> <Gold.PLP.Fitness>
35.2864

> <Gold.PLP.PLP>
-28.6381

> <Gold.PLP.part.hbond>
-2.3872

> <Gold.PLP.part.metal>
0.0000

> <Gold.PLP.part.buried>
-4.1016

> <Gold.PLP.part.nonpolar>
-23.6930

> <Gold.PLP.part.repulsive>
1.4272

> <Gold.PLP.ligand.clash>
0.0000

> <Gold.PLP.ligand.torsion>
1.3195

> <Gold.PLP.Chemscore.Hbond>
2.0000

> <Gold.PLP.Chemscore.CHOScore>
1.0000

> <Gold.PLP.Chemscore.Metal>
0.0000

> <Gold.Chemscore.Hbonds>
donor molecule, donor type, donor heavy atom, donor atom, acceptor molecule, acceptor atom, score
      L1  H    16    39       P1  7921  0.94
      P1  H  6896  6908       L1    25  1.00
      L1  C     7    35       P1 10957  0.35
      L1  C    12    36       P1 10171  0.80

> <Gold.PLP.Chemscore.Internal.Correction>
0.2873

> <Gold.Rescore>
     Score         DG    S(hbond)    S(metal)    S(lipo)     H(rot)  DE(clash)    DE(int)     intcor
     10.60     -14.47       1.93        0.00      67.38       2.09       1.10       2.76       ----

> <Gold.Chemscore.Fitness>
10.6041

> <Gold.Chemscore.DG>
-14.4659

> <Gold.Chemscore.ZeroCoef>
-5.4800

> <Gold.Chemscore.Hbond>
1.9340

> <Gold.Chemscore.Metal>
0.0000

> <Gold.Chemscore.Lipo>
67.3828

> <Gold.Chemscore.Internal_Hbond>
0.0000

> <Gold.Chemscore.DEClash>
1.1034

> <Gold.Chemscore.DEInternal>
2.7584

> <Gold.Chemscore.Rot>
2.0927

> <Gold.Chemscore.Internal.Correction>
   9.000000E+99

> <Gold.Chemscore.Hbonds>
donor molecule, donor type, donor heavy atom, donor atom, acceptor molecule, acceptor atom, score
      L1  H    16    39       P1  7921  0.83
      P1  H  6896  6908       L1    25  0.89

> <Gold.Chemscore.Hbond.Weighted>
-6.4595

> <Gold.Chemscore.Metal.Weighted>
-0.0000

> <Gold.Chemscore.Lipo.Weighted>
-7.8838

> <Gold.Chemscore.Internal_Hbond.Weighted>
0.0000

> <Gold.Chemscore.DEClash.Weighted>
1.1034

> <Gold.Chemscore.DEInternal.Weighted>
2.7584

> <Gold.Chemscore.Rot.Weighted>
5.3573

> <Gold.Chemscore.Internal.Correction.Weighted>
   9.000000E+99

> <Gold.Protein.RotatedTorsions>
[ 6907 6896 6895 6894 ] final -163.07 input  -60.11 | X-H torsion
[ 7974 7965 7964 7962 ] final   68.03 input  175.53 | X-H torsion
[ 8008 7997 7996 7995 ] final  154.00 input   59.86 | X-H torsion
[ 10167 10162 10161 10158 ] final   40.22 input  -65.29 | X-H torsion
[ 10718 10713 10712 10709 ] final   79.65 input   66.30 | X-H torsion
[ 10763 10752 10751 10750 ] final   47.37 input  -60.55 | X-H torsion
[ 11005 11000 10999 10996 ] final -161.06 input  -57.11 | X-H torsion

> <Gold.Protein.ActiveResidues>
 VAL166  LYS551  ARG553  GLY616  TRP617  ASP618  TYR619  PRO620  LYS621  CYS622 
 ASP623  PHE694  ASN695  SER759  ASP760  ASP761  ALA762  ILE779  LEU786  VAL792 
 PHE793  MET794  SER795  GLU796  ALA797  LYS798  CYS799  TRP800  GLU811  SER814 

> <Gold.Protein.RotatedAtoms>
  151.3902  133.3791  159.2719 H   0  0  0  0  0  0  0  0  0  0  0  0  # atno 6907 bound_to 6896
  150.9511  134.8912  159.7683 H   0  0  0  0  0  0  0  0  0  0  0  0  # atno 6908 bound_to 6896
  152.5112  134.3857  159.9419 H   0  0  0  0  0  0  0  0  0  0  0  0  # atno 6909 bound_to 6896
  145.8075  139.3014  143.1119 H   0  0  0  0  0  0  0  0  0  0  0  0  # atno 7974 bound_to 7965
  156.2553  140.1978  156.6578 H   0  0  0  0  0  0  0  0  0  0  0  0  # atno 8008 bound_to 7997
  154.6488  140.0574  156.9956 H   0  0  0  0  0  0  0  0  0  0  0  0  # atno 8009 bound_to 7997
  155.1450  140.3246  155.4446 H   0  0  0  0  0  0  0  0  0  0  0  0  # atno 8010 bound_to 7997
  140.3763  144.2038  150.6131 H   0  0  0  0  0  0  0  0  0  0  0  0  # atno 10167 bound_to 10162
  157.6783  130.9923  150.1963 H   0  0  0  0  0  0  0  0  0  0  0  0  # atno 10718 bound_to 10713
  152.9800  135.5978  154.3752 H   0  0  0  0  0  0  0  0  0  0  0  0  # atno 10763 bound_to 10752
  154.3421  135.2767  155.2419 H   0  0  0  0  0  0  0  0  0  0  0  0  # atno 10764 bound_to 10752
  154.4495  135.5993  153.6237 H   0  0  0  0  0  0  0  0  0  0  0  0  # atno 10765 bound_to 10752
  140.6246  134.4714  157.5226 H   0  0  0  0  0  0  0  0  0  0  0  0  # atno 11005 bound_to 11000
  145.9813  140.8680  143.0113 LP  0  0  0  0  0  0  0  0  0  0  0  0  # atno 17320 bound_to 7965
  144.6761  140.2084  143.7379 LP  0  0  0  0  0  0  0  0  0  0  0  0  # atno 17321 bound_to 7965
  140.4982  143.2326  151.8718 LP  0  0  0  0  0  0  0  0  0  0  0  0  # atno 17342 bound_to 10162
  139.4799  144.5089  151.8959 LP  0  0  0  0  0  0  0  0  0  0  0  0  # atno 17343 bound_to 10162
  156.2663  130.3716  149.8077 LP  0  0  0  0  0  0  0  0  0  0  0  0  # atno 17370 bound_to 10713
  156.5808  130.8464  151.3382 LP  0  0  0  0  0  0  0  0  0  0  0  0  # atno 17371 bound_to 10713
  139.9140  134.8286  156.1431 LP  0  0  0  0  0  0  0  0  0  0  0  0  # atno 17394 bound_to 11000
  141.0718  133.6793  156.2156 LP  0  0  0  0  0  0  0  0  0  0  0  0  # atno 17395 bound_to 11000

$$$$
