AV-unprocessed.smi:2045|AV-procd|sdf|8310|dock7
  -GOLD-   2272010573D 1   1.00000     0.00000
 Structure written by MMmdl.
 38 39  0  0  0  0  0  0  0  0  3 V2000
  148.7871  141.2638  154.1346 C   0  0  0  0  0  0  0  0  0  0  0  0
  149.4001  139.9249  154.3624 C   0  0  0  0  0  0  0  0  0  0  0  0
  148.9206  138.6504  154.2495 C   0  0  0  0  0  0  0  0  0  0  0  0
  150.0374  137.8531  154.6169 C   0  0  0  0  0  0  0  0  0  0  0  0
  149.9441  136.4361  154.6239 N   0  0  0  0  0  0  0  0  0  0  0  0
  150.0397  135.5896  155.6658 C   0  0  0  0  0  0  0  0  0  0  0  0
  150.2121  136.0251  156.8106 O   0  0  0  0  0  0  0  0  0  0  0  0
  149.9250  134.2882  155.2830 N   0  5  0  0  0  0  0  0  0  0  0  0
  149.2481  133.8351  154.0701 C   0  0  0  0  0  0  0  0  0  0  0  0
  147.7492  134.1790  154.1577 C   0  0  0  0  0  0  0  0  0  0  0  0
  147.1091  134.2350  152.8160 N   0  3  0  0  0  0  0  0  0  0  0  0
  146.9541  132.8900  152.2005 C   0  0  0  0  0  0  0  0  0  0  0  0
  146.4297  132.9922  150.7579 C   0  0  0  0  0  0  0  0  0  0  0  0
  145.1095  133.7714  150.7039 C   0  0  0  0  0  0  0  0  0  0  0  0
  145.2848  135.1422  151.3694 C   0  0  0  0  0  0  0  0  0  0  0  0
  145.8251  134.9926  152.8012 C   0  0  0  0  0  0  0  0  0  0  0  0
  151.1024  138.5777  154.9260 N   0  0  0  0  0  0  0  0  0  0  0  0
  150.6993  139.9086  154.7653 O   0  0  0  0  0  0  0  0  0  0  0  0
  147.7332  141.1707  153.8719 H   0  0  0  0  0  0  0  0  0  0  0  0
  149.2931  141.7869  153.3232 H   0  0  0  0  0  0  0  0  0  0  0  0
  148.8589  141.8787  155.0317 H   0  0  0  0  0  0  0  0  0  0  0  0
  147.9305  138.3397  153.9511 H   0  0  0  0  0  0  0  0  0  0  0  0
  149.7952  136.0054  153.7236 H   0  0  0  0  0  0  0  0  0  0  0  0
  149.6606  134.2962  153.1717 H   0  0  0  0  0  0  0  0  0  0  0  0
  149.3568  132.7592  153.9287 H   0  0  0  0  0  0  0  0  0  0  0  0
  147.2646  133.4131  154.7658 H   0  0  0  0  0  0  0  0  0  0  0  0
  147.5933  135.1217  154.6853 H   0  0  0  0  0  0  0  0  0  0  0  0
  147.9161  132.3762  152.1919 H   0  0  0  0  0  0  0  0  0  0  0  0
  146.2763  132.2876  152.8075 H   0  0  0  0  0  0  0  0  0  0  0  0
  147.1736  133.4877  150.1325 H   0  0  0  0  0  0  0  0  0  0  0  0
  146.2903  131.9946  150.3406 H   0  0  0  0  0  0  0  0  0  0  0  0
  144.7831  133.8917  149.6705 H   0  0  0  0  0  0  0  0  0  0  0  0
  144.3275  133.2092  151.2159 H   0  0  0  0  0  0  0  0  0  0  0  0
  145.9713  135.7521  150.7806 H   0  0  0  0  0  0  0  0  0  0  0  0
  144.3329  135.6738  151.3840 H   0  0  0  0  0  0  0  0  0  0  0  0
  145.0918  134.4797  153.4256 H   0  0  0  0  0  0  0  0  0  0  0  0
  145.9658  135.9837  153.2338 H   0  0  0  0  0  0  0  0  0  0  0  0
  147.7561  134.7390  152.2261 H   0  0  0  0  0  0  0  0  0  0  0  0
  1  2  1  0  0  0  0
  1 19  1  0  0  0  0
  1 20  1  0  0  0  0
  1 21  1  0  0  0  0
  2 18  1  0  0  0  0
  2  3  2  0  0  0  0
  3  4  1  0  0  0  0
  3 22  1  0  0  0  0
  4  5  1  0  0  0  0
  4 17  2  0  0  0  0
  5  6  1  0  0  0  0
  5 23  1  0  0  0  0
  6  7  2  0  0  0  0
  6  8  1  0  0  0  0
  8  9  1  0  0  0  0
  9 10  1  0  0  0  0
  9 24  1  0  0  0  0
  9 25  1  0  0  0  0
 10 11  1  0  0  0  0
 10 26  1  0  0  0  0
 10 27  1  0  0  0  0
 11 16  1  0  0  0  0
 11 12  1  0  0  0  0
 11 38  1  0  0  0  0
 12 13  1  0  0  0  0
 12 28  1  0  0  0  0
 12 29  1  0  0  0  0
 13 14  1  0  0  0  0
 13 30  1  0  0  0  0
 13 31  1  0  0  0  0
 14 15  1  0  0  0  0
 14 32  1  0  0  0  0
 14 33  1  0  0  0  0
 15 16  1  0  0  0  0
 15 34  1  0  0  0  0
 15 35  1  0  0  0  0
 16 36  1  0  0  0  0
 16 37  1  0  0  0  0
 17 18  1  0  0  0  0
M  CHG  1   8  -1
M  CHG  1  11   1
M  END
> <s_m_source_file>
AV-unprocessed.smi

> <i_m_source_file_index>
2045

> <i_lp_mmshare_version>
43012

> <i_f3d_flags>
0

> <s_epik_input>
W0NIM11jMVtjSF1jKG5vMSlbTkhdQyg9TylbTkhdW0NIMl1bQ0gyXU4yW0NIMl1bQ0gyXVtDSDJdW0NIMl1bQ0gyXTI=

> <s_epik_cmdline>
J2VwaWtfcHl0aG9uJywgJy1waCcsICc3LjAnLCAnLXRuJywgJzgnLCAnLW1hJywgJzIwMCcsICctbWV0YWxfYmluZGluZycsICctaW1hZScsICc8aW5maWxlLm1hZT4nLCAnLW9tYWUnLCAnPG91dGZpbGUubWFlPic=

> <r_epik_Ionization_Penalty>
6.7666

> <r_epik_Ionization_Penalty_Charging>
6.7666

> <r_epik_Ionization_Penalty_Neutral>
5.77131e-06

> <r_epik_State_Penalty>
6.79217

> <r_epik_Charging_Adjusted_Penalty>
13.5588

> <i_epik_Tot_Q>
0

> <i_epik_Tot_abs_Q>
2

> <r_epik_Metal_State_Penalty>
2.72569

> <b_epik_Metal_Only>
1

> <s_lp_Force_Field>
OPLS_2005

> <r_lp_Energy>
13.1294

> <b_lp_Chiralities_Consistent>
1

> <s_lp_Variant>
AV-unprocessed.smi:2045-3

> <Gold.Version>
5.8.1

> <Gold.Id.Protein>
6NUR|6NUR_protein|mol2

> <Gold.PLP.Fitness>
39.7301

> <Gold.PLP.PLP>
-30.0433

> <Gold.PLP.part.hbond>
-3.0000

> <Gold.PLP.part.metal>
0.0000

> <Gold.PLP.part.buried>
-3.2171

> <Gold.PLP.part.nonpolar>
-24.0765

> <Gold.PLP.part.repulsive>
0.2971

> <Gold.PLP.ligand.clash>
0.0403

> <Gold.PLP.ligand.torsion>
0.9771

> <Gold.PLP.Chemscore.Hbond>
3.8784

> <Gold.PLP.Chemscore.CHOScore>
0.0000

> <Gold.PLP.Chemscore.Metal>
0.0000

> <Gold.Chemscore.Hbonds>
donor molecule, donor type, donor heavy atom, donor atom, acceptor molecule, acceptor atom, score
      L1  H     5    23       P1  7948  0.84
      L1  H    11    38       P1  7948  2.00
      P1  H  7989  7998       L1    18  1.00

> <Gold.PLP.Chemscore.Internal.Correction>
0.0460

> <Gold.Rescore>
     Score         DG    S(hbond)    S(metal)    S(lipo)     H(rot)  DE(clash)    DE(int)     intcor
     14.33     -15.35       2.31        0.00      52.39       1.55       0.01       1.02       ----

> <Gold.Chemscore.Fitness>
14.3264

> <Gold.Chemscore.DG>
-15.3505

> <Gold.Chemscore.ZeroCoef>
-5.4800

> <Gold.Chemscore.Hbond>
2.3113

> <Gold.Chemscore.Metal>
0.0000

> <Gold.Chemscore.Lipo>
52.3936

> <Gold.Chemscore.Internal_Hbond>
0.0000

> <Gold.Chemscore.DEClash>
0.0089

> <Gold.Chemscore.DEInternal>
1.0152

> <Gold.Chemscore.Rot>
1.5544

> <Gold.Chemscore.Internal.Correction>
   9.000000E+99

> <Gold.Chemscore.Hbonds>
donor molecule, donor type, donor heavy atom, donor atom, acceptor molecule, acceptor atom, score
      L1  H     5    23       P1  7948  0.15
      L1  H    11    38       P1  7948  0.68
      P1  H  7989  7998       L1    18  0.50

> <Gold.Chemscore.Hbond.Weighted>
-7.7198

> <Gold.Chemscore.Metal.Weighted>
-0.0000

> <Gold.Chemscore.Lipo.Weighted>
-6.1300

> <Gold.Chemscore.Internal_Hbond.Weighted>
0.0000

> <Gold.Chemscore.DEClash.Weighted>
0.0089

> <Gold.Chemscore.DEInternal.Weighted>
1.0152

> <Gold.Chemscore.Rot.Weighted>
3.9794

> <Gold.Chemscore.Internal.Correction.Weighted>
   9.000000E+99

> <Gold.Protein.RotatedTorsions>
[ 6907 6896 6895 6894 ] final    5.90 input  -60.11 | X-H torsion
[ 7974 7965 7964 7962 ] final   96.29 input  175.53 | X-H torsion
[ 8008 7997 7996 7995 ] final  125.05 input   59.86 | X-H torsion
[ 10167 10162 10161 10158 ] final  168.00 input  -65.29 | X-H torsion
[ 10718 10713 10712 10709 ] final  174.31 input   66.30 | X-H torsion
[ 10763 10752 10751 10750 ] final   19.15 input  -60.55 | X-H torsion
[ 11005 11000 10999 10996 ] final  148.84 input  -57.11 | X-H torsion

> <Gold.Protein.ActiveResidues>
 VAL166  LYS551  ARG553  GLY616  TRP617  ASP618  TYR619  PRO620  LYS621  CYS622 
 ASP623  PHE694  ASN695  SER759  ASP760  ASP761  ALA762  ILE779  LEU786  VAL792 
 PHE793  MET794  SER795  GLU796  ALA797  LYS798  CYS799  TRP800  GLU811  SER814 

> <Gold.Protein.RotatedAtoms>
  151.6649  135.0984  160.0186 H   0  0  0  0  0  0  0  0  0  0  0  0  # atno 6907 bound_to 6896
  152.3925  133.6695  159.6257 H   0  0  0  0  0  0  0  0  0  0  0  0  # atno 6908 bound_to 6896
  150.7838  133.8847  159.3337 H   0  0  0  0  0  0  0  0  0  0  0  0  # atno 6909 bound_to 6896
  145.4408  139.2301  143.3093 H   0  0  0  0  0  0  0  0  0  0  0  0  # atno 7974 bound_to 7965
  156.2821  140.2725  156.1887 H   0  0  0  0  0  0  0  0  0  0  0  0  # atno 8008 bound_to 7997
  155.0481  140.0386  157.2552 H   0  0  0  0  0  0  0  0  0  0  0  0  # atno 8009 bound_to 7997
  154.7218  140.2689  155.6540 H   0  0  0  0  0  0  0  0  0  0  0  0  # atno 8010 bound_to 7997
  139.4958  144.3861  151.9569 H   0  0  0  0  0  0  0  0  0  0  0  0  # atno 10167 bound_to 10162
  156.9515  131.0032  151.2947 H   0  0  0  0  0  0  0  0  0  0  0  0  # atno 10718 bound_to 10713
  153.1187  135.6714  153.9374 H   0  0  0  0  0  0  0  0  0  0  0  0  # atno 10763 bound_to 10752
  153.8895  135.3048  155.3448 H   0  0  0  0  0  0  0  0  0  0  0  0  # atno 10764 bound_to 10752
  154.7601  135.4992  153.9526 H   0  0  0  0  0  0  0  0  0  0  0  0  # atno 10765 bound_to 10752
  140.0993  134.8993  157.1772 H   0  0  0  0  0  0  0  0  0  0  0  0  # atno 11005 bound_to 11000
  146.2557  140.5156  142.8874 LP  0  0  0  0  0  0  0  0  0  0  0  0  # atno 17320 bound_to 7965
  144.8123  140.6407  143.6407 LP  0  0  0  0  0  0  0  0  0  0  0  0  # atno 17321 bound_to 7965
  140.3298  144.3330  150.5990 LP  0  0  0  0  0  0  0  0  0  0  0  0  # atno 17342 bound_to 10162
  140.5654  143.2187  151.7692 LP  0  0  0  0  0  0  0  0  0  0  0  0  # atno 17343 bound_to 10162
  157.5719  130.8316  149.8403 LP  0  0  0  0  0  0  0  0  0  0  0  0  # atno 17370 bound_to 10713
  156.0361  130.3751  150.1558 LP  0  0  0  0  0  0  0  0  0  0  0  0  # atno 17371 bound_to 10713
  140.3242  134.2882  155.7240 LP  0  0  0  0  0  0  0  0  0  0  0  0  # atno 17394 bound_to 11000
  141.2101  133.7729  156.9953 LP  0  0  0  0  0  0  0  0  0  0  0  0  # atno 17395 bound_to 11000

$$$$
