#       Name:                AV-unprocessed.smi:33
#       Creating user name   scv26
#       Creation time:       Thu Mar 26 15:48:19 2020


#       File generated by GOLD software.
#

@<TRIPOS>MOLECULE
AV-unprocessed.smi:33
    80    85     1
SMALL
NO_CHARGES


@<TRIPOS>ATOM
      1 ****        -7.3540   2.1525  -1.2244 O.2            1 S1                 0.0000
      2 ****        -6.1249   2.2464  -1.2258 C.2            1 S1                 0.0000
      3 ****        -5.3133   1.4204  -0.5359 O.3            1 S1                 0.0000
      4 ****        -5.8647   0.3644   0.2337 C.3            1 S1                 0.0000
      5 ****        -4.7319  -0.3930   0.9376 C.3            1 S1                 0.0000
      6 ****        -4.0320  -1.2336   0.0265 O.3            1 S1                 0.0000
      7 ****        -3.3548  -2.2305   0.7350 C.3            1 S1                 0.0000
      8 ****        -1.9072  -1.8421   0.7818 N.pl3          1 S1                 0.0000
      9 ****        -1.3041  -0.7741   1.4159 C.2            1 S1                 0.0000
     10 ****        -0.0127  -0.6779   1.2494 N.2            1 S1                 0.0000
     11 ****         0.2979  -1.7499   0.4247 C.ar           1 S1                 0.0000
     12 ****         1.5004  -2.2333  -0.1560 C.ar           1 S1                 0.0000
     13 ****         2.6983  -1.6356   0.0381 N.am           1 S1                 0.0000
     14 ****         3.3222  -1.8080   1.3579 C.2            1 S1                 0.0000
     15 ****         3.0312  -2.7891   2.0451 O.2            1 S1                 0.0000
     16 ****         4.3396  -0.8211   1.8552 C.ar           1 S1                 0.0000
     17 ****         5.5506  -1.2777   2.4202 C.ar           1 S1                 0.0000
     18 ****         6.5020  -0.3564   2.8993 C.ar           1 S1                 0.0000
     19 ****         6.2403   1.0256   2.8344 C.ar           1 S1                 0.0000
     20 ****         5.0221   1.4862   2.2997 C.ar           1 S1                 0.0000
     21 ****         4.0706   0.5658   1.8198 C.ar           1 S1                 0.0000
     22 ****         3.2527  -0.8648  -1.0847 C.2            1 S1                 0.0000
     23 ****         2.4943  -0.4196  -1.9486 O.2            1 S1                 0.0000
     24 ****         4.7238  -0.5680  -1.1594 C.ar           1 S1                 0.0000
     25 ****         5.1647   0.7423  -1.4480 C.ar           1 S1                 0.0000
     26 ****         6.5413   1.0256  -1.5358 C.ar           1 S1                 0.0000
     27 ****         7.4854  -0.0030  -1.3543 C.ar           1 S1                 0.0000
     28 ****         7.0523  -1.3171  -1.0940 C.ar           1 S1                 0.0000
     29 ****         5.6758  -1.6012  -1.0055 C.ar           1 S1                 0.0000
     30 ****         1.4316  -3.3363  -0.9449 N.ar           1 S1                 0.0000
     31 ****         0.2522  -3.9306  -1.1505 C.ar           1 S1                 0.0000
     32 ****        -0.9487  -3.5916  -0.6743 N.ar           1 S1                 0.0000
     33 ****        -0.8812  -2.4827   0.1193 C.ar           1 S1                 0.0000
     34 ****        -3.9679  -2.2769   2.1479 C.3            1 S1                 0.0000
     35 ****        -4.3235  -3.5779   2.5701 O.3            1 S1                 0.0000
     36 ****        -5.2004  -1.3967   1.9894 C.3            1 S1                 0.0000
     37 ****        -6.2228  -2.0974   1.4891 F              1 S1                 0.0000
     38 ****        -5.3802   3.2871  -1.9926 C.ar           1 S1                 0.0000
     39 ****        -6.1020   4.2284  -2.7635 C.ar           1 S1                 0.0000
     40 ****        -5.4271   5.2209  -3.5005 C.ar           1 S1                 0.0000
     41 ****        -4.0217   5.2843  -3.4758 C.ar           1 S1                 0.0000
     42 ****        -3.2921   4.3544  -2.7121 C.ar           1 S1                 0.0000
     43 ****        -3.9653   3.3613  -1.9742 C.ar           1 S1                 0.0000
     44 ****        -6.5424   0.7854   0.9778 H              1 S1                 0.0000
     45 ****        -6.4450  -0.3080  -0.3997 H              1 S1                 0.0000
     46 ****        -4.0422   0.3165   1.3957 H              1 S1                 0.0000
     47 ****        -3.3977  -3.1786   0.1983 H              1 S1                 0.0000
     48 ****        -1.8468  -0.0603   2.0167 H              1 S1                 0.0000
     49 ****         5.7619  -2.3359   2.4744 H              1 S1                 0.0000
     50 ****         7.4328  -0.7107   3.3171 H              1 S1                 0.0000
     51 ****         6.9709   1.7316   3.2008 H              1 S1                 0.0000
     52 ****         4.8162   2.5456   2.2583 H              1 S1                 0.0000
     53 ****         3.1367   0.9301   1.4159 H              1 S1                 0.0000
     54 ****         4.4492   1.5397  -1.5893 H              1 S1                 0.0000
     55 ****         6.8725   2.0324  -1.7434 H              1 S1                 0.0000
     56 ****         8.5409   0.2149  -1.4218 H              1 S1                 0.0000
     57 ****         7.7758  -2.1081  -0.9634 H              1 S1                 0.0000
     58 ****         5.3554  -2.6146  -0.8110 H              1 S1                 0.0000
     59 ****         0.2732  -4.8017  -1.7886 H              1 S1                 0.0000
     60 ****        -3.2868  -1.8364   2.8763 H              1 S1                 0.0000
     61 ****        -4.9467  -3.9324   1.9541 H              1 S1                 0.0000
     62 ****        -5.5302  -0.9349   2.9204 H              1 S1                 0.0000
     63 ****        -7.1816   4.1994  -2.7989 H              1 S1                 0.0000
     64 ****        -5.9892   5.9337  -4.0856 H              1 S1                 0.0000
     65 ****        -3.5045   6.0449  -4.0418 H              1 S1                 0.0000
     66 ****        -2.2131   4.4020  -2.6924 H              1 S1                 0.0000
     67 ****        -3.3749   2.6627  -1.3994 H              1 S1                 0.0000
     68 ****        -7.7999   1.4337  -0.6911 LP             1 S1                 0.0000
     69 ****        -7.9052   2.7952  -1.7565 LP             1 S1                 0.0000
     70 ****        -3.3736  -0.6876  -0.4916 LP             1 S1                 0.0000
     71 ****        -4.6832  -1.6567  -0.6035 LP             1 S1                 0.0000
     72 ****         0.6081   0.0086   1.6281 LP             1 S1                 0.0000
     73 ****         2.3744  -3.4615   1.7038 LP             1 S1                 0.0000
     74 ****         3.4519  -2.9125   2.9439 LP             1 S1                 0.0000
     75 ****         1.5100  -0.5836  -1.8826 LP             1 S1                 0.0000
     76 ****         2.8633   0.1057  -2.7154 LP             1 S1                 0.0000
     77 ****         2.2594  -3.7022  -1.3701 LP             1 S1                 0.0000
     78 ****        -1.7931  -4.0886  -0.8743 LP             1 S1                 0.0000
     79 ****        -4.7350  -3.5366   3.4806 LP             1 S1                 0.0000
     80 ****        -3.5094  -4.1579   2.5982 LP             1 S1                 0.0000
@<TRIPOS>BOND
    1    1    2 2     
    2    2    3 1     
    3    2   38 1     
    4    3    4 1     
    5    4    5 1     
    6    4   44 1     
    7    4   45 1     
    8    5   36 1     
    9    5    6 1     
   10    5   46 1     
   11    6    7 1     
   12    7    8 1     
   13    7   34 1     
   14    7   47 1     
   15    8   33 1     
   16    8    9 1     
   17    9   10 2     
   18    9   48 1     
   19   10   11 1     
   20   11   33 ar    
   21   11   12 ar    
   22   12   13 1     
   23   12   30 ar    
   24   13   14 am    
   25   13   22 am    
   26   14   15 2     
   27   14   16 1     
   28   16   21 ar    
   29   16   17 ar    
   30   17   18 ar    
   31   17   49 1     
   32   18   19 ar    
   33   18   50 1     
   34   19   20 ar    
   35   19   51 1     
   36   20   21 ar    
   37   20   52 1     
   38   21   53 1     
   39   22   23 2     
   40   22   24 1     
   41   24   29 ar    
   42   24   25 ar    
   43   25   26 ar    
   44   25   54 1     
   45   26   27 ar    
   46   26   55 1     
   47   27   28 ar    
   48   27   56 1     
   49   28   29 ar    
   50   28   57 1     
   51   29   58 1     
   52   30   31 ar    
   53   31   32 ar    
   54   31   59 1     
   55   32   33 ar    
   56   34   35 1     
   57   34   36 1     
   58   34   60 1     
   59   35   61 1     
   60   36   37 1     
   61   36   62 1     
   62   38   43 ar    
   63   38   39 ar    
   64   39   40 ar    
   65   39   63 1     
   66   40   41 ar    
   67   40   64 1     
   68   41   42 ar    
   69   41   65 1     
   70   42   43 ar    
   71   42   66 1     
   72   43   67 1     
   73    1   68 1     
   74    1   69 1     
   75    6   70 1     
   76    6   71 1     
   77   10   72 1     
   78   15   73 1     
   79   15   74 1     
   80   23   75 1     
   81   23   76 1     
   82   30   77 1     
   83   32   78 1     
   84   35   79 1     
   85   35   80 1     
@<TRIPOS>SUBSTRUCTURE
      1 S1             1
@<TRIPOS>SET
LONE_PAIRS      STATIC     ATOMS    <user>   **** ""
13 68 69 70 71 72 73 74 75 76 77 78 79 80
DONOR_HYDROGENS      STATIC     ATOMS    <user>   **** ""
1 61
ATOM$BLUE        STATIC     ATOMS    COLORGROUP SYSTEM
13 68 69 70 71 72 73 74 75 76 77 78 79 80
ATOM$RED        STATIC     ATOMS    COLORGROUP SYSTEM
1 61
