AV-unprocessed.smi:2107|AV-procd|sdf|8602|dock2
  -GOLD-   2272011343D 1   1.00000     0.00000
 Structure written by MMmdl.
 45 46  0  0  0  0  0  0  0  0  2 V2000
  147.9338  132.4511  160.7126 C   0  0  0  0  0  0  0  0  0  0  0  0
  147.2413  133.7009  160.1495 C   0  0  0  0  0  0  0  0  0  0  0  0
  147.1666  134.7997  161.1330 N   0  0  0  0  0  0  0  0  0  0  0  0
  146.6232  134.4774  162.4686 C   0  0  0  0  0  0  0  0  0  0  0  0
  145.1620  134.0060  162.4255 C   0  0  0  0  0  0  0  0  0  0  0  0
  147.9096  136.3472  160.8064 S   0  0  0  0  0  0  0  0  0  0  0  0
  146.8329  137.1855  160.2567 O   0  0  0  0  0  0  0  0  0  0  0  0
  148.5327  136.7856  162.0677 O   0  0  0  0  0  0  0  0  0  0  0  0
  148.9565  135.8796  159.6480 N   0  5  0  0  0  0  0  0  0  0  0  0
  149.1594  136.6515  158.4302 C   0  0  0  0  0  0  0  0  0  0  0  0
  149.4460  135.7401  157.2288 C   0  0  0  0  0  0  0  0  0  0  0  0
  149.2024  134.3526  157.3778 C   0  0  0  0  0  0  0  0  0  0  0  0
  149.4502  133.4795  156.3039 C   0  0  0  0  0  0  0  0  0  0  0  0
  149.9395  134.0227  155.1057 C   0  0  0  0  0  0  0  0  0  0  0  0
  150.1809  135.3373  154.9380 N   0  0  0  0  0  0  0  0  0  0  0  0
  149.9494  136.1936  155.9662 C   0  0  0  0  0  0  0  0  0  0  0  0
  150.2334  137.5498  155.6929 N   0  0  0  0  0  0  0  0  0  0  0  0
  151.6499  137.8262  155.4795 C   0  0  0  0  0  0  0  0  0  0  0  0
  151.8773  139.3357  155.2860 C   0  0  0  0  0  0  0  0  0  0  0  0
  151.0576  139.8129  154.2231 O   0  0  0  0  0  0  0  0  0  0  0  0
  149.6717  139.6190  154.4904 C   0  0  0  0  0  0  0  0  0  0  0  0
  149.3831  138.1171  154.6534 C   0  0  0  0  0  0  0  0  0  0  0  0
  147.8950  131.6335  159.9932 H   0  0  0  0  0  0  0  0  0  0  0  0
  147.4603  132.1070  161.6306 H   0  0  0  0  0  0  0  0  0  0  0  0
  148.9845  132.6417  160.9306 H   0  0  0  0  0  0  0  0  0  0  0  0
  147.7793  134.0517  159.2689 H   0  0  0  0  0  0  0  0  0  0  0  0
  146.2387  133.4482  159.8035 H   0  0  0  0  0  0  0  0  0  0  0  0
  147.2346  133.7061  162.9361 H   0  0  0  0  0  0  0  0  0  0  0  0
  146.7077  135.3593  163.1037 H   0  0  0  0  0  0  0  0  0  0  0  0
  144.8304  133.6954  163.4162 H   0  0  0  0  0  0  0  0  0  0  0  0
  145.0416  133.1551  161.7584 H   0  0  0  0  0  0  0  0  0  0  0  0
  144.4879  134.7936  162.0898 H   0  0  0  0  0  0  0  0  0  0  0  0
  148.2843  137.2548  158.1865 H   0  0  0  0  0  0  0  0  0  0  0  0
  149.9751  137.3670  158.5310 H   0  0  0  0  0  0  0  0  0  0  0  0
  148.8279  133.9370  158.3041 H   0  0  0  0  0  0  0  0  0  0  0  0
  149.2705  132.4190  156.3995 H   0  0  0  0  0  0  0  0  0  0  0  0
  150.1423  133.3855  154.2580 H   0  0  0  0  0  0  0  0  0  0  0  0
  152.2256  137.4662  156.3331 H   0  0  0  0  0  0  0  0  0  0  0  0
  152.0053  137.2890  154.5995 H   0  0  0  0  0  0  0  0  0  0  0  0
  151.6594  139.8878  156.2001 H   0  0  0  0  0  0  0  0  0  0  0  0
  152.9220  139.5281  155.0429 H   0  0  0  0  0  0  0  0  0  0  0  0
  149.3800  140.1726  155.3837 H   0  0  0  0  0  0  0  0  0  0  0  0
  149.0906  140.0246  153.6624 H   0  0  0  0  0  0  0  0  0  0  0  0
  149.5618  137.6032  153.7080 H   0  0  0  0  0  0  0  0  0  0  0  0
  148.3349  137.9635  154.9125 H   0  0  0  0  0  0  0  0  0  0  0  0
  1  2  1  0  0  0  0
  1 23  1  0  0  0  0
  1 24  1  0  0  0  0
  1 25  1  0  0  0  0
  2  3  1  0  0  0  0
  2 26  1  0  0  0  0
  2 27  1  0  0  0  0
  3  4  1  0  0  0  0
  3  6  1  0  0  0  0
  4  5  1  0  0  0  0
  4 28  1  0  0  0  0
  4 29  1  0  0  0  0
  5 30  1  0  0  0  0
  5 31  1  0  0  0  0
  5 32  1  0  0  0  0
  6  7  2  0  0  0  0
  6  8  2  0  0  0  0
  6  9  1  0  0  0  0
  9 10  1  0  0  0  0
 10 11  1  0  0  0  0
 10 33  1  0  0  0  0
 10 34  1  0  0  0  0
 11 16  1  0  0  0  0
 11 12  2  0  0  0  0
 12 13  1  0  0  0  0
 12 35  1  0  0  0  0
 13 14  2  0  0  0  0
 13 36  1  0  0  0  0
 14 15  1  0  0  0  0
 14 37  1  0  0  0  0
 15 16  2  0  0  0  0
 16 17  1  0  0  0  0
 17 22  1  0  0  0  0
 17 18  1  0  0  0  0
 18 19  1  0  0  0  0
 18 38  1  0  0  0  0
 18 39  1  0  0  0  0
 19 20  1  0  0  0  0
 19 40  1  0  0  0  0
 19 41  1  0  0  0  0
 20 21  1  0  0  0  0
 21 22  1  0  0  0  0
 21 42  1  0  0  0  0
 21 43  1  0  0  0  0
 22 44  1  0  0  0  0
 22 45  1  0  0  0  0
M  CHG  1   9  -1
M  END
> <s_m_source_file>
AV-unprocessed.smi

> <i_m_source_file_index>
2107

> <i_lp_mmshare_version>
43012

> <i_f3d_flags>
0

> <s_epik_input>
W0NIM11bQ0gyXU4oW0NIMl1bQ0gzXSlTKD1PKSg9TylbTkhdW0NIMl1jMVtjSF1bY0hdW2NIXW5jMU4yW0NIMl1bQ0gyXU9bQ0gyXVtDSDJdMg==

> <s_epik_cmdline>
J2VwaWtfcHl0aG9uJywgJy1waCcsICc3LjAnLCAnLXRuJywgJzgnLCAnLW1hJywgJzIwMCcsICctbWV0YWxfYmluZGluZycsICctaW1hZScsICc8aW5maWxlLm1hZT4nLCAnLW9tYWUnLCAnPG91dGZpbGUubWFlPic=

> <r_lp_tautomer_probability>
1

> <r_epik_Ionization_Penalty>
2.49252

> <r_epik_Ionization_Penalty_Charging>
2.41478

> <r_epik_Ionization_Penalty_Neutral>
0.0777344

> <r_epik_State_Penalty>
2.68884

> <r_epik_Charging_Adjusted_Penalty>
5.10362

> <i_epik_Tot_Q>
-1

> <i_epik_Tot_abs_Q>
1

> <r_epik_Metal_State_Penalty>
0.584574

> <b_epik_Metal_Only>
0

> <s_lp_Force_Field>
OPLS_2005

> <r_lp_Energy>
22.2252

> <b_lp_Chiralities_Consistent>
1

> <s_lp_Variant>
AV-unprocessed.smi:2107-3

> <Gold.Version>
5.8.1

> <Gold.Id.Protein>
6NUR|6NUR_protein|mol2

> <Gold.PLP.Fitness>
45.6159

> <Gold.PLP.PLP>
-32.4964

> <Gold.PLP.part.hbond>
-3.6562

> <Gold.PLP.part.metal>
0.0000

> <Gold.PLP.part.buried>
-2.6540

> <Gold.PLP.part.nonpolar>
-26.7492

> <Gold.PLP.part.repulsive>
0.3411

> <Gold.PLP.ligand.clash>
0.1108

> <Gold.PLP.ligand.torsion>
2.1716

> <Gold.PLP.Chemscore.Hbond>
4.7138

> <Gold.PLP.Chemscore.CHOScore>
0.0000

> <Gold.PLP.Chemscore.Metal>
0.0000

> <Gold.Chemscore.Hbonds>
donor molecule, donor type, donor heavy atom, donor atom, acceptor molecule, acceptor atom, score
      P1  H  6896  6909       L1     9  1.59
      P1  H  6931  6943       L1     8  1.00
      P1  H  6934  6947       L1     7  1.00
      P1  H  7989  7998       L1    20  0.68

> <Gold.PLP.Chemscore.Internal.Correction>
3.4323

> <Gold.Rescore>
     Score         DG    S(hbond)    S(metal)    S(lipo)     H(rot)  DE(clash)    DE(int)     intcor
     14.60     -16.80       2.23        0.00      69.51       1.66       0.04       2.16       ----

> <Gold.Chemscore.Fitness>
14.5962

> <Gold.Chemscore.DG>
-16.8003

> <Gold.Chemscore.ZeroCoef>
-5.4800

> <Gold.Chemscore.Hbond>
2.2301

> <Gold.Chemscore.Metal>
0.0000

> <Gold.Chemscore.Lipo>
69.5067

> <Gold.Chemscore.Internal_Hbond>
0.0000

> <Gold.Chemscore.DEClash>
0.0402

> <Gold.Chemscore.DEInternal>
2.1639

> <Gold.Chemscore.Rot>
1.6642

> <Gold.Chemscore.Internal.Correction>
   9.000000E+99

> <Gold.Chemscore.Hbonds>
donor molecule, donor type, donor heavy atom, donor atom, acceptor molecule, acceptor atom, score
      P1  H  6896  6909       L1     9  0.20
      P1  H  6931  6943       L1     8  0.70
      P1  H  6934  6947       L1     7  0.54
      P1  H  7989  7998       L1    20  0.59

> <Gold.Chemscore.Hbond.Weighted>
-7.4484

> <Gold.Chemscore.Metal.Weighted>
-0.0000

> <Gold.Chemscore.Lipo.Weighted>
-8.1323

> <Gold.Chemscore.Internal_Hbond.Weighted>
0.0000

> <Gold.Chemscore.DEClash.Weighted>
0.0402

> <Gold.Chemscore.DEInternal.Weighted>
2.1639

> <Gold.Chemscore.Rot.Weighted>
4.2604

> <Gold.Chemscore.Internal.Correction.Weighted>
   9.000000E+99

> <Gold.Protein.RotatedTorsions>
[ 6907 6896 6895 6894 ] final   58.74 input  -60.11 | X-H torsion
[ 7974 7965 7964 7962 ] final  -17.52 input  175.53 | X-H torsion
[ 8008 7997 7996 7995 ] final   75.99 input   59.86 | X-H torsion
[ 10167 10162 10161 10158 ] final -168.97 input  -65.29 | X-H torsion
[ 10718 10713 10712 10709 ] final  168.57 input   66.30 | X-H torsion
[ 10763 10752 10751 10750 ] final -107.60 input  -60.55 | X-H torsion
[ 11005 11000 10999 10996 ] final  -96.15 input  -57.11 | X-H torsion

> <Gold.Protein.ActiveResidues>
 VAL166  LYS551  ARG553  GLY616  TRP617  ASP618  TYR619  PRO620  LYS621  CYS622 
 ASP623  PHE694  ASN695  SER759  ASP760  ASP761  ALA762  ILE779  LEU786  VAL792 
 PHE793  MET794  SER795  GLU796  ALA797  LYS798  CYS799  TRP800  GLU811  SER814 

> <Gold.Protein.RotatedAtoms>
  152.3852  134.6529  160.0128 H   0  0  0  0  0  0  0  0  0  0  0  0  # atno 6907 bound_to 6896
  151.6780  133.3307  159.3220 H   0  0  0  0  0  0  0  0  0  0  0  0  # atno 6908 bound_to 6896
  150.7779  134.6742  159.6453 H   0  0  0  0  0  0  0  0  0  0  0  0  # atno 6909 bound_to 6896
  146.1937  140.3790  142.8448 H   0  0  0  0  0  0  0  0  0  0  0  0  # atno 7974 bound_to 7965
  155.8208  140.3470  155.5513 H   0  0  0  0  0  0  0  0  0  0  0  0  # atno 8008 bound_to 7997
  155.8344  140.0932  157.1793 H   0  0  0  0  0  0  0  0  0  0  0  0  # atno 8009 bound_to 7997
  154.4004  140.1406  156.3640 H   0  0  0  0  0  0  0  0  0  0  0  0  # atno 8010 bound_to 7997
  139.5951  144.1129  152.1680 H   0  0  0  0  0  0  0  0  0  0  0  0  # atno 10167 bound_to 10162
  157.0353  131.0271  151.2731 H   0  0  0  0  0  0  0  0  0  0  0  0  # atno 10718 bound_to 10713
  154.8085  135.4669  154.0454 H   0  0  0  0  0  0  0  0  0  0  0  0  # atno 10763 bound_to 10752
  153.1904  135.6854  153.8367 H   0  0  0  0  0  0  0  0  0  0  0  0  # atno 10764 bound_to 10752
  153.7887  135.3246  155.3353 H   0  0  0  0  0  0  0  0  0  0  0  0  # atno 10765 bound_to 10752
  141.1420  133.8077  157.0532 H   0  0  0  0  0  0  0  0  0  0  0  0  # atno 11005 bound_to 11000
  144.8537  140.7039  143.6152 LP  0  0  0  0  0  0  0  0  0  0  0  0  # atno 17320 bound_to 7965
  145.3712  139.1658  143.4331 LP  0  0  0  0  0  0  0  0  0  0  0  0  # atno 17321 bound_to 7965
  140.0712  144.5778  150.7190 LP  0  0  0  0  0  0  0  0  0  0  0  0  # atno 17342 bound_to 10162
  140.7205  143.2585  151.4292 LP  0  0  0  0  0  0  0  0  0  0  0  0  # atno 17343 bound_to 10162
  157.5146  130.7960  149.7742 LP  0  0  0  0  0  0  0  0  0  0  0  0  # atno 17370 bound_to 10713
  156.0056  130.3857  150.2444 LP  0  0  0  0  0  0  0  0  0  0  0  0  # atno 17371 bound_to 10713
  140.0618  134.9750  157.1318 LP  0  0  0  0  0  0  0  0  0  0  0  0  # atno 17394 bound_to 11000
  140.3837  134.2259  155.7169 LP  0  0  0  0  0  0  0  0  0  0  0  0  # atno 17395 bound_to 11000

$$$$
