AV-unprocessed.smi:249|AV-procd|sdf|1905|dock6
  -GOLD-   2262020583D 1   1.00000     0.00000
 Structure written by MMmdl.
 64 67  0  0  0  0  0  0  0  0  2 V2000
  145.2395  132.7586  152.1603 C   0  0  0  0  0  0  0  0  0  0  0  0
  146.3329  133.6746  151.5904 C   0  0  0  0  0  0  0  0  0  0  0  0
  147.3932  134.0083  152.5793 N   0  3  1  0  0  0  0  0  0  0  0  0
  146.8398  134.6367  153.8091 C   0  0  0  0  0  0  0  0  0  0  0  0
  147.9569  135.2006  154.7014 C   0  0  0  0  0  0  0  0  0  0  0  0
  148.9859  134.1073  155.0519 C   0  0  2  0  0  0  0  0  0  0  0  0
  150.0499  134.5593  155.9585 N   0  0  0  0  0  0  0  0  0  0  0  0
  151.0587  133.5948  156.3789 C   0  0  0  0  0  0  0  0  0  0  0  0
  149.8444  135.5479  156.8646 C   0  0  0  0  0  0  0  0  0  0  0  0
  148.8660  135.4294  157.7999 N   0  0  0  0  0  0  0  0  0  0  0  0
  148.6749  136.3965  158.7024 C   0  0  0  0  0  0  0  0  0  0  0  0
  149.3381  137.5452  158.8471 N   0  0  0  0  0  0  0  0  0  0  0  0
  150.3243  137.6665  157.9134 C   0  0  0  0  0  0  0  0  0  0  0  0
  150.6454  136.7225  156.8980 C   0  0  0  0  0  0  0  0  0  0  0  0
  151.7062  137.1920  156.1327 N   0  0  0  0  0  0  0  0  0  0  0  0
  151.9966  138.3479  156.6658 C   0  0  0  0  0  0  0  0  0  0  0  0
  151.2175  138.7079  157.7423 N   0  0  0  0  0  0  0  0  0  0  0  0
  151.3152  139.9293  158.5213 C   0  0  0  0  0  0  0  0  0  0  0  0
  151.1823  141.2109  157.6625 C   0  0  1  0  0  0  0  0  0  0  0  0
  149.8868  141.2287  156.8151 C   0  0  0  0  0  0  0  0  0  0  0  0
  150.0049  142.0983  155.7076 O   0  0  0  0  0  0  0  0  0  0  0  0
  151.3461  142.4894  158.5226 C   0  0  2  0  0  0  0  0  0  0  0  0
  151.7675  143.7289  157.7534 C   0  0  0  0  0  0  0  0  0  0  0  0
  152.2876  144.6314  158.8654 C   0  0  0  0  0  0  0  0  0  0  0  0
  152.8821  143.7548  159.8148 O   0  0  0  0  0  0  0  0  0  0  0  0
  152.4658  142.4148  159.5675 C   0  0  0  0  0  0  0  0  0  0  0  0
  149.5131  133.4422  153.7618 C   0  0  0  0  0  0  0  0  0  0  0  0
  148.3700  132.9130  152.8721 C   0  0  1  0  0  0  0  0  0  0  0  0
  147.7201  131.6365  153.4486 C   0  0  0  0  0  0  0  0  0  0  0  0
  144.5651  132.4311  151.3688 H   0  0  0  0  0  0  0  0  0  0  0  0
  144.6303  133.2645  152.9088 H   0  0  0  0  0  0  0  0  0  0  0  0
  145.6696  131.8666  152.6170 H   0  0  0  0  0  0  0  0  0  0  0  0
  146.7963  133.1502  150.7538 H   0  0  0  0  0  0  0  0  0  0  0  0
  145.8964  134.5804  151.1699 H   0  0  0  0  0  0  0  0  0  0  0  0
  146.1702  135.4520  153.5330 H   0  0  0  0  0  0  0  0  0  0  0  0
  146.2355  133.9166  154.3616 H   0  0  0  0  0  0  0  0  0  0  0  0
  148.4318  136.0319  154.1822 H   0  0  0  0  0  0  0  0  0  0  0  0
  147.5200  135.6155  155.6101 H   0  0  0  0  0  0  0  0  0  0  0  0
  148.4537  133.3355  155.6086 H   0  0  0  0  0  0  0  0  0  0  0  0
  152.0557  134.0329  156.3312 H   0  0  0  0  0  0  0  0  0  0  0  0
  151.0525  132.7149  155.7351 H   0  0  0  0  0  0  0  0  0  0  0  0
  150.8766  133.2635  157.4021 H   0  0  0  0  0  0  0  0  0  0  0  0
  147.8790  136.2246  159.4119 H   0  0  0  0  0  0  0  0  0  0  0  0
  152.7947  138.9717  156.2898 H   0  0  0  0  0  0  0  0  0  0  0  0
  150.5466  139.9093  159.2949 H   0  0  0  0  0  0  0  0  0  0  0  0
  152.2736  139.9115  159.0406 H   0  0  0  0  0  0  0  0  0  0  0  0
  152.0093  141.1999  156.9508 H   0  0  0  0  0  0  0  0  0  0  0  0
  149.6468  140.2300  156.4515 H   0  0  0  0  0  0  0  0  0  0  0  0
  149.0310  141.5391  157.4146 H   0  0  0  0  0  0  0  0  0  0  0  0
  149.7321  142.9631  155.9743 H   0  0  0  0  0  0  0  0  0  0  0  0
  150.4088  142.7065  159.0380 H   0  0  0  0  0  0  0  0  0  0  0  0
  152.5724  143.4918  157.0563 H   0  0  0  0  0  0  0  0  0  0  0  0
  150.9522  144.1879  157.1936 H   0  0  0  0  0  0  0  0  0  0  0  0
  152.9989  145.3743  158.5045 H   0  0  0  0  0  0  0  0  0  0  0  0
  151.4612  145.1565  159.3460 H   0  0  0  0  0  0  0  0  0  0  0  0
  152.1416  141.9308  160.4891 H   0  0  0  0  0  0  0  0  0  0  0  0
  153.3219  141.8607  159.1803 H   0  0  0  0  0  0  0  0  0  0  0  0
  150.0932  134.1546  153.1755 H   0  0  0  0  0  0  0  0  0  0  0  0
  150.1980  132.6310  154.0121 H   0  0  0  0  0  0  0  0  0  0  0  0
  148.8402  132.6280  151.9317 H   0  0  0  0  0  0  0  0  0  0  0  0
  148.4790  130.8827  153.6600 H   0  0  0  0  0  0  0  0  0  0  0  0
  147.0206  131.1854  152.7455 H   0  0  0  0  0  0  0  0  0  0  0  0
  147.1837  131.8233  154.3781 H   0  0  0  0  0  0  0  0  0  0  0  0
  147.9384  134.7365  152.1401 H   0  0  0  0  0  0  0  0  0  0  0  0
  1  2  1  0  0  0  0
  1 30  1  0  0  0  0
  1 31  1  0  0  0  0
  1 32  1  0  0  0  0
  2  3  1  0  0  0  0
  2 33  1  0  0  0  0
  2 34  1  0  0  0  0
  3 28  1  0  0  0  0
  3  4  1  0  0  0  0
  3 64  1  0  0  0  0
  4  5  1  0  0  0  0
  4 35  1  0  0  0  0
  4 36  1  0  0  0  0
  5  6  1  0  0  0  0
  5 37  1  0  0  0  0
  5 38  1  0  0  0  0
  6  7  1  0  0  0  0
  6 27  1  0  0  0  0
  6 39  1  0  0  0  0
  7  8  1  0  0  0  0
  7  9  1  0  0  0  0
  8 40  1  0  0  0  0
  8 41  1  0  0  0  0
  8 42  1  0  0  0  0
  9 14  1  0  0  0  0
  9 10  2  0  0  0  0
 10 11  1  0  0  0  0
 11 12  2  0  0  0  0
 11 43  1  0  0  0  0
 12 13  1  0  0  0  0
 13 17  1  0  0  0  0
 13 14  2  0  0  0  0
 14 15  1  0  0  0  0
 15 16  2  0  0  0  0
 16 17  1  0  0  0  0
 16 44  1  0  0  0  0
 17 18  1  0  0  0  0
 18 19  1  0  0  0  0
 18 45  1  0  0  0  0
 18 46  1  0  0  0  0
 19 20  1  0  0  0  0
 19 22  1  0  0  0  0
 19 47  1  0  0  0  0
 20 21  1  0  0  0  0
 20 48  1  0  0  0  0
 20 49  1  0  0  0  0
 21 50  1  0  0  0  0
 22 26  1  0  0  0  0
 22 23  1  0  0  0  0
 22 51  1  0  0  0  0
 23 24  1  0  0  0  0
 23 52  1  0  0  0  0
 23 53  1  0  0  0  0
 24 25  1  0  0  0  0
 24 54  1  0  0  0  0
 24 55  1  0  0  0  0
 25 26  1  0  0  0  0
 26 56  1  0  0  0  0
 26 57  1  0  0  0  0
 27 28  1  0  0  0  0
 27 58  1  0  0  0  0
 27 59  1  0  0  0  0
 28 29  1  0  0  0  0
 28 60  1  0  0  0  0
 29 61  1  0  0  0  0
 29 62  1  0  0  0  0
 29 63  1  0  0  0  0
M  CHG  1   3   1
M  END
> <s_m_source_file>
AV-unprocessed.smi

> <i_m_source_file_index>
249

> <i_lp_mmshare_version>
43012

> <i_f3d_flags>
0

> <s_epik_input>
W0NIM11bQ0gyXU4xW0NIMl1bQ0gyXVtDQEhdKFtDSDJdW0NASF0xW0NIM10pTihbQ0gzXSljKG5bY0hdbjIpYyhjMjMpbltjSF1uM1tDSDJdW0NASF0oW0NIMl1bT0hdKVtDQEBIXTRbQ0gyXVtDSDJdT1tDSDJdNA==

> <s_epik_cmdline>
J2VwaWtfcHl0aG9uJywgJy1waCcsICc3LjAnLCAnLXRuJywgJzgnLCAnLW1hJywgJzIwMCcsICctbWV0YWxfYmluZGluZycsICctaW1hZScsICc8aW5maWxlLm1hZT4nLCAnLW9tYWUnLCAnPG91dGZpbGUubWFlPic=

> <r_lp_tautomer_probability>
1

> <r_epik_Ionization_Penalty>
0.00294688

> <r_epik_Ionization_Penalty_Charging>
0.00169971

> <r_epik_Ionization_Penalty_Neutral>
0.00124717

> <r_epik_State_Penalty>
-0

> <r_epik_Charging_Adjusted_Penalty>
0.00169971

> <i_epik_Tot_Q>
1

> <i_epik_Tot_abs_Q>
1

> <r_epik_Metal_State_Penalty>
-0

> <b_epik_Metal_Only>
0

> <s_lp_Force_Field>
OPLS_2005

> <r_lp_Energy>
52.9117

> <b_lp_Chiralities_Consistent>
1

> <s_lp_Variant>
AV-unprocessed.smi:249-8

> <Gold.Version>
5.8.1

> <Gold.Id.Protein>
6NUR|6NUR_protein|mol2

> <Gold.PLP.Fitness>
52.2814

> <Gold.PLP.PLP>
-46.3648

> <Gold.PLP.part.hbond>
-2.0839

> <Gold.PLP.part.metal>
0.0000

> <Gold.PLP.part.buried>
-7.3052

> <Gold.PLP.part.nonpolar>
-36.9965

> <Gold.PLP.part.repulsive>
0.0066

> <Gold.PLP.ligand.clash>
0.0000

> <Gold.PLP.ligand.torsion>
2.1802

> <Gold.PLP.Chemscore.Hbond>
3.0000

> <Gold.PLP.Chemscore.CHOScore>
0.0000

> <Gold.PLP.Chemscore.Metal>
0.0000

> <Gold.Chemscore.Hbonds>
donor molecule, donor type, donor heavy atom, donor atom, acceptor molecule, acceptor atom, score
      L1  H     3    64       P1  7948  2.00
      L1  H    21    50       P1  8028  1.00

> <Gold.PLP.Chemscore.Internal.Correction>
1.2770

> <Gold.Rescore>
     Score         DG    S(hbond)    S(metal)    S(lipo)     H(rot)  DE(clash)    DE(int)     intcor
     15.37     -17.76       1.94        0.00     107.56       2.65       0.01       2.38       ----

> <Gold.Chemscore.Fitness>
15.3727

> <Gold.Chemscore.DG>
-17.7567

> <Gold.Chemscore.ZeroCoef>
-5.4800

> <Gold.Chemscore.Hbond>
1.9401

> <Gold.Chemscore.Metal>
0.0000

> <Gold.Chemscore.Lipo>
107.5607

> <Gold.Chemscore.Internal_Hbond>
0.0000

> <Gold.Chemscore.DEClash>
0.0050

> <Gold.Chemscore.DEInternal>
2.3790

> <Gold.Chemscore.Rot>
2.6515

> <Gold.Chemscore.Internal.Correction>
   9.000000E+99

> <Gold.Chemscore.Hbonds>
donor molecule, donor type, donor heavy atom, donor atom, acceptor molecule, acceptor atom, score
      L1  H     3    64       P1  7948  0.45
      L1  H    21    50       P1  8028  0.95
      P1  H 10752 10763       L1    15  0.02

> <Gold.Chemscore.Hbond.Weighted>
-6.4801

> <Gold.Chemscore.Metal.Weighted>
-0.0000

> <Gold.Chemscore.Lipo.Weighted>
-12.5846

> <Gold.Chemscore.Internal_Hbond.Weighted>
0.0000

> <Gold.Chemscore.DEClash.Weighted>
0.0050

> <Gold.Chemscore.DEInternal.Weighted>
2.3790

> <Gold.Chemscore.Rot.Weighted>
6.7880

> <Gold.Chemscore.Internal.Correction.Weighted>
   9.000000E+99

> <Gold.Protein.RotatedTorsions>
[ 6907 6896 6895 6894 ] final   60.49 input  -60.11 | X-H torsion
[ 7974 7965 7964 7962 ] final  -23.99 input  175.53 | X-H torsion
[ 8008 7997 7996 7995 ] final   68.64 input   59.86 | X-H torsion
[ 10167 10162 10161 10158 ] final  -38.08 input  -65.29 | X-H torsion
[ 10718 10713 10712 10709 ] final  -61.93 input   66.30 | X-H torsion
[ 10763 10752 10751 10750 ] final   67.80 input  -60.55 | X-H torsion
[ 11005 11000 10999 10996 ] final    7.86 input  -57.11 | X-H torsion

> <Gold.Protein.ActiveResidues>
 VAL166  LYS551  ARG553  GLY616  TRP617  ASP618  TYR619  PRO620  LYS621  CYS622 
 ASP623  PHE694  ASN695  SER759  ASP760  ASP761  ALA762  ILE779  LEU786  VAL792 
 PHE793  MET794  SER795  GLU796  ALA797  LYS798  CYS799  TRP800  GLU811  SER814 

> <Gold.Protein.RotatedAtoms>
  152.4007  134.6290  160.0070 H   0  0  0  0  0  0  0  0  0  0  0  0  # atno 6907 bound_to 6896
  151.6496  133.3316  159.3157 H   0  0  0  0  0  0  0  0  0  0  0  0  # atno 6908 bound_to 6896
  150.7908  134.6973  159.6575 H   0  0  0  0  0  0  0  0  0  0  0  0  # atno 6909 bound_to 6896
  146.1582  140.4691  142.8582 H   0  0  0  0  0  0  0  0  0  0  0  0  # atno 7974 bound_to 7965
  155.7114  140.3494  155.4976 H   0  0  0  0  0  0  0  0  0  0  0  0  # atno 8008 bound_to 7997
  155.9352  140.1091  157.1122 H   0  0  0  0  0  0  0  0  0  0  0  0  # atno 8009 bound_to 7997
  154.4092  140.1223  156.4841 H   0  0  0  0  0  0  0  0  0  0  0  0  # atno 8010 bound_to 7997
  140.7101  143.3300  151.2591 H   0  0  0  0  0  0  0  0  0  0  0  0  # atno 10167 bound_to 10162
  156.0888  130.4203  150.1064 H   0  0  0  0  0  0  0  0  0  0  0  0  # atno 10718 bound_to 10713
  153.0204  135.5271  154.7035 H   0  0  0  0  0  0  0  0  0  0  0  0  # atno 10763 bound_to 10752
  154.6137  135.2881  155.0405 H   0  0  0  0  0  0  0  0  0  0  0  0  # atno 10764 bound_to 10752
  154.1418  135.6577  153.4996 H   0  0  0  0  0  0  0  0  0  0  0  0  # atno 10765 bound_to 10752
  140.5435  134.0351  155.7912 H   0  0  0  0  0  0  0  0  0  0  0  0  # atno 11005 bound_to 11000
  144.7992  140.6180  143.6490 LP  0  0  0  0  0  0  0  0  0  0  0  0  # atno 17320 bound_to 7965
  145.4655  139.1508  143.3843 LP  0  0  0  0  0  0  0  0  0  0  0  0  # atno 17321 bound_to 7965
  139.6779  143.9905  152.2792 LP  0  0  0  0  0  0  0  0  0  0  0  0  # atno 17342 bound_to 10162
  139.9525  144.6611  150.8157 LP  0  0  0  0  0  0  0  0  0  0  0  0  # atno 17343 bound_to 10162
  156.9078  130.9642  151.3567 LP  0  0  0  0  0  0  0  0  0  0  0  0  # atno 17370 bound_to 10713
  157.6032  130.8527  149.8834 LP  0  0  0  0  0  0  0  0  0  0  0  0  # atno 17371 bound_to 10713
  141.1213  133.9456  157.2723 LP  0  0  0  0  0  0  0  0  0  0  0  0  # atno 17394 bound_to 11000
  139.9492  135.0178  156.8942 LP  0  0  0  0  0  0  0  0  0  0  0  0  # atno 17395 bound_to 11000

$$$$
