AV-unprocessed.smi:1897|AV-procd|sdf|7686|dock5
  -GOLD-   22720 9423D 1   1.00000     0.00000
 Structure written by MMmdl.
 39 41  0  0  0  0  0  0  0  0  2 V2000
  149.2838  123.8080  150.7846 C   0  0  0  0  0  0  0  0  0  0  0  0
  148.6799  125.1068  151.1970 C   0  0  0  0  0  0  0  0  0  0  0  0
  148.0074  125.2587  152.3439 N   0  0  0  0  0  0  0  0  0  0  0  0
  147.5394  126.5539  152.5111 N   0  0  0  0  0  0  0  0  0  0  0  0
  147.8779  127.3490  151.4856 C   0  0  0  0  0  0  0  0  0  0  0  0
  147.5280  128.7272  151.3774 N   0  0  0  0  0  0  0  0  0  0  0  0
  146.3858  129.3898  151.6595 C   0  0  0  0  0  0  0  0  0  0  0  0
  145.4006  128.7968  152.0953 O   0  0  0  0  0  0  0  0  0  0  0  0
  146.3929  130.7144  151.4377 N   0  0  0  0  0  0  0  0  0  0  0  0
  145.2791  131.6245  151.6828 C   0  0  2  0  0  0  0  0  0  0  0  0
  144.2685  131.6558  150.5224 C   0  0  0  0  0  0  0  0  0  0  0  0
  143.8236  133.1272  150.4070 C   0  0  0  0  0  0  0  0  0  0  0  0
  144.4886  133.8258  151.5234 N   0  3  2  0  0  0  0  0  0  0  0  0
  144.7066  135.2813  151.3742 C   0  0  0  0  0  0  0  0  0  0  0  0
  145.3310  135.8376  152.6696 C   0  0  0  0  0  0  0  0  0  0  0  0
  146.6018  135.0610  153.0705 C   0  0  0  0  0  0  0  0  0  0  0  0
  146.3360  133.5439  153.1183 C   0  0  0  0  0  0  0  0  0  0  0  0
  145.7322  133.0835  151.7805 C   0  0  1  0  0  0  0  0  0  0  0  0
  148.8002  126.5619  150.2154 S   0  0  0  0  0  0  0  0  0  0  0  0
  148.6272  122.9811  151.0565 H   0  0  0  0  0  0  0  0  0  0  0  0
  150.2455  123.6704  151.2791 H   0  0  0  0  0  0  0  0  0  0  0  0
  149.4384  123.7879  149.7055 H   0  0  0  0  0  0  0  0  0  0  0  0
  148.2613  129.3096  150.9993 H   0  0  0  0  0  0  0  0  0  0  0  0
  147.2436  131.1221  151.0755 H   0  0  0  0  0  0  0  0  0  0  0  0
  144.7467  131.3452  152.5946 H   0  0  0  0  0  0  0  0  0  0  0  0
  144.7274  131.3361  149.5853 H   0  0  0  0  0  0  0  0  0  0  0  0
  143.4262  130.9908  150.7172 H   0  0  0  0  0  0  0  0  0  0  0  0
  144.1530  133.5430  149.4534 H   0  0  0  0  0  0  0  0  0  0  0  0
  142.7411  133.2405  150.4702 H   0  0  0  0  0  0  0  0  0  0  0  0
  145.3597  135.4745  150.5217 H   0  0  0  0  0  0  0  0  0  0  0  0
  143.7557  135.7754  151.1725 H   0  0  0  0  0  0  0  0  0  0  0  0
  145.5627  136.8963  152.5488 H   0  0  0  0  0  0  0  0  0  0  0  0
  144.6011  135.7731  153.4779 H   0  0  0  0  0  0  0  0  0  0  0  0
  147.3942  135.2672  152.3497 H   0  0  0  0  0  0  0  0  0  0  0  0
  146.9659  135.4095  154.0375 H   0  0  0  0  0  0  0  0  0  0  0  0
  147.2658  133.0117  153.3197 H   0  0  0  0  0  0  0  0  0  0  0  0
  145.6563  133.3104  153.9388 H   0  0  0  0  0  0  0  0  0  0  0  0
  146.4367  133.2949  150.9722 H   0  0  0  0  0  0  0  0  0  0  0  0
  143.9038  133.6904  152.3358 H   0  0  0  0  0  0  0  0  0  0  0  0
  1  2  1  0  0  0  0
  1 20  1  0  0  0  0
  1 21  1  0  0  0  0
  1 22  1  0  0  0  0
  2 19  1  0  0  0  0
  2  3  2  0  0  0  0
  3  4  1  0  0  0  0
  4  5  2  0  0  0  0
  5  6  1  0  0  0  0
  5 19  1  0  0  0  0
  6  7  1  0  0  0  0
  6 23  1  0  0  0  0
  7  8  2  0  0  0  0
  7  9  1  0  0  0  0
  9 10  1  0  0  0  0
  9 24  1  0  0  0  0
 10 18  1  0  0  0  0
 10 11  1  0  0  0  0
 10 25  1  0  0  0  0
 11 12  1  0  0  0  0
 11 26  1  0  0  0  0
 11 27  1  0  0  0  0
 12 13  1  0  0  0  0
 12 28  1  0  0  0  0
 12 29  1  0  0  0  0
 13 18  1  0  0  0  0
 13 14  1  0  0  0  0
 13 39  1  0  0  0  0
 14 15  1  0  0  0  0
 14 30  1  0  0  0  0
 14 31  1  0  0  0  0
 15 16  1  0  0  0  0
 15 32  1  0  0  0  0
 15 33  1  0  0  0  0
 16 17  1  0  0  0  0
 16 34  1  0  0  0  0
 16 35  1  0  0  0  0
 17 18  1  0  0  0  0
 17 36  1  0  0  0  0
 17 37  1  0  0  0  0
 18 38  1  0  0  0  0
M  CHG  1  13   1
M  END
> <s_m_source_file>
AV-unprocessed.smi

> <i_m_source_file_index>
1897

> <i_lp_mmshare_version>
43012

> <i_f3d_flags>
0

> <s_epik_input>
W0NIM11jMW5uYyhzMSlbTkhdQyg9TylbTkhdW0NASF0oW0NIMl1bQ0gyXTIpW0NAQEhdKE4yMylbQ0gyXVtDSDJdW0NIMl1bQ0gyXTM=

> <s_epik_cmdline>
J2VwaWtfcHl0aG9uJywgJy1waCcsICc3LjAnLCAnLXRuJywgJzgnLCAnLW1hJywgJzIwMCcsICctbWV0YWxfYmluZGluZycsICctaW1hZScsICc8aW5maWxlLm1hZT4nLCAnLW9tYWUnLCAnPG91dGZpbGUubWFlPic=

> <r_lp_tautomer_probability>
1

> <r_epik_Ionization_Penalty>
0.00228891

> <r_epik_Ionization_Penalty_Charging>
0.00107044

> <r_epik_Ionization_Penalty_Neutral>
0.00121847

> <r_epik_State_Penalty>
-0

> <r_epik_Charging_Adjusted_Penalty>
0.00107044

> <i_epik_Tot_Q>
1

> <i_epik_Tot_abs_Q>
1

> <r_epik_Metal_State_Penalty>
0.304057

> <b_epik_Metal_Only>
0

> <s_lp_Force_Field>
OPLS_2005

> <r_lp_Energy>
35.6377

> <b_lp_Chiralities_Consistent>
1

> <s_lp_Variant>
AV-unprocessed.smi:1897-3

> <Gold.Version>
5.8.1

> <Gold.Id.Protein>
6NUR|6NUR_protein|mol2

> <Gold.PLP.Fitness>
37.9211

> <Gold.PLP.PLP>
-33.4431

> <Gold.PLP.part.hbond>
-3.6187

> <Gold.PLP.part.metal>
0.0000

> <Gold.PLP.part.buried>
-4.4040

> <Gold.PLP.part.nonpolar>
-26.3926

> <Gold.PLP.part.repulsive>
0.2696

> <Gold.PLP.ligand.clash>
0.0000

> <Gold.PLP.ligand.torsion>
0.6309

> <Gold.PLP.Chemscore.Hbond>
1.9100

> <Gold.PLP.Chemscore.CHOScore>
0.0000

> <Gold.PLP.Chemscore.Metal>
0.0000

> <Gold.Chemscore.Hbonds>
donor molecule, donor type, donor heavy atom, donor atom, acceptor molecule, acceptor atom, score
      L1  H     6    23       P1 10747  0.95
      L1  H     9    24       P1 10747  0.96

> <Gold.PLP.Chemscore.Internal.Correction>
0.0097

> <Gold.Rescore>
     Score         DG    S(hbond)    S(metal)    S(lipo)     H(rot)  DE(clash)    DE(int)     intcor
     12.64     -13.38       1.02        0.00      60.42       1.00       0.04       0.71       ----

> <Gold.Chemscore.Fitness>
12.6371

> <Gold.Chemscore.DG>
-13.3820

> <Gold.Chemscore.ZeroCoef>
-5.4800

> <Gold.Chemscore.Hbond>
1.0158

> <Gold.Chemscore.Metal>
0.0000

> <Gold.Chemscore.Lipo>
60.4215

> <Gold.Chemscore.Internal_Hbond>
0.0000

> <Gold.Chemscore.DEClash>
0.0392

> <Gold.Chemscore.DEInternal>
0.7058

> <Gold.Chemscore.Rot>
1.0000

> <Gold.Chemscore.Internal.Correction>
   9.000000E+99

> <Gold.Chemscore.Hbonds>
donor molecule, donor type, donor heavy atom, donor atom, acceptor molecule, acceptor atom, score
      L1  H     6    23       P1 10747  0.21
      L1  H     9    24       P1 10747  0.92

> <Gold.Chemscore.Hbond.Weighted>
-3.3927

> <Gold.Chemscore.Metal.Weighted>
-0.0000

> <Gold.Chemscore.Lipo.Weighted>
-7.0693

> <Gold.Chemscore.Internal_Hbond.Weighted>
0.0000

> <Gold.Chemscore.DEClash.Weighted>
0.0392

> <Gold.Chemscore.DEInternal.Weighted>
0.7058

> <Gold.Chemscore.Rot.Weighted>
2.5600

> <Gold.Chemscore.Internal.Correction.Weighted>
   9.000000E+99

> <Gold.Protein.RotatedTorsions>
[ 6907 6896 6895 6894 ] final -152.81 input  -60.11 | X-H torsion
[ 7974 7965 7964 7962 ] final -124.79 input  175.53 | X-H torsion
[ 8008 7997 7996 7995 ] final  -13.69 input   59.86 | X-H torsion
[ 10167 10162 10161 10158 ] final -122.72 input  -65.29 | X-H torsion
[ 10718 10713 10712 10709 ] final  164.54 input   66.30 | X-H torsion
[ 10763 10752 10751 10750 ] final  167.32 input  -60.55 | X-H torsion
[ 11005 11000 10999 10996 ] final    7.82 input  -57.11 | X-H torsion

> <Gold.Protein.ActiveResidues>
 VAL166  LYS551  ARG553  GLY616  TRP617  ASP618  TYR619  PRO620  LYS621  CYS622 
 ASP623  PHE694  ASN695  SER759  ASP760  ASP761  ALA762  ILE779  LEU786  VAL792 
 PHE793  MET794  SER795  GLU796  ALA797  LYS798  CYS799  TRP800  GLU811  SER814 

> <Gold.Protein.RotatedAtoms>
  151.2332  133.4439  159.2604 H   0  0  0  0  0  0  0  0  0  0  0  0  # atno 6907 bound_to 6896
  151.0775  134.9837  159.8349 H   0  0  0  0  0  0  0  0  0  0  0  0  # atno 6908 bound_to 6896
  152.5420  134.2274  159.8864 H   0  0  0  0  0  0  0  0  0  0  0  0  # atno 6909 bound_to 6896
  145.0043  140.7849  143.4477 H   0  0  0  0  0  0  0  0  0  0  0  0  # atno 7974 bound_to 7965
  154.5271  140.2243  155.8870 H   0  0  0  0  0  0  0  0  0  0  0  0  # atno 8008 bound_to 7997
  156.1725  140.3118  155.8963 H   0  0  0  0  0  0  0  0  0  0  0  0  # atno 8009 bound_to 7997
  155.3528  140.0456  157.3037 H   0  0  0  0  0  0  0  0  0  0  0  0  # atno 8010 bound_to 7997
  140.0112  143.5440  152.2262 H   0  0  0  0  0  0  0  0  0  0  0  0  # atno 10167 bound_to 10162
  157.0930  131.0422  151.2529 H   0  0  0  0  0  0  0  0  0  0  0  0  # atno 10718 bound_to 10713
  154.3520  135.2753  155.2367 H   0  0  0  0  0  0  0  0  0  0  0  0  # atno 10763 bound_to 10752
  154.4592  135.5911  153.6247 H   0  0  0  0  0  0  0  0  0  0  0  0  # atno 10764 bound_to 10752
  152.9849  135.6061  154.3732 H   0  0  0  0  0  0  0  0  0  0  0  0  # atno 10765 bound_to 10752
  140.5439  134.0348  155.7913 H   0  0  0  0  0  0  0  0  0  0  0  0  # atno 11005 bound_to 11000
  145.2110  139.2205  143.5143 LP  0  0  0  0  0  0  0  0  0  0  0  0  # atno 17320 bound_to 7965
  146.3458  140.1947  142.8589 LP  0  0  0  0  0  0  0  0  0  0  0  0  # atno 17321 bound_to 7965
  139.6204  144.7628  151.2754 LP  0  0  0  0  0  0  0  0  0  0  0  0  # atno 17342 bound_to 10162
  140.7380  143.6660  150.8123 LP  0  0  0  0  0  0  0  0  0  0  0  0  # atno 17343 bound_to 10162
  157.4705  130.7706  149.7319 LP  0  0  0  0  0  0  0  0  0  0  0  0  # atno 17370 bound_to 10713
  155.9893  130.3953  150.3079 LP  0  0  0  0  0  0  0  0  0  0  0  0  # atno 17371 bound_to 10713
  141.1211  133.9460  157.2728 LP  0  0  0  0  0  0  0  0  0  0  0  0  # atno 17394 bound_to 11000
  139.9489  135.0179  156.8937 LP  0  0  0  0  0  0  0  0  0  0  0  0  # atno 17395 bound_to 11000

$$$$
