AV-unprocessed.smi:655|AV-procd|sdf|3216|dock6
  -GOLD-   22720 0153D 1   1.00000     0.00000
 Structure written by MMmdl.
 34 35  0  0  0  0  0  0  0  0  2 V2000
  152.9624  142.9002  161.0857 C   0  0  0  0  0  0  0  0  0  0  0  0
  152.6030  142.6993  159.6068 C   0  0  2  0  0  0  0  0  0  0  0  0
  152.0125  143.9787  158.9892 C   0  0  0  0  0  0  0  0  0  0  0  0
  151.6600  143.7806  157.5037 C   0  0  0  0  0  0  0  0  0  0  0  0
  150.7152  142.5809  157.2517 C   0  0  1  0  0  0  0  0  0  0  0  0
  149.4688  142.9126  157.8362 O   0  0  0  0  0  0  0  0  0  0  0  0
  150.4867  142.4220  155.7211 C   0  0  0  0  0  0  0  0  0  0  0  0
  149.5875  141.3168  155.3431 N   0  0  0  0  0  0  0  0  0  0  0  0
  148.2024  141.5261  155.4709 C   0  0  0  0  0  0  0  0  0  0  0  0
  147.3012  140.5795  155.1455 C   0  0  0  0  0  0  0  0  0  0  0  0
  145.6058  140.8718  155.3035 Cl  0  0  0  0  0  0  0  0  0  0  0  0
  147.8012  139.2978  154.6534 C   0  0  0  0  0  0  0  0  0  0  0  0
  147.0054  138.4138  154.3396 O   0  0  0  0  0  0  0  0  0  0  0  0
  149.1538  139.1369  154.5653 N   0  5  0  0  0  0  0  0  0  0  0  0
  150.0548  140.1097  154.9050 C   0  0  0  0  0  0  0  0  0  0  0  0
  151.2707  139.9309  154.8322 O   0  0  0  0  0  0  0  0  0  0  0  0
  151.2725  141.3082  157.9380 C   0  0  0  0  0  0  0  0  0  0  0  0
  151.6277  141.5246  159.4196 C   0  0  0  0  0  0  0  0  0  0  0  0
  152.0804  143.1432  161.6792 H   0  0  0  0  0  0  0  0  0  0  0  0
  153.6807  143.7110  161.2086 H   0  0  0  0  0  0  0  0  0  0  0  0
  153.4086  141.9986  161.5062 H   0  0  0  0  0  0  0  0  0  0  0  0
  153.5248  142.4609  159.0741 H   0  0  0  0  0  0  0  0  0  0  0  0
  151.1223  144.2812  159.5424 H   0  0  0  0  0  0  0  0  0  0  0  0
  152.7240  144.7997  159.0851 H   0  0  0  0  0  0  0  0  0  0  0  0
  151.2208  144.6971  157.1066 H   0  0  0  0  0  0  0  0  0  0  0  0
  152.5877  143.6296  156.9504 H   0  0  0  0  0  0  0  0  0  0  0  0
  149.0324  143.5382  157.2783 H   0  0  0  0  0  0  0  0  0  0  0  0
  150.1472  143.3645  155.2875 H   0  0  0  0  0  0  0  0  0  0  0  0
  151.4491  142.2439  155.2391 H   0  0  0  0  0  0  0  0  0  0  0  0
  147.9193  142.5012  155.8393 H   0  0  0  0  0  0  0  0  0  0  0  0
  150.5569  140.4886  157.8637 H   0  0  0  0  0  0  0  0  0  0  0  0
  152.1694  140.9805  157.4114 H   0  0  0  0  0  0  0  0  0  0  0  0
  152.0654  140.6106  159.8224 H   0  0  0  0  0  0  0  0  0  0  0  0
  150.7170  141.7045  159.9925 H   0  0  0  0  0  0  0  0  0  0  0  0
  1  2  1  0  0  0  0
  1 19  1  0  0  0  0
  1 20  1  0  0  0  0
  1 21  1  0  0  0  0
  2 18  1  0  0  0  0
  2  3  1  0  0  0  0
  2 22  1  0  0  0  0
  3  4  1  0  0  0  0
  3 23  1  0  0  0  0
  3 24  1  0  0  0  0
  4  5  1  0  0  0  0
  4 25  1  0  0  0  0
  4 26  1  0  0  0  0
  5  6  1  0  0  0  0
  5  7  1  0  0  0  0
  5 17  1  0  0  0  0
  6 27  1  0  0  0  0
  7  8  1  0  0  0  0
  7 28  1  0  0  0  0
  7 29  1  0  0  0  0
  8 15  1  0  0  0  0
  8  9  1  0  0  0  0
  9 10  2  0  0  0  0
  9 30  1  0  0  0  0
 10 11  1  0  0  0  0
 10 12  1  0  0  0  0
 12 13  2  0  0  0  0
 12 14  1  0  0  0  0
 14 15  1  0  0  0  0
 15 16  2  0  0  0  0
 17 18  1  0  0  0  0
 17 31  1  0  0  0  0
 17 32  1  0  0  0  0
 18 33  1  0  0  0  0
 18 34  1  0  0  0  0
M  CHG  1  14  -1
M  END
> <s_m_source_file>
AV-unprocessed.smi

> <i_m_source_file_index>
655

> <i_lp_mmshare_version>
43012

> <i_f3d_flags>
0

> <s_epik_input>
W0NIMl0xW0NIMl1bQ0BIXShbQ0gzXSlbQ0gyXVtDSDJdW0NAQF0xKFtPSF0pW0NIMl1uMltjSF1jKENsKWMoPU8pW25IXWMyPU8=

> <s_epik_cmdline>
J2VwaWtfcHl0aG9uJywgJy1waCcsICc3LjAnLCAnLXRuJywgJzgnLCAnLW1hJywgJzIwMCcsICctbWV0YWxfYmluZGluZycsICctaW1hZScsICc8aW5maWxlLm1hZT4nLCAnLW9tYWUnLCAnPG91dGZpbGUubWFlPic=

> <r_epik_Ionization_Penalty>
2.34257

> <r_epik_Ionization_Penalty_Charging>
1.00552e-07

> <r_epik_Ionization_Penalty_Neutral>
2.34257

> <r_epik_State_Penalty>
2.4963

> <r_epik_Charging_Adjusted_Penalty>
2.4963

> <i_epik_Tot_Q>
-1

> <i_epik_Tot_abs_Q>
1

> <r_epik_Metal_State_Penalty>
0.0381881

> <b_epik_Metal_Only>
0

> <s_lp_Force_Field>
OPLS_2005

> <r_lp_Energy>
26.568

> <b_lp_Chiralities_Consistent>
1

> <s_lp_Variant>
AV-unprocessed.smi:655-3

> <Gold.Version>
5.8.1

> <Gold.Id.Protein>
6NUR|6NUR_protein|mol2

> <Gold.PLP.Fitness>
39.2909

> <Gold.PLP.PLP>
-30.7897

> <Gold.PLP.part.hbond>
-2.0000

> <Gold.PLP.part.metal>
0.0000

> <Gold.PLP.part.buried>
-1.5131

> <Gold.PLP.part.nonpolar>
-28.3746

> <Gold.PLP.part.repulsive>
0.3334

> <Gold.PLP.ligand.clash>
0.0000

> <Gold.PLP.ligand.torsion>
0.2776

> <Gold.PLP.Chemscore.Hbond>
2.0000

> <Gold.PLP.Chemscore.CHOScore>
1.0000

> <Gold.PLP.Chemscore.Metal>
0.0000

> <Gold.Chemscore.Hbonds>
donor molecule, donor type, donor heavy atom, donor atom, acceptor molecule, acceptor atom, score
      L1  H     6    27       P1  8028  1.00
      P1  H  7989  7998       L1    16  1.00
      L1  C     9    30       P1  8028  1.00

> <Gold.PLP.Chemscore.Internal.Correction>
0.0564

> <Gold.Rescore>
     Score         DG    S(hbond)    S(metal)    S(lipo)     H(rot)  DE(clash)    DE(int)     intcor
     12.34     -15.23       1.20        0.00      88.60       1.81       1.57       1.31       ----

> <Gold.Chemscore.Fitness>
12.3416

> <Gold.Chemscore.DG>
-15.2283

> <Gold.Chemscore.ZeroCoef>
-5.4800

> <Gold.Chemscore.Hbond>
1.2016

> <Gold.Chemscore.Metal>
0.0000

> <Gold.Chemscore.Lipo>
88.6011

> <Gold.Chemscore.Internal_Hbond>
0.0000

> <Gold.Chemscore.DEClash>
1.5740

> <Gold.Chemscore.DEInternal>
1.3127

> <Gold.Chemscore.Rot>
1.8092

> <Gold.Chemscore.Internal.Correction>
   9.000000E+99

> <Gold.Chemscore.Hbonds>
donor molecule, donor type, donor heavy atom, donor atom, acceptor molecule, acceptor atom, score
      L1  H     6    27       P1  8028  0.38
      P1  H  7989  7998       L1    16  0.30

> <Gold.Chemscore.Hbond.Weighted>
-4.0135

> <Gold.Chemscore.Metal.Weighted>
-0.0000

> <Gold.Chemscore.Lipo.Weighted>
-10.3663

> <Gold.Chemscore.Internal_Hbond.Weighted>
0.0000

> <Gold.Chemscore.DEClash.Weighted>
1.5740

> <Gold.Chemscore.DEInternal.Weighted>
1.3127

> <Gold.Chemscore.Rot.Weighted>
4.6316

> <Gold.Chemscore.Internal.Correction.Weighted>
   9.000000E+99

> <Gold.Protein.RotatedTorsions>
[ 6907 6896 6895 6894 ] final  167.89 input  -60.11 | X-H torsion
[ 7974 7965 7964 7962 ] final -110.52 input  175.53 | X-H torsion
[ 8008 7997 7996 7995 ] final  -76.08 input   59.86 | X-H torsion
[ 10167 10162 10161 10158 ] final   50.83 input  -65.29 | X-H torsion
[ 10718 10713 10712 10709 ] final  166.76 input   66.30 | X-H torsion
[ 10763 10752 10751 10750 ] final  142.32 input  -60.55 | X-H torsion
[ 11005 11000 10999 10996 ] final   35.50 input  -57.11 | X-H torsion

> <Gold.Protein.ActiveResidues>
 VAL166  LYS551  ARG553  GLY616  TRP617  ASP618  TYR619  PRO620  LYS621  CYS622 
 ASP623  PHE694  ASN695  SER759  ASP760  ASP761  ALA762  ILE779  LEU786  VAL792 
 PHE793  MET794  SER795  GLU796  ALA797  LYS798  CYS799  TRP800  GLU811  SER814 

> <Gold.Protein.RotatedAtoms>
  151.8563  133.3449  159.3689 H   0  0  0  0  0  0  0  0  0  0  0  0  # atno 6907 bound_to 6896
  150.7192  134.5250  159.5681 H   0  0  0  0  0  0  0  0  0  0  0  0  # atno 6908 bound_to 6896
  152.2754  134.7888  160.0457 H   0  0  0  0  0  0  0  0  0  0  0  0  # atno 6909 bound_to 6896
  145.1672  140.8908  143.3556 H   0  0  0  0  0  0  0  0  0  0  0  0  # atno 7974 bound_to 7965
  154.5473  140.0733  156.8610 H   0  0  0  0  0  0  0  0  0  0  0  0  # atno 8008 bound_to 7997
  155.3061  140.3387  155.4227 H   0  0  0  0  0  0  0  0  0  0  0  0  # atno 8009 bound_to 7997
  156.1930  140.1693  156.8041 H   0  0  0  0  0  0  0  0  0  0  0  0  # atno 8010 bound_to 7997
  140.2683  144.3294  150.6297 H   0  0  0  0  0  0  0  0  0  0  0  0  # atno 10167 bound_to 10162
  157.0612  131.0340  151.2646 H   0  0  0  0  0  0  0  0  0  0  0  0  # atno 10718 bound_to 10713
  153.9538  135.2967  155.3437 H   0  0  0  0  0  0  0  0  0  0  0  0  # atno 10763 bound_to 10752
  154.7412  135.5024  153.9128 H   0  0  0  0  0  0  0  0  0  0  0  0  # atno 10764 bound_to 10752
  153.0980  135.6726  153.9835 H   0  0  0  0  0  0  0  0  0  0  0  0  # atno 10765 bound_to 10752
  140.2420  134.3403  155.7922 H   0  0  0  0  0  0  0  0  0  0  0  0  # atno 11005 bound_to 11000
  145.0270  139.3374  143.6044 LP  0  0  0  0  0  0  0  0  0  0  0  0  # atno 17320 bound_to 7965
  146.3474  139.9592  142.8719 LP  0  0  0  0  0  0  0  0  0  0  0  0  # atno 17321 bound_to 7965
  140.5910  143.2168  151.7253 LP  0  0  0  0  0  0  0  0  0  0  0  0  # atno 17342 bound_to 10162
  139.4996  144.3939  152.0251 LP  0  0  0  0  0  0  0  0  0  0  0  0  # atno 17343 bound_to 10162
  157.4953  130.7847  149.7549 LP  0  0  0  0  0  0  0  0  0  0  0  0  # atno 17370 bound_to 10713
  155.9978  130.3898  150.2727 LP  0  0  0  0  0  0  0  0  0  0  0  0  # atno 17371 bound_to 10713
  141.2209  133.7304  156.8901 LP  0  0  0  0  0  0  0  0  0  0  0  0  # atno 17394 bound_to 11000
  140.1643  134.9144  157.2755 LP  0  0  0  0  0  0  0  0  0  0  0  0  # atno 17395 bound_to 11000

$$$$
