#       Name:                AV-unprocessed.smi:1047
#       Creating user name   scv26
#       Creation time:       Fri Mar 27 03:08:55 2020


#       File generated by GOLD software.
#

@<TRIPOS>MOLECULE
AV-unprocessed.smi:1047
    62    64     1
SMALL
NO_CHARGES


@<TRIPOS>ATOM
      1 ****        -7.0202   4.2757  -0.9533 C.3            1 S1                 0.0000
      2 ****        -6.5389   2.8182  -0.9194 C.3            1 S1                 0.0000
      3 ****        -5.1246   2.6716  -1.3460 N.4            1 S1                 1.0000
      4 ****        -4.9146   2.8885  -2.7986 C.3            1 S1                 0.0000
      5 ****        -3.4259   2.7395  -3.1531 C.3            1 S1                 0.0000
      6 ****        -2.9611   1.4612  -2.7384 O.3            1 S1                 0.0000
      7 ****        -3.0598   1.2818  -1.3291 C.3            1 S1                 0.0000
      8 ****        -2.4640  -0.0893  -0.9766 C.3            1 S1                 0.0000
      9 ****        -1.0062  -0.0681  -1.0410 N.3            1 S1                 0.0000
     10 ****        -0.3998  -1.3529  -0.7034 C.3            1 S1                 0.0000
     11 ****         1.1355  -1.2942  -0.7716 C.3            1 S1                 0.0000
     12 ****         1.6194  -2.6139  -0.6273 O.3            1 S1                 0.0000
     13 ****         1.7453  -0.3988   0.3275 C.3            1 S1                 0.0000
     14 ****         3.2161  -0.3991   0.3203 N.pl3          1 S1                 0.0000
     15 ****         4.0800   0.3240  -0.4429 C.2            1 S1                 0.0000
     16 ****         5.3441  -0.0190  -0.0702 N.pl3          1 S1                 1.0000
     17 ****         5.2876  -0.9750   0.9460 C.ar           1 S1                 0.0000
     18 ****         6.3009  -1.6220   1.6436 C.ar           1 S1                 0.0000
     19 ****         5.9109  -2.5576   2.6281 C.ar           1 S1                 0.0000
     20 ****         6.9939  -3.2815   3.4103 C.3            1 S1                 0.0000
     21 ****         4.5399  -2.8192   2.8835 C.ar           1 S1                 0.0000
     22 ****         4.1316  -3.8311   3.9408 C.3            1 S1                 0.0000
     23 ****         3.5243  -2.1492   2.1644 C.ar           1 S1                 0.0000
     24 ****         3.9251  -1.2271   1.1999 C.ar           1 S1                 0.0000
     25 ****        -4.5459   1.3715  -0.9304 C.3            1 S1                 0.0000
     26 ****        -8.0263   4.3548  -0.5404 H              1 S1                 0.0000
     27 ****        -7.0582   4.6701  -1.9684 H              1 S1                 0.0000
     28 ****        -6.3698   4.9214  -0.3628 H              1 S1                 0.0000
     29 ****        -6.6388   2.4577   0.1053 H              1 S1                 0.0000
     30 ****        -7.1825   2.1871  -1.5336 H              1 S1                 0.0000
     31 ****        -5.5061   2.1688  -3.3670 H              1 S1                 0.0000
     32 ****        -5.2529   3.8822  -3.0901 H              1 S1                 0.0000
     33 ****        -3.2854   2.8338  -4.2300 H              1 S1                 0.0000
     34 ****        -2.8325   3.5265  -2.6848 H              1 S1                 0.0000
     35 ****        -2.5001   2.0650  -0.8133 H              1 S1                 0.0000
     36 ****        -2.7713  -0.3654   0.0330 H              1 S1                 0.0000
     37 ****        -2.8670  -0.8527  -1.6434 H              1 S1                 0.0000
     38 ****        -0.7113   0.2123  -1.9712 H              1 S1                 0.0000
     39 ****        -0.7139  -1.6687   0.2925 H              1 S1                 0.0000
     40 ****        -0.7608  -2.1134  -1.3976 H              1 S1                 0.0000
     41 ****         1.4467  -0.9361  -1.7540 H              1 S1                 0.0000
     42 ****         2.5597  -2.5996  -0.7200 H              1 S1                 0.0000
     43 ****         1.4279   0.6349   0.1850 H              1 S1                 0.0000
     44 ****         1.3885  -0.6892   1.3156 H              1 S1                 0.0000
     45 ****         3.8117   1.0425  -1.2040 H              1 S1                 0.0000
     46 ****         7.3428  -1.4191   1.4425 H              1 S1                 0.0000
     47 ****         6.9059  -3.0656   4.4753 H              1 S1                 0.0000
     48 ****         7.9901  -2.9753   3.0898 H              1 S1                 0.0000
     49 ****         6.9152  -4.3594   3.2672 H              1 S1                 0.0000
     50 ****         3.0469  -3.9151   4.0161 H              1 S1                 0.0000
     51 ****         4.5109  -3.5361   4.9193 H              1 S1                 0.0000
     52 ****         4.5254  -4.8183   3.6990 H              1 S1                 0.0000
     53 ****         2.4817  -2.3536   2.3580 H              1 S1                 0.0000
     54 ****        -4.6419   1.2579   0.1503 H              1 S1                 0.0000
     55 ****        -5.1106   0.5580  -1.3894 H              1 S1                 0.0000
     56 ****        -4.5989   3.3843  -0.8603 H              1 S1                 0.0000
     57 ****         6.1821   0.3738  -0.4798 H              1 S1                 0.0000
     58 ****        -2.0033   1.3640  -3.0088 LP             1 S1                 0.0000
     59 ****        -3.5084   0.7575  -3.1914 LP             1 S1                 0.0000
     60 ****        -0.6934   0.5914  -0.3574 LP             1 S1                 0.0000
     61 ****         1.2196  -3.1990  -1.3329 LP             1 S1                 0.0000
     62 ****         1.3746  -2.9662   0.2760 LP             1 S1                 0.0000
@<TRIPOS>BOND
    1    1    2 1     
    2    1   26 1     
    3    1   27 1     
    4    1   28 1     
    5    2    3 1     
    6    2   29 1     
    7    2   30 1     
    8    3   25 1     
    9    3    4 1     
   10    3   56 1     
   11    4    5 1     
   12    4   31 1     
   13    4   32 1     
   14    5    6 1     
   15    5   33 1     
   16    5   34 1     
   17    6    7 1     
   18    7    8 1     
   19    7   25 1     
   20    7   35 1     
   21    8    9 1     
   22    8   36 1     
   23    8   37 1     
   24    9   10 1     
   25    9   38 1     
   26   10   11 1     
   27   10   39 1     
   28   10   40 1     
   29   11   12 1     
   30   11   13 1     
   31   11   41 1     
   32   12   42 1     
   33   13   14 1     
   34   13   43 1     
   35   13   44 1     
   36   14   24 1     
   37   14   15 1     
   38   15   16 2     
   39   15   45 1     
   40   16   17 1     
   41   16   57 1     
   42   17   24 ar    
   43   17   18 ar    
   44   18   19 ar    
   45   18   46 1     
   46   19   20 1     
   47   19   21 ar    
   48   20   47 1     
   49   20   48 1     
   50   20   49 1     
   51   21   22 1     
   52   21   23 ar    
   53   22   50 1     
   54   22   51 1     
   55   22   52 1     
   56   23   24 ar    
   57   23   53 1     
   58   25   54 1     
   59   25   55 1     
   60    6   58 1     
   61    6   59 1     
   62    9   60 1     
   63   12   61 1     
   64   12   62 1     
@<TRIPOS>SUBSTRUCTURE
      1 S1             1
@<TRIPOS>SET
LONE_PAIRS      STATIC     ATOMS    <user>   **** ""
5 58 59 60 61 62
DONOR_HYDROGENS      STATIC     ATOMS    <user>   **** ""
4 56 38 42 57
ATOM$BLUE        STATIC     ATOMS    COLORGROUP SYSTEM
5 58 59 60 61 62
ATOM$RED        STATIC     ATOMS    COLORGROUP SYSTEM
4 56 38 42 57
