AV-unprocessed.smi:1434|AV-procd|sdf|5851|dock4
  -GOLD-   22720 5523D 1   1.00000     0.00000
 Structure written by MMmdl.
 45 46  0  0  0  0  0  0  0  0  2 V2000
  145.6928  135.3069  162.7976 C   0  0  0  0  0  0  0  0  0  0  0  0
  145.8332  136.8820  161.8616 S   0  0  0  0  0  0  0  0  0  0  0  0
  144.4795  137.3388  161.5124 O   0  0  0  0  0  0  0  0  0  0  0  0
  146.7572  137.7810  162.5690 O   0  0  0  0  0  0  0  0  0  0  0  0
  146.6130  136.3820  160.4070 N   0  0  0  0  0  0  0  0  0  0  0  0
  147.0963  137.4104  159.4846 C   0  0  2  0  0  0  0  0  0  0  0  0
  146.0462  137.6809  158.3861 C   0  0  0  0  0  0  0  0  0  0  0  0
  146.5984  138.6078  157.2864 C   0  0  0  0  0  0  0  0  0  0  0  0
  147.9631  138.1093  156.7767 C   0  0  0  0  0  0  0  0  0  0  0  0
  148.8840  137.9997  157.9215 N   0  0  0  0  0  0  0  0  0  0  0  0
  149.8834  138.8636  158.2310 C   0  0  0  0  0  0  0  0  0  0  0  0
  150.4222  138.9049  159.3380 O   0  0  0  0  0  0  0  0  0  0  0  0
  150.2726  139.6606  157.2210 N   0  0  0  0  0  0  0  0  0  0  0  0
  151.3303  140.6612  157.3026 C   0  0  0  0  0  0  0  0  0  0  0  0
  150.7935  142.0742  157.0188 C   0  0  0  0  0  0  0  0  0  0  0  0
  151.2977  143.0923  158.0230 C   0  0  0  0  0  0  0  0  0  0  0  0
  152.1953  142.7447  159.0560 C   0  0  0  0  0  0  0  0  0  0  0  0
  152.6311  143.7406  159.9545 C   0  0  0  0  0  0  0  0  0  0  0  0
  152.1623  145.0618  159.8009 C   0  0  0  0  0  0  0  0  0  0  0  0
  151.2684  145.3540  158.7507 C   0  0  0  0  0  0  0  0  0  0  0  0
  150.8736  144.3720  157.9104 N   0  3  0  0  0  0  0  0  0  0  0  0
  148.4357  136.9672  158.8645 C   0  0  0  0  0  0  0  0  0  0  0  0
  145.2140  135.4984  163.7576 H   0  0  0  0  0  0  0  0  0  0  0  0
  146.6859  134.8909  162.9652 H   0  0  0  0  0  0  0  0  0  0  0  0
  145.0916  134.5978  162.2288 H   0  0  0  0  0  0  0  0  0  0  0  0
  147.3404  135.6940  160.6003 H   0  0  0  0  0  0  0  0  0  0  0  0
  147.2687  138.3291  160.0482 H   0  0  0  0  0  0  0  0  0  0  0  0
  145.7483  136.7354  157.9304 H   0  0  0  0  0  0  0  0  0  0  0  0
  145.1425  138.1121  158.8174 H   0  0  0  0  0  0  0  0  0  0  0  0
  145.8883  138.6704  156.4614 H   0  0  0  0  0  0  0  0  0  0  0  0
  146.7046  139.6189  157.6814 H   0  0  0  0  0  0  0  0  0  0  0  0
  147.8501  137.1281  156.3135 H   0  0  0  0  0  0  0  0  0  0  0  0
  148.3210  138.7622  155.9808 H   0  0  0  0  0  0  0  0  0  0  0  0
  149.7987  139.5645  156.3346 H   0  0  0  0  0  0  0  0  0  0  0  0
  151.8036  140.6226  158.2853 H   0  0  0  0  0  0  0  0  0  0  0  0
  152.1010  140.4005  156.5770 H   0  0  0  0  0  0  0  0  0  0  0  0
  151.0833  142.3906  156.0157 H   0  0  0  0  0  0  0  0  0  0  0  0
  149.7027  142.0752  157.0367 H   0  0  0  0  0  0  0  0  0  0  0  0
  152.5478  141.7285  159.1591 H   0  0  0  0  0  0  0  0  0  0  0  0
  153.3174  143.4936  160.7514 H   0  0  0  0  0  0  0  0  0  0  0  0
  152.4844  145.8393  160.4784 H   0  0  0  0  0  0  0  0  0  0  0  0
  150.8604  146.3356  158.5585 H   0  0  0  0  0  0  0  0  0  0  0  0
  149.1694  136.7713  159.6484 H   0  0  0  0  0  0  0  0  0  0  0  0
  148.3150  136.0222  158.3326 H   0  0  0  0  0  0  0  0  0  0  0  0
  150.2266  144.6067  157.1571 H   0  0  0  0  0  0  0  0  0  0  0  0
  1  2  1  0  0  0  0
  1 23  1  0  0  0  0
  1 24  1  0  0  0  0
  1 25  1  0  0  0  0
  2  3  2  0  0  0  0
  2  4  2  0  0  0  0
  2  5  1  0  0  0  0
  5  6  1  0  0  0  0
  5 26  1  0  0  0  0
  6 22  1  0  0  0  0
  6  7  1  0  0  0  0
  6 27  1  0  0  0  0
  7  8  1  0  0  0  0
  7 28  1  0  0  0  0
  7 29  1  0  0  0  0
  8  9  1  0  0  0  0
  8 30  1  0  0  0  0
  8 31  1  0  0  0  0
  9 10  1  0  0  0  0
  9 32  1  0  0  0  0
  9 33  1  0  0  0  0
 10 11  1  0  0  0  0
 10 22  1  0  0  0  0
 11 12  2  0  0  0  0
 11 13  1  0  0  0  0
 13 14  1  0  0  0  0
 13 34  1  0  0  0  0
 14 15  1  0  0  0  0
 14 35  1  0  0  0  0
 14 36  1  0  0  0  0
 15 16  1  0  0  0  0
 15 37  1  0  0  0  0
 15 38  1  0  0  0  0
 16 21  1  0  0  0  0
 16 17  2  0  0  0  0
 17 18  1  0  0  0  0
 17 39  1  0  0  0  0
 18 19  2  0  0  0  0
 18 40  1  0  0  0  0
 19 20  1  0  0  0  0
 19 41  1  0  0  0  0
 20 21  2  0  0  0  0
 20 42  1  0  0  0  0
 21 45  1  0  0  0  0
 22 43  1  0  0  0  0
 22 44  1  0  0  0  0
M  CHG  1  21   1
M  END
> <s_m_source_file>
AV-unprocessed.smi

> <i_m_source_file_index>
1434

> <i_lp_mmshare_version>
43012

> <i_f3d_flags>
0

> <s_epik_input>
W0NIM11TKD1PKSg9TylbTkhdW0NAQEhdMVtDSDJdW0NIMl1bQ0gyXU4oW0NIMl0xKUMoPU8pW05IXVtDSDJdW0NIMl1jMltjSF1bY0hdW2NIXVtjSF1uMg==

> <s_epik_cmdline>
J2VwaWtfcHl0aG9uJywgJy1waCcsICc3LjAnLCAnLXRuJywgJzgnLCAnLW1hJywgJzIwMCcsICctbWV0YWxfYmluZGluZycsICctaW1hZScsICc8aW5maWxlLm1hZT4nLCAnLW9tYWUnLCAnPG91dGZpbGUubWFlPic=

> <r_epik_Ionization_Penalty>
1.55113

> <r_epik_Ionization_Penalty_Charging>
1.55107

> <r_epik_Ionization_Penalty_Neutral>
6.01346e-05

> <r_epik_State_Penalty>
1.64529

> <r_epik_Charging_Adjusted_Penalty>
3.19637

> <i_epik_Tot_Q>
1

> <i_epik_Tot_abs_Q>
1

> <r_epik_Metal_State_Penalty>
1.69621

> <b_epik_Metal_Only>
0

> <s_lp_Force_Field>
OPLS_2005

> <r_lp_Energy>
27.1225

> <b_lp_Chiralities_Consistent>
1

> <s_lp_Variant>
AV-unprocessed.smi:1434-3

> <Gold.Version>
5.8.1

> <Gold.Id.Protein>
6NUR|6NUR_protein|mol2

> <Gold.PLP.Fitness>
46.7366

> <Gold.PLP.PLP>
-39.7691

> <Gold.PLP.part.hbond>
-2.1170

> <Gold.PLP.part.metal>
0.0000

> <Gold.PLP.part.buried>
-7.0417

> <Gold.PLP.part.nonpolar>
-30.6088

> <Gold.PLP.part.repulsive>
0.0809

> <Gold.PLP.ligand.clash>
0.0000

> <Gold.PLP.ligand.torsion>
1.0619

> <Gold.PLP.Chemscore.Hbond>
2.9760

> <Gold.PLP.Chemscore.CHOScore>
0.0000

> <Gold.PLP.Chemscore.Metal>
0.0000

> <Gold.Chemscore.Hbonds>
donor molecule, donor type, donor heavy atom, donor atom, acceptor molecule, acceptor atom, score
      L1  H    21    45       P1  8028  2.00
      P1  H  6931  6943       L1     4  0.04
      P1  H  6934  6947       L1     4  0.37

> <Gold.PLP.Chemscore.Internal.Correction>
0.1635

> <Gold.Rescore>
     Score         DG    S(hbond)    S(metal)    S(lipo)     H(rot)  DE(clash)    DE(int)     intcor
     15.91     -17.27       1.89        0.00      93.52       2.13       0.41       0.95       ----

> <Gold.Chemscore.Fitness>
15.9138

> <Gold.Chemscore.DG>
-17.2724

> <Gold.Chemscore.ZeroCoef>
-5.4800

> <Gold.Chemscore.Hbond>
1.8891

> <Gold.Chemscore.Metal>
0.0000

> <Gold.Chemscore.Lipo>
93.5238

> <Gold.Chemscore.Internal_Hbond>
0.0000

> <Gold.Chemscore.DEClash>
0.4124

> <Gold.Chemscore.DEInternal>
0.9461

> <Gold.Chemscore.Rot>
2.1326

> <Gold.Chemscore.Internal.Correction>
   9.000000E+99

> <Gold.Chemscore.Hbonds>
donor molecule, donor type, donor heavy atom, donor atom, acceptor molecule, acceptor atom, score
      L1  H    21    45       P1  8028  0.49
      P1  H  6931  6943       L1     4  0.06
      P1  H  6934  6947       L1     4  0.07

> <Gold.Chemscore.Hbond.Weighted>
-6.3096

> <Gold.Chemscore.Metal.Weighted>
-0.0000

> <Gold.Chemscore.Lipo.Weighted>
-10.9423

> <Gold.Chemscore.Internal_Hbond.Weighted>
0.0000

> <Gold.Chemscore.DEClash.Weighted>
0.4124

> <Gold.Chemscore.DEInternal.Weighted>
0.9461

> <Gold.Chemscore.Rot.Weighted>
5.4595

> <Gold.Chemscore.Internal.Correction.Weighted>
   9.000000E+99

> <Gold.Protein.RotatedTorsions>
[ 6907 6896 6895 6894 ] final  -32.71 input  -60.11 | X-H torsion
[ 7974 7965 7964 7962 ] final -160.23 input  175.53 | X-H torsion
[ 8008 7997 7996 7995 ] final -170.27 input   59.86 | X-H torsion
[ 10167 10162 10161 10158 ] final  154.73 input  -65.29 | X-H torsion
[ 10718 10713 10712 10709 ] final   70.57 input   66.30 | X-H torsion
[ 10763 10752 10751 10750 ] final   83.72 input  -60.55 | X-H torsion
[ 11005 11000 10999 10996 ] final    1.48 input  -57.11 | X-H torsion

> <Gold.Protein.ActiveResidues>
 VAL166  LYS551  ARG553  GLY616  TRP617  ASP618  TYR619  PRO620  LYS621  CYS622 
 ASP623  PHE694  ASN695  SER759  ASP760  ASP761  ALA762  ILE779  LEU786  VAL792 
 PHE793  MET794  SER795  GLU796  ALA797  LYS798  CYS799  TRP800  GLU811  SER814 

> <Gold.Protein.RotatedAtoms>
  151.0752  134.9823  159.8328 H   0  0  0  0  0  0  0  0  0  0  0  0  # atno 6907 bound_to 6896
  152.5413  134.2250  159.8812 H   0  0  0  0  0  0  0  0  0  0  0  0  # atno 6908 bound_to 6896
  151.2277  133.4424  159.2636 H   0  0  0  0  0  0  0  0  0  0  0  0  # atno 6909 bound_to 6896
  144.7435  140.3572  143.6103 H   0  0  0  0  0  0  0  0  0  0  0  0  # atno 7974 bound_to 7965
  155.9161  140.1066  157.1243 H   0  0  0  0  0  0  0  0  0  0  0  0  # atno 8008 bound_to 7997
  154.4047  140.1265  156.4684 H   0  0  0  0  0  0  0  0  0  0  0  0  # atno 8009 bound_to 7997
  155.7252  140.3469  155.5036 H   0  0  0  0  0  0  0  0  0  0  0  0  # atno 8010 bound_to 7997
  139.4822  144.5161  151.7949 H   0  0  0  0  0  0  0  0  0  0  0  0  # atno 10167 bound_to 10162
  157.6407  130.9484  150.0669 H   0  0  0  0  0  0  0  0  0  0  0  0  # atno 10718 bound_to 10713
  153.1317  135.4680  154.9359 H   0  0  0  0  0  0  0  0  0  0  0  0  # atno 10763 bound_to 10752
  154.7670  135.3147  154.8269 H   0  0  0  0  0  0  0  0  0  0  0  0  # atno 10764 bound_to 10752
  153.8810  135.6894  153.4821 H   0  0  0  0  0  0  0  0  0  0  0  0  # atno 10765 bound_to 10752
  140.6150  133.9713  155.8196 H   0  0  0  0  0  0  0  0  0  0  0  0  # atno 11005 bound_to 11000
  145.7215  139.1711  143.2482 LP  0  0  0  0  0  0  0  0  0  0  0  0  # atno 17320 bound_to 7965
  146.1274  140.7231  142.9429 LP  0  0  0  0  0  0  0  0  0  0  0  0  # atno 17321 bound_to 7965
  140.4670  144.1641  150.5913 LP  0  0  0  0  0  0  0  0  0  0  0  0  # atno 17342 bound_to 10162
  140.4424  143.2521  151.9456 LP  0  0  0  0  0  0  0  0  0  0  0  0  # atno 17343 bound_to 10162
  156.1685  130.3646  149.9199 LP  0  0  0  0  0  0  0  0  0  0  0  0  # atno 17370 bound_to 10713
  156.7180  130.8996  151.3615 LP  0  0  0  0  0  0  0  0  0  0  0  0  # atno 17371 bound_to 10713
  141.0782  134.0103  157.3426 LP  0  0  0  0  0  0  0  0  0  0  0  0  # atno 17394 bound_to 11000
  139.9176  135.0198  156.7943 LP  0  0  0  0  0  0  0  0  0  0  0  0  # atno 17395 bound_to 11000

$$$$
