#       Name:                AV-unprocessed.smi:788
#       Creating user name   scv26
#       Creation time:       Fri Mar 27 01:16:50 2020


#       File generated by GOLD software.
#

@<TRIPOS>MOLECULE
AV-unprocessed.smi:788
    39    40     1
SMALL
NO_CHARGES


@<TRIPOS>ATOM
      1 ****        -1.1773   0.8776  -2.5661 C.3            1 S1                 0.0000
      2 ****        -1.6796   0.2346  -1.2618 C.3            1 S1                 0.0000
      3 ****        -1.4474  -1.2902  -1.2582 C.3            1 S1                 0.0000
      4 ****        -1.9969  -1.9405   0.0206 C.3            1 S1                 0.0000
      5 ****        -1.4037  -1.2916   1.2805 C.3            1 S1                 0.0000
      6 ****        -1.6369   0.2331   1.2929 C.3            1 S1                 0.0000
      7 ****        -1.0926   0.8760   2.5802 C.3            1 S1                 0.0000
      8 ****        -1.0822   0.8955   0.0063 C.3            1 S1                 0.0000
      9 ****         0.3810   0.8379  -0.0180 N.am           1 S1                 0.0000
     10 ****         1.2302   1.8783  -0.0137 C.2            1 S1                 0.0000
     11 ****         0.8536   3.0487   0.0042 O.2            1 S1                 0.0000
     12 ****         2.5455   1.5730  -0.0345 N.am           1 S1                 0.0000
     13 ****         3.7118   2.3943  -0.0373 C.2            1 S1                 0.0000
     14 ****         3.7015   3.7372  -0.0761 N.2            1 S1                 0.0000
     15 ****         4.9827   4.2715  -0.0750 N.2            1 S1                 0.0000
     16 ****         5.9124   3.3130  -0.0386 C.2            1 S1                 0.0000
     17 ****         5.3116   1.6647  -0.0020 S.3            1 S1                 0.0000
     18 ****        -0.1091   0.7150  -2.7124 H              1 S1                 0.0000
     19 ****        -1.3539   1.9534  -2.5659 H              1 S1                 0.0000
     20 ****        -1.6933   0.4594  -3.4306 H              1 S1                 0.0000
     21 ****        -2.7582   0.3972  -1.2298 H              1 S1                 0.0000
     22 ****        -1.9255  -1.7416  -2.1280 H              1 S1                 0.0000
     23 ****        -0.3820  -1.5067  -1.3488 H              1 S1                 0.0000
     24 ****        -3.0833  -1.8463   0.0395 H              1 S1                 0.0000
     25 ****        -1.7801  -3.0090   0.0161 H              1 S1                 0.0000
     26 ****        -1.8506  -1.7445   2.1661 H              1 S1                 0.0000
     27 ****        -0.3355  -1.5074   1.3335 H              1 S1                 0.0000
     28 ****        -2.7159   0.3950   1.2966 H              1 S1                 0.0000
     29 ****        -0.0246   0.6942   2.7027 H              1 S1                 0.0000
     30 ****        -1.5965   0.4749   3.4598 H              1 S1                 0.0000
     31 ****        -1.2484   1.9552   2.5752 H              1 S1                 0.0000
     32 ****        -1.4032   1.9386   0.0118 H              1 S1                 0.0000
     33 ****         0.7872  -0.0868  -0.0354 H              1 S1                 0.0000
     34 ****         2.7386   0.5823  -0.0581 H              1 S1                 0.0000
     35 ****         6.9591   3.5786  -0.0337 H              1 S1                 0.0000
     36 ****        -0.1239   3.2593   0.0164 LP             1 S1                 0.0000
     37 ****         1.5249   3.7899   0.0066 LP             1 S1                 0.0000
     38 ****         2.8674   4.2882  -0.1028 LP             1 S1                 0.0000
     39 ****         5.1843   5.2507  -0.0985 LP             1 S1                 0.0000
@<TRIPOS>BOND
    1    1    2 1     
    2    1   18 1     
    3    1   19 1     
    4    1   20 1     
    5    2    8 1     
    6    2    3 1     
    7    2   21 1     
    8    3    4 1     
    9    3   22 1     
   10    3   23 1     
   11    4    5 1     
   12    4   24 1     
   13    4   25 1     
   14    5    6 1     
   15    5   26 1     
   16    5   27 1     
   17    6    7 1     
   18    6    8 1     
   19    6   28 1     
   20    7   29 1     
   21    7   30 1     
   22    7   31 1     
   23    8    9 1     
   24    8   32 1     
   25    9   10 am    
   26    9   33 1     
   27   10   11 2     
   28   10   12 am    
   29   12   13 1     
   30   12   34 1     
   31   13   17 1     
   32   13   14 2     
   33   14   15 1     
   34   15   16 2     
   35   16   17 1     
   36   16   35 1     
   37   11   36 1     
   38   11   37 1     
   39   14   38 1     
   40   15   39 1     
@<TRIPOS>SUBSTRUCTURE
      1 S1             1
@<TRIPOS>SET
LONE_PAIRS      STATIC     ATOMS    <user>   **** ""
4 36 37 38 39
DONOR_HYDROGENS      STATIC     ATOMS    <user>   **** ""
2 33 34
ATOM$BLUE        STATIC     ATOMS    COLORGROUP SYSTEM
4 36 37 38 39
ATOM$RED        STATIC     ATOMS    COLORGROUP SYSTEM
2 33 34
