AV-unprocessed.smi:1607|AV-procd|sdf|6466|dock2
  -GOLD-   22720 7123D 1   1.00000     0.00000
 Structure written by MMmdl.
 39 40  0  0  0  0  0  0  0  0  2 V2000
  149.3359  144.6895  160.7042 C   0  0  0  0  0  0  0  0  0  0  0  0
  149.8988  144.4678  159.2931 C   0  0  1  0  0  0  0  0  0  0  0  0
  151.4356  144.5211  159.2875 C   0  0  0  0  0  0  0  0  0  0  0  0
  151.9701  144.2711  157.8720 C   0  0  0  0  0  0  0  0  0  0  0  0
  151.4301  142.9486  157.3059 C   0  0  0  0  0  0  0  0  0  0  0  0
  149.9443  142.9255  157.3195 N   0  3  1  0  0  0  0  0  0  0  0  0
  149.3982  141.7150  156.6548 C   0  0  0  0  0  0  0  0  0  0  0  0
  150.0129  141.4791  155.2653 C   0  0  0  0  0  0  0  0  0  0  0  0
  150.2105  140.0555  155.0300 N   0  0  0  0  0  0  0  0  0  0  0  0
  151.4113  139.4644  154.9303 C   0  0  0  0  0  0  0  0  0  0  0  0
  152.4729  140.0818  155.0047 O   0  0  0  0  0  0  0  0  0  0  0  0
  151.4232  137.9501  154.7043 C   0  0  0  0  0  0  0  0  0  0  0  0
  151.7193  137.2245  155.9268 N   0  0  0  0  0  0  0  0  0  0  0  0
  151.0763  137.1773  157.0952 C   0  0  0  0  0  0  0  0  0  0  0  0
  151.6946  136.3910  157.9627 N   0  0  0  0  0  0  0  0  0  0  0  0
  152.7877  135.9316  157.2474 N   0  0  0  0  0  0  0  0  0  0  0  0
  152.8066  136.4208  156.0379 N   0  0  0  0  0  0  0  0  0  0  0  0
  149.4078  143.1353  158.6918 C   0  0  0  0  0  0  0  0  0  0  0  0
  149.6645  143.9082  161.3905 H   0  0  0  0  0  0  0  0  0  0  0  0
  148.2456  144.6896  160.6974 H   0  0  0  0  0  0  0  0  0  0  0  0
  149.6618  145.6475  161.1108 H   0  0  0  0  0  0  0  0  0  0  0  0
  149.5302  145.2782  158.6622 H   0  0  0  0  0  0  0  0  0  0  0  0
  151.7828  145.4896  159.6492 H   0  0  0  0  0  0  0  0  0  0  0  0
  151.8376  143.7704  159.9695 H   0  0  0  0  0  0  0  0  0  0  0  0
  151.6808  145.0956  157.2189 H   0  0  0  0  0  0  0  0  0  0  0  0
  153.0604  144.2539  157.8838 H   0  0  0  0  0  0  0  0  0  0  0  0
  151.7931  142.8258  156.2847 H   0  0  0  0  0  0  0  0  0  0  0  0
  151.8141  142.1060  157.8832 H   0  0  0  0  0  0  0  0  0  0  0  0
  149.6164  140.8403  157.2697 H   0  0  0  0  0  0  0  0  0  0  0  0
  148.3108  141.7848  156.5940 H   0  0  0  0  0  0  0  0  0  0  0  0
  149.3707  141.8682  154.4754 H   0  0  0  0  0  0  0  0  0  0  0  0
  150.9685  142.0012  155.1918 H   0  0  0  0  0  0  0  0  0  0  0  0
  149.3845  139.4799  154.9505 H   0  0  0  0  0  0  0  0  0  0  0  0
  150.4516  137.6288  154.3269 H   0  0  0  0  0  0  0  0  0  0  0  0
  152.1661  137.6869  153.9497 H   0  0  0  0  0  0  0  0  0  0  0  0
  150.1666  137.7182  157.3103 H   0  0  0  0  0  0  0  0  0  0  0  0
  149.7057  142.3009  159.3291 H   0  0  0  0  0  0  0  0  0  0  0  0
  148.3186  143.1397  158.6712 H   0  0  0  0  0  0  0  0  0  0  0  0
  149.6478  143.7148  156.7634 H   0  0  0  0  0  0  0  0  0  0  0  0
  1  2  1  0  0  0  0
  1 19  1  0  0  0  0
  1 20  1  0  0  0  0
  1 21  1  0  0  0  0
  2 18  1  0  0  0  0
  2  3  1  0  0  0  0
  2 22  1  0  0  0  0
  3  4  1  0  0  0  0
  3 23  1  0  0  0  0
  3 24  1  0  0  0  0
  4  5  1  0  0  0  0
  4 25  1  0  0  0  0
  4 26  1  0  0  0  0
  5  6  1  0  0  0  0
  5 27  1  0  0  0  0
  5 28  1  0  0  0  0
  6  7  1  0  0  0  0
  6 18  1  0  0  0  0
  6 39  1  0  0  0  0
  7  8  1  0  0  0  0
  7 29  1  0  0  0  0
  7 30  1  0  0  0  0
  8  9  1  0  0  0  0
  8 31  1  0  0  0  0
  8 32  1  0  0  0  0
  9 10  1  0  0  0  0
  9 33  1  0  0  0  0
 10 11  2  0  0  0  0
 10 12  1  0  0  0  0
 12 13  1  0  0  0  0
 12 34  1  0  0  0  0
 12 35  1  0  0  0  0
 13 17  1  0  0  0  0
 13 14  1  0  0  0  0
 14 15  2  0  0  0  0
 14 36  1  0  0  0  0
 15 16  1  0  0  0  0
 16 17  2  0  0  0  0
 18 37  1  0  0  0  0
 18 38  1  0  0  0  0
M  CHG  1   6   1
M  END
> <s_m_source_file>
AV-unprocessed.smi

> <i_m_source_file_index>
1607

> <i_lp_mmshare_version>
43012

> <i_f3d_flags>
0

> <s_epik_input>
W0NIM11bQ0BASF0xW0NIMl1bQ0gyXVtDSDJdTihbQ0gyXTEpW0NIMl1bQ0gyXVtOSF1DKD1PKVtDSDJdbjJbY0hdbm5uMg==

> <s_epik_cmdline>
J2VwaWtfcHl0aG9uJywgJy1waCcsICc3LjAnLCAnLXRuJywgJzgnLCAnLW1hJywgJzIwMCcsICctbWV0YWxfYmluZGluZycsICctaW1hZScsICc8aW5maWxlLm1hZT4nLCAnLW9tYWUnLCAnPG91dGZpbGUubWFlPic=

> <r_lp_tautomer_probability>
1

> <r_epik_Ionization_Penalty>
0.00268321

> <r_epik_Ionization_Penalty_Charging>
0.00267875

> <r_epik_Ionization_Penalty_Neutral>
4.46125e-06

> <r_epik_State_Penalty>
0.00186642

> <r_epik_Charging_Adjusted_Penalty>
0.00454517

> <i_epik_Tot_Q>
1

> <i_epik_Tot_abs_Q>
1

> <r_epik_Metal_State_Penalty>
-0

> <b_epik_Metal_Only>
0

> <s_lp_Force_Field>
OPLS_2005

> <r_lp_Energy>
19.4205

> <b_lp_Chiralities_Consistent>
1

> <s_lp_Variant>
AV-unprocessed.smi:1607-4

> <Gold.Version>
5.8.1

> <Gold.Id.Protein>
6NUR|6NUR_protein|mol2

> <Gold.PLP.Fitness>
45.5296

> <Gold.PLP.PLP>
-32.9467

> <Gold.PLP.part.hbond>
-6.0000

> <Gold.PLP.part.metal>
0.0000

> <Gold.PLP.part.buried>
-2.9923

> <Gold.PLP.part.nonpolar>
-23.1830

> <Gold.PLP.part.repulsive>
0.1261

> <Gold.PLP.ligand.clash>
0.0000

> <Gold.PLP.ligand.torsion>
0.5654

> <Gold.PLP.Chemscore.Hbond>
4.5513

> <Gold.PLP.Chemscore.CHOScore>
0.0000

> <Gold.PLP.Chemscore.Metal>
0.0000

> <Gold.Chemscore.Hbonds>
donor molecule, donor type, donor heavy atom, donor atom, acceptor molecule, acceptor atom, score
      L1  H     6    39       P1  8028  2.00
      P1  H  6896  6907       L1    15  0.07
      P1  H  7997  8009       L1    11  0.60
      P1  H 10752 10763       L1    17  0.62

> <Gold.PLP.Chemscore.Internal.Correction>
0.0600

> <Gold.Rescore>
     Score         DG    S(hbond)    S(metal)    S(lipo)     H(rot)  DE(clash)    DE(int)     intcor
     16.79     -17.47       3.14        0.00      71.84       2.69       0.14       0.54       ----

> <Gold.Chemscore.Fitness>
16.7874

> <Gold.Chemscore.DG>
-17.4665

> <Gold.Chemscore.ZeroCoef>
-5.4800

> <Gold.Chemscore.Hbond>
3.1366

> <Gold.Chemscore.Metal>
0.0000

> <Gold.Chemscore.Lipo>
71.8356

> <Gold.Chemscore.Internal_Hbond>
0.0000

> <Gold.Chemscore.DEClash>
0.1440

> <Gold.Chemscore.DEInternal>
0.5351

> <Gold.Chemscore.Rot>
2.6932

> <Gold.Chemscore.Internal.Correction>
   9.000000E+99

> <Gold.Chemscore.Hbonds>
donor molecule, donor type, donor heavy atom, donor atom, acceptor molecule, acceptor atom, score
      L1  H     6    39       P1  8028  0.98
      P1  H  6896  6907       L1    15  0.07
      P1  H  7997  8009       L1    11  0.60
      P1  H 10752 10763       L1    17  0.52

> <Gold.Chemscore.Hbond.Weighted>
-10.4762

> <Gold.Chemscore.Metal.Weighted>
-0.0000

> <Gold.Chemscore.Lipo.Weighted>
-8.4048

> <Gold.Chemscore.Internal_Hbond.Weighted>
0.0000

> <Gold.Chemscore.DEClash.Weighted>
0.1440

> <Gold.Chemscore.DEInternal.Weighted>
0.5351

> <Gold.Chemscore.Rot.Weighted>
6.8945

> <Gold.Chemscore.Internal.Correction.Weighted>
   9.000000E+99

> <Gold.Protein.RotatedTorsions>
[ 6907 6896 6895 6894 ] final  -32.74 input  -60.11 | X-H torsion
[ 7974 7965 7964 7962 ] final  -16.57 input  175.53 | X-H torsion
[ 8008 7997 7996 7995 ] final -149.74 input   59.86 | X-H torsion
[ 10167 10162 10161 10158 ] final -155.29 input  -65.29 | X-H torsion
[ 10718 10713 10712 10709 ] final -153.28 input   66.30 | X-H torsion
[ 10763 10752 10751 10750 ] final   89.74 input  -60.55 | X-H torsion
[ 11005 11000 10999 10996 ] final  -49.30 input  -57.11 | X-H torsion

> <Gold.Protein.ActiveResidues>
 VAL166  LYS551  ARG553  GLY616  TRP617  ASP618  TYR619  PRO620  LYS621  CYS622 
 ASP623  PHE694  ASN695  SER759  ASP760  ASP761  ALA762  ILE779  LEU786  VAL792 
 PHE793  MET794  SER795  GLU796  ALA797  LYS798  CYS799  TRP800  GLU811  SER814 

> <Gold.Protein.RotatedAtoms>
  151.0748  134.9821  159.8326 H   0  0  0  0  0  0  0  0  0  0  0  0  # atno 6907 bound_to 6896
  152.5413  134.2255  159.8814 H   0  0  0  0  0  0  0  0  0  0  0  0  # atno 6908 bound_to 6896
  151.2282  133.4421  159.2636 H   0  0  0  0  0  0  0  0  0  0  0  0  # atno 6909 bound_to 6896
  146.1981  140.3655  142.8433 H   0  0  0  0  0  0  0  0  0  0  0  0  # atno 7974 bound_to 7965
  155.6124  140.0673  157.2702 H   0  0  0  0  0  0  0  0  0  0  0  0  # atno 8008 bound_to 7997
  154.4250  140.1799  156.1334 H   0  0  0  0  0  0  0  0  0  0  0  0  # atno 8009 bound_to 7997
  156.0074  140.3330  155.6910 H   0  0  0  0  0  0  0  0  0  0  0  0  # atno 8010 bound_to 7997
  139.6943  143.9368  152.2400 H   0  0  0  0  0  0  0  0  0  0  0  0  # atno 10167 bound_to 10162
  156.4838  130.8315  151.2541 H   0  0  0  0  0  0  0  0  0  0  0  0  # atno 10718 bound_to 10713
  153.1903  135.4459  155.0140 H   0  0  0  0  0  0  0  0  0  0  0  0  # atno 10763 bound_to 10752
  154.8086  135.3285  154.7368 H   0  0  0  0  0  0  0  0  0  0  0  0  # atno 10764 bound_to 10752
  153.7823  135.6976  153.4941 H   0  0  0  0  0  0  0  0  0  0  0  0  # atno 10765 bound_to 10752
  141.0751  133.6668  156.3566 H   0  0  0  0  0  0  0  0  0  0  0  0  # atno 11005 bound_to 11000
  144.8624  140.7159  143.6099 LP  0  0  0  0  0  0  0  0  0  0  0  0  # atno 17320 bound_to 7965
  145.3575  139.1690  143.4401 LP  0  0  0  0  0  0  0  0  0  0  0  0  # atno 17321 bound_to 7965
  139.9193  144.6809  150.8479 LP  0  0  0  0  0  0  0  0  0  0  0  0  # atno 17342 bound_to 10162
  140.7692  143.3386  151.2255 LP  0  0  0  0  0  0  0  0  0  0  0  0  # atno 17343 bound_to 10162
  157.7481  131.0036  150.3045 LP  0  0  0  0  0  0  0  0  0  0  0  0  # atno 17370 bound_to 10713
  156.3495  130.3828  149.7341 LP  0  0  0  0  0  0  0  0  0  0  0  0  # atno 17371 bound_to 10713
  140.5590  134.5953  157.5428 LP  0  0  0  0  0  0  0  0  0  0  0  0  # atno 17394 bound_to 11000
  139.9564  134.7528  156.0333 LP  0  0  0  0  0  0  0  0  0  0  0  0  # atno 17395 bound_to 11000

$$$$
