AV-unprocessed.smi:249|AV-procd|sdf|1929|dock10
  -GOLD-   2262021 43D 1   1.00000     0.00000
 Structure written by MMmdl.
 64 67  0  0  0  0  0  0  0  0  2 V2000
  144.9275  134.9440  153.5552 C   0  0  0  0  0  0  0  0  0  0  0  0
  146.0445  135.2735  152.5511 C   0  0  0  0  0  0  0  0  0  0  0  0
  146.6800  136.6026  152.7870 N   0  3  1  0  0  0  0  0  0  0  0  0
  145.8402  137.7146  152.2535 C   0  0  0  0  0  0  0  0  0  0  0  0
  146.5329  139.0781  152.3794 C   0  0  0  0  0  0  0  0  0  0  0  0
  146.8920  139.3606  153.8436 C   0  0  2  0  0  0  0  0  0  0  0  0
  147.5095  140.6789  154.0278 N   0  0  0  0  0  0  0  0  0  0  0  0
  147.0751  141.8114  153.2107 C   0  0  0  0  0  0  0  0  0  0  0  0
  147.9057  140.9613  155.2954 C   0  0  0  0  0  0  0  0  0  0  0  0
  146.9724  141.2242  156.2485 N   0  0  0  0  0  0  0  0  0  0  0  0
  147.3464  141.4792  157.5054 C   0  0  0  0  0  0  0  0  0  0  0  0
  148.5780  141.5262  158.0153 N   0  0  0  0  0  0  0  0  0  0  0  0
  149.5222  141.2819  157.0619 C   0  0  0  0  0  0  0  0  0  0  0  0
  149.2728  140.9846  155.6918 C   0  0  0  0  0  0  0  0  0  0  0  0
  150.4745  140.7785  155.0256 N   0  0  0  0  0  0  0  0  0  0  0  0
  151.3809  140.9312  155.9516 C   0  0  0  0  0  0  0  0  0  0  0  0
  150.9013  141.2659  157.1986 N   0  0  0  0  0  0  0  0  0  0  0  0
  151.6945  141.4753  158.4024 C   0  0  0  0  0  0  0  0  0  0  0  0
  152.3089  142.8985  158.5393 C   0  0  1  0  0  0  0  0  0  0  0  0
  151.1765  143.9111  158.8338 C   0  0  0  0  0  0  0  0  0  0  0  0
  150.3688  143.4714  159.9067 O   0  0  0  0  0  0  0  0  0  0  0  0
  153.4238  143.0167  159.6243 C   0  0  1  0  0  0  0  0  0  0  0  0
  153.0263  142.6818  161.0549 C   0  0  0  0  0  0  0  0  0  0  0  0
  153.0628  141.1578  161.0763 C   0  0  0  0  0  0  0  0  0  0  0  0
  154.0684  140.7975  160.1354 O   0  0  0  0  0  0  0  0  0  0  0  0
  154.5263  141.9600  159.4504 C   0  0  0  0  0  0  0  0  0  0  0  0
  147.7704  138.2159  154.3670 C   0  0  0  0  0  0  0  0  0  0  0  0
  147.0752  136.8447  154.2147 C   0  0  2  0  0  0  0  0  0  0  0  0
  148.0107  135.7563  154.7825 C   0  0  0  0  0  0  0  0  0  0  0  0
  144.3957  134.0432  153.2484 H   0  0  0  0  0  0  0  0  0  0  0  0
  144.1972  135.7516  153.6128 H   0  0  0  0  0  0  0  0  0  0  0  0
  145.3091  134.7557  154.5580 H   0  0  0  0  0  0  0  0  0  0  0  0
  146.8048  134.4910  152.5551 H   0  0  0  0  0  0  0  0  0  0  0  0
  145.5750  135.2429  151.5708 H   0  0  0  0  0  0  0  0  0  0  0  0
  145.6150  137.5567  151.2003 H   0  0  0  0  0  0  0  0  0  0  0  0
  144.8843  137.7324  152.7798 H   0  0  0  0  0  0  0  0  0  0  0  0
  147.4275  139.0895  151.7556 H   0  0  0  0  0  0  0  0  0  0  0  0
  145.8748  139.8590  151.9960 H   0  0  0  0  0  0  0  0  0  0  0  0
  145.9626  139.3276  154.4115 H   0  0  0  0  0  0  0  0  0  0  0  0
  147.7435  142.6629  153.3456 H   0  0  0  0  0  0  0  0  0  0  0  0
  146.0660  142.1248  153.4803 H   0  0  0  0  0  0  0  0  0  0  0  0
  147.0840  141.5618  152.1506 H   0  0  0  0  0  0  0  0  0  0  0  0
  146.5444  141.6724  158.2026 H   0  0  0  0  0  0  0  0  0  0  0  0
  152.4351  140.8174  155.7445 H   0  0  0  0  0  0  0  0  0  0  0  0
  151.0283  141.2616  159.2386 H   0  0  0  0  0  0  0  0  0  0  0  0
  152.4799  140.7200  158.4517 H   0  0  0  0  0  0  0  0  0  0  0  0
  152.7505  143.1884  157.5866 H   0  0  0  0  0  0  0  0  0  0  0  0
  151.5892  144.8923  159.0710 H   0  0  0  0  0  0  0  0  0  0  0  0
  150.5199  144.0493  157.9767 H   0  0  0  0  0  0  0  0  0  0  0  0
  150.2617  144.1858  160.5159 H   0  0  0  0  0  0  0  0  0  0  0  0
  153.8432  144.0229  159.5857 H   0  0  0  0  0  0  0  0  0  0  0  0
  153.7898  143.0639  161.7341 H   0  0  0  0  0  0  0  0  0  0  0  0
  152.0851  143.1049  161.3904 H   0  0  0  0  0  0  0  0  0  0  0  0
  153.2828  140.7623  162.0680 H   0  0  0  0  0  0  0  0  0  0  0  0
  152.1087  140.7438  160.7484 H   0  0  0  0  0  0  0  0  0  0  0  0
  154.7719  141.7256  158.4158 H   0  0  0  0  0  0  0  0  0  0  0  0
  155.4453  142.2979  159.9320 H   0  0  0  0  0  0  0  0  0  0  0  0
  148.7219  138.1911  153.8351 H   0  0  0  0  0  0  0  0  0  0  0  0
  148.0060  138.3974  155.4166 H   0  0  0  0  0  0  0  0  0  0  0  0
  146.1655  136.8553  154.8175 H   0  0  0  0  0  0  0  0  0  0  0  0
  148.4072  136.0529  155.7543 H   0  0  0  0  0  0  0  0  0  0  0  0
  148.8609  135.5767  154.1239 H   0  0  0  0  0  0  0  0  0  0  0  0
  147.4972  134.8097  154.9471 H   0  0  0  0  0  0  0  0  0  0  0  0
  147.5383  136.6064  152.2545 H   0  0  0  0  0  0  0  0  0  0  0  0
  1  2  1  0  0  0  0
  1 30  1  0  0  0  0
  1 31  1  0  0  0  0
  1 32  1  0  0  0  0
  2  3  1  0  0  0  0
  2 33  1  0  0  0  0
  2 34  1  0  0  0  0
  3 28  1  0  0  0  0
  3  4  1  0  0  0  0
  3 64  1  0  0  0  0
  4  5  1  0  0  0  0
  4 35  1  0  0  0  0
  4 36  1  0  0  0  0
  5  6  1  0  0  0  0
  5 37  1  0  0  0  0
  5 38  1  0  0  0  0
  6  7  1  0  0  0  0
  6 27  1  0  0  0  0
  6 39  1  0  0  0  0
  7  8  1  0  0  0  0
  7  9  1  0  0  0  0
  8 40  1  0  0  0  0
  8 41  1  0  0  0  0
  8 42  1  0  0  0  0
  9 14  1  0  0  0  0
  9 10  2  0  0  0  0
 10 11  1  0  0  0  0
 11 12  2  0  0  0  0
 11 43  1  0  0  0  0
 12 13  1  0  0  0  0
 13 17  1  0  0  0  0
 13 14  2  0  0  0  0
 14 15  1  0  0  0  0
 15 16  2  0  0  0  0
 16 17  1  0  0  0  0
 16 44  1  0  0  0  0
 17 18  1  0  0  0  0
 18 19  1  0  0  0  0
 18 45  1  0  0  0  0
 18 46  1  0  0  0  0
 19 20  1  0  0  0  0
 19 22  1  0  0  0  0
 19 47  1  0  0  0  0
 20 21  1  0  0  0  0
 20 48  1  0  0  0  0
 20 49  1  0  0  0  0
 21 50  1  0  0  0  0
 22 26  1  0  0  0  0
 22 23  1  0  0  0  0
 22 51  1  0  0  0  0
 23 24  1  0  0  0  0
 23 52  1  0  0  0  0
 23 53  1  0  0  0  0
 24 25  1  0  0  0  0
 24 54  1  0  0  0  0
 24 55  1  0  0  0  0
 25 26  1  0  0  0  0
 26 56  1  0  0  0  0
 26 57  1  0  0  0  0
 27 28  1  0  0  0  0
 27 58  1  0  0  0  0
 27 59  1  0  0  0  0
 28 29  1  0  0  0  0
 28 60  1  0  0  0  0
 29 61  1  0  0  0  0
 29 62  1  0  0  0  0
 29 63  1  0  0  0  0
M  CHG  1   3   1
M  END
> <s_m_source_file>
AV-unprocessed.smi

> <i_m_source_file_index>
249

> <i_lp_mmshare_version>
43012

> <i_f3d_flags>
0

> <s_epik_input>
W0NIM11bQ0gyXU4xW0NIMl1bQ0gyXVtDQEhdKFtDSDJdW0NASF0xW0NIM10pTihbQ0gzXSljKG5bY0hdbjIpYyhjMjMpbltjSF1uM1tDSDJdW0NASF0oW0NIMl1bT0hdKVtDQEBIXTRbQ0gyXVtDSDJdT1tDSDJdNA==

> <s_epik_cmdline>
J2VwaWtfcHl0aG9uJywgJy1waCcsICc3LjAnLCAnLXRuJywgJzgnLCAnLW1hJywgJzIwMCcsICctbWV0YWxfYmluZGluZycsICctaW1hZScsICc8aW5maWxlLm1hZT4nLCAnLW9tYWUnLCAnPG91dGZpbGUubWFlPic=

> <r_lp_tautomer_probability>
1

> <r_epik_Ionization_Penalty>
0.00294688

> <r_epik_Ionization_Penalty_Charging>
0.00169971

> <r_epik_Ionization_Penalty_Neutral>
0.00124717

> <r_epik_State_Penalty>
-0

> <r_epik_Charging_Adjusted_Penalty>
0.00169971

> <i_epik_Tot_Q>
1

> <i_epik_Tot_abs_Q>
1

> <r_epik_Metal_State_Penalty>
-0

> <b_epik_Metal_Only>
0

> <s_lp_Force_Field>
OPLS_2005

> <r_lp_Energy>
57.6505

> <b_lp_Chiralities_Consistent>
1

> <s_lp_Variant>
AV-unprocessed.smi:249-32

> <Gold.Version>
5.8.1

> <Gold.Id.Protein>
6NUR|6NUR_protein|mol2

> <Gold.PLP.Fitness>
48.6734

> <Gold.PLP.PLP>
-43.5243

> <Gold.PLP.part.hbond>
-2.4087

> <Gold.PLP.part.metal>
0.0000

> <Gold.PLP.part.buried>
-8.2584

> <Gold.PLP.part.nonpolar>
-33.4865

> <Gold.PLP.part.repulsive>
0.2807

> <Gold.PLP.ligand.clash>
0.0000

> <Gold.PLP.ligand.torsion>
2.3392

> <Gold.PLP.Chemscore.Hbond>
2.9120

> <Gold.PLP.Chemscore.CHOScore>
0.0000

> <Gold.PLP.Chemscore.Metal>
0.0000

> <Gold.Chemscore.Hbonds>
donor molecule, donor type, donor heavy atom, donor atom, acceptor molecule, acceptor atom, score
      L1  H     3    64       P1  7948  1.85
      P1  H  7989  7998       L1    15  0.76

> <Gold.PLP.Chemscore.Internal.Correction>
1.0915

> <Gold.Rescore>
     Score         DG    S(hbond)    S(metal)    S(lipo)     H(rot)  DE(clash)    DE(int)     intcor
     10.84     -16.40       1.32        0.00     113.61       2.65       1.37       4.19       ----

> <Gold.Chemscore.Fitness>
10.8433

> <Gold.Chemscore.DG>
-16.3954

> <Gold.Chemscore.ZeroCoef>
-5.4800

> <Gold.Chemscore.Hbond>
1.3208

> <Gold.Chemscore.Metal>
0.0000

> <Gold.Chemscore.Lipo>
113.6058

> <Gold.Chemscore.Internal_Hbond>
0.0000

> <Gold.Chemscore.DEClash>
1.3667

> <Gold.Chemscore.DEInternal>
4.1854

> <Gold.Chemscore.Rot>
2.6515

> <Gold.Chemscore.Internal.Correction>
   9.000000E+99

> <Gold.Chemscore.Hbonds>
donor molecule, donor type, donor heavy atom, donor atom, acceptor molecule, acceptor atom, score
      L1  H     3    64       P1  7948  0.88
      P1  H  7989  7998       L1    15  0.15

> <Gold.Chemscore.Hbond.Weighted>
-4.4115

> <Gold.Chemscore.Metal.Weighted>
-0.0000

> <Gold.Chemscore.Lipo.Weighted>
-13.2919

> <Gold.Chemscore.Internal_Hbond.Weighted>
0.0000

> <Gold.Chemscore.DEClash.Weighted>
1.3667

> <Gold.Chemscore.DEInternal.Weighted>
4.1854

> <Gold.Chemscore.Rot.Weighted>
6.7880

> <Gold.Chemscore.Internal.Correction.Weighted>
   9.000000E+99

> <Gold.Protein.RotatedTorsions>
[ 6907 6896 6895 6894 ] final  -11.55 input  -60.11 | X-H torsion
[ 7974 7965 7964 7962 ] final -122.75 input  175.53 | X-H torsion
[ 8008 7997 7996 7995 ] final -173.22 input   59.86 | X-H torsion
[ 10167 10162 10161 10158 ] final  -19.29 input  -65.29 | X-H torsion
[ 10718 10713 10712 10709 ] final  -53.42 input   66.30 | X-H torsion
[ 10763 10752 10751 10750 ] final  -36.33 input  -60.55 | X-H torsion
[ 11005 11000 10999 10996 ] final  -20.71 input  -57.11 | X-H torsion

> <Gold.Protein.ActiveResidues>
 VAL166  LYS551  ARG553  GLY616  TRP617  ASP618  TYR619  PRO620  LYS621  CYS622 
 ASP623  PHE694  ASN695  SER759  ASP760  ASP761  ALA762  ILE779  LEU786  VAL792 
 PHE793  MET794  SER795  GLU796  ALA797  LYS798  CYS799  TRP800  GLU811  SER814 

> <Gold.Protein.RotatedAtoms>
  151.3844  135.0945  159.9506 H   0  0  0  0  0  0  0  0  0  0  0  0  # atno 6907 bound_to 6896
  152.5098  133.9040  159.7465 H   0  0  0  0  0  0  0  0  0  0  0  0  # atno 6908 bound_to 6896
  150.9480  133.6525  159.2806 H   0  0  0  0  0  0  0  0  0  0  0  0  # atno 6909 bound_to 6896
  145.0261  140.8029  143.4351 H   0  0  0  0  0  0  0  0  0  0  0  0  # atno 7974 bound_to 7965
  155.9546  140.1133  157.0947 H   0  0  0  0  0  0  0  0  0  0  0  0  # atno 8008 bound_to 7997
  154.4117  140.1194  156.5165 H   0  0  0  0  0  0  0  0  0  0  0  0  # atno 8009 bound_to 7997
  155.6798  140.3473  155.4853 H   0  0  0  0  0  0  0  0  0  0  0  0  # atno 8010 bound_to 7997
  140.7267  143.4833  151.0088 H   0  0  0  0  0  0  0  0  0  0  0  0  # atno 10167 bound_to 10162
  156.1537  130.4151  149.9904 H   0  0  0  0  0  0  0  0  0  0  0  0  # atno 10718 bound_to 10713
  153.8779  135.6824  153.4769 H   0  0  0  0  0  0  0  0  0  0  0  0  # atno 10763 bound_to 10752
  153.1250  135.4723  154.9255 H   0  0  0  0  0  0  0  0  0  0  0  0  # atno 10764 bound_to 10752
  154.7683  135.3231  154.8194 H   0  0  0  0  0  0  0  0  0  0  0  0  # atno 10765 bound_to 10752
  140.8491  133.7870  155.9946 H   0  0  0  0  0  0  0  0  0  0  0  0  # atno 11005 bound_to 11000
  145.1831  139.2341  143.5282 LP  0  0  0  0  0  0  0  0  0  0  0  0  # atno 17320 bound_to 7965
  146.3492  140.1610  142.8591 LP  0  0  0  0  0  0  0  0  0  0  0  0  # atno 17321 bound_to 7965
  139.8533  143.7409  152.3177 LP  0  0  0  0  0  0  0  0  0  0  0  0  # atno 17342 bound_to 10162
  139.7599  144.7509  151.0379 LP  0  0  0  0  0  0  0  0  0  0  0  0  # atno 17343 bound_to 10162
  156.7754  130.9202  151.3645 LP  0  0  0  0  0  0  0  0  0  0  0  0  # atno 17370 bound_to 10713
  157.6677  130.9023  149.9970 LP  0  0  0  0  0  0  0  0  0  0  0  0  # atno 17371 bound_to 10713
  140.8810  134.2611  157.5144 LP  0  0  0  0  0  0  0  0  0  0  0  0  # atno 17394 bound_to 11000
  139.8704  134.9615  156.4398 LP  0  0  0  0  0  0  0  0  0  0  0  0  # atno 17395 bound_to 11000

$$$$
