AV-unprocessed.smi:1532|AV-procd|sdf|6160|dock2
  -GOLD-   22720 6313D 1   1.00000     0.00000
 Structure written by MMmdl.
 38 40  0  0  0  0  0  0  0  0  1 V2000
  151.3684  132.9005  156.5609 O   0  0  0  0  0  0  0  0  0  0  0  0
  150.5114  133.0017  155.6819 C   0  0  0  0  0  0  0  0  0  0  0  0
  150.2642  131.9681  154.6652 C   0  0  0  0  0  0  0  0  0  0  0  0
  151.1193  130.7043  154.7069 C   0  0  0  0  0  0  0  0  0  0  0  0
  150.9685  129.9696  153.6039 F   0  0  0  0  0  0  0  0  0  0  0  0
  152.4111  131.0164  154.8159 F   0  0  0  0  0  0  0  0  0  0  0  0
  150.7840  129.9456  155.7512 F   0  0  0  0  0  0  0  0  0  0  0  0
  149.3000  132.1518  153.7304 C   0  0  0  0  0  0  0  0  0  0  0  0
  148.5090  133.3662  153.7237 C   0  0  0  0  0  0  0  0  0  0  0  0
  147.4265  133.6359  152.7182 C   0  0  0  0  0  0  0  0  0  0  0  0
  146.0913  132.9316  152.7817 C   0  0  0  0  0  0  0  0  0  0  0  0
  147.0484  132.6347  151.6503 C   0  0  0  0  0  0  0  0  0  0  0  0
  148.7297  134.2724  154.6155 N   0  0  0  0  0  0  0  0  0  0  0  0
  149.7036  134.0982  155.5782 N   0  0  0  0  0  0  0  0  0  0  0  0
  149.8130  135.2193  156.5204 C   0  0  0  0  0  0  0  0  0  0  0  0
  149.8014  136.5895  155.8081 C   0  0  2  0  0  0  0  0  0  0  0  0
  150.8703  136.6310  154.8824 O   0  0  0  0  0  0  0  0  0  0  0  0
  149.8926  137.7252  156.8163 C   0  0  0  0  0  0  0  0  0  0  0  0
  149.7440  139.0696  156.4076 C   0  0  0  0  0  0  0  0  0  0  0  0
  149.8421  140.1128  157.3489 C   0  0  0  0  0  0  0  0  0  0  0  0
  150.0925  139.8192  158.7031 C   0  0  0  0  0  0  0  0  0  0  0  0
  150.2458  138.4815  159.1154 C   0  0  0  0  0  0  0  0  0  0  0  0
  150.4894  138.1981  160.4168 F   0  0  0  0  0  0  0  0  0  0  0  0
  150.1476  137.4381  158.1744 C   0  0  0  0  0  0  0  0  0  0  0  0
  149.1037  131.4049  152.9759 H   0  0  0  0  0  0  0  0  0  0  0  0
  147.4205  134.6858  152.4318 H   0  0  0  0  0  0  0  0  0  0  0  0
  145.9562  132.1602  153.5377 H   0  0  0  0  0  0  0  0  0  0  0  0
  145.2045  133.5178  152.5502 H   0  0  0  0  0  0  0  0  0  0  0  0
  146.7979  133.0235  150.6653 H   0  0  0  0  0  0  0  0  0  0  0  0
  147.5379  131.6626  151.6559 H   0  0  0  0  0  0  0  0  0  0  0  0
  148.9727  135.1627  157.2152 H   0  0  0  0  0  0  0  0  0  0  0  0
  150.7018  135.1237  157.1478 H   0  0  0  0  0  0  0  0  0  0  0  0
  148.8767  136.7125  155.2429 H   0  0  0  0  0  0  0  0  0  0  0  0
  150.5300  136.4309  154.0237 H   0  0  0  0  0  0  0  0  0  0  0  0
  149.5567  139.3058  155.3701 H   0  0  0  0  0  0  0  0  0  0  0  0
  149.7270  141.1388  157.0316 H   0  0  0  0  0  0  0  0  0  0  0  0
  150.1685  140.6193  159.4245 H   0  0  0  0  0  0  0  0  0  0  0  0
  150.2715  136.4154  158.4997 H   0  0  0  0  0  0  0  0  0  0  0  0
  1  2  2  0  0  0  0
  2 14  1  0  0  0  0
  2  3  1  0  0  0  0
  3  4  1  0  0  0  0
  3  8  2  0  0  0  0
  4  5  1  0  0  0  0
  4  6  1  0  0  0  0
  4  7  1  0  0  0  0
  8  9  1  0  0  0  0
  8 25  1  0  0  0  0
  9 10  1  0  0  0  0
  9 13  2  0  0  0  0
 10 12  1  0  0  0  0
 10 11  1  0  0  0  0
 10 26  1  0  0  0  0
 11 12  1  0  0  0  0
 11 27  1  0  0  0  0
 11 28  1  0  0  0  0
 12 29  1  0  0  0  0
 12 30  1  0  0  0  0
 13 14  1  0  0  0  0
 14 15  1  0  0  0  0
 15 16  1  0  0  0  0
 15 31  1  0  0  0  0
 15 32  1  0  0  0  0
 16 17  1  0  0  0  0
 16 18  1  0  0  0  0
 16 33  1  0  0  0  0
 17 34  1  0  0  0  0
 18 24  1  0  0  0  0
 18 19  2  0  0  0  0
 19 20  1  0  0  0  0
 19 35  1  0  0  0  0
 20 21  2  0  0  0  0
 20 36  1  0  0  0  0
 21 22  1  0  0  0  0
 21 37  1  0  0  0  0
 22 23  1  0  0  0  0
 22 24  2  0  0  0  0
 24 38  1  0  0  0  0
M  END
> <s_m_source_file>
AV-unprocessed.smi

> <i_m_source_file_index>
1532

> <i_lp_mmshare_version>
43012

> <i_f3d_flags>
0

> <s_epik_input>
Tz1jMWMoQyhGKShGKUYpW2NIXWMoW0NIXTJbQ0gyXVtDSDJdMilubjFbQ0gyXVtDQEhdKFtPSF0pYzNbY0hdW2NIXVtjSF1jKEYpW2NIXTM=

> <s_epik_cmdline>
J2VwaWtfcHl0aG9uJywgJy1waCcsICc3LjAnLCAnLXRuJywgJzgnLCAnLW1hJywgJzIwMCcsICctbWV0YWxfYmluZGluZycsICctaW1hZScsICc8aW5maWxlLm1hZT4nLCAnLW9tYWUnLCAnPG91dGZpbGUubWFlPic=

> <r_lp_tautomer_probability>
1

> <r_epik_Ionization_Penalty>
1.69012e-07

> <r_epik_Ionization_Penalty_Charging>
9.677e-10

> <r_epik_Ionization_Penalty_Neutral>
1.68044e-07

> <r_epik_State_Penalty>
-0

> <r_epik_Charging_Adjusted_Penalty>
9.677e-10

> <i_epik_Tot_Q>
0

> <i_epik_Tot_abs_Q>
0

> <r_epik_Metal_State_Penalty>
-0

> <b_epik_Metal_Only>
0

> <s_lp_Force_Field>
OPLS_2005

> <r_lp_Energy>
33.1726

> <b_lp_Chiralities_Consistent>
1

> <s_lp_Variant>
AV-unprocessed.smi:1532-1

> <Gold.Version>
5.8.1

> <Gold.Id.Protein>
6NUR|6NUR_protein|mol2

> <Gold.PLP.Fitness>
42.6541

> <Gold.PLP.PLP>
-37.7713

> <Gold.PLP.part.hbond>
-2.0000

> <Gold.PLP.part.metal>
0.0000

> <Gold.PLP.part.buried>
-2.3941

> <Gold.PLP.part.nonpolar>
-33.3816

> <Gold.PLP.part.repulsive>
0.4254

> <Gold.PLP.ligand.clash>
0.0039

> <Gold.PLP.ligand.torsion>
0.8091

> <Gold.PLP.Chemscore.Hbond>
1.9600

> <Gold.PLP.Chemscore.CHOScore>
0.0000

> <Gold.PLP.Chemscore.Metal>
0.0000

> <Gold.Chemscore.Hbonds>
donor molecule, donor type, donor heavy atom, donor atom, acceptor molecule, acceptor atom, score
      P1  H 10752 10765       L1    17  0.20

> <Gold.PLP.Chemscore.Internal.Correction>
0.6249

> <Gold.Rescore>
     Score         DG    S(hbond)    S(metal)    S(lipo)     H(rot)  DE(clash)    DE(int)     intcor
      9.20     -13.03       1.17        0.00      79.28       2.20       1.41       2.41       ----

> <Gold.Chemscore.Fitness>
9.2009

> <Gold.Chemscore.DG>
-13.0272

> <Gold.Chemscore.ZeroCoef>
-5.4800

> <Gold.Chemscore.Hbond>
1.1690

> <Gold.Chemscore.Metal>
0.0000

> <Gold.Chemscore.Lipo>
79.2774

> <Gold.Chemscore.Internal_Hbond>
0.0000

> <Gold.Chemscore.DEClash>
1.4115

> <Gold.Chemscore.DEInternal>
2.4148

> <Gold.Chemscore.Rot>
2.2003

> <Gold.Chemscore.Internal.Correction>
   9.000000E+99

> <Gold.Chemscore.Hbonds>
donor molecule, donor type, donor heavy atom, donor atom, acceptor molecule, acceptor atom, score
      P1  H 10752 10765       L1    17  0.03

> <Gold.Chemscore.Hbond.Weighted>
-3.9046

> <Gold.Chemscore.Metal.Weighted>
-0.0000

> <Gold.Chemscore.Lipo.Weighted>
-9.2755

> <Gold.Chemscore.Internal_Hbond.Weighted>
0.0000

> <Gold.Chemscore.DEClash.Weighted>
1.4115

> <Gold.Chemscore.DEInternal.Weighted>
2.4148

> <Gold.Chemscore.Rot.Weighted>
5.6328

> <Gold.Chemscore.Internal.Correction.Weighted>
   9.000000E+99

> <Gold.Protein.RotatedTorsions>
[ 6907 6896 6895 6894 ] final  142.58 input  -60.11 | X-H torsion
[ 7974 7965 7964 7962 ] final   66.78 input  175.53 | X-H torsion
[ 8008 7997 7996 7995 ] final   70.99 input   59.86 | X-H torsion
[ 10167 10162 10161 10158 ] final  -38.15 input  -65.29 | X-H torsion
[ 10718 10713 10712 10709 ] final   70.36 input   66.30 | X-H torsion
[ 10763 10752 10751 10750 ] final  175.82 input  -60.55 | X-H torsion
[ 11005 11000 10999 10996 ] final -134.13 input  -57.11 | X-H torsion

> <Gold.Protein.ActiveResidues>
 VAL166  LYS551  ARG553  GLY616  TRP617  ASP618  TYR619  PRO620  LYS621  CYS622 
 ASP623  PHE694  ASN695  SER759  ASP760  ASP761  ALA762  ILE779  LEU786  VAL792 
 PHE793  MET794  SER795  GLU796  ALA797  LYS798  CYS799  TRP800  GLU811  SER814 

> <Gold.Protein.RotatedAtoms>
  152.2169  133.4954  159.5140 H   0  0  0  0  0  0  0  0  0  0  0  0  # atno 6907 bound_to 6896
  150.7003  134.1393  159.4108 H   0  0  0  0  0  0  0  0  0  0  0  0  # atno 6908 bound_to 6896
  151.9314  135.0255  160.0580 H   0  0  0  0  0  0  0  0  0  0  0  0  # atno 6909 bound_to 6896
  145.8226  139.3093  143.1034 H   0  0  0  0  0  0  0  0  0  0  0  0  # atno 7974 bound_to 7965
  155.7471  140.3489  155.5132 H   0  0  0  0  0  0  0  0  0  0  0  0  # atno 8008 bound_to 7997
  155.9040  140.1039  157.1350 H   0  0  0  0  0  0  0  0  0  0  0  0  # atno 8009 bound_to 7997
  154.4047  140.1280  156.4459 H   0  0  0  0  0  0  0  0  0  0  0  0  # atno 8010 bound_to 7997
  140.7100  143.3295  151.2601 H   0  0  0  0  0  0  0  0  0  0  0  0  # atno 10167 bound_to 10162
  157.6395  130.9473  150.0640 H   0  0  0  0  0  0  0  0  0  0  0  0  # atno 10718 bound_to 10713
  154.4728  135.2772  155.1629 H   0  0  0  0  0  0  0  0  0  0  0  0  # atno 10763 bound_to 10752
  154.3371  135.6178  153.5582 H   0  0  0  0  0  0  0  0  0  0  0  0  # atno 10764 bound_to 10752
  152.9866  135.5779  154.5113 H   0  0  0  0  0  0  0  0  0  0  0  0  # atno 10765 bound_to 10752
  140.9018  134.1681  157.4455 H   0  0  0  0  0  0  0  0  0  0  0  0  # atno 11005 bound_to 11000
  145.9659  140.8799  143.0187 LP  0  0  0  0  0  0  0  0  0  0  0  0  # atno 17320 bound_to 7965
  144.6746  140.1877  143.7399 LP  0  0  0  0  0  0  0  0  0  0  0  0  # atno 17321 bound_to 7965
  139.6774  143.9914  152.2789 LP  0  0  0  0  0  0  0  0  0  0  0  0  # atno 17342 bound_to 10162
  139.9533  144.6606  150.8151 LP  0  0  0  0  0  0  0  0  0  0  0  0  # atno 17343 bound_to 10162
  156.1664  130.3645  149.9227 LP  0  0  0  0  0  0  0  0  0  0  0  0  # atno 17370 bound_to 10713
  156.7213  130.9008  151.3618 LP  0  0  0  0  0  0  0  0  0  0  0  0  # atno 17371 bound_to 10713
  139.8743  134.9901  156.5487 LP  0  0  0  0  0  0  0  0  0  0  0  0  # atno 17394 bound_to 11000
  140.8220  133.8346  155.8905 LP  0  0  0  0  0  0  0  0  0  0  0  0  # atno 17395 bound_to 11000

$$$$
