AV-unprocessed.smi:1395|AV-procd|sdf|5669|dock9
  -GOLD-   22720 5293D 1   1.00000     0.00000
 Structure written by MMmdl.
 42 43  0  0  0  0  0  0  0  0  1 V2000
  150.9955  144.7910  159.2806 C   0  0  0  0  0  0  0  0  0  0  0  0
  151.7606  143.5202  159.6133 C   0  0  0  0  0  0  0  0  0  0  0  0
  152.6128  143.5019  160.7378 C   0  0  0  0  0  0  0  0  0  0  0  0
  153.3198  142.3265  161.0437 C   0  0  0  0  0  0  0  0  0  0  0  0
  153.1431  141.2118  160.2065 C   0  0  0  0  0  0  0  0  0  0  0  0
  152.3312  141.2205  159.1298 N   0  0  0  0  0  0  0  0  0  0  0  0
  151.6414  142.3472  158.8203 C   0  0  0  0  0  0  0  0  0  0  0  0
  150.7685  142.4307  157.6989 N   0  0  0  0  0  0  0  0  0  0  0  0
  150.5921  141.5413  156.7058 C   0  0  0  0  0  0  0  0  0  0  0  0
  151.1768  140.4627  156.6004 O   0  0  0  0  0  0  0  0  0  0  0  0
  149.6805  141.9773  155.8244 N   0  0  0  0  0  0  0  0  0  0  0  0
  149.2485  141.2554  154.6314 C   0  0  0  0  0  0  0  0  0  0  0  0
  147.9016  141.8100  154.1469 C   0  0  0  0  0  0  0  0  0  0  0  0
  147.3474  140.9897  152.9688 C   0  0  0  0  0  0  0  0  0  0  0  0
  147.1952  139.5783  153.3514 N   0  0  0  0  0  0  0  0  0  0  0  0
  146.5884  138.7593  152.2774 C   0  0  0  0  0  0  0  0  0  0  0  0
  146.0078  137.4195  152.7482 C   0  0  0  0  0  0  0  0  0  0  0  0
  146.6178  136.3089  152.3272 N   0  0  0  0  0  0  0  0  0  0  0  0
  145.0200  137.3881  153.4792 O   0  0  0  0  0  0  0  0  0  0  0  0
  148.4971  139.0105  153.7175 C   0  0  0  0  0  0  0  0  0  0  0  0
  149.0938  139.7543  154.9251 C   0  0  0  0  0  0  0  0  0  0  0  0
  151.2075  145.5823  160.0001 H   0  0  0  0  0  0  0  0  0  0  0  0
  149.9211  144.6048  159.2943 H   0  0  0  0  0  0  0  0  0  0  0  0
  151.2727  145.1545  158.2907 H   0  0  0  0  0  0  0  0  0  0  0  0
  152.7259  144.3770  161.3610 H   0  0  0  0  0  0  0  0  0  0  0  0
  153.9798  142.2805  161.8973 H   0  0  0  0  0  0  0  0  0  0  0  0
  153.6671  140.2887  160.4054 H   0  0  0  0  0  0  0  0  0  0  0  0
  150.2110  143.2702  157.6489 H   0  0  0  0  0  0  0  0  0  0  0  0
  149.2488  142.8743  155.9913 H   0  0  0  0  0  0  0  0  0  0  0  0
  149.9843  141.3924  153.8365 H   0  0  0  0  0  0  0  0  0  0  0  0
  147.1778  141.7992  154.9635 H   0  0  0  0  0  0  0  0  0  0  0  0
  148.0139  142.8530  153.8480 H   0  0  0  0  0  0  0  0  0  0  0  0
  146.3892  141.4214  152.6803 H   0  0  0  0  0  0  0  0  0  0  0  0
  148.0058  141.0761  152.1027 H   0  0  0  0  0  0  0  0  0  0  0  0
  145.8160  139.3386  151.7673 H   0  0  0  0  0  0  0  0  0  0  0  0
  147.3467  138.5277  151.5280 H   0  0  0  0  0  0  0  0  0  0  0  0
  146.2712  135.4039  152.6097 H   0  0  0  0  0  0  0  0  0  0  0  0
  147.4252  136.3799  151.7250 H   0  0  0  0  0  0  0  0  0  0  0  0
  148.3821  137.9572  153.9767 H   0  0  0  0  0  0  0  0  0  0  0  0
  149.1838  139.0548  152.8702 H   0  0  0  0  0  0  0  0  0  0  0  0
  150.0607  139.3197  155.1808 H   0  0  0  0  0  0  0  0  0  0  0  0
  148.4500  139.6083  155.7939 H   0  0  0  0  0  0  0  0  0  0  0  0
  1  2  1  0  0  0  0
  1 22  1  0  0  0  0
  1 23  1  0  0  0  0
  1 24  1  0  0  0  0
  2  7  1  0  0  0  0
  2  3  2  0  0  0  0
  3  4  1  0  0  0  0
  3 25  1  0  0  0  0
  4  5  2  0  0  0  0
  4 26  1  0  0  0  0
  5  6  1  0  0  0  0
  5 27  1  0  0  0  0
  6  7  2  0  0  0  0
  7  8  1  0  0  0  0
  8  9  1  0  0  0  0
  8 28  1  0  0  0  0
  9 10  2  0  0  0  0
  9 11  1  0  0  0  0
 11 12  1  0  0  0  0
 11 29  1  0  0  0  0
 12 21  1  0  0  0  0
 12 13  1  0  0  0  0
 12 30  1  0  0  0  0
 13 14  1  0  0  0  0
 13 31  1  0  0  0  0
 13 32  1  0  0  0  0
 14 15  1  0  0  0  0
 14 33  1  0  0  0  0
 14 34  1  0  0  0  0
 15 16  1  0  0  0  0
 15 20  1  0  0  0  0
 16 17  1  0  0  0  0
 16 35  1  0  0  0  0
 16 36  1  0  0  0  0
 17 18  1  0  0  0  0
 17 19  2  0  0  0  0
 18 37  1  0  0  0  0
 18 38  1  0  0  0  0
 20 21  1  0  0  0  0
 20 39  1  0  0  0  0
 20 40  1  0  0  0  0
 21 41  1  0  0  0  0
 21 42  1  0  0  0  0
M  END
> <s_m_source_file>
AV-unprocessed.smi

> <i_m_source_file_index>
1395

> <i_lp_mmshare_version>
43012

> <i_f3d_flags>
0

> <s_epik_input>
W0NIM11jMVtjSF1bY0hdW2NIXW5jMVtOSF1DKD1PKVtOSF1bQ0hdMltDSDJdW0NIMl1OKFtDSDJdW0NIMl0yKVtDSDJdQyg9TylbTkgyXQ==

> <s_epik_cmdline>
J2VwaWtfcHl0aG9uJywgJy1waCcsICc3LjAnLCAnLXRuJywgJzgnLCAnLW1hJywgJzIwMCcsICctbWV0YWxfYmluZGluZycsICctaW1hZScsICc8aW5maWxlLm1hZT4nLCAnLW9tYWUnLCAnPG91dGZpbGUubWFlPic=

> <r_epik_Ionization_Penalty>
0.164795

> <r_epik_Ionization_Penalty_Charging>
0

> <r_epik_Ionization_Penalty_Neutral>
0.164795

> <r_epik_State_Penalty>
0.154069

> <r_epik_Charging_Adjusted_Penalty>
0.154069

> <i_epik_Tot_Q>
0

> <i_epik_Tot_abs_Q>
0

> <r_epik_Metal_State_Penalty>
0.171366

> <b_epik_Metal_Only>
0

> <s_lp_Force_Field>
OPLS_2005

> <r_lp_Energy>
15.3703

> <b_lp_Chiralities_Consistent>
1

> <s_lp_Variant>
AV-unprocessed.smi:1395-1

> <Gold.Version>
5.8.1

> <Gold.Id.Protein>
6NUR|6NUR_protein|mol2

> <Gold.PLP.Fitness>
45.3797

> <Gold.PLP.PLP>
-40.5400

> <Gold.PLP.part.hbond>
-2.0000

> <Gold.PLP.part.metal>
0.0000

> <Gold.PLP.part.buried>
-4.2937

> <Gold.PLP.part.nonpolar>
-34.3912

> <Gold.PLP.part.repulsive>
0.5327

> <Gold.PLP.ligand.clash>
0.0000

> <Gold.PLP.ligand.torsion>
0.4754

> <Gold.PLP.Chemscore.Hbond>
1.9280

> <Gold.PLP.Chemscore.CHOScore>
0.0000

> <Gold.PLP.Chemscore.Metal>
0.0000

> <Gold.Chemscore.Hbonds>
donor molecule, donor type, donor heavy atom, donor atom, acceptor molecule, acceptor atom, score
      L1  H    11    29       P1  8028  1.00
      L1  H    18    38       P1  7948  0.75

> <Gold.PLP.Chemscore.Internal.Correction>
0.0065

> <Gold.Rescore>
     Score         DG    S(hbond)    S(metal)    S(lipo)     H(rot)  DE(clash)    DE(int)     intcor
     15.23     -18.68       2.00        0.00      98.19       1.94       0.18       3.27       ----

> <Gold.Chemscore.Fitness>
15.2311

> <Gold.Chemscore.DG>
-18.6778

> <Gold.Chemscore.ZeroCoef>
-5.4800

> <Gold.Chemscore.Hbond>
1.9974

> <Gold.Chemscore.Metal>
0.0000

> <Gold.Chemscore.Lipo>
98.1931

> <Gold.Chemscore.Internal_Hbond>
0.0000

> <Gold.Chemscore.DEClash>
0.1787

> <Gold.Chemscore.DEInternal>
3.2679

> <Gold.Chemscore.Rot>
1.9383

> <Gold.Chemscore.Internal.Correction>
   9.000000E+99

> <Gold.Chemscore.Hbonds>
donor molecule, donor type, donor heavy atom, donor atom, acceptor molecule, acceptor atom, score
      L1  H    11    29       P1  8028  0.98
      L1  H    18    38       P1  7948  0.70

> <Gold.Chemscore.Hbond.Weighted>
-6.6712

> <Gold.Chemscore.Metal.Weighted>
-0.0000

> <Gold.Chemscore.Lipo.Weighted>
-11.4886

> <Gold.Chemscore.Internal_Hbond.Weighted>
0.0000

> <Gold.Chemscore.DEClash.Weighted>
0.1787

> <Gold.Chemscore.DEInternal.Weighted>
3.2679

> <Gold.Chemscore.Rot.Weighted>
4.9620

> <Gold.Chemscore.Internal.Correction.Weighted>
   9.000000E+99

> <Gold.Protein.RotatedTorsions>
[ 6907 6896 6895 6894 ] final   23.32 input  -60.11 | X-H torsion
[ 7974 7965 7964 7962 ] final  132.24 input  175.53 | X-H torsion
[ 8008 7997 7996 7995 ] final -169.15 input   59.86 | X-H torsion
[ 10167 10162 10161 10158 ] final  -69.46 input  -65.29 | X-H torsion
[ 10718 10713 10712 10709 ] final  -59.29 input   66.30 | X-H torsion
[ 10763 10752 10751 10750 ] final   23.04 input  -60.55 | X-H torsion
[ 11005 11000 10999 10996 ] final  -10.05 input  -57.11 | X-H torsion

> <Gold.Protein.ActiveResidues>
 VAL166  LYS551  ARG553  GLY616  TRP617  ASP618  TYR619  PRO620  LYS621  CYS622 
 ASP623  PHE694  ASN695  SER759  ASP760  ASP761  ALA762  ILE779  LEU786  VAL792 
 PHE793  MET794  SER795  GLU796  ALA797  LYS798  CYS799  TRP800  GLU811  SER814 

> <Gold.Protein.RotatedAtoms>
  151.9406  135.0215  160.0535 H   0  0  0  0  0  0  0  0  0  0  0  0  # atno 6907 bound_to 6896
  152.2040  133.4857  159.5082 H   0  0  0  0  0  0  0  0  0  0  0  0  # atno 6908 bound_to 6896
  150.6961  134.1471  159.4169 H   0  0  0  0  0  0  0  0  0  0  0  0  # atno 6909 bound_to 6896
  144.9989  139.4332  143.5302 H   0  0  0  0  0  0  0  0  0  0  0  0  # atno 7974 bound_to 7965
  155.9010  140.1041  157.1349 H   0  0  0  0  0  0  0  0  0  0  0  0  # atno 8008 bound_to 7997
  154.4026  140.1292  156.4501 H   0  0  0  0  0  0  0  0  0  0  0  0  # atno 8009 bound_to 7997
  155.7422  140.3466  155.5112 H   0  0  0  0  0  0  0  0  0  0  0  0  # atno 8010 bound_to 7997
  140.5429  143.2314  151.7056 H   0  0  0  0  0  0  0  0  0  0  0  0  # atno 10167 bound_to 10162
  156.1072  130.4179  150.0695 H   0  0  0  0  0  0  0  0  0  0  0  0  # atno 10718 bound_to 10713
  153.0869  135.6635  153.9931 H   0  0  0  0  0  0  0  0  0  0  0  0  # atno 10763 bound_to 10752
  153.9538  135.2981  155.3438 H   0  0  0  0  0  0  0  0  0  0  0  0  # atno 10764 bound_to 10752
  154.7278  135.5136  153.8987 H   0  0  0  0  0  0  0  0  0  0  0  0  # atno 10765 bound_to 10752
  140.7406  133.8673  155.8965 H   0  0  0  0  0  0  0  0  0  0  0  0  # atno 11005 bound_to 11000
  146.3448  139.9365  142.8746 LP  0  0  0  0  0  0  0  0  0  0  0  0  # atno 17320 bound_to 7965
  145.2181  140.9924  143.4061 LP  0  0  0  0  0  0  0  0  0  0  0  0  # atno 17321 bound_to 7965
  139.4996  144.3941  152.0250 LP  0  0  0  0  0  0  0  0  0  0  0  0  # atno 17342 bound_to 10162
  140.3051  144.3602  150.6049 LP  0  0  0  0  0  0  0  0  0  0  0  0  # atno 17343 bound_to 10162
  156.8667  130.9510  151.3613 LP  0  0  0  0  0  0  0  0  0  0  0  0  # atno 17370 bound_to 10713
  157.6250  130.8685  149.9174 LP  0  0  0  0  0  0  0  0  0  0  0  0  # atno 17371 bound_to 10713
  140.9840  134.1368  157.4469 LP  0  0  0  0  0  0  0  0  0  0  0  0  # atno 17394 bound_to 11000
  139.8807  135.0019  156.6097 LP  0  0  0  0  0  0  0  0  0  0  0  0  # atno 17395 bound_to 11000

$$$$
