#       Name:                AV-unprocessed.smi:3273
#       Creating user name   scv26
#       Creation time:       Fri Mar 27 18:43:20 2020


#       File generated by GOLD software.
#

@<TRIPOS>MOLECULE
AV-unprocessed.smi:3273
    44    45     1
SMALL
NO_CHARGES


@<TRIPOS>ATOM
      1 ****        -1.0382  -3.2848   1.9130 C.3            1 S1                 0.0000
      2 ****        -1.5902  -1.8516   2.0262 C.3            1 S1                 0.0000
      3 ****        -3.1294  -1.9073   2.1053 C.3            1 S1                 0.0000
      4 ****        -1.0872  -0.9227   0.8849 C.3            1 S1                 0.0000
      5 ****         0.4511  -0.7675   0.8801 C.3            1 S1                 0.0000
      6 ****         0.8977   0.1314  -0.1791 N.am           1 S1                 0.0000
      7 ****         2.1138   0.6907  -0.2461 C.2            1 S1                 0.0000
      8 ****         2.9946   0.4917   0.5913 O.2            1 S1                 0.0000
      9 ****         2.3617   1.6192  -1.4384 C.3            1 S1                 0.0000
     10 ****         3.8249   1.7017  -1.8409 C.3            1 S1                 0.0000
     11 ****         4.2285   1.7742  -3.2962 C.3            1 S1                 0.0000
     12 ****         4.5161   0.5272  -2.4977 C.3            1 S1                 0.0000
     13 ****        -1.7665   0.4229   0.8916 C.2            1 S1                 0.0000
     14 ****        -1.8174   1.3716   1.8759 C.2            1 S1                 0.0000
     15 ****        -2.5786   2.4275   1.3049 C.2            1 S1                 0.0000
     16 ****        -2.9643   2.1625   0.0694 N.2            1 S1                 0.0000
     17 ****        -2.4660   0.9347  -0.1890 N.pl3          1 S1                 0.0000
     18 ****        -2.7070   0.3377  -1.4888 C.3            1 S1                 0.0000
     19 ****        -1.2921  -3.7334   0.9522 H              1 S1                 0.0000
     20 ****        -1.4488  -3.9249   2.6943 H              1 S1                 0.0000
     21 ****         0.0451  -3.3154   2.0235 H              1 S1                 0.0000
     22 ****        -1.2414  -1.4388   2.9738 H              1 S1                 0.0000
     23 ****        -3.5599  -2.2520   1.1646 H              1 S1                 0.0000
     24 ****        -3.5657  -0.9353   2.3351 H              1 S1                 0.0000
     25 ****        -3.4582  -2.5907   2.8887 H              1 S1                 0.0000
     26 ****        -1.3442  -1.4264  -0.0471 H              1 S1                 0.0000
     27 ****         0.7800  -0.3787   1.8457 H              1 S1                 0.0000
     28 ****         0.9450  -1.7280   0.7359 H              1 S1                 0.0000
     29 ****         0.2316   0.3509  -0.9056 H              1 S1                 0.0000
     30 ****         1.7761   1.2712  -2.2908 H              1 S1                 0.0000
     31 ****         2.0036   2.6196  -1.1939 H              1 S1                 0.0000
     32 ****         4.4354   2.2804  -1.1497 H              1 S1                 0.0000
     33 ****         3.4429   1.7178  -4.0471 H              1 S1                 0.0000
     34 ****         5.0715   2.4129  -3.5519 H              1 S1                 0.0000
     35 ****         5.5495   0.3342  -2.2172 H              1 S1                 0.0000
     36 ****         3.9192  -0.3565  -2.7156 H              1 S1                 0.0000
     37 ****        -1.3738   1.3174   2.8590 H              1 S1                 0.0000
     38 ****        -2.8573   3.3724   1.7474 H              1 S1                 0.0000
     39 ****        -1.7555   0.1279  -1.9779 H              1 S1                 0.0000
     40 ****        -3.2866   1.0110  -2.1218 H              1 S1                 0.0000
     41 ****        -3.2609  -0.5933  -1.3669 H              1 S1                 0.0000
     42 ****         2.8184  -0.1126   1.3683 LP             1 S1                 0.0000
     43 ****         3.8860   0.9343   0.4942 LP             1 S1                 0.0000
     44 ****        -3.5053   2.7427  -0.5394 LP             1 S1                 0.0000
@<TRIPOS>BOND
    1    1    2 1     
    2    1   19 1     
    3    1   20 1     
    4    1   21 1     
    5    2    3 1     
    6    2    4 1     
    7    2   22 1     
    8    3   23 1     
    9    3   24 1     
   10    3   25 1     
   11    4    5 1     
   12    4   13 1     
   13    4   26 1     
   14    5    6 1     
   15    5   27 1     
   16    5   28 1     
   17    6    7 am    
   18    6   29 1     
   19    7    8 2     
   20    7    9 1     
   21    9   10 1     
   22    9   30 1     
   23    9   31 1     
   24   10   12 1     
   25   10   11 1     
   26   10   32 1     
   27   11   12 1     
   28   11   33 1     
   29   11   34 1     
   30   12   35 1     
   31   12   36 1     
   32   13   17 1     
   33   13   14 2     
   34   14   15 1     
   35   14   37 1     
   36   15   16 2     
   37   15   38 1     
   38   16   17 1     
   39   17   18 1     
   40   18   39 1     
   41   18   40 1     
   42   18   41 1     
   43    8   42 1     
   44    8   43 1     
   45   16   44 1     
@<TRIPOS>SUBSTRUCTURE
      1 S1             1
@<TRIPOS>SET
LONE_PAIRS      STATIC     ATOMS    <user>   **** ""
3 42 43 44
DONOR_HYDROGENS      STATIC     ATOMS    <user>   **** ""
1 29
ATOM$BLUE        STATIC     ATOMS    COLORGROUP SYSTEM
3 42 43 44
ATOM$RED        STATIC     ATOMS    COLORGROUP SYSTEM
1 29
