AV-unprocessed.smi:1572|AV-procd|sdf|6329|dock5
  -GOLD-   22720 6543D 1   1.00000     0.00000
 Structure written by MMmdl.
 42 43  0  0  0  0  0  0  0  0  1 V2000
  152.4592  143.7107  159.8033 C   0  0  0  0  0  0  0  0  0  0  0  0
  152.3911  142.7089  158.7507 N   0  0  0  0  0  0  0  0  0  0  0  0
  152.4777  141.3549  159.2895 C   0  0  0  0  0  0  0  0  0  0  0  0
  152.4220  140.2985  158.1705 C   0  0  0  0  0  0  0  0  0  0  0  0
  151.1864  140.4049  157.3773 N   0  0  0  0  0  0  0  0  0  0  0  0
  151.0037  139.3339  156.3573 C   0  0  0  0  0  0  0  0  0  0  0  0
  149.6326  139.4056  155.6423 C   0  0  0  0  0  0  0  0  0  0  0  0
  152.0942  139.4186  155.2589 C   0  0  0  0  0  0  0  0  0  0  0  0
  151.1182  137.9149  156.9885 C   0  0  0  0  0  0  0  0  0  0  0  0
  149.8756  137.4780  157.6254 N   0  0  0  0  0  0  0  0  0  0  0  0
  149.7347  137.1329  158.9133 C   0  0  0  0  0  0  0  0  0  0  0  0
  150.6644  137.1190  159.7204 O   0  0  0  0  0  0  0  0  0  0  0  0
  148.4574  136.8198  159.1936 N   0  0  0  0  0  0  0  0  0  0  0  0
  147.9032  136.4140  160.4365 C   0  0  0  0  0  0  0  0  0  0  0  0
  147.6031  137.2641  161.4313 N   0  0  0  0  0  0  0  0  0  0  0  0
  147.0766  136.6068  162.5357 N   0  0  0  0  0  0  0  0  0  0  0  0
  146.9999  135.2888  162.3305 C   0  0  0  0  0  0  0  0  0  0  0  0
  147.5644  134.7212  160.7684 S   0  0  0  0  0  0  0  0  0  0  0  0
  151.0996  141.7778  156.8520 C   0  0  0  0  0  0  0  0  0  0  0  0
  151.1595  142.8266  157.9769 C   0  0  0  0  0  0  0  0  0  0  0  0
  153.3942  143.6251  160.3579 H   0  0  0  0  0  0  0  0  0  0  0  0
  151.6341  143.5994  160.5081 H   0  0  0  0  0  0  0  0  0  0  0  0
  152.4138  144.7157  159.3827 H   0  0  0  0  0  0  0  0  0  0  0  0
  153.4080  141.2397  159.8469 H   0  0  0  0  0  0  0  0  0  0  0  0
  151.6661  141.1806  159.9980 H   0  0  0  0  0  0  0  0  0  0  0  0
  153.2973  140.4100  157.5306 H   0  0  0  0  0  0  0  0  0  0  0  0
  152.4970  139.3198  158.6410 H   0  0  0  0  0  0  0  0  0  0  0  0
  149.5393  138.6148  154.8971 H   0  0  0  0  0  0  0  0  0  0  0  0
  149.4901  140.3493  155.1164 H   0  0  0  0  0  0  0  0  0  0  0  0
  148.7998  139.2829  156.3344 H   0  0  0  0  0  0  0  0  0  0  0  0
  152.0844  138.5368  154.6169 H   0  0  0  0  0  0  0  0  0  0  0  0
  153.0942  139.4967  155.6872 H   0  0  0  0  0  0  0  0  0  0  0  0
  151.9515  140.2751  154.6001 H   0  0  0  0  0  0  0  0  0  0  0  0
  151.3863  137.1720  156.2379 H   0  0  0  0  0  0  0  0  0  0  0  0
  151.9452  137.8862  157.7004 H   0  0  0  0  0  0  0  0  0  0  0  0
  149.0531  137.4693  157.0403 H   0  0  0  0  0  0  0  0  0  0  0  0
  147.8025  136.8851  158.4287 H   0  0  0  0  0  0  0  0  0  0  0  0
  146.6083  134.6462  163.1051 H   0  0  0  0  0  0  0  0  0  0  0  0
  151.9082  141.9673  156.1457 H   0  0  0  0  0  0  0  0  0  0  0  0
  150.1668  141.9298  156.3127 H   0  0  0  0  0  0  0  0  0  0  0  0
  150.2932  142.7130  158.6305 H   0  0  0  0  0  0  0  0  0  0  0  0
  151.0931  143.8244  157.5416 H   0  0  0  0  0  0  0  0  0  0  0  0
  1  2  1  0  0  0  0
  1 21  1  0  0  0  0
  1 22  1  0  0  0  0
  1 23  1  0  0  0  0
  2 20  1  0  0  0  0
  2  3  1  0  0  0  0
  3  4  1  0  0  0  0
  3 24  1  0  0  0  0
  3 25  1  0  0  0  0
  4  5  1  0  0  0  0
  4 26  1  0  0  0  0
  4 27  1  0  0  0  0
  5  6  1  0  0  0  0
  5 19  1  0  0  0  0
  6  7  1  0  0  0  0
  6  8  1  0  0  0  0
  6  9  1  0  0  0  0
  7 28  1  0  0  0  0
  7 29  1  0  0  0  0
  7 30  1  0  0  0  0
  8 31  1  0  0  0  0
  8 32  1  0  0  0  0
  8 33  1  0  0  0  0
  9 10  1  0  0  0  0
  9 34  1  0  0  0  0
  9 35  1  0  0  0  0
 10 11  1  0  0  0  0
 10 36  1  0  0  0  0
 11 12  2  0  0  0  0
 11 13  1  0  0  0  0
 13 14  1  0  0  0  0
 13 37  1  0  0  0  0
 14 18  1  0  0  0  0
 14 15  2  0  0  0  0
 15 16  1  0  0  0  0
 16 17  2  0  0  0  0
 17 18  1  0  0  0  0
 17 38  1  0  0  0  0
 19 20  1  0  0  0  0
 19 39  1  0  0  0  0
 19 40  1  0  0  0  0
 20 41  1  0  0  0  0
 20 42  1  0  0  0  0
M  END
> <s_m_source_file>
AV-unprocessed.smi

> <i_m_source_file_index>
1572

> <i_lp_mmshare_version>
43012

> <i_f3d_flags>
0

> <s_epik_input>
W0NIM11OMVtDSDJdW0NIMl1OKFtDSDJdW0NIMl0xKUMoW0NIM10pKFtDSDNdKVtDSDJdW05IXUMoPU8pW05IXWMybm5bY0hdczI=

> <s_epik_cmdline>
J2VwaWtfcHl0aG9uJywgJy1waCcsICc3LjAnLCAnLXRuJywgJzgnLCAnLW1hJywgJzIwMCcsICctbWV0YWxfYmluZGluZycsICctaW1hZScsICc8aW5maWxlLm1hZT4nLCAnLW9tYWUnLCAnPG91dGZpbGUubWFlPic=

> <r_lp_tautomer_probability>
1

> <r_epik_Ionization_Penalty>
3.01909

> <r_epik_Ionization_Penalty_Charging>
0

> <r_epik_Ionization_Penalty_Neutral>
3.01909

> <r_epik_State_Penalty>
2.1369

> <r_epik_Charging_Adjusted_Penalty>
2.1369

> <i_epik_Tot_Q>
0

> <i_epik_Tot_abs_Q>
0

> <r_epik_Metal_State_Penalty>
2.47072

> <b_epik_Metal_Only>
0

> <s_lp_Force_Field>
OPLS_2005

> <r_lp_Energy>
48.823

> <b_lp_Chiralities_Consistent>
1

> <s_lp_Variant>
AV-unprocessed.smi:1572-3

> <Gold.Version>
5.8.1

> <Gold.Id.Protein>
6NUR|6NUR_protein|mol2

> <Gold.PLP.Fitness>
39.4389

> <Gold.PLP.PLP>
-33.1422

> <Gold.PLP.part.hbond>
-3.0542

> <Gold.PLP.part.metal>
0.0000

> <Gold.PLP.part.buried>
-5.2066

> <Gold.PLP.part.nonpolar>
-24.7394

> <Gold.PLP.part.repulsive>
0.2286

> <Gold.PLP.ligand.clash>
0.0000

> <Gold.PLP.ligand.torsion>
1.0553

> <Gold.PLP.Chemscore.Hbond>
2.7833

> <Gold.PLP.Chemscore.CHOScore>
0.0000

> <Gold.PLP.Chemscore.Metal>
0.0000

> <Gold.Chemscore.Hbonds>
donor molecule, donor type, donor heavy atom, donor atom, acceptor molecule, acceptor atom, score
      P1  H  6896  6907       L1    12  0.88
      P1  H  6931  6943       L1    15  0.93
      P1  H  6934  6947       L1    15  0.82

> <Gold.PLP.Chemscore.Internal.Correction>
0.0575

> <Gold.Rescore>
     Score         DG    S(hbond)    S(metal)    S(lipo)     H(rot)  DE(clash)    DE(int)     intcor
     17.94     -19.00       2.54        0.00      79.28       1.66       0.03       1.03       ----

> <Gold.Chemscore.Fitness>
17.9398

> <Gold.Chemscore.DG>
-19.0017

> <Gold.Chemscore.ZeroCoef>
-5.4800

> <Gold.Chemscore.Hbond>
2.5429

> <Gold.Chemscore.Metal>
0.0000

> <Gold.Chemscore.Lipo>
79.2778

> <Gold.Chemscore.Internal_Hbond>
0.0000

> <Gold.Chemscore.DEClash>
0.0348

> <Gold.Chemscore.DEInternal>
1.0271

> <Gold.Chemscore.Rot>
1.6590

> <Gold.Chemscore.Internal.Correction>
   9.000000E+99

> <Gold.Chemscore.Hbonds>
donor molecule, donor type, donor heavy atom, donor atom, acceptor molecule, acceptor atom, score
      P1  H  6896  6907       L1    12  0.47
      P1  H  6931  6943       L1    15  0.55
      P1  H  6934  6947       L1    15  0.77

> <Gold.Chemscore.Hbond.Weighted>
-8.4931

> <Gold.Chemscore.Metal.Weighted>
-0.0000

> <Gold.Chemscore.Lipo.Weighted>
-9.2755

> <Gold.Chemscore.Internal_Hbond.Weighted>
0.0000

> <Gold.Chemscore.DEClash.Weighted>
0.0348

> <Gold.Chemscore.DEInternal.Weighted>
1.0271

> <Gold.Chemscore.Rot.Weighted>
4.2469

> <Gold.Chemscore.Internal.Correction.Weighted>
   9.000000E+99

> <Gold.Protein.RotatedTorsions>
[ 6907 6896 6895 6894 ] final  -20.06 input  -60.11 | X-H torsion
[ 7974 7965 7964 7962 ] final -130.41 input  175.53 | X-H torsion
[ 8008 7997 7996 7995 ] final   50.70 input   59.86 | X-H torsion
[ 10167 10162 10161 10158 ] final  -62.58 input  -65.29 | X-H torsion
[ 10718 10713 10712 10709 ] final  145.52 input   66.30 | X-H torsion
[ 10763 10752 10751 10750 ] final  108.30 input  -60.55 | X-H torsion
[ 11005 11000 10999 10996 ] final  170.14 input  -57.11 | X-H torsion

> <Gold.Protein.ActiveResidues>
 VAL166  LYS551  ARG553  GLY616  TRP617  ASP618  TYR619  PRO620  LYS621  CYS622 
 ASP623  PHE694  ASN695  SER759  ASP760  ASP761  ALA762  ILE779  LEU786  VAL792 
 PHE793  MET794  SER795  GLU796  ALA797  LYS798  CYS799  TRP800  GLU811  SER814 

> <Gold.Protein.RotatedAtoms>
  151.2538  135.0631  159.9071 H   0  0  0  0  0  0  0  0  0  0  0  0  # atno 6907 bound_to 6896
  152.5376  134.0303  159.8032 H   0  0  0  0  0  0  0  0  0  0  0  0  # atno 6908 bound_to 6896
  151.0516  133.5570  159.2673 H   0  0  0  0  0  0  0  0  0  0  0  0  # atno 6909 bound_to 6896
  144.9477  140.7310  143.4807 H   0  0  0  0  0  0  0  0  0  0  0  0  # atno 7974 bound_to 7965
  155.4231  140.3447  155.4273 H   0  0  0  0  0  0  0  0  0  0  0  0  # atno 8008 bound_to 7997
  156.1381  140.1534  156.8994 H   0  0  0  0  0  0  0  0  0  0  0  0  # atno 8009 bound_to 7997
  154.4948  140.0831  156.7654 H   0  0  0  0  0  0  0  0  0  0  0  0  # atno 8010 bound_to 7997
  140.5929  143.2345  151.6099 H   0  0  0  0  0  0  0  0  0  0  0  0  # atno 10167 bound_to 10162
  157.3443  131.0941  151.1055 H   0  0  0  0  0  0  0  0  0  0  0  0  # atno 10718 bound_to 10713
  153.4187  135.3816  155.2097 H   0  0  0  0  0  0  0  0  0  0  0  0  # atno 10763 bound_to 10752
  154.8743  135.3812  154.4411 H   0  0  0  0  0  0  0  0  0  0  0  0  # atno 10764 bound_to 10752
  153.4928  135.7088  153.5937 H   0  0  0  0  0  0  0  0  0  0  0  0  # atno 10765 bound_to 10752
  140.3052  134.7562  157.3948 H   0  0  0  0  0  0  0  0  0  0  0  0  # atno 11005 bound_to 11000
  145.2892  139.1890  143.4749 LP  0  0  0  0  0  0  0  0  0  0  0  0  # atno 17320 bound_to 7965
  146.3309  140.2866  142.8613 LP  0  0  0  0  0  0  0  0  0  0  0  0  # atno 17321 bound_to 7965
  139.5239  144.3119  152.0986 LP  0  0  0  0  0  0  0  0  0  0  0  0  # atno 17342 bound_to 10162
  140.2286  144.4392  150.6310 LP  0  0  0  0  0  0  0  0  0  0  0  0  # atno 17343 bound_to 10162
  157.2255  130.6501  149.5828 LP  0  0  0  0  0  0  0  0  0  0  0  0  # atno 17370 bound_to 10713
  155.9712  130.4615  150.6112 LP  0  0  0  0  0  0  0  0  0  0  0  0  # atno 17371 bound_to 10713
  140.1073  134.5392  155.8297 LP  0  0  0  0  0  0  0  0  0  0  0  0  # atno 17394 bound_to 11000
  141.2120  133.6713  156.6624 LP  0  0  0  0  0  0  0  0  0  0  0  0  # atno 17395 bound_to 11000

$$$$
