AV-unprocessed.smi:11|AV-procd|sdf|57|dock6
  -GOLD-   2262015173D 1   1.00000     0.00000
 Structure written by MMmdl.
 34 36  0  0  0  0  0  0  0  0  2 V2000
  150.1542  144.7939  160.1430 C   0  0  0  0  0  0  0  0  0  0  0  0
  150.0575  143.8462  158.9358 C   0  0  0  0  0  0  0  0  0  0  0  0
  151.4013  143.5273  158.2344 C   0  0  1  0  0  0  0  0  0  0  0  0
  152.2234  144.6765  158.2900 O   0  0  0  0  0  0  0  0  0  0  0  0
  152.1259  142.2970  158.8023 C   0  0  0  0  0  0  0  0  0  0  0  0
  151.4778  141.1343  158.0531 C   0  0  0  0  0  0  0  0  0  0  0  0
  151.1635  141.6725  156.7372 N   0  0  0  0  0  0  0  0  0  0  0  0
  150.3438  140.9686  155.8321 C   0  0  0  0  0  0  0  0  0  0  0  0
  149.2007  141.5733  155.4064 N   0  0  0  0  0  0  0  0  0  0  0  0
  148.3547  140.9919  154.5442 C   0  0  0  0  0  0  0  0  0  0  0  0
  148.5627  139.7719  154.0397 N   0  3  0  0  0  0  0  0  0  0  0  0
  149.6835  139.1251  154.4480 C   0  0  0  0  0  0  0  0  0  0  0  0
  150.1276  137.8679  154.0951 N   0  0  0  0  0  0  0  0  0  0  0  0
  151.3135  137.5844  154.7500 C   0  0  0  0  0  0  0  0  0  0  0  0
  151.6569  138.6553  155.5367 C   0  0  0  0  0  0  0  0  0  0  0  0
  150.6359  139.6576  155.3552 C   0  0  0  0  0  0  0  0  0  0  0  0
  151.1741  143.1290  156.7647 C   0  0  0  0  0  0  0  0  0  0  0  0
  149.6765  137.2231  153.4616 H   0  0  0  0  0  0  0  0  0  0  0  0
  149.1620  145.0033  160.5428 H   0  0  0  0  0  0  0  0  0  0  0  0
  150.6032  145.7487  159.8691 H   0  0  0  0  0  0  0  0  0  0  0  0
  150.7433  144.3642  160.9522 H   0  0  0  0  0  0  0  0  0  0  0  0
  149.5820  142.9192  159.2580 H   0  0  0  0  0  0  0  0  0  0  0  0
  149.3748  144.2892  158.2092 H   0  0  0  0  0  0  0  0  0  0  0  0
  151.8168  145.3105  158.8610 H   0  0  0  0  0  0  0  0  0  0  0  0
  153.1852  142.3362  158.5424 H   0  0  0  0  0  0  0  0  0  0  0  0
  152.0628  142.1922  159.8845 H   0  0  0  0  0  0  0  0  0  0  0  0
  152.1452  140.2746  157.9860 H   0  0  0  0  0  0  0  0  0  0  0  0
  150.5624  140.8219  158.5574 H   0  0  0  0  0  0  0  0  0  0  0  0
  147.4597  141.5063  154.2260 H   0  0  0  0  0  0  0  0  0  0  0  0
  151.8174  136.6395  154.6052 H   0  0  0  0  0  0  0  0  0  0  0  0
  152.5264  138.7334  156.1722 H   0  0  0  0  0  0  0  0  0  0  0  0
  150.2511  143.5591  156.3741 H   0  0  0  0  0  0  0  0  0  0  0  0
  151.9979  143.4687  156.1354 H   0  0  0  0  0  0  0  0  0  0  0  0
  147.9120  139.3387  153.3844 H   0  0  0  0  0  0  0  0  0  0  0  0
  1  2  1  0  0  0  0
  1 19  1  0  0  0  0
  1 20  1  0  0  0  0
  1 21  1  0  0  0  0
  2  3  1  0  0  0  0
  2 22  1  0  0  0  0
  2 23  1  0  0  0  0
  3 17  1  0  0  0  0
  3  4  1  0  0  0  0
  3  5  1  0  0  0  0
  4 24  1  0  0  0  0
  5  6  1  0  0  0  0
  5 25  1  0  0  0  0
  5 26  1  0  0  0  0
  6  7  1  0  0  0  0
  6 27  1  0  0  0  0
  6 28  1  0  0  0  0
  7  8  1  0  0  0  0
  7 17  1  0  0  0  0
  8 16  1  0  0  0  0
  8  9  2  0  0  0  0
  9 10  1  0  0  0  0
 10 11  2  0  0  0  0
 10 29  1  0  0  0  0
 11 12  1  0  0  0  0
 11 34  1  0  0  0  0
 12 16  2  0  0  0  0
 12 13  1  0  0  0  0
 13 18  1  0  0  0  0
 13 14  1  0  0  0  0
 14 15  2  0  0  0  0
 14 30  1  0  0  0  0
 15 16  1  0  0  0  0
 15 31  1  0  0  0  0
 17 32  1  0  0  0  0
 17 33  1  0  0  0  0
M  CHG  1  11   1
M  END
> <s_m_source_file>
AV-unprocessed.smi

> <i_m_source_file_index>
11

> <i_lp_mmshare_version>
43012

> <i_f3d_flags>
0

> <s_epik_input>
W0NIM11bQ0gyXVtDQEBdMShbT0hdKVtDSDJdW0NIMl1OKFtDSDJdMSljKG5bY0hdbjIpYyhjMjMpW2NIXVtjSF1bbkhdMw==

> <s_epik_cmdline>
J2VwaWtfcHl0aG9uJywgJy1waCcsICc3LjAnLCAnLXRuJywgJzgnLCAnLW1hJywgJzIwMCcsICctbWV0YWxfYmluZGluZycsICctaW1hZScsICc8aW5maWxlLm1hZT4nLCAnLW9tYWUnLCAnPG91dGZpbGUubWFlPic=

> <r_lp_tautomer_probability>
1.75997e-05

> <r_epik_Ionization_Penalty>
1.53257

> <r_epik_Ionization_Penalty_Charging>
1.53255

> <r_epik_Ionization_Penalty_Neutral>
1.78556e-05

> <r_epik_State_Penalty>
1.6253

> <r_epik_Charging_Adjusted_Penalty>
3.15785

> <i_epik_Tot_Q>
1

> <i_epik_Tot_abs_Q>
1

> <r_epik_Metal_State_Penalty>
1.66891

> <b_epik_Metal_Only>
0

> <s_lp_Force_Field>
OPLS_2005

> <r_lp_Energy>
33.1489

> <b_lp_Chiralities_Consistent>
1

> <s_lp_Variant>
AV-unprocessed.smi:11-3

> <Gold.Version>
5.8.1

> <Gold.Id.Protein>
6NUR|6NUR_protein|mol2

> <Gold.PLP.Fitness>
39.2570

> <Gold.PLP.PLP>
-35.3708

> <Gold.PLP.part.hbond>
-2.5076

> <Gold.PLP.part.metal>
0.0000

> <Gold.PLP.part.buried>
-2.9798

> <Gold.PLP.part.nonpolar>
-29.5585

> <Gold.PLP.part.repulsive>
0.6554

> <Gold.PLP.ligand.clash>
0.0000

> <Gold.PLP.ligand.torsion>
1.1755

> <Gold.PLP.Chemscore.Hbond>
2.0000

> <Gold.PLP.Chemscore.CHOScore>
0.0000

> <Gold.PLP.Chemscore.Metal>
0.0000

> <Gold.Chemscore.Hbonds>
donor molecule, donor type, donor heavy atom, donor atom, acceptor molecule, acceptor atom, score
      L1  H    13    18       P1  7948  2.00

> <Gold.PLP.Chemscore.Internal.Correction>
0.2371

> <Gold.Rescore>
     Score         DG    S(hbond)    S(metal)    S(lipo)     H(rot)  DE(clash)    DE(int)     intcor
     12.57     -13.60       0.92        0.00      74.64       1.44       0.33       0.70       ----

> <Gold.Chemscore.Fitness>
12.5691

> <Gold.Chemscore.DG>
-13.5978

> <Gold.Chemscore.ZeroCoef>
-5.4800

> <Gold.Chemscore.Hbond>
0.9190

> <Gold.Chemscore.Metal>
0.0000

> <Gold.Chemscore.Lipo>
74.6390

> <Gold.Chemscore.Internal_Hbond>
0.0000

> <Gold.Chemscore.DEClash>
0.3334

> <Gold.Chemscore.DEInternal>
0.6952

> <Gold.Chemscore.Rot>
1.4392

> <Gold.Chemscore.Internal.Correction>
   9.000000E+99

> <Gold.Chemscore.Hbonds>
donor molecule, donor type, donor heavy atom, donor atom, acceptor molecule, acceptor atom, score
      L1  H    13    18       P1  7948  0.72

> <Gold.Chemscore.Hbond.Weighted>
-3.0694

> <Gold.Chemscore.Metal.Weighted>
-0.0000

> <Gold.Chemscore.Lipo.Weighted>
-8.7328

> <Gold.Chemscore.Internal_Hbond.Weighted>
0.0000

> <Gold.Chemscore.DEClash.Weighted>
0.3334

> <Gold.Chemscore.DEInternal.Weighted>
0.6952

> <Gold.Chemscore.Rot.Weighted>
3.6844

> <Gold.Chemscore.Internal.Correction.Weighted>
   9.000000E+99

> <Gold.Protein.RotatedTorsions>
[ 6907 6896 6895 6894 ] final  130.66 input  -60.11 | X-H torsion
[ 7974 7965 7964 7962 ] final  172.07 input  175.53 | X-H torsion
[ 8008 7997 7996 7995 ] final -127.41 input   59.86 | X-H torsion
[ 10167 10162 10161 10158 ] final -157.20 input  -65.29 | X-H torsion
[ 10718 10713 10712 10709 ] final  136.96 input   66.30 | X-H torsion
[ 10763 10752 10751 10750 ] final  128.35 input  -60.55 | X-H torsion
[ 11005 11000 10999 10996 ] final   37.83 input  -57.11 | X-H torsion

> <Gold.Protein.ActiveResidues>
 VAL166  LYS551  ARG553  GLY616  TRP617  ASP618  TYR619  PRO620  LYS621  CYS622 
 ASP623  PHE694  ASN695  SER759  ASP760  ASP761  ALA762  ILE779  LEU786  VAL792 
 PHE793  MET794  SER795  GLU796  ALA797  LYS798  CYS799  TRP800  GLU811  SER814 

> <Gold.Protein.RotatedAtoms>
  152.3504  133.6173  159.5940 H   0  0  0  0  0  0  0  0  0  0  0  0  # atno 6907 bound_to 6896
  150.7534  133.9583  159.3516 H   0  0  0  0  0  0  0  0  0  0  0  0  # atno 6908 bound_to 6896
  151.7436  135.0849  160.0370 H   0  0  0  0  0  0  0  0  0  0  0  0  # atno 6909 bound_to 6896
  144.7277  139.9444  143.6430 H   0  0  0  0  0  0  0  0  0  0  0  0  # atno 7974 bound_to 7965
  155.2457  140.0430  157.2980 H   0  0  0  0  0  0  0  0  0  0  0  0  # atno 8008 bound_to 7997
  154.5800  140.2398  155.8037 H   0  0  0  0  0  0  0  0  0  0  0  0  # atno 8009 bound_to 7997
  156.2186  140.2977  155.9906 H   0  0  0  0  0  0  0  0  0  0  0  0  # atno 8010 bound_to 7997
  139.6789  143.9614  152.2326 H   0  0  0  0  0  0  0  0  0  0  0  0  # atno 10167 bound_to 10162
  157.4412  131.1058  151.0141 H   0  0  0  0  0  0  0  0  0  0  0  0  # atno 10718 bound_to 10713
  153.7241  135.3248  155.3273 H   0  0  0  0  0  0  0  0  0  0  0  0  # atno 10763 bound_to 10752
  154.8346  135.4506  154.1187 H   0  0  0  0  0  0  0  0  0  0  0  0  # atno 10764 bound_to 10752
  153.2316  135.6960  153.7964 H   0  0  0  0  0  0  0  0  0  0  0  0  # atno 10765 bound_to 10752
  140.2186  134.3668  155.8015 H   0  0  0  0  0  0  0  0  0  0  0  0  # atno 11005 bound_to 11000
  146.0759  139.3747  143.0494 LP  0  0  0  0  0  0  0  0  0  0  0  0  # atno 17320 bound_to 7965
  145.7905  140.9816  143.1051 LP  0  0  0  0  0  0  0  0  0  0  0  0  # atno 17321 bound_to 7965
  139.9399  144.6688  150.8277 LP  0  0  0  0  0  0  0  0  0  0  0  0  # atno 17342 bound_to 10162
  140.7645  143.3251  151.2534 LP  0  0  0  0  0  0  0  0  0  0  0  0  # atno 17343 bound_to 10162
  157.1004  130.5979  149.5459 LP  0  0  0  0  0  0  0  0  0  0  0  0  # atno 17370 bound_to 10713
  155.9949  130.5015  150.7439 LP  0  0  0  0  0  0  0  0  0  0  0  0  # atno 17371 bound_to 10713
  141.2224  133.7181  156.8538 LP  0  0  0  0  0  0  0  0  0  0  0  0  # atno 17394 bound_to 11000
  140.1873  134.8990  157.3019 LP  0  0  0  0  0  0  0  0  0  0  0  0  # atno 17395 bound_to 11000

$$$$
