#       Name:                AV-unprocessed.smi:511
#       Creating user name   scv26
#       Creation time:       Thu Mar 26 23:23:15 2020


#       File generated by GOLD software.
#

@<TRIPOS>MOLECULE
AV-unprocessed.smi:511
    53    55     1
SMALL
NO_CHARGES


@<TRIPOS>ATOM
      1 ****        -5.1690   1.1627  -1.6433 C.3            1 S1                 0.0000
      2 ****        -4.3787   0.2428  -0.9110 O.3            1 S1                 0.0000
      3 ****        -3.0160   0.2705  -1.3000 C.3            1 S1                 0.0000
      4 ****        -2.2434  -0.7687  -0.4779 C.3            1 S1                 0.0000
      5 ****        -0.8256  -0.7828  -0.8314 N.pl3          1 S1                 0.0000
      6 ****         0.2053  -0.1434  -0.2165 C.2            1 S1                 0.0000
      7 ****         0.0259   0.6068   0.9457 N.pl3          1 S1                 0.0000
      8 ****        -0.3961   0.0578   2.2327 C.3            1 S1                 0.0000
      9 ****         0.7988  -0.1077   3.1903 C.3            1 S1                 0.0000
     10 ****         1.5151   1.1770   3.3765 N.4            1 S1                 1.0000
     11 ****         2.6663   1.0592   4.2965 C.3            1 S1                 0.0000
     12 ****         1.8799   1.7972   2.0807 C.3            1 S1                 0.0000
     13 ****         0.6466   1.9091   1.1677 C.3            1 S1                 0.0000
     14 ****         1.3869  -0.2771  -0.8216 N.2            1 S1                 0.0000
     15 ****         1.0915  -1.0992  -1.8986 C.2            1 S1                 0.0000
     16 ****        -0.2306  -1.4169  -1.9267 C.2            1 S1                 0.0000
     17 ****        -0.8515  -2.2626  -2.9698 C.2            1 S1                 0.0000
     18 ****        -2.0565  -2.5048  -2.9555 O.2            1 S1                 0.0000
     19 ****         0.0635  -2.7022  -3.8908 N.pl3          1 S1                -1.0000
     20 ****         1.4107  -2.4106  -3.8980 C.2            1 S1                 0.0000
     21 ****         2.1670  -2.8510  -4.7646 O.2            1 S1                 0.0000
     22 ****         1.9389  -1.6097  -2.9193 N.am           1 S1                 0.0000
     23 ****         3.3666  -1.2782  -2.9043 C.3            1 S1                 0.0000
     24 ****        -6.2052   1.1006  -1.3112 H              1 S1                 0.0000
     25 ****        -5.1444   0.9423  -2.7115 H              1 S1                 0.0000
     26 ****        -4.8263   2.1866  -1.4890 H              1 S1                 0.0000
     27 ****        -2.9270   0.0559  -2.3659 H              1 S1                 0.0000
     28 ****        -2.6012   1.2654  -1.1292 H              1 S1                 0.0000
     29 ****        -2.3709  -0.5496   0.5787 H              1 S1                 0.0000
     30 ****        -2.6587  -1.7657  -0.6204 H              1 S1                 0.0000
     31 ****        -1.1541   0.7071   2.6725 H              1 S1                 0.0000
     32 ****        -0.8601  -0.9178   2.0880 H              1 S1                 0.0000
     33 ****         0.4507  -0.4771   4.1555 H              1 S1                 0.0000
     34 ****         1.4892  -0.8535   2.7921 H              1 S1                 0.0000
     35 ****         3.4245   0.3874   3.8921 H              1 S1                 0.0000
     36 ****         2.3464   0.6718   5.2644 H              1 S1                 0.0000
     37 ****         3.1265   2.0335   4.4632 H              1 S1                 0.0000
     38 ****         2.3029   2.7872   2.2539 H              1 S1                 0.0000
     39 ****         2.6516   1.1993   1.5927 H              1 S1                 0.0000
     40 ****         0.9322   2.3435   0.2088 H              1 S1                 0.0000
     41 ****        -0.0885   2.5860   1.6053 H              1 S1                 0.0000
     42 ****         3.6604  -0.8035  -3.8416 H              1 S1                 0.0000
     43 ****         3.9654  -2.1810  -2.7770 H              1 S1                 0.0000
     44 ****         3.6316  -0.5934  -2.0990 H              1 S1                 0.0000
     45 ****         0.8577   1.8058   3.8153 H              1 S1                 0.0000
     46 ****        -4.7367  -0.6787  -1.0612 LP             1 S1                 0.0000
     47 ****        -4.4397   0.4698   0.0610 LP             1 S1                 0.0000
     48 ****         2.2682   0.1181  -0.5624 LP             1 S1                 0.0000
     49 ****        -2.6336  -2.1282  -2.2308 LP             1 S1                 0.0000
     50 ****        -2.4597  -3.0784  -3.6685 LP             1 S1                 0.0000
     51 ****        -0.2778  -3.2886  -4.6253 LP             1 S1                 0.0000
     52 ****         1.8081  -3.4381  -5.4901 LP             1 S1                 0.0000
     53 ****         3.1401  -2.6214  -4.7427 LP             1 S1                 0.0000
@<TRIPOS>BOND
    1    1    2 1     
    2    1   24 1     
    3    1   25 1     
    4    1   26 1     
    5    2    3 1     
    6    3    4 1     
    7    3   27 1     
    8    3   28 1     
    9    4    5 1     
   10    4   29 1     
   11    4   30 1     
   12    5   16 1     
   13    5    6 1     
   14    6    7 1     
   15    6   14 2     
   16    7   13 1     
   17    7    8 1     
   18    8    9 1     
   19    8   31 1     
   20    8   32 1     
   21    9   10 1     
   22    9   33 1     
   23    9   34 1     
   24   10   11 1     
   25   10   12 1     
   26   10   45 1     
   27   11   35 1     
   28   11   36 1     
   29   11   37 1     
   30   12   13 1     
   31   12   38 1     
   32   12   39 1     
   33   13   40 1     
   34   13   41 1     
   35   14   15 1     
   36   15   22 1     
   37   15   16 2     
   38   16   17 1     
   39   17   18 2     
   40   17   19 1     
   41   19   20 1     
   42   20   21 2     
   43   20   22 am    
   44   22   23 1     
   45   23   42 1     
   46   23   43 1     
   47   23   44 1     
   48    2   46 1     
   49    2   47 1     
   50   14   48 1     
   51   18   49 1     
   52   18   50 1     
   53   19   51 1     
   54   21   52 1     
   55   21   53 1     
@<TRIPOS>SUBSTRUCTURE
      1 S1             1
@<TRIPOS>SET
LONE_PAIRS      STATIC     ATOMS    <user>   **** ""
8 46 47 48 49 50 51 52 53
DONOR_HYDROGENS      STATIC     ATOMS    <user>   **** ""
1 45
ATOM$BLUE        STATIC     ATOMS    COLORGROUP SYSTEM
8 46 47 48 49 50 51 52 53
ATOM$RED        STATIC     ATOMS    COLORGROUP SYSTEM
1 45
