AV-unprocessed.smi:1843|AV-procd|sdf|7500|dock4
  -GOLD-   22720 9203D 1   1.00000     0.00000
 Structure written by MMmdl.
 37 39  0  0  0  0  0  0  0  0  1 V2000
  146.2619  136.6818  153.1954 O   0  0  0  0  0  0  0  0  0  0  0  0
  145.6305  137.6979  152.9037 C   0  0  0  0  0  0  0  0  0  0  0  0
  145.9991  138.9557  153.2032 N   0  0  0  0  0  0  0  0  0  0  0  0
  147.1661  139.3920  153.8843 C   0  0  0  0  0  0  0  0  0  0  0  0
  148.0205  138.5654  154.5027 N   0  0  0  0  0  0  0  0  0  0  0  0
  149.0776  139.2525  155.0828 N   0  0  0  0  0  0  0  0  0  0  0  0
  148.9926  140.5741  154.8886 C   0  0  0  0  0  0  0  0  0  0  0  0
  150.0178  141.5229  155.4142 C   0  0  0  0  0  0  0  0  0  0  0  0
  151.2884  141.0122  156.0531 C   0  0  0  0  0  0  0  0  0  0  0  0
  150.2482  141.7014  156.8989 C   0  0  0  0  0  0  0  0  0  0  0  0
  147.5857  141.0943  153.9666 S   0  0  0  0  0  0  0  0  0  0  0  0
  144.4708  137.6799  152.2311 N   0  0  0  0  0  0  0  0  0  0  0  0
  143.7919  136.4773  151.7529 C   0  0  2  0  0  0  0  0  0  0  0  0
  143.2442  135.6943  152.9670 C   0  0  0  0  0  0  0  0  0  0  0  0
  142.6490  134.3373  152.5640 C   0  0  0  0  0  0  0  0  0  0  0  0
  143.6758  133.4923  151.7989 C   0  0  0  0  0  0  0  0  0  0  0  0
  144.1841  134.2464  150.5630 C   0  0  0  0  0  0  0  0  0  0  0  0
  144.7839  135.6153  150.9374 C   0  0  1  0  0  0  0  0  0  0  0  0
  145.1127  136.2801  149.7338 O   0  0  0  0  0  0  0  0  0  0  0  0
  145.3782  139.6891  152.8950 H   0  0  0  0  0  0  0  0  0  0  0  0
  150.0857  142.4044  154.7795 H   0  0  0  0  0  0  0  0  0  0  0  0
  151.3982  139.9360  156.1711 H   0  0  0  0  0  0  0  0  0  0  0  0
  152.2079  141.5547  155.8428 H   0  0  0  0  0  0  0  0  0  0  0  0
  150.4736  142.7050  157.2536 H   0  0  0  0  0  0  0  0  0  0  0  0
  149.6790  141.0811  157.5884 H   0  0  0  0  0  0  0  0  0  0  0  0
  144.0166  138.5608  152.0401 H   0  0  0  0  0  0  0  0  0  0  0  0
  142.9549  136.7530  151.1076 H   0  0  0  0  0  0  0  0  0  0  0  0
  144.0457  135.5287  153.6886 H   0  0  0  0  0  0  0  0  0  0  0  0
  142.4859  136.2847  153.4829 H   0  0  0  0  0  0  0  0  0  0  0  0
  142.3136  133.8008  153.4519 H   0  0  0  0  0  0  0  0  0  0  0  0
  141.7654  134.4937  151.9438 H   0  0  0  0  0  0  0  0  0  0  0  0
  144.5140  133.2472  152.4524 H   0  0  0  0  0  0  0  0  0  0  0  0
  143.2279  132.5448  151.4984 H   0  0  0  0  0  0  0  0  0  0  0  0
  144.9281  133.6410  150.0436 H   0  0  0  0  0  0  0  0  0  0  0  0
  143.3562  134.3832  149.8654 H   0  0  0  0  0  0  0  0  0  0  0  0
  145.6993  135.4591  151.5102 H   0  0  0  0  0  0  0  0  0  0  0  0
  144.8009  137.1706  149.7884 H   0  0  0  0  0  0  0  0  0  0  0  0
  1  2  2  0  0  0  0
  2  3  1  0  0  0  0
  2 12  1  0  0  0  0
  3  4  1  0  0  0  0
  3 20  1  0  0  0  0
  4 11  1  0  0  0  0
  4  5  2  0  0  0  0
  5  6  1  0  0  0  0
  6  7  2  0  0  0  0
  7  8  1  0  0  0  0
  7 11  1  0  0  0  0
  8 10  1  0  0  0  0
  8  9  1  0  0  0  0
  8 21  1  0  0  0  0
  9 10  1  0  0  0  0
  9 22  1  0  0  0  0
  9 23  1  0  0  0  0
 10 24  1  0  0  0  0
 10 25  1  0  0  0  0
 12 13  1  0  0  0  0
 12 26  1  0  0  0  0
 13 18  1  0  0  0  0
 13 14  1  0  0  0  0
 13 27  1  0  0  0  0
 14 15  1  0  0  0  0
 14 28  1  0  0  0  0
 14 29  1  0  0  0  0
 15 16  1  0  0  0  0
 15 30  1  0  0  0  0
 15 31  1  0  0  0  0
 16 17  1  0  0  0  0
 16 32  1  0  0  0  0
 16 33  1  0  0  0  0
 17 18  1  0  0  0  0
 17 34  1  0  0  0  0
 17 35  1  0  0  0  0
 18 19  1  0  0  0  0
 18 36  1  0  0  0  0
 19 37  1  0  0  0  0
M  END
> <s_m_source_file>
AV-unprocessed.smi

> <i_m_source_file_index>
1843

> <i_lp_mmshare_version>
43012

> <i_f3d_flags>
0

> <s_epik_input>
W09IXVtDQEBIXTFbQ0gyXVtDSDJdW0NIMl1bQ0gyXVtDQEhdMVtOSF1DKD1PKVtOSF1jMm5uYyhzMilbQ0hdM1tDSDJdW0NIMl0z

> <s_epik_cmdline>
J2VwaWtfcHl0aG9uJywgJy1waCcsICc3LjAnLCAnLXRuJywgJzgnLCAnLW1hJywgJzIwMCcsICctbWV0YWxfYmluZGluZycsICctaW1hZScsICc8aW5maWxlLm1hZT4nLCAnLW9tYWUnLCAnPG91dGZpbGUubWFlPic=

> <r_lp_tautomer_probability>
1

> <r_epik_Ionization_Penalty>
0.000257313

> <r_epik_Ionization_Penalty_Charging>
0

> <r_epik_Ionization_Penalty_Neutral>
0.000257313

> <r_epik_State_Penalty>
-0

> <r_epik_Charging_Adjusted_Penalty>
0

> <i_epik_Tot_Q>
0

> <i_epik_Tot_abs_Q>
0

> <r_epik_Metal_State_Penalty>
0.147479

> <b_epik_Metal_Only>
0

> <s_lp_Force_Field>
OPLS_2005

> <r_lp_Energy>
7.85459

> <b_lp_Chiralities_Consistent>
1

> <s_lp_Variant>
AV-unprocessed.smi:1843-1

> <Gold.Version>
5.8.1

> <Gold.Id.Protein>
6NUR|6NUR_protein|mol2

> <Gold.PLP.Fitness>
40.7964

> <Gold.PLP.PLP>
-32.0148

> <Gold.PLP.part.hbond>
-5.0000

> <Gold.PLP.part.metal>
0.0000

> <Gold.PLP.part.buried>
-4.1787

> <Gold.PLP.part.nonpolar>
-24.4661

> <Gold.PLP.part.repulsive>
0.7035

> <Gold.PLP.ligand.clash>
0.0000

> <Gold.PLP.ligand.torsion>
0.1627

> <Gold.PLP.Chemscore.Hbond>
2.9920

> <Gold.PLP.Chemscore.CHOScore>
0.0000

> <Gold.PLP.Chemscore.Metal>
0.0000

> <Gold.Chemscore.Hbonds>
donor molecule, donor type, donor heavy atom, donor atom, acceptor molecule, acceptor atom, score
      L1  H     3    20       P1 10175  1.00
      L1  H    12    26       P1 10175  1.00
      L1  H    19    37       P1 10171  1.00

> <Gold.PLP.Chemscore.Internal.Correction>
0.1310

> <Gold.Rescore>
     Score         DG    S(hbond)    S(metal)    S(lipo)     H(rot)  DE(clash)    DE(int)     intcor
     15.84     -18.61       2.92        0.00      66.83       1.74       0.24       2.53       ----

> <Gold.Chemscore.Fitness>
15.8369

> <Gold.Chemscore.DG>
-18.6112

> <Gold.Chemscore.ZeroCoef>
-5.4800

> <Gold.Chemscore.Hbond>
2.9244

> <Gold.Chemscore.Metal>
0.0000

> <Gold.Chemscore.Lipo>
66.8298

> <Gold.Chemscore.Internal_Hbond>
0.0000

> <Gold.Chemscore.DEClash>
0.2399

> <Gold.Chemscore.DEInternal>
2.5344

> <Gold.Chemscore.Rot>
1.7404

> <Gold.Chemscore.Internal.Correction>
   9.000000E+99

> <Gold.Chemscore.Hbonds>
donor molecule, donor type, donor heavy atom, donor atom, acceptor molecule, acceptor atom, score
      L1  H     3    20       P1 10175  0.98
      L1  H    12    26       P1 10175  0.96
      L1  H    19    37       P1 10171  1.00

> <Gold.Chemscore.Hbond.Weighted>
-9.7676

> <Gold.Chemscore.Metal.Weighted>
-0.0000

> <Gold.Chemscore.Lipo.Weighted>
-7.8191

> <Gold.Chemscore.Internal_Hbond.Weighted>
0.0000

> <Gold.Chemscore.DEClash.Weighted>
0.2399

> <Gold.Chemscore.DEInternal.Weighted>
2.5344

> <Gold.Chemscore.Rot.Weighted>
4.4555

> <Gold.Chemscore.Internal.Correction.Weighted>
   9.000000E+99

> <Gold.Protein.RotatedTorsions>
[ 6907 6896 6895 6894 ] final  -51.78 input  -60.11 | X-H torsion
[ 7974 7965 7964 7962 ] final  -26.91 input  175.53 | X-H torsion
[ 8008 7997 7996 7995 ] final   59.05 input   59.86 | X-H torsion
[ 10167 10162 10161 10158 ] final   81.26 input  -65.29 | X-H torsion
[ 10718 10713 10712 10709 ] final  -19.67 input   66.30 | X-H torsion
[ 10763 10752 10751 10750 ] final -118.18 input  -60.55 | X-H torsion
[ 11005 11000 10999 10996 ] final  -98.50 input  -57.11 | X-H torsion

> <Gold.Protein.ActiveResidues>
 VAL166  LYS551  ARG553  GLY616  TRP617  ASP618  TYR619  PRO620  LYS621  CYS622 
 ASP623  PHE694  ASN695  SER759  ASP760  ASP761  ALA762  ILE779  LEU786  VAL792 
 PHE793  MET794  SER795  GLU796  ALA797  LYS798  CYS799  TRP800  GLU811  SER814 

> <Gold.Protein.RotatedAtoms>
  150.8579  134.7923  159.7059 H   0  0  0  0  0  0  0  0  0  0  0  0  # atno 6907 bound_to 6896
  152.4625  134.5148  159.9774 H   0  0  0  0  0  0  0  0  0  0  0  0  # atno 6908 bound_to 6896
  151.5257  133.3420  159.2945 H   0  0  0  0  0  0  0  0  0  0  0  0  # atno 6909 bound_to 6896
  146.1393  140.5082  142.8659 H   0  0  0  0  0  0  0  0  0  0  0  0  # atno 7974 bound_to 7965
  155.5599  140.3488  155.4489 H   0  0  0  0  0  0  0  0  0  0  0  0  # atno 8008 bound_to 7997
  156.0522  140.1320  157.0063 H   0  0  0  0  0  0  0  0  0  0  0  0  # atno 8009 bound_to 7997
  154.4439  140.1002  156.6378 H   0  0  0  0  0  0  0  0  0  0  0  0  # atno 8010 bound_to 7997
  139.9411  144.6089  150.8251 H   0  0  0  0  0  0  0  0  0  0  0  0  # atno 10167 bound_to 10162
  156.5424  130.4681  149.6492 H   0  0  0  0  0  0  0  0  0  0  0  0  # atno 10718 bound_to 10713
  154.8579  135.4283  154.2098 H   0  0  0  0  0  0  0  0  0  0  0  0  # atno 10763 bound_to 10752
  153.3126  135.6977  153.7107 H   0  0  0  0  0  0  0  0  0  0  0  0  # atno 10764 bound_to 10752
  153.6194  135.3505  155.2979 H   0  0  0  0  0  0  0  0  0  0  0  0  # atno 10765 bound_to 10752
  141.1342  133.8250  157.0848 H   0  0  0  0  0  0  0  0  0  0  0  0  # atno 11005 bound_to 11000
  144.7775  140.5770  143.6628 LP  0  0  0  0  0  0  0  0  0  0  0  0  # atno 17320 bound_to 7965
  145.5083  139.1480  143.3619 LP  0  0  0  0  0  0  0  0  0  0  0  0  # atno 17321 bound_to 7965
  140.7610  143.3165  151.2721 LP  0  0  0  0  0  0  0  0  0  0  0  0  # atno 17342 bound_to 10162
  139.6704  144.0031  152.2749 LP  0  0  0  0  0  0  0  0  0  0  0  0  # atno 17343 bound_to 10162
  156.2959  130.7150  151.2010 LP  0  0  0  0  0  0  0  0  0  0  0  0  # atno 17370 bound_to 10713
  157.7403  131.0519  150.5177 LP  0  0  0  0  0  0  0  0  0  0  0  0  # atno 17371 bound_to 10713
  140.0429  134.9845  157.0995 LP  0  0  0  0  0  0  0  0  0  0  0  0  # atno 17394 bound_to 11000
  140.4107  134.1984  155.7163 LP  0  0  0  0  0  0  0  0  0  0  0  0  # atno 17395 bound_to 11000

$$$$
