#       Name:                AV-unprocessed.smi:40
#       Creating user name   scv26
#       Creation time:       Thu Mar 26 16:22:02 2020


#       File generated by GOLD software.
#

@<TRIPOS>MOLECULE
AV-unprocessed.smi:40
    58    59     1
SMALL
NO_CHARGES


@<TRIPOS>ATOM
      1 ****        -5.3328   1.0677   1.6622 C.3            1 S1                 0.0000
      2 ****        -3.8526   0.8767   1.3059 C.3            1 S1                 0.0000
      3 ****        -3.3972  -0.5918   1.3108 C.3            1 S1                 0.0000
      4 ****        -3.9890  -1.4271   0.1612 C.3            1 S1                 0.0000
      5 ****        -3.4729  -2.8723   0.1370 C.3            1 S1                 0.0000
      6 ****        -2.0752  -2.8594  -0.1029 O.3            1 S1                 0.0000
      7 ****        -1.4475  -3.9371  -0.6096 C.2            1 S1                 0.0000
      8 ****        -2.0016  -5.0020  -0.8804 O.2            1 S1                 0.0000
      9 ****        -0.0287  -3.6804  -0.7566 N.am           1 S1                 0.0000
     10 ****         0.8959  -4.5424  -1.2340 C.2            1 S1                 0.0000
     11 ****         1.6498  -4.1307  -2.2355 N.2            1 S1                 0.0000
     12 ****         2.6113  -4.9035  -2.8295 C.2            1 S1                 0.0000
     13 ****         3.2570  -4.4759  -3.7850 O.2            1 S1                 0.0000
     14 ****         2.8264  -6.2032  -2.3093 N.am           1 S1                 0.0000
     15 ****         3.8673  -7.0783  -2.9881 C.3            1 S1                 0.0000
     16 ****         3.8417  -8.3637  -2.4440 O.3            1 S1                 0.0000
     17 ****         4.8175  -8.4616  -1.4162 C.3            1 S1                 0.0000
     18 ****         5.1521  -9.9328  -1.1469 C.3            1 S1                 0.0000
     19 ****         5.9847  -7.6411  -1.9638 C.3            1 S1                 0.0000
     20 ****         6.7398  -7.0985  -0.8992 O.3            1 S1                 0.0000
     21 ****         5.2993  -6.5351  -2.7667 C.3            1 S1                 0.0000
     22 ****         5.9742  -6.3367  -3.9925 O.3            1 S1                 0.0000
     23 ****         2.0338  -6.6545  -1.2604 C.2            1 S1                 0.0000
     24 ****         1.0855  -5.8774  -0.6951 C.2            1 S1                 0.0000
     25 ****         0.3566  -6.3396   0.3358 F              1 S1                 0.0000
     26 ****         3.5548  -7.1139  -4.0337 H              1 S1                 0.0000
     27 ****         4.4260  -7.9977  -0.5095 H              1 S1                 0.0000
     28 ****         6.6167  -8.2606  -2.6026 H              1 S1                 0.0000
     29 ****         5.2661  -5.5977  -2.2090 H              1 S1                 0.0000
     30 ****        -5.5847   2.1274   1.7053 H              1 S1                 0.0000
     31 ****        -5.5629   0.6328   2.6351 H              1 S1                 0.0000
     32 ****        -5.9873   0.6060   0.9234 H              1 S1                 0.0000
     33 ****        -3.6458   1.3254   0.3336 H              1 S1                 0.0000
     34 ****        -3.2505   1.4301   2.0271 H              1 S1                 0.0000
     35 ****        -2.3090  -0.6078   1.2388 H              1 S1                 0.0000
     36 ****        -3.6424  -1.0516   2.2689 H              1 S1                 0.0000
     37 ****        -5.0749  -1.4505   0.2479 H              1 S1                 0.0000
     38 ****        -3.7678  -0.9500  -0.7942 H              1 S1                 0.0000
     39 ****        -3.6799  -3.3748   1.0824 H              1 S1                 0.0000
     40 ****        -3.9902  -3.4250  -0.6486 H              1 S1                 0.0000
     41 ****         0.2576  -2.7348  -0.5493 H              1 S1                 0.0000
     42 ****         5.9232 -10.0246  -0.3817 H              1 S1                 0.0000
     43 ****         5.5135 -10.4279  -2.0485 H              1 S1                 0.0000
     44 ****         4.2717 -10.4741  -0.8001 H              1 S1                 0.0000
     45 ****         6.1737  -6.5516  -0.3765 H              1 S1                 0.0000
     46 ****         5.9992  -7.1585  -4.4582 H              1 S1                 0.0000
     47 ****         2.1498  -7.6499  -0.8606 H              1 S1                 0.0000
     48 ****        -2.9839  -5.1079  -0.7259 LP             1 S1                 0.0000
     49 ****        -1.4696  -5.7613  -1.2550 LP             1 S1                 0.0000
     50 ****         1.5112  -3.2022  -2.5800 LP             1 S1                 0.0000
     51 ****         3.0819  -3.5557  -4.1352 LP             1 S1                 0.0000
     52 ****         3.9571  -5.0484  -4.2118 LP             1 S1                 0.0000
     53 ****         4.0428  -9.0328  -3.1595 LP             1 S1                 0.0000
     54 ****         2.9357  -8.5462  -2.0621 LP             1 S1                 0.0000
     55 ****         7.4930  -6.5517  -1.2647 LP             1 S1                 0.0000
     56 ****         7.1077  -7.8382  -0.3358 LP             1 S1                 0.0000
     57 ****         6.9064  -6.0202  -3.8168 LP             1 S1                 0.0000
     58 ****         5.4879  -5.6545  -4.5385 LP             1 S1                 0.0000
@<TRIPOS>BOND
    1    1    2 1     
    2    1   30 1     
    3    1   31 1     
    4    1   32 1     
    5    2    3 1     
    6    2   33 1     
    7    2   34 1     
    8    3    4 1     
    9    3   35 1     
   10    3   36 1     
   11    4    5 1     
   12    4   37 1     
   13    4   38 1     
   14    5    6 1     
   15    5   39 1     
   16    5   40 1     
   17    6    7 1     
   18    7    8 2     
   19    7    9 am    
   20    9   10 1     
   21    9   41 1     
   22   10   24 1     
   23   10   11 2     
   24   11   12 1     
   25   12   13 2     
   26   12   14 am    
   27   14   15 1     
   28   14   23 1     
   29   15   26 1     
   30   15   21 1     
   31   15   16 1     
   32   16   17 1     
   33   17   27 1     
   34   17   18 1     
   35   17   19 1     
   36   18   42 1     
   37   18   43 1     
   38   18   44 1     
   39   19   28 1     
   40   19   20 1     
   41   19   21 1     
   42   20   45 1     
   43   21   29 1     
   44   21   22 1     
   45   22   46 1     
   46   23   24 2     
   47   23   47 1     
   48   24   25 1     
   49    8   48 1     
   50    8   49 1     
   51   11   50 1     
   52   13   51 1     
   53   13   52 1     
   54   16   53 1     
   55   16   54 1     
   56   20   55 1     
   57   20   56 1     
   58   22   57 1     
   59   22   58 1     
@<TRIPOS>SUBSTRUCTURE
      1 S1             1
@<TRIPOS>SET
LONE_PAIRS      STATIC     ATOMS    <user>   **** ""
11 48 49 50 51 52 53 54 55 56 57 58
DONOR_HYDROGENS      STATIC     ATOMS    <user>   **** ""
3 41 45 46
ATOM$BLUE        STATIC     ATOMS    COLORGROUP SYSTEM
11 48 49 50 51 52 53 54 55 56 57 58
ATOM$RED        STATIC     ATOMS    COLORGROUP SYSTEM
3 41 45 46
