AV-unprocessed.smi:175|AV-procd|sdf|1429|dock8
  -GOLD-   2262019203D 1   1.00000     0.00000
 Structure written by MMmdl.
 47 50  0  0  0  0  0  0  0  0  1 V2000
  147.4793  141.8496  153.8115 C   0  0  0  0  0  0  0  0  0  0  0  0
  147.9788  140.3963  153.8140 C   0  0  2  0  0  0  0  0  0  0  0  0
  146.9827  139.6025  154.4550 O   0  0  0  0  0  0  0  0  0  0  0  0
  147.6107  138.5254  155.1278 C   0  0  0  0  0  0  0  0  0  0  0  0
  148.8590  139.1782  155.7005 C   0  0  0  0  0  0  0  0  0  0  0  0
  149.3027  140.1127  154.5786 C   0  0  1  0  0  0  0  0  0  0  0  0
  150.1500  139.3771  153.7110 O   0  0  0  0  0  0  0  0  0  0  0  0
  150.0926  141.3517  155.0757 C   0  0  0  0  0  0  0  0  0  0  0  0
  150.9993  141.0563  156.1751 N   0  0  0  0  0  0  0  0  0  0  0  0
  151.8533  139.9824  156.2716 C   0  0  0  0  0  0  0  0  0  0  0  0
  152.5681  139.9382  157.3620 N   0  0  0  0  0  0  0  0  0  0  0  0
  152.1870  141.0712  158.0734 C   0  0  0  0  0  0  0  0  0  0  0  0
  152.5591  141.6404  159.3282 C   0  0  0  0  0  0  0  0  0  0  0  0
  153.4806  141.1125  160.1751 N   0  0  0  0  0  0  0  0  0  0  0  0
  153.8479  141.7044  161.4533 C   0  0  0  0  0  0  0  0  0  0  0  0
  154.7889  140.6527  162.0123 C   0  0  0  0  0  0  0  0  0  0  0  0
  155.3628  140.7723  163.0935 O   0  0  0  0  0  0  0  0  0  0  0  0
  154.8913  139.6198  161.1685 N   0  0  0  0  0  0  0  0  0  0  0  0
  155.7050  138.4195  161.3491 C   0  0  0  0  0  0  0  0  0  0  0  0
  154.8777  137.2172  161.8391 C   0  0  0  0  0  0  0  0  0  0  0  0
  155.6443  136.1277  161.8210 F   0  0  0  0  0  0  0  0  0  0  0  0
  154.4425  137.4061  163.0843 F   0  0  0  0  0  0  0  0  0  0  0  0
  153.8333  137.0145  161.0360 F   0  0  0  0  0  0  0  0  0  0  0  0
  154.1022  139.8103  159.9629 C   0  0  0  0  0  0  0  0  0  0  0  0
  151.9390  142.7931  159.6951 N   0  0  0  0  0  0  0  0  0  0  0  0
  151.0280  143.3590  158.8992 C   0  0  0  0  0  0  0  0  0  0  0  0
  150.5899  142.9459  157.7098 N   0  0  0  0  0  0  0  0  0  0  0  0
  151.1998  141.7858  157.3341 C   0  0  0  0  0  0  0  0  0  0  0  0
  148.1915  142.5158  153.3243 H   0  0  0  0  0  0  0  0  0  0  0  0
  147.3052  142.2150  154.8239 H   0  0  0  0  0  0  0  0  0  0  0  0
  146.5367  141.9299  153.2700 H   0  0  0  0  0  0  0  0  0  0  0  0
  148.0567  140.0585  152.7787 H   0  0  0  0  0  0  0  0  0  0  0  0
  146.9660  138.0993  155.8967 H   0  0  0  0  0  0  0  0  0  0  0  0
  147.8667  137.7410  154.4139 H   0  0  0  0  0  0  0  0  0  0  0  0
  148.5753  139.7562  156.5807 H   0  0  0  0  0  0  0  0  0  0  0  0
  149.6210  138.4594  156.0057 H   0  0  0  0  0  0  0  0  0  0  0  0
  150.2527  139.8660  152.9086 H   0  0  0  0  0  0  0  0  0  0  0  0
  150.6766  141.7827  154.2613 H   0  0  0  0  0  0  0  0  0  0  0  0
  149.4096  142.1321  155.4116 H   0  0  0  0  0  0  0  0  0  0  0  0
  151.9255  139.2248  155.5045 H   0  0  0  0  0  0  0  0  0  0  0  0
  154.3632  142.6567  161.3234 H   0  0  0  0  0  0  0  0  0  0  0  0
  152.9829  141.8303  162.1057 H   0  0  0  0  0  0  0  0  0  0  0  0
  156.1842  138.1713  160.4014 H   0  0  0  0  0  0  0  0  0  0  0  0
  156.5131  138.6290  162.0517 H   0  0  0  0  0  0  0  0  0  0  0  0
  153.3544  139.0221  159.8652 H   0  0  0  0  0  0  0  0  0  0  0  0
  154.7393  139.8189  159.0772 H   0  0  0  0  0  0  0  0  0  0  0  0
  150.5876  144.2733  159.2685 H   0  0  0  0  0  0  0  0  0  0  0  0
  1  2  1  0  0  0  0
  1 29  1  0  0  0  0
  1 30  1  0  0  0  0
  1 31  1  0  0  0  0
  2  6  1  0  0  0  0
  2  3  1  0  0  0  0
  2 32  1  0  0  0  0
  3  4  1  0  0  0  0
  4  5  1  0  0  0  0
  4 33  1  0  0  0  0
  4 34  1  0  0  0  0
  5  6  1  0  0  0  0
  5 35  1  0  0  0  0
  5 36  1  0  0  0  0
  6  7  1  0  0  0  0
  6  8  1  0  0  0  0
  7 37  1  0  0  0  0
  8  9  1  0  0  0  0
  8 38  1  0  0  0  0
  8 39  1  0  0  0  0
  9 28  1  0  0  0  0
  9 10  1  0  0  0  0
 10 11  2  0  0  0  0
 10 40  1  0  0  0  0
 11 12  1  0  0  0  0
 12 28  2  0  0  0  0
 12 13  1  0  0  0  0
 13 14  1  0  0  0  0
 13 25  2  0  0  0  0
 14 24  1  0  0  0  0
 14 15  1  0  0  0  0
 15 16  1  0  0  0  0
 15 41  1  0  0  0  0
 15 42  1  0  0  0  0
 16 17  2  0  0  0  0
 16 18  1  0  0  0  0
 18 19  1  0  0  0  0
 18 24  1  0  0  0  0
 19 20  1  0  0  0  0
 19 43  1  0  0  0  0
 19 44  1  0  0  0  0
 20 21  1  0  0  0  0
 20 22  1  0  0  0  0
 20 23  1  0  0  0  0
 24 45  1  0  0  0  0
 24 46  1  0  0  0  0
 25 26  1  0  0  0  0
 26 27  2  0  0  0  0
 26 47  1  0  0  0  0
 27 28  1  0  0  0  0
M  END
> <s_m_source_file>
AV-unprocessed.smi

> <i_m_source_file_index>
175

> <i_lp_mmshare_version>
43012

> <i_f3d_flags>
0

> <s_epik_input>
W0NIMl0xW0NIMl1PW0NAQEhdKFtDSDNdKVtDQEBdMShbT0hdKVtDSDJdbihbY0hdbjIpYyhjMjMpbltjSF1uYzNONFtDSDJdQyg9TylOKFtDSDJdNClbQ0gyXUMoRikoRilG

> <s_epik_cmdline>
J2VwaWtfcHl0aG9uJywgJy1waCcsICc3LjAnLCAnLXRuJywgJzgnLCAnLW1hJywgJzIwMCcsICctbWV0YWxfYmluZGluZycsICctaW1hZScsICc8aW5maWxlLm1hZT4nLCAnLW9tYWUnLCAnPG91dGZpbGUubWFlPic=

> <r_lp_tautomer_probability>
1

> <r_epik_Ionization_Penalty>
0.000307802

> <r_epik_Ionization_Penalty_Charging>
0

> <r_epik_Ionization_Penalty_Neutral>
0.000307802

> <r_epik_State_Penalty>
-0

> <r_epik_Charging_Adjusted_Penalty>
0

> <i_epik_Tot_Q>
0

> <i_epik_Tot_abs_Q>
0

> <r_epik_Metal_State_Penalty>
-0

> <b_epik_Metal_Only>
0

> <s_epik_Chemistry_Notes>
This compound contains an acetal/aminal-like group ( X-CH(R)-Y where X, Y are N, S, or O) that may be acid/base labile, releasing an aldehyde.

> <s_lp_Force_Field>
OPLS_2005

> <r_lp_Energy>
32.9701

> <b_lp_Chiralities_Consistent>
1

> <s_lp_Variant>
AV-unprocessed.smi:175-1

> <Gold.Version>
5.8.1

> <Gold.Id.Protein>
6NUR|6NUR_protein|mol2

> <Gold.PLP.Fitness>
52.9973

> <Gold.PLP.PLP>
-48.6725

> <Gold.PLP.part.hbond>
-3.7249

> <Gold.PLP.part.metal>
0.0000

> <Gold.PLP.part.buried>
-4.5378

> <Gold.PLP.part.nonpolar>
-39.7165

> <Gold.PLP.part.repulsive>
0.2397

> <Gold.PLP.ligand.clash>
0.0000

> <Gold.PLP.ligand.torsion>
0.8613

> <Gold.PLP.Chemscore.Hbond>
1.9510

> <Gold.PLP.Chemscore.CHOScore>
0.0000

> <Gold.PLP.Chemscore.Metal>
0.0000

> <Gold.Chemscore.Hbonds>
donor molecule, donor type, donor heavy atom, donor atom, acceptor molecule, acceptor atom, score
      L1  H     7    37       P1  7957  0.88
      P1  H  7997  8009       L1    11  1.00

> <Gold.PLP.Chemscore.Internal.Correction>
0.1945

> <Gold.Rescore>
     Score         DG    S(hbond)    S(metal)    S(lipo)     H(rot)  DE(clash)    DE(int)     intcor
      8.56     -10.49       1.49        0.00      55.78       2.54       0.03       1.91       ----

> <Gold.Chemscore.Fitness>
8.5565

> <Gold.Chemscore.DG>
-10.4901

> <Gold.Chemscore.ZeroCoef>
-5.4800

> <Gold.Chemscore.Hbond>
1.4908

> <Gold.Chemscore.Metal>
0.0000

> <Gold.Chemscore.Lipo>
55.7842

> <Gold.Chemscore.Internal_Hbond>
0.0000

> <Gold.Chemscore.DEClash>
0.0260

> <Gold.Chemscore.DEInternal>
1.9076

> <Gold.Chemscore.Rot>
2.5375

> <Gold.Chemscore.Internal.Correction>
   9.000000E+99

> <Gold.Chemscore.Hbonds>
donor molecule, donor type, donor heavy atom, donor atom, acceptor molecule, acceptor atom, score
      L1  H     7    37       P1  7957  0.86
      P1  H  7997  8009       L1    11  0.42

> <Gold.Chemscore.Hbond.Weighted>
-4.9794

> <Gold.Chemscore.Metal.Weighted>
-0.0000

> <Gold.Chemscore.Lipo.Weighted>
-6.5268

> <Gold.Chemscore.Internal_Hbond.Weighted>
0.0000

> <Gold.Chemscore.DEClash.Weighted>
0.0260

> <Gold.Chemscore.DEInternal.Weighted>
1.9076

> <Gold.Chemscore.Rot.Weighted>
6.4961

> <Gold.Chemscore.Internal.Correction.Weighted>
   9.000000E+99

> <Gold.Protein.RotatedTorsions>
[ 6907 6896 6895 6894 ] final   31.28 input  -60.11 | X-H torsion
[ 7974 7965 7964 7962 ] final -151.71 input  175.53 | X-H torsion
[ 8008 7997 7996 7995 ] final  170.21 input   59.86 | X-H torsion
[ 10167 10162 10161 10158 ] final  -78.30 input  -65.29 | X-H torsion
[ 10718 10713 10712 10709 ] final   33.51 input   66.30 | X-H torsion
[ 10763 10752 10751 10750 ] final   26.79 input  -60.55 | X-H torsion
[ 11005 11000 10999 10996 ] final   53.97 input  -57.11 | X-H torsion

> <Gold.Protein.ActiveResidues>
 VAL166  LYS551  ARG553  GLY616  TRP617  ASP618  TYR619  PRO620  LYS621  CYS622 
 ASP623  PHE694  ASN695  SER759  ASP760  ASP761  ALA762  ILE779  LEU786  VAL792 
 PHE793  MET794  SER795  GLU796  ALA797  LYS798  CYS799  TRP800  GLU811  SER814 

> <Gold.Protein.RotatedAtoms>
  152.0580  134.9612  160.0574 H   0  0  0  0  0  0  0  0  0  0  0  0  # atno 6907 bound_to 6896
  152.0987  133.4233  159.4585 H   0  0  0  0  0  0  0  0  0  0  0  0  # atno 6908 bound_to 6896
  150.6839  134.2706  159.4630 H   0  0  0  0  0  0  0  0  0  0  0  0  # atno 6909 bound_to 6896
  144.7834  140.4760  143.5823 H   0  0  0  0  0  0  0  0  0  0  0  0  # atno 7974 bound_to 7965
  156.1386  140.1544  156.8956 H   0  0  0  0  0  0  0  0  0  0  0  0  # atno 8008 bound_to 7997
  154.4968  140.0836  156.7752 H   0  0  0  0  0  0  0  0  0  0  0  0  # atno 8009 bound_to 7997
  155.4121  140.3419  155.4267 H   0  0  0  0  0  0  0  0  0  0  0  0  # atno 8010 bound_to 7997
  140.4694  143.2431  151.8227 H   0  0  0  0  0  0  0  0  0  0  0  0  # atno 10167 bound_to 10162
  157.2987  130.7340  149.6654 H   0  0  0  0  0  0  0  0  0  0  0  0  # atno 10718 bound_to 10713
  153.0599  135.6552  154.0488 H   0  0  0  0  0  0  0  0  0  0  0  0  # atno 10763 bound_to 10752
  154.0158  135.2924  155.3388 H   0  0  0  0  0  0  0  0  0  0  0  0  # atno 10764 bound_to 10752
  154.6932  135.5274  153.8489 H   0  0  0  0  0  0  0  0  0  0  0  0  # atno 10765 bound_to 10752
  140.0724  134.5451  155.9032 H   0  0  0  0  0  0  0  0  0  0  0  0  # atno 11005 bound_to 11000
  145.5987  139.1502  143.3141 LP  0  0  0  0  0  0  0  0  0  0  0  0  # atno 17320 bound_to 7965
  146.2054  140.6109  142.9083 LP  0  0  0  0  0  0  0  0  0  0  0  0  # atno 17321 bound_to 7965
  139.4816  144.4910  151.9185 LP  0  0  0  0  0  0  0  0  0  0  0  0  # atno 17342 bound_to 10162
  140.3995  144.2511  150.5894 LP  0  0  0  0  0  0  0  0  0  0  0  0  # atno 17343 bound_to 10162
  155.9670  130.4286  150.4797 LP  0  0  0  0  0  0  0  0  0  0  0  0  # atno 17370 bound_to 10713
  157.2774  131.0600  151.2220 LP  0  0  0  0  0  0  0  0  0  0  0  0  # atno 17371 bound_to 10713
  141.2017  133.6620  156.5964 LP  0  0  0  0  0  0  0  0  0  0  0  0  # atno 17394 bound_to 11000
  140.3607  134.7690  157.4532 LP  0  0  0  0  0  0  0  0  0  0  0  0  # atno 17395 bound_to 11000

$$$$
