AV-unprocessed.smi:1740|AV-procd|sdf|7011|dock6
  -GOLD-   22720 8223D 1   1.00000     0.00000
 Structure written by MMmdl.
 53 55  0  0  0  0  0  0  0  0  3 V2000
  140.6022  135.9263  158.7692 N   0  0  0  0  0  0  0  0  0  0  0  0
  140.8222  137.2291  158.5807 C   0  0  0  0  0  0  0  0  0  0  0  0
  141.1962  137.9682  159.4897 O   0  0  0  0  0  0  0  0  0  0  0  0
  140.6041  137.7692  157.1633 C   0  0  0  0  0  0  0  0  0  0  0  0
  141.4446  137.0853  156.1469 N   0  3  2  0  0  0  0  0  0  0  0  0
  142.8931  137.0933  156.4842 C   0  0  0  0  0  0  0  0  0  0  0  0
  143.6975  136.2362  155.4907 C   0  0  0  0  0  0  0  0  0  0  0  0
  143.4704  136.6690  154.0315 C   0  0  2  0  0  0  0  0  0  0  0  0
  144.1450  137.9374  153.7540 N   0  0  0  0  0  0  0  0  0  0  0  0
  145.3745  138.2617  154.1806 C   0  0  0  0  0  0  0  0  0  0  0  0
  146.0847  137.5099  154.8479 O   0  0  0  0  0  0  0  0  0  0  0  0
  145.7341  139.4889  153.7691 N   0  0  0  0  0  0  0  0  0  0  0  0
  146.9676  140.1504  154.0266 C   0  0  0  0  0  0  0  0  0  0  0  0
  148.1907  139.4327  153.9958 C   0  0  0  0  0  0  0  0  0  0  0  0
  149.3953  140.0818  154.3246 C   0  0  0  0  0  0  0  0  0  0  0  0
  149.3573  141.4365  154.6961 C   0  0  0  0  0  0  0  0  0  0  0  0
  148.1767  142.0888  154.7265 N   0  3  0  0  0  0  0  0  0  0  0  0
  146.9854  141.5242  154.4059 C   0  0  0  0  0  0  0  0  0  0  0  0
  145.8314  142.3389  154.4660 N   0  0  0  0  0  0  0  0  0  0  0  0
  145.3659  142.8645  155.7449 C   0  0  0  0  0  0  0  0  0  0  0  0
  144.3787  143.9714  155.3848 C   0  0  0  0  0  0  0  0  0  0  0  0
  144.9887  144.5540  154.1138 C   0  0  0  0  0  0  0  0  0  0  0  0
  145.6159  143.3385  153.4240 C   0  0  0  0  0  0  0  0  0  0  0  0
  141.9603  136.7492  153.7317 C   0  0  0  0  0  0  0  0  0  0  0  0
  141.2055  137.5945  154.7729 C   0  0  0  0  0  0  0  0  0  0  0  0
  140.7384  135.5244  159.6860 H   0  0  0  0  0  0  0  0  0  0  0  0
  140.3066  135.3423  158.0003 H   0  0  0  0  0  0  0  0  0  0  0  0
  139.5493  137.6154  156.9321 H   0  0  0  0  0  0  0  0  0  0  0  0
  140.7786  138.8459  157.1316 H   0  0  0  0  0  0  0  0  0  0  0  0
  143.2631  138.1196  156.4854 H   0  0  0  0  0  0  0  0  0  0  0  0
  143.0465  136.7052  157.4913 H   0  0  0  0  0  0  0  0  0  0  0  0
  144.7596  136.2718  155.7366 H   0  0  0  0  0  0  0  0  0  0  0  0
  143.3974  135.1934  155.6029 H   0  0  0  0  0  0  0  0  0  0  0  0
  143.9128  135.9054  153.3888 H   0  0  0  0  0  0  0  0  0  0  0  0
  143.6325  138.6201  153.2148 H   0  0  0  0  0  0  0  0  0  0  0  0
  145.1069  139.9564  153.1309 H   0  0  0  0  0  0  0  0  0  0  0  0
  148.2177  138.3828  153.7437 H   0  0  0  0  0  0  0  0  0  0  0  0
  150.3319  139.5438  154.3041 H   0  0  0  0  0  0  0  0  0  0  0  0
  150.2278  142.0142  154.9714 H   0  0  0  0  0  0  0  0  0  0  0  0
  144.8986  142.0867  156.3497 H   0  0  0  0  0  0  0  0  0  0  0  0
  146.1971  143.2884  156.3099 H   0  0  0  0  0  0  0  0  0  0  0  0
  143.3994  143.5432  155.1657 H   0  0  0  0  0  0  0  0  0  0  0  0
  144.2582  144.7086  156.1791 H   0  0  0  0  0  0  0  0  0  0  0  0
  144.2600  145.0690  153.4872 H   0  0  0  0  0  0  0  0  0  0  0  0
  145.7691  145.2691  154.3782 H   0  0  0  0  0  0  0  0  0  0  0  0
  146.5403  143.6084  152.9114 H   0  0  0  0  0  0  0  0  0  0  0  0
  144.9241  142.9299  152.6868 H   0  0  0  0  0  0  0  0  0  0  0  0
  141.7873  137.1452  152.7304 H   0  0  0  0  0  0  0  0  0  0  0  0
  141.5454  135.7404  153.7296 H   0  0  0  0  0  0  0  0  0  0  0  0
  140.1387  137.5629  154.5482 H   0  0  0  0  0  0  0  0  0  0  0  0
  141.5108  138.6402  154.7108 H   0  0  0  0  0  0  0  0  0  0  0  0
  141.1473  136.1195  156.1472 H   0  0  0  0  0  0  0  0  0  0  0  0
  148.1831  143.0715  154.9996 H   0  0  0  0  0  0  0  0  0  0  0  0
  1  2  1  0  0  0  0
  1 26  1  0  0  0  0
  1 27  1  0  0  0  0
  2  3  2  0  0  0  0
  2  4  1  0  0  0  0
  4  5  1  0  0  0  0
  4 28  1  0  0  0  0
  4 29  1  0  0  0  0
  5 25  1  0  0  0  0
  5  6  1  0  0  0  0
  5 52  1  0  0  0  0
  6  7  1  0  0  0  0
  6 30  1  0  0  0  0
  6 31  1  0  0  0  0
  7  8  1  0  0  0  0
  7 32  1  0  0  0  0
  7 33  1  0  0  0  0
  8  9  1  0  0  0  0
  8 24  1  0  0  0  0
  8 34  1  0  0  0  0
  9 10  1  0  0  0  0
  9 35  1  0  0  0  0
 10 11  2  0  0  0  0
 10 12  1  0  0  0  0
 12 13  1  0  0  0  0
 12 36  1  0  0  0  0
 13 18  1  0  0  0  0
 13 14  2  0  0  0  0
 14 15  1  0  0  0  0
 14 37  1  0  0  0  0
 15 16  2  0  0  0  0
 15 38  1  0  0  0  0
 16 17  1  0  0  0  0
 16 39  1  0  0  0  0
 17 18  2  0  0  0  0
 17 53  1  0  0  0  0
 18 19  1  0  0  0  0
 19 23  1  0  0  0  0
 19 20  1  0  0  0  0
 20 21  1  0  0  0  0
 20 40  1  0  0  0  0
 20 41  1  0  0  0  0
 21 22  1  0  0  0  0
 21 42  1  0  0  0  0
 21 43  1  0  0  0  0
 22 23  1  0  0  0  0
 22 44  1  0  0  0  0
 22 45  1  0  0  0  0
 23 46  1  0  0  0  0
 23 47  1  0  0  0  0
 24 25  1  0  0  0  0
 24 48  1  0  0  0  0
 24 49  1  0  0  0  0
 25 50  1  0  0  0  0
 25 51  1  0  0  0  0
M  CHG  1   5   1
M  CHG  1  17   1
M  END
> <s_m_source_file>
AV-unprocessed.smi

> <i_m_source_file_index>
1740

> <i_lp_mmshare_version>
43012

> <i_f3d_flags>
0

> <s_epik_input>
W05IMl1DKD1PKVtDSDJdTjFbQ0gyXVtDSDJdW0NIXShbQ0gyXVtDSDJdMSlbTkhdQyg9TylbTkhdYzJbY0hdW2NIXVtjSF1uYzJOM1tDSDJdW0NIMl1bQ0gyXVtDSDJdMw==

> <s_epik_cmdline>
J2VwaWtfcHl0aG9uJywgJy1waCcsICc3LjAnLCAnLXRuJywgJzgnLCAnLW1hJywgJzIwMCcsICctbWV0YWxfYmluZGluZycsICctaW1hZScsICc8aW5maWxlLm1hZT4nLCAnLW9tYWUnLCAnPG91dGZpbGUubWFlPic=

> <r_lp_tautomer_probability>
0.999994

> <r_epik_Ionization_Penalty>
2.11361

> <r_epik_Ionization_Penalty_Charging>
2.11355

> <r_epik_Ionization_Penalty_Neutral>
5.98217e-05

> <r_epik_State_Penalty>
2.13444

> <r_epik_Charging_Adjusted_Penalty>
4.24799

> <i_epik_Tot_Q>
2

> <i_epik_Tot_abs_Q>
2

> <r_epik_Metal_State_Penalty>
2.23528

> <b_epik_Metal_Only>
0

> <s_lp_Force_Field>
OPLS_2005

> <r_lp_Energy>
48.4513

> <b_lp_Chiralities_Consistent>
1

> <s_lp_Variant>
AV-unprocessed.smi:1740-6

> <Gold.Version>
5.8.1

> <Gold.Id.Protein>
6NUR|6NUR_protein|mol2

> <Gold.PLP.Fitness>
44.1734

> <Gold.PLP.PLP>
-28.8999

> <Gold.PLP.part.hbond>
-4.5530

> <Gold.PLP.part.metal>
0.0000

> <Gold.PLP.part.buried>
-6.8707

> <Gold.PLP.part.nonpolar>
-19.4106

> <Gold.PLP.part.repulsive>
0.4069

> <Gold.PLP.ligand.clash>
0.0000

> <Gold.PLP.ligand.torsion>
0.7652

> <Gold.PLP.Chemscore.Hbond>
5.4667

> <Gold.PLP.Chemscore.CHOScore>
0.0000

> <Gold.PLP.Chemscore.Metal>
0.0000

> <Gold.Chemscore.Hbonds>
donor molecule, donor type, donor heavy atom, donor atom, acceptor molecule, acceptor atom, score
      L1  H     1    27       P1 11000  1.00
      L1  H     5    52       P1 11000  0.43
      L1  H     9    35       P1 10175  0.93
      L1  H    12    36       P1 10175  1.00
      L1  H    17    53       P1  8028  2.00

> <Gold.PLP.Chemscore.Internal.Correction>
0.4039

> <Gold.Rescore>
     Score         DG    S(hbond)    S(metal)    S(lipo)     H(rot)  DE(clash)    DE(int)     intcor
     15.67     -19.27       3.63        0.00      62.94       2.22       0.30       3.31       ----

> <Gold.Chemscore.Fitness>
15.6651

> <Gold.Chemscore.DG>
-19.2744

> <Gold.Chemscore.ZeroCoef>
-5.4800

> <Gold.Chemscore.Hbond>
3.6275

> <Gold.Chemscore.Metal>
0.0000

> <Gold.Chemscore.Lipo>
62.9361

> <Gold.Chemscore.Internal_Hbond>
0.0000

> <Gold.Chemscore.DEClash>
0.2995

> <Gold.Chemscore.DEInternal>
3.3099

> <Gold.Chemscore.Rot>
2.2207

> <Gold.Chemscore.Internal.Correction>
   9.000000E+99

> <Gold.Chemscore.Hbonds>
donor molecule, donor type, donor heavy atom, donor atom, acceptor molecule, acceptor atom, score
      L1  H     1    27       P1 11000  0.42
      L1  H     5    52       P1 11000  0.05
      L1  H     9    35       P1 10175  0.88
      L1  H    12    36       P1 10175  0.99
      L1  H    17    53       P1  8028  0.97

> <Gold.Chemscore.Hbond.Weighted>
-12.1158

> <Gold.Chemscore.Metal.Weighted>
-0.0000

> <Gold.Chemscore.Lipo.Weighted>
-7.3635

> <Gold.Chemscore.Internal_Hbond.Weighted>
0.0000

> <Gold.Chemscore.DEClash.Weighted>
0.2995

> <Gold.Chemscore.DEInternal.Weighted>
3.3099

> <Gold.Chemscore.Rot.Weighted>
5.6849

> <Gold.Chemscore.Internal.Correction.Weighted>
   9.000000E+99

> <Gold.Protein.RotatedTorsions>
[ 6907 6896 6895 6894 ] final  -73.61 input  -60.11 | X-H torsion
[ 7974 7965 7964 7962 ] final   38.05 input  175.53 | X-H torsion
[ 8008 7997 7996 7995 ] final -152.35 input   59.86 | X-H torsion
[ 10167 10162 10161 10158 ] final   64.22 input  -65.29 | X-H torsion
[ 10718 10713 10712 10709 ] final  169.02 input   66.30 | X-H torsion
[ 10763 10752 10751 10750 ] final   15.31 input  -60.55 | X-H torsion
[ 11005 11000 10999 10996 ] final  -73.27 input  -57.11 | X-H torsion

> <Gold.Protein.ActiveResidues>
 VAL166  LYS551  ARG553  GLY616  TRP617  ASP618  TYR619  PRO620  LYS621  CYS622 
 ASP623  PHE694  ASN695  SER759  ASP760  ASP761  ALA762  ILE779  LEU786  VAL792 
 PHE793  MET794  SER795  GLU796  ALA797  LYS798  CYS799  TRP800  GLU811  SER814 

> <Gold.Protein.RotatedAtoms>
  150.7123  134.4990  159.5552 H   0  0  0  0  0  0  0  0  0  0  0  0  # atno 6907 bound_to 6896
  152.2592  134.8049  160.0442 H   0  0  0  0  0  0  0  0  0  0  0  0  # atno 6908 bound_to 6896
  151.8769  133.3452  159.3790 H   0  0  0  0  0  0  0  0  0  0  0  0  # atno 6909 bound_to 6896
  146.1091  139.5819  142.9364 H   0  0  0  0  0  0  0  0  0  0  0  0  # atno 7974 bound_to 7965
  155.6537  140.0715  157.2578 H   0  0  0  0  0  0  0  0  0  0  0  0  # atno 8008 bound_to 7997
  154.4157  140.1728  156.1752 H   0  0  0  0  0  0  0  0  0  0  0  0  # atno 8009 bound_to 7997
  155.9755  140.3358  155.6618 H   0  0  0  0  0  0  0  0  0  0  0  0  # atno 8010 bound_to 7997
  140.1245  144.4700  150.6900 H   0  0  0  0  0  0  0  0  0  0  0  0  # atno 10167 bound_to 10162
  157.0287  131.0253  151.2751 H   0  0  0  0  0  0  0  0  0  0  0  0  # atno 10718 bound_to 10713
  153.1537  135.6783  153.8843 H   0  0  0  0  0  0  0  0  0  0  0  0  # atno 10763 bound_to 10752
  153.8261  135.3124  155.3416 H   0  0  0  0  0  0  0  0  0  0  0  0  # atno 10764 bound_to 10752
  154.7882  135.4850  154.0080 H   0  0  0  0  0  0  0  0  0  0  0  0  # atno 10765 bound_to 10752
  141.1620  133.6873  156.7186 H   0  0  0  0  0  0  0  0  0  0  0  0  # atno 11005 bound_to 11000
  145.5700  141.0395  143.2179 LP  0  0  0  0  0  0  0  0  0  0  0  0  # atno 17320 bound_to 7965
  144.7496  139.7228  143.7278 LP  0  0  0  0  0  0  0  0  0  0  0  0  # atno 17321 bound_to 7965
  140.6853  143.2347  151.5278 LP  0  0  0  0  0  0  0  0  0  0  0  0  # atno 17342 bound_to 10162
  139.5551  144.2296  152.1598 LP  0  0  0  0  0  0  0  0  0  0  0  0  # atno 17343 bound_to 10162
  157.5194  130.7988  149.7792 LP  0  0  0  0  0  0  0  0  0  0  0  0  # atno 17370 bound_to 10713
  156.0077  130.3848  150.2373 LP  0  0  0  0  0  0  0  0  0  0  0  0  # atno 17371 bound_to 10713
  140.2833  134.8299  157.3952 LP  0  0  0  0  0  0  0  0  0  0  0  0  # atno 17394 bound_to 11000
  140.1413  134.4968  155.8029 LP  0  0  0  0  0  0  0  0  0  0  0  0  # atno 17395 bound_to 11000

$$$$
