AV-unprocessed.smi:40|AV-procd|sdf|378|dock10
  -GOLD-   2262016233D 1   1.00000     0.00000
 Structure written by MMmdl.
 47 48  0  0  0  0  0  0  0  0  1 V2000
  153.4311  141.2614  160.8411 C   0  0  0  0  0  0  0  0  0  0  0  0
  153.1713  142.3711  159.8169 C   0  0  0  0  0  0  0  0  0  0  0  0
  152.6184  143.6502  160.4617 C   0  0  0  0  0  0  0  0  0  0  0  0
  152.0908  144.6502  159.4248 C   0  0  0  0  0  0  0  0  0  0  0  0
  150.7164  144.2452  158.8708 C   0  0  0  0  0  0  0  0  0  0  0  0
  150.8581  143.5497  157.6396 O   0  0  0  0  0  0  0  0  0  0  0  0
  150.0954  142.4677  157.3650 C   0  0  0  0  0  0  0  0  0  0  0  0
  149.5705  141.7526  158.2183 O   0  0  0  0  0  0  0  0  0  0  0  0
  149.9507  142.2847  155.9354 N   0  0  0  0  0  0  0  0  0  0  0  0
  149.2577  141.3077  155.3116 C   0  0  0  0  0  0  0  0  0  0  0  0
  149.8921  140.1784  155.0610 N   0  0  0  0  0  0  0  0  0  0  0  0
  149.3151  139.1049  154.4376 C   0  0  0  0  0  0  0  0  0  0  0  0
  149.9456  138.0596  154.2866 O   0  0  0  0  0  0  0  0  0  0  0  0
  147.9767  139.2422  153.9912 N   0  0  0  0  0  0  0  0  0  0  0  0
  147.3052  138.0482  153.3300 C   0  0  1  0  0  0  0  0  0  0  0  0
  146.8288  137.1712  154.3141 O   0  0  0  0  0  0  0  0  0  0  0  0
  145.4125  137.2600  154.4419 C   0  0  1  0  0  0  0  0  0  0  0  0
  145.0224  138.3121  155.4990 C   0  0  0  0  0  0  0  0  0  0  0  0
  144.9664  137.5696  153.0115 C   0  0  1  0  0  0  0  0  0  0  0  0
  143.7089  138.2153  152.9591 O   0  0  0  0  0  0  0  0  0  0  0  0
  146.0804  138.4600  152.4747 C   0  0  2  0  0  0  0  0  0  0  0  0
  146.2797  138.1850  151.1023 O   0  0  0  0  0  0  0  0  0  0  0  0
  147.2858  140.4133  154.2807 C   0  0  0  0  0  0  0  0  0  0  0  0
  147.8711  141.4554  154.9087 C   0  0  0  0  0  0  0  0  0  0  0  0
  147.1807  142.5876  155.1320 F   0  0  0  0  0  0  0  0  0  0  0  0
  148.1040  137.5649  152.7647 H   0  0  0  0  0  0  0  0  0  0  0  0
  145.0233  136.2923  154.7599 H   0  0  0  0  0  0  0  0  0  0  0  0
  144.9197  136.6350  152.4496 H   0  0  0  0  0  0  0  0  0  0  0  0
  145.8442  139.5137  152.6326 H   0  0  0  0  0  0  0  0  0  0  0  0
  153.8216  140.3675  160.3542 H   0  0  0  0  0  0  0  0  0  0  0  0
  152.5136  140.9827  161.3603 H   0  0  0  0  0  0  0  0  0  0  0  0
  154.1580  141.5779  161.5896 H   0  0  0  0  0  0  0  0  0  0  0  0
  154.0985  142.5983  159.2895 H   0  0  0  0  0  0  0  0  0  0  0  0
  152.4698  142.0071  159.0654 H   0  0  0  0  0  0  0  0  0  0  0  0
  151.8158  143.3899  161.1529 H   0  0  0  0  0  0  0  0  0  0  0  0
  153.3990  144.1232  161.0588 H   0  0  0  0  0  0  0  0  0  0  0  0
  152.0200  145.6414  159.8745 H   0  0  0  0  0  0  0  0  0  0  0  0
  152.8075  144.7327  158.6067 H   0  0  0  0  0  0  0  0  0  0  0  0
  150.1644  143.6456  159.5963 H   0  0  0  0  0  0  0  0  0  0  0  0
  150.1192  145.1388  158.6877 H   0  0  0  0  0  0  0  0  0  0  0  0
  150.4662  142.9417  155.3684 H   0  0  0  0  0  0  0  0  0  0  0  0
  143.9423  138.3411  155.6436 H   0  0  0  0  0  0  0  0  0  0  0  0
  145.3427  139.3145  155.2159 H   0  0  0  0  0  0  0  0  0  0  0  0
  145.4696  138.0762  156.4645 H   0  0  0  0  0  0  0  0  0  0  0  0
  143.8273  139.0648  152.5619 H   0  0  0  0  0  0  0  0  0  0  0  0
  145.4626  138.3313  150.6493 H   0  0  0  0  0  0  0  0  0  0  0  0
  146.2493  140.5302  154.0042 H   0  0  0  0  0  0  0  0  0  0  0  0
  1  2  1  0  0  0  0
  1 30  1  0  0  0  0
  1 31  1  0  0  0  0
  1 32  1  0  0  0  0
  2  3  1  0  0  0  0
  2 33  1  0  0  0  0
  2 34  1  0  0  0  0
  3  4  1  0  0  0  0
  3 35  1  0  0  0  0
  3 36  1  0  0  0  0
  4  5  1  0  0  0  0
  4 37  1  0  0  0  0
  4 38  1  0  0  0  0
  5  6  1  0  0  0  0
  5 39  1  0  0  0  0
  5 40  1  0  0  0  0
  6  7  1  0  0  0  0
  7  8  2  0  0  0  0
  7  9  1  0  0  0  0
  9 10  1  0  0  0  0
  9 41  1  0  0  0  0
 10 24  1  0  0  0  0
 10 11  2  0  0  0  0
 11 12  1  0  0  0  0
 12 13  2  0  0  0  0
 12 14  1  0  0  0  0
 14 15  1  0  0  0  0
 14 23  1  0  0  0  0
 15 26  1  0  0  0  0
 15 21  1  0  0  0  0
 15 16  1  0  0  0  0
 16 17  1  0  0  0  0
 17 27  1  0  0  0  0
 17 18  1  0  0  0  0
 17 19  1  0  0  0  0
 18 42  1  0  0  0  0
 18 43  1  0  0  0  0
 18 44  1  0  0  0  0
 19 28  1  0  0  0  0
 19 20  1  0  0  0  0
 19 21  1  0  0  0  0
 20 45  1  0  0  0  0
 21 29  1  0  0  0  0
 21 22  1  0  0  0  0
 22 46  1  0  0  0  0
 23 24  2  0  0  0  0
 23 47  1  0  0  0  0
 24 25  1  0  0  0  0
M  END
> <s_m_source_file>
AV-unprocessed.smi

> <i_m_source_file_index>
40

> <i_lp_mmshare_version>
43012

> <i_f3d_flags>
0

> <s_epik_input>
W0NIM11bQ0gyXVtDSDJdW0NIMl1bQ0gyXU9DKD1PKVtOSF1jMW5jKD1PKW4oW2NIXWMxRilbQ0BASF0yT1tDQEhdKFtDSDNdKVtDQEBIXShbT0hdKVtDQEhdMltPSF0=

> <s_epik_cmdline>
J2VwaWtfcHl0aG9uJywgJy1waCcsICc3LjAnLCAnLXRuJywgJzgnLCAnLW1hJywgJzIwMCcsICctbWV0YWxfYmluZGluZycsICctaW1hZScsICc8aW5maWxlLm1hZT4nLCAnLW9tYWUnLCAnPG91dGZpbGUubWFlPic=

> <r_lp_tautomer_probability>
1

> <r_epik_Ionization_Penalty>
2.29506e-06

> <r_epik_Ionization_Penalty_Charging>
8.26867e-09

> <r_epik_Ionization_Penalty_Neutral>
2.2868e-06

> <r_epik_State_Penalty>
-0

> <r_epik_Charging_Adjusted_Penalty>
8.26867e-09

> <i_epik_Tot_Q>
0

> <i_epik_Tot_abs_Q>
0

> <r_epik_Metal_State_Penalty>
-0

> <b_epik_Metal_Only>
0

> <s_epik_Chemistry_Notes>
This compound has an ester and may undergo hydrolysis at high or low pH. This compound contains an acetal/aminal-like group ( X-CH(R)-Y where X, Y are N, S, or O) that may be acid/base labile, releasing an aldehyde.

> <s_lp_Force_Field>
OPLS_2005

> <r_lp_Energy>
34.9505

> <b_lp_Chiralities_Consistent>
1

> <s_lp_Variant>
AV-unprocessed.smi:40-12

> <Gold.Version>
5.8.1

> <Gold.Id.Protein>
6NUR|6NUR_protein|mol2

> <Gold.PLP.Fitness>
46.2661

> <Gold.PLP.PLP>
-39.4172

> <Gold.PLP.part.hbond>
-5.9619

> <Gold.PLP.part.metal>
0.0000

> <Gold.PLP.part.buried>
2.9227

> <Gold.PLP.part.nonpolar>
-39.8693

> <Gold.PLP.part.repulsive>
3.2884

> <Gold.PLP.ligand.clash>
0.0000

> <Gold.PLP.ligand.torsion>
2.3894

> <Gold.PLP.Chemscore.Hbond>
3.8228

> <Gold.PLP.Chemscore.CHOScore>
0.0000

> <Gold.PLP.Chemscore.Metal>
0.0000

> <Gold.Chemscore.Hbonds>
donor molecule, donor type, donor heavy atom, donor atom, acceptor molecule, acceptor atom, score
      L1  H    20    45       P1 10175  0.63
      L1  H    22    46       P1 10171  1.00
      P1  H  7954  7966       L1    22  0.42

> <Gold.PLP.Chemscore.Internal.Correction>
0.1596

> <Gold.Rescore>
     Score         DG    S(hbond)    S(metal)    S(lipo)     H(rot)  DE(clash)    DE(int)     intcor
      9.51     -16.20       3.08        0.00      84.60       3.70       4.48       2.22       ----

> <Gold.Chemscore.Fitness>
9.5052

> <Gold.Chemscore.DG>
-16.2035

> <Gold.Chemscore.ZeroCoef>
-5.4800

> <Gold.Chemscore.Hbond>
3.0799

> <Gold.Chemscore.Metal>
0.0000

> <Gold.Chemscore.Lipo>
84.5957

> <Gold.Chemscore.Internal_Hbond>
0.0000

> <Gold.Chemscore.DEClash>
4.4825

> <Gold.Chemscore.DEInternal>
2.2158

> <Gold.Chemscore.Rot>
3.6957

> <Gold.Chemscore.Internal.Correction>
   9.000000E+99

> <Gold.Chemscore.Hbonds>
donor molecule, donor type, donor heavy atom, donor atom, acceptor molecule, acceptor atom, score
      L1  H    20    45       P1 10175  0.63
      L1  H    22    46       P1 10171  1.00
      P1  H  7954  7966       L1    22  0.42
      P1  H  7989  7998       L1    11  0.01

> <Gold.Chemscore.Hbond.Weighted>
-10.2867

> <Gold.Chemscore.Metal.Weighted>
-0.0000

> <Gold.Chemscore.Lipo.Weighted>
-9.8977

> <Gold.Chemscore.Internal_Hbond.Weighted>
0.0000

> <Gold.Chemscore.DEClash.Weighted>
4.4825

> <Gold.Chemscore.DEInternal.Weighted>
2.2158

> <Gold.Chemscore.Rot.Weighted>
9.4610

> <Gold.Chemscore.Internal.Correction.Weighted>
   9.000000E+99

> <Gold.Protein.RotatedTorsions>
[ 6907 6896 6895 6894 ] final   31.75 input  -60.11 | X-H torsion
[ 7974 7965 7964 7962 ] final  154.49 input  175.53 | X-H torsion
[ 8008 7997 7996 7995 ] final  133.85 input   59.86 | X-H torsion
[ 10167 10162 10161 10158 ] final  -20.90 input  -65.29 | X-H torsion
[ 10718 10713 10712 10709 ] final -139.85 input   66.30 | X-H torsion
[ 10763 10752 10751 10750 ] final  116.06 input  -60.55 | X-H torsion
[ 11005 11000 10999 10996 ] final  -16.57 input  -57.11 | X-H torsion

> <Gold.Protein.ActiveResidues>
 VAL166  LYS551  ARG553  GLY616  TRP617  ASP618  TYR619  PRO620  LYS621  CYS622 
 ASP623  PHE694  ASN695  SER759  ASP760  ASP761  ALA762  ILE779  LEU786  VAL792 
 PHE793  MET794  SER795  GLU796  ALA797  LYS798  CYS799  TRP800  GLU811  SER814 

> <Gold.Protein.RotatedAtoms>
  152.0648  134.9571  160.0574 H   0  0  0  0  0  0  0  0  0  0  0  0  # atno 6907 bound_to 6896
  152.0921  133.4201  159.4556 H   0  0  0  0  0  0  0  0  0  0  0  0  # atno 6908 bound_to 6896
  150.6837  134.2779  159.4658 H   0  0  0  0  0  0  0  0  0  0  0  0  # atno 6909 bound_to 6896
  144.8085  139.6941  143.6151 H   0  0  0  0  0  0  0  0  0  0  0  0  # atno 7974 bound_to 7965
  156.2995  140.2511  156.3321 H   0  0  0  0  0  0  0  0  0  0  0  0  # atno 8008 bound_to 7997
  154.9135  140.0402  157.1978 H   0  0  0  0  0  0  0  0  0  0  0  0  # atno 8009 bound_to 7997
  154.8382  140.2886  155.5681 H   0  0  0  0  0  0  0  0  0  0  0  0  # atno 8010 bound_to 7997
  140.7279  143.4678  151.0289 H   0  0  0  0  0  0  0  0  0  0  0  0  # atno 10167 bound_to 10162
  156.3155  130.7505  151.1591 H   0  0  0  0  0  0  0  0  0  0  0  0  # atno 10718 bound_to 10713
  153.5315  135.3577  155.2678 H   0  0  0  0  0  0  0  0  0  0  0  0  # atno 10763 bound_to 10752
  154.8726  135.4069  154.3146 H   0  0  0  0  0  0  0  0  0  0  0  0  # atno 10764 bound_to 10752
  153.3836  135.7069  153.6615 H   0  0  0  0  0  0  0  0  0  0  0  0  # atno 10765 bound_to 10752
  140.8081  133.8162  155.9536 H   0  0  0  0  0  0  0  0  0  0  0  0  # atno 11005 bound_to 11000
  146.2380  139.5945  142.9510 LP  0  0  0  0  0  0  0  0  0  0  0  0  # atno 17320 bound_to 7965
  145.5380  141.0423  143.2346 LP  0  0  0  0  0  0  0  0  0  0  0  0  # atno 17321 bound_to 7965
  139.8368  143.7617  152.3180 LP  0  0  0  0  0  0  0  0  0  0  0  0  # atno 17342 bound_to 10162
  139.7752  144.7463  151.0167 LP  0  0  0  0  0  0  0  0  0  0  0  0  # atno 17343 bound_to 10162
  157.7400  131.0521  150.5191 LP  0  0  0  0  0  0  0  0  0  0  0  0  # atno 17370 bound_to 10713
  156.5336  130.4191  149.6189 LP  0  0  0  0  0  0  0  0  0  0  0  0  # atno 17371 bound_to 10713
  140.9226  134.2122  157.4916 LP  0  0  0  0  0  0  0  0  0  0  0  0  # atno 17394 bound_to 11000
  139.8716  134.9799  156.5054 LP  0  0  0  0  0  0  0  0  0  0  0  0  # atno 17395 bound_to 11000

$$$$
