#       Name:                AV-unprocessed.smi:3265
#       Creating user name   scv26
#       Creation time:       Fri Mar 27 18:39:53 2020


#       File generated by GOLD software.
#

@<TRIPOS>MOLECULE
AV-unprocessed.smi:3265
    44    45     1
SMALL
NO_CHARGES


@<TRIPOS>ATOM
      1 ****        -1.3253   2.9173   3.7073 C.3            1 S1                 0.0000
      2 ****        -1.7584   2.5504   2.2809 C.3            1 S1                 0.0000
      3 ****        -3.2901   2.5060   2.1528 C.3            1 S1                 0.0000
      4 ****        -3.6916   2.1149   0.7255 C.3            1 S1                 0.0000
      5 ****        -3.0336   0.7886   0.3134 C.3            1 S1                 0.0000
      6 ****        -1.5551   0.8581   0.4448 N.4            1 S1                 1.0000
      7 ****        -0.8910  -0.3649  -0.0734 C.3            1 S1                 0.0000
      8 ****         0.5817  -0.1200  -0.4555 C.3            1 S1                 0.0000
      9 ****         1.1951  -1.3153  -1.0217 N.am           1 S1                 0.0000
     10 ****         1.0382  -1.7329  -2.2885 C.2            1 S1                 0.0000
     11 ****         0.3204  -1.1549  -3.1044 O.2            1 S1                 0.0000
     12 ****         1.7943  -2.9998  -2.6977 C.3            1 S1                 0.0000
     13 ****         3.2331  -2.8222  -2.6010 N.pl3          1 S1                 0.0000
     14 ****         4.0798  -3.2198  -1.5869 C.2            1 S1                 0.0000
     15 ****         5.3409  -2.8269  -1.9325 C.2            1 S1                 0.0000
     16 ****         5.1639  -2.1929  -3.1940 C.2            1 S1                 0.0000
     17 ****         3.9020  -2.1917  -3.5916 N.2            1 S1                 0.0000
     18 ****        -1.1454   1.2083   1.8318 C.3            1 S1                 0.0000
     19 ****        -1.6599   2.1708   4.4284 H              1 S1                 0.0000
     20 ****        -1.7400   3.8796   4.0090 H              1 S1                 0.0000
     21 ****        -0.2399   2.9898   3.7820 H              1 S1                 0.0000
     22 ****        -1.3857   3.3306   1.6151 H              1 S1                 0.0000
     23 ****        -3.7034   1.7862   2.8607 H              1 S1                 0.0000
     24 ****        -3.7204   3.4755   2.4064 H              1 S1                 0.0000
     25 ****        -4.7764   2.0305   0.6542 H              1 S1                 0.0000
     26 ****        -3.3966   2.9030   0.0313 H              1 S1                 0.0000
     27 ****        -3.4170  -0.0296   0.9254 H              1 S1                 0.0000
     28 ****        -3.3031   0.5654  -0.7198 H              1 S1                 0.0000
     29 ****        -0.9740  -1.1706   0.6577 H              1 S1                 0.0000
     30 ****        -1.4234  -0.7032  -0.9634 H              1 S1                 0.0000
     31 ****         0.6618   0.7088  -1.1614 H              1 S1                 0.0000
     32 ****         1.1699   0.1591   0.4178 H              1 S1                 0.0000
     33 ****         1.8031  -1.8498  -0.4176 H              1 S1                 0.0000
     34 ****         1.4947  -3.8288  -2.0554 H              1 S1                 0.0000
     35 ****         1.5386  -3.2777  -3.7217 H              1 S1                 0.0000
     36 ****         3.7182  -3.7409  -0.7125 H              1 S1                 0.0000
     37 ****         6.2517  -2.9714  -1.3706 H              1 S1                 0.0000
     38 ****         5.9095  -1.7356  -3.8278 H              1 S1                 0.0000
     39 ****        -0.0603   1.2808   1.8943 H              1 S1                 0.0000
     40 ****        -1.4468   0.4093   2.5113 H              1 S1                 0.0000
     41 ****        -1.2576   1.6169  -0.1518 H              1 S1                 0.0000
     42 ****        -0.1806  -0.3324  -2.8353 LP             1 S1                 0.0000
     43 ****         0.2382  -1.5079  -4.0365 LP             1 S1                 0.0000
     44 ****         3.5270  -1.8097  -4.4363 LP             1 S1                 0.0000
@<TRIPOS>BOND
    1    1    2 1     
    2    1   19 1     
    3    1   20 1     
    4    1   21 1     
    5    2   18 1     
    6    2    3 1     
    7    2   22 1     
    8    3    4 1     
    9    3   23 1     
   10    3   24 1     
   11    4    5 1     
   12    4   25 1     
   13    4   26 1     
   14    5    6 1     
   15    5   27 1     
   16    5   28 1     
   17    6    7 1     
   18    6   18 1     
   19    6   41 1     
   20    7    8 1     
   21    7   29 1     
   22    7   30 1     
   23    8    9 1     
   24    8   31 1     
   25    8   32 1     
   26    9   10 am    
   27    9   33 1     
   28   10   11 2     
   29   10   12 1     
   30   12   13 1     
   31   12   34 1     
   32   12   35 1     
   33   13   17 1     
   34   13   14 1     
   35   14   15 2     
   36   14   36 1     
   37   15   16 1     
   38   15   37 1     
   39   16   17 2     
   40   16   38 1     
   41   18   39 1     
   42   18   40 1     
   43   11   42 1     
   44   11   43 1     
   45   17   44 1     
@<TRIPOS>SUBSTRUCTURE
      1 S1             1
@<TRIPOS>SET
LONE_PAIRS      STATIC     ATOMS    <user>   **** ""
3 42 43 44
DONOR_HYDROGENS      STATIC     ATOMS    <user>   **** ""
2 41 33
ATOM$BLUE        STATIC     ATOMS    COLORGROUP SYSTEM
3 42 43 44
ATOM$RED        STATIC     ATOMS    COLORGROUP SYSTEM
2 41 33
