#       Name:                AV-unprocessed.smi:149
#       Creating user name   scv26
#       Creation time:       Thu Mar 26 18:45:50 2020


#       File generated by GOLD software.
#

@<TRIPOS>MOLECULE
AV-unprocessed.smi:149
    70    74     1
SMALL
NO_CHARGES


@<TRIPOS>ATOM
      1 ****        -5.0449   2.1427   1.7915 C.3            1 S1                 0.0000
      2 ****        -3.8876   1.9484   0.7962 C.3            1 S1                 0.0000
      3 ****        -2.5275   2.1394   1.4895 C.3            1 S1                 0.0000
      4 ****        -1.7890   0.8987   1.3175 N.3            1 S1                 0.0000
      5 ****        -0.4479   0.8793   1.5523 C.ar           1 S1                 0.0000
      6 ****         0.0726   1.8310   2.3734 N.ar           1 S1                 0.0000
      7 ****         1.3801   1.8609   2.6431 C.ar           1 S1                 0.0000
      8 ****         2.3395   1.0462   2.2047 N.ar           1 S1                 0.0000
      9 ****         1.8319   0.0822   1.3852 C.ar           1 S1                 0.0000
     10 ****         0.4643  -0.0808   1.0159 C.ar           1 S1                 0.0000
     11 ****         0.3412  -1.1928   0.1883 N.2            1 S1                 0.0000
     12 ****         1.5552  -1.6552   0.0767 C.2            1 S1                 0.0000
     13 ****         2.5187  -0.9298   0.7371 N.pl3          1 S1                 0.0000
     14 ****         3.9184  -1.2295   0.8090 C.3            1 S1                 0.0000
     15 ****         4.9700  -0.1277   0.6607 C.3            1 S1                 0.0000
     16 ****         5.9248  -1.1370  -0.0138 C.3            1 S1                 0.0000
     17 ****         6.6993  -0.5917  -1.2254 C.3            1 S1                 0.0000
     18 ****         7.6083   0.4201  -0.8418 O.3            1 S1                 0.0000
     19 ****         6.9030  -1.8515   0.9406 C.3            1 S1                 0.0000
     20 ****         7.4550  -3.0078   0.3449 O.3            1 S1                 0.0000
     21 ****         4.6389  -1.9264  -0.3479 C.3            1 S1                 0.0000
     22 ****        -2.3534   0.1878   0.1889 C.3            1 S1                 0.0000
     23 ****        -3.8490   0.5360   0.1617 C.3            1 S1                 0.0000
     24 ****        -4.4356   0.4144  -1.1833 N.3            1 S1                 0.0000
     25 ****        -4.3245  -0.9500  -1.7033 C.3            1 S1                 0.0000
     26 ****        -4.9357  -1.0923  -3.1078 C.3            1 S1                 0.0000
     27 ****        -6.2978  -0.6833  -3.0782 O.3            1 S1                 0.0000
     28 ****        -6.4514   0.6579  -2.6295 C.3            1 S1                 0.0000
     29 ****        -5.8433   0.8088  -1.2241 C.3            1 S1                 0.0000
     30 ****        -4.9803   1.4296   2.6140 H              1 S1                 0.0000
     31 ****        -6.0171   2.0107   1.3192 H              1 S1                 0.0000
     32 ****        -5.0251   3.1448   2.2205 H              1 S1                 0.0000
     33 ****        -3.9647   2.7005   0.0097 H              1 S1                 0.0000
     34 ****        -1.9847   2.9703   1.0361 H              1 S1                 0.0000
     35 ****        -2.6428   2.3567   2.5522 H              1 S1                 0.0000
     36 ****         1.7040   2.6524   3.3028 H              1 S1                 0.0000
     37 ****         1.7807  -2.5398  -0.5011 H              1 S1                 0.0000
     38 ****         4.0623  -1.7783   1.7412 H              1 S1                 0.0000
     39 ****         4.6458   0.6680  -0.0131 H              1 S1                 0.0000
     40 ****         5.3297   0.2840   1.6043 H              1 S1                 0.0000
     41 ****         7.2434  -1.3809  -1.7443 H              1 S1                 0.0000
     42 ****         6.0156  -0.1615  -1.9579 H              1 S1                 0.0000
     43 ****         8.0321   0.7535  -1.6180 H              1 S1                 0.0000
     44 ****         7.7152  -1.1929   1.2488 H              1 S1                 0.0000
     45 ****         6.4021  -2.1595   1.8585 H              1 S1                 0.0000
     46 ****         7.9611  -2.7441  -0.4082 H              1 S1                 0.0000
     47 ****         4.7176  -3.0087  -0.2400 H              1 S1                 0.0000
     48 ****         4.2194  -1.6626  -1.3205 H              1 S1                 0.0000
     49 ****        -1.8555   0.5160  -0.7252 H              1 S1                 0.0000
     50 ****        -2.2186  -0.8887   0.2937 H              1 S1                 0.0000
     51 ****        -4.3578  -0.1518   0.8396 H              1 S1                 0.0000
     52 ****        -3.2794  -1.2550  -1.7536 H              1 S1                 0.0000
     53 ****        -4.8193  -1.6455  -1.0237 H              1 S1                 0.0000
     54 ****        -4.3828  -0.4931  -3.8329 H              1 S1                 0.0000
     55 ****        -4.8824  -2.1286  -3.4409 H              1 S1                 0.0000
     56 ****        -5.9720   1.3413  -3.3322 H              1 S1                 0.0000
     57 ****        -7.5121   0.9083  -2.6124 H              1 S1                 0.0000
     58 ****        -6.4169   0.2104  -0.5146 H              1 S1                 0.0000
     59 ****        -5.9518   1.8493  -0.9216 H              1 S1                 0.0000
     60 ****        -1.9331   0.3243   2.1233 LP             1 S1                 0.0000
     61 ****        -0.5313   2.5165   2.7799 LP             1 S1                 0.0000
     62 ****         3.3063   1.1310   2.4456 LP             1 S1                 0.0000
     63 ****        -0.4923  -1.5562  -0.2280 LP             1 S1                 0.0000
     64 ****         8.2935   0.0398  -0.2206 LP             1 S1                 0.0000
     65 ****         7.1158   1.1594  -0.3827 LP             1 S1                 0.0000
     66 ****         6.7207  -3.6236   0.0591 LP             1 S1                 0.0000
     67 ****         8.0462  -3.4763   1.0015 LP             1 S1                 0.0000
     68 ****        -3.9077   1.0408  -1.7568 LP             1 S1                 0.0000
     69 ****        -6.8014  -1.2881  -2.4613 LP             1 S1                 0.0000
     70 ****        -6.6759  -0.7586  -4.0009 LP             1 S1                 0.0000
@<TRIPOS>BOND
    1    1    2 1     
    2    1   30 1     
    3    1   31 1     
    4    1   32 1     
    5    2   23 1     
    6    2    3 1     
    7    2   33 1     
    8    3    4 1     
    9    3   34 1     
   10    3   35 1     
   11    4    5 1     
   12    4   22 1     
   13    5   10 ar    
   14    5    6 ar    
   15    6    7 ar    
   16    7    8 ar    
   17    7   36 1     
   18    8    9 ar    
   19    9   13 1     
   20    9   10 ar    
   21   10   11 1     
   22   11   12 2     
   23   12   13 1     
   24   12   37 1     
   25   13   14 1     
   26   14   21 1     
   27   14   15 1     
   28   14   38 1     
   29   15   16 1     
   30   15   39 1     
   31   15   40 1     
   32   16   17 1     
   33   16   19 1     
   34   16   21 1     
   35   17   18 1     
   36   17   41 1     
   37   17   42 1     
   38   18   43 1     
   39   19   20 1     
   40   19   44 1     
   41   19   45 1     
   42   20   46 1     
   43   21   47 1     
   44   21   48 1     
   45   22   23 1     
   46   22   49 1     
   47   22   50 1     
   48   23   24 1     
   49   23   51 1     
   50   24   29 1     
   51   24   25 1     
   52   25   26 1     
   53   25   52 1     
   54   25   53 1     
   55   26   27 1     
   56   26   54 1     
   57   26   55 1     
   58   27   28 1     
   59   28   29 1     
   60   28   56 1     
   61   28   57 1     
   62   29   58 1     
   63   29   59 1     
   64    4   60 1     
   65    6   61 1     
   66    8   62 1     
   67   11   63 1     
   68   18   64 1     
   69   18   65 1     
   70   20   66 1     
   71   20   67 1     
   72   24   68 1     
   73   27   69 1     
   74   27   70 1     
@<TRIPOS>SUBSTRUCTURE
      1 S1             1
@<TRIPOS>SET
LONE_PAIRS      STATIC     ATOMS    <user>   **** ""
11 60 61 62 63 64 65 66 67 68 69 70
DONOR_HYDROGENS      STATIC     ATOMS    <user>   **** ""
2 43 46
ATOM$BLUE        STATIC     ATOMS    COLORGROUP SYSTEM
11 60 61 62 63 64 65 66 67 68 69 70
ATOM$RED        STATIC     ATOMS    COLORGROUP SYSTEM
2 43 46
