AV-unprocessed.smi:1507|AV-procd|sdf|6085|dock5
  -GOLD-   22720 6203D 1   1.00000     0.00000
 Structure written by MMmdl.
 33 34  0  0  0  0  0  0  0  0  4 V2000
  153.5148  134.3012  158.6270 N   0  5  0  0  0  0  0  0  0  0  0  0
  153.4119  135.8139  158.0586 S   0  0  0  0  0  0  0  0  0  0  0  0
  154.7627  136.3568  157.8527 O   0  0  0  0  0  0  0  0  0  0  0  0
  152.5189  135.8846  156.8882 O   0  0  0  0  0  0  0  0  0  0  0  0
  152.7544  136.4588  159.4078 N   0  5  0  0  0  0  0  0  0  0  0  0
  153.5044  137.3165  160.3239 C   0  0  0  0  0  0  0  0  0  0  0  0
  153.1887  138.7943  160.1362 C   0  0  0  0  0  0  0  0  0  0  0  0
  153.8258  139.7782  160.9255 C   0  0  0  0  0  0  0  0  0  0  0  0
  153.4846  141.1357  160.7530 C   0  0  0  0  0  0  0  0  0  0  0  0
  152.5102  141.5039  159.7937 C   0  0  0  0  0  0  0  0  0  0  0  0
  152.1214  142.8454  159.5859 N   0  0  0  0  0  0  0  0  0  0  0  0
  152.2916  143.4057  158.2464 C   0  0  0  0  0  0  0  0  0  0  0  0
  151.5548  144.7499  158.1280 C   0  0  0  0  0  0  0  0  0  0  0  0
  151.9971  145.6293  159.1559 O   0  0  0  0  0  0  0  0  0  0  0  0
  151.7078  145.1154  160.4512 C   0  0  0  0  0  0  0  0  0  0  0  0
  152.4454  143.7816  160.6596 C   0  0  0  0  0  0  0  0  0  0  0  0
  151.9284  140.5217  159.0615 N   0  3  0  0  0  0  0  0  0  0  0  0
  152.2242  139.2101  159.1927 C   0  0  0  0  0  0  0  0  0  0  0  0
  153.4896  133.6554  157.8291 H   0  0  0  0  0  0  0  0  0  0  0  0
  153.2813  137.0687  161.3623 H   0  0  0  0  0  0  0  0  0  0  0  0
  154.5809  137.1729  160.2250 H   0  0  0  0  0  0  0  0  0  0  0  0
  154.5583  139.5087  161.6743 H   0  0  0  0  0  0  0  0  0  0  0  0
  153.9606  141.8731  161.3807 H   0  0  0  0  0  0  0  0  0  0  0  0
  153.3550  143.5428  158.0457 H   0  0  0  0  0  0  0  0  0  0  0  0
  151.9021  142.7180  157.4947 H   0  0  0  0  0  0  0  0  0  0  0  0
  151.7577  145.2049  157.1586 H   0  0  0  0  0  0  0  0  0  0  0  0
  150.4746  144.6092  158.1933 H   0  0  0  0  0  0  0  0  0  0  0  0
  152.0269  145.8408  161.1996 H   0  0  0  0  0  0  0  0  0  0  0  0
  150.6309  144.9873  160.5718 H   0  0  0  0  0  0  0  0  0  0  0  0
  152.1789  143.3847  161.6376 H   0  0  0  0  0  0  0  0  0  0  0  0
  153.5233  143.9487  160.6663 H   0  0  0  0  0  0  0  0  0  0  0  0
  151.6640  138.5422  158.5523 H   0  0  0  0  0  0  0  0  0  0  0  0
  151.2186  140.7837  158.3779 H   0  0  0  0  0  0  0  0  0  0  0  0
  1  2  1  0  0  0  0
  1 19  1  0  0  0  0
  2  3  2  0  0  0  0
  2  4  2  0  0  0  0
  2  5  1  0  0  0  0
  5  6  1  0  0  0  0
  6  7  1  0  0  0  0
  6 20  1  0  0  0  0
  6 21  1  0  0  0  0
  7 18  1  0  0  0  0
  7  8  2  0  0  0  0
  8  9  1  0  0  0  0
  8 22  1  0  0  0  0
  9 10  2  0  0  0  0
  9 23  1  0  0  0  0
 10 11  1  0  0  0  0
 10 17  1  0  0  0  0
 11 16  1  0  0  0  0
 11 12  1  0  0  0  0
 12 13  1  0  0  0  0
 12 24  1  0  0  0  0
 12 25  1  0  0  0  0
 13 14  1  0  0  0  0
 13 26  1  0  0  0  0
 13 27  1  0  0  0  0
 14 15  1  0  0  0  0
 15 16  1  0  0  0  0
 15 28  1  0  0  0  0
 15 29  1  0  0  0  0
 16 30  1  0  0  0  0
 16 31  1  0  0  0  0
 17 18  2  0  0  0  0
 17 33  1  0  0  0  0
 18 32  1  0  0  0  0
M  CHG  1   1  -1
M  CHG  1   5  -1
M  CHG  1  17   1
M  END
> <s_m_source_file>
AV-unprocessed.smi

> <i_m_source_file_index>
1507

> <i_lp_mmshare_version>
43012

> <i_f3d_flags>
0

> <s_epik_input>
W05IMl1TKD1PKSg9TylbTkhdW0NIMl1jMVtjSF1bY0hdYyhuW2NIXTEpTjJbQ0gyXVtDSDJdT1tDSDJdW0NIMl0y

> <s_epik_cmdline>
J2VwaWtfcHl0aG9uJywgJy1waCcsICc3LjAnLCAnLXRuJywgJzgnLCAnLW1hJywgJzIwMCcsICctbWV0YWxfYmluZGluZycsICctaW1hZScsICc8aW5maWxlLm1hZT4nLCAnLW9tYWUnLCAnPG91dGZpbGUubWFlPic=

> <r_epik_Ionization_Penalty>
8.77184

> <r_epik_Ionization_Penalty_Charging>
8.77184

> <r_epik_Ionization_Penalty_Neutral>
3.18726e-12

> <r_epik_State_Penalty>
5.60098

> <r_epik_Charging_Adjusted_Penalty>
14.3728

> <i_epik_Tot_Q>
-1

> <i_epik_Tot_abs_Q>
3

> <r_epik_Metal_State_Penalty>
2.46454

> <b_epik_Metal_Only>
1

> <s_lp_Force_Field>
OPLS_2005

> <r_lp_Energy>
15.9769

> <b_lp_Chiralities_Consistent>
1

> <s_lp_Variant>
AV-unprocessed.smi:1507-6

> <Gold.Version>
5.8.1

> <Gold.Id.Protein>
6NUR|6NUR_protein|mol2

> <Gold.PLP.Fitness>
44.6784

> <Gold.PLP.PLP>
-33.7993

> <Gold.PLP.part.hbond>
-3.8012

> <Gold.PLP.part.metal>
0.0000

> <Gold.PLP.part.buried>
-6.7298

> <Gold.PLP.part.nonpolar>
-25.3697

> <Gold.PLP.part.repulsive>
0.2494

> <Gold.PLP.ligand.clash>
0.0000

> <Gold.PLP.ligand.torsion>
0.9122

> <Gold.PLP.Chemscore.Hbond>
3.7717

> <Gold.PLP.Chemscore.CHOScore>
0.0000

> <Gold.PLP.Chemscore.Metal>
0.0000

> <Gold.Chemscore.Hbonds>
donor molecule, donor type, donor heavy atom, donor atom, acceptor molecule, acceptor atom, score
      P1  H  6896  6908       L1     5  1.60
      P1  H  6896  6909       L1     1  1.18
      P1  H 10752 10764       L1     4  1.00

> <Gold.PLP.Chemscore.Internal.Correction>
1.3885

> <Gold.Rescore>
     Score         DG    S(hbond)    S(metal)    S(lipo)     H(rot)  DE(clash)    DE(int)     intcor
     16.13     -17.11       2.11        0.00      80.53       1.89       0.04       0.94       ----

> <Gold.Chemscore.Fitness>
16.1341

> <Gold.Chemscore.DG>
-17.1094

> <Gold.Chemscore.ZeroCoef>
-5.4800

> <Gold.Chemscore.Hbond>
2.1111

> <Gold.Chemscore.Metal>
0.0000

> <Gold.Chemscore.Lipo>
80.5335

> <Gold.Chemscore.Internal_Hbond>
0.0000

> <Gold.Chemscore.DEClash>
0.0358

> <Gold.Chemscore.DEInternal>
0.9394

> <Gold.Chemscore.Rot>
1.8922

> <Gold.Chemscore.Internal.Correction>
   9.000000E+99

> <Gold.Chemscore.Hbonds>
donor molecule, donor type, donor heavy atom, donor atom, acceptor molecule, acceptor atom, score
      P1  H  6896  6908       L1     5  0.31
      P1  H  6896  6909       L1     1  0.22
      P1  H 10752 10764       L1     4  0.65

> <Gold.Chemscore.Hbond.Weighted>
-7.0511

> <Gold.Chemscore.Metal.Weighted>
-0.0000

> <Gold.Chemscore.Lipo.Weighted>
-9.4224

> <Gold.Chemscore.Internal_Hbond.Weighted>
0.0000

> <Gold.Chemscore.DEClash.Weighted>
0.0358

> <Gold.Chemscore.DEInternal.Weighted>
0.9394

> <Gold.Chemscore.Rot.Weighted>
4.8441

> <Gold.Chemscore.Internal.Correction.Weighted>
   9.000000E+99

> <Gold.Protein.RotatedTorsions>
[ 6907 6896 6895 6894 ] final -115.74 input  -60.11 | X-H torsion
[ 7974 7965 7964 7962 ] final   58.33 input  175.53 | X-H torsion
[ 8008 7997 7996 7995 ] final -113.49 input   59.86 | X-H torsion
[ 10167 10162 10161 10158 ] final  162.56 input  -65.29 | X-H torsion
[ 10718 10713 10712 10709 ] final   28.44 input   66.30 | X-H torsion
[ 10763 10752 10751 10750 ] final   -1.43 input  -60.55 | X-H torsion
[ 11005 11000 10999 10996 ] final  -91.85 input  -57.11 | X-H torsion

> <Gold.Protein.ActiveResidues>
 VAL166  LYS551  ARG553  GLY616  TRP617  ASP618  TYR619  PRO620  LYS621  CYS622 
 ASP623  PHE694  ASN695  SER759  ASP760  ASP761  ALA762  ILE779  LEU786  VAL792 
 PHE793  MET794  SER795  GLU796  ALA797  LYS798  CYS799  TRP800  GLU811  SER814 

> <Gold.Protein.RotatedAtoms>
  150.8001  133.8616  159.3233 H   0  0  0  0  0  0  0  0  0  0  0  0  # atno 6907 bound_to 6896
  151.6430  135.1009  160.0155 H   0  0  0  0  0  0  0  0  0  0  0  0  # atno 6908 bound_to 6896
  152.4087  133.6890  159.6414 H   0  0  0  0  0  0  0  0  0  0  0  0  # atno 6909 bound_to 6896
  145.9194  139.3717  143.0488 H   0  0  0  0  0  0  0  0  0  0  0  0  # atno 7974 bound_to 7965
  155.0216  140.0393  157.2439 H   0  0  0  0  0  0  0  0  0  0  0  0  # atno 8008 bound_to 7997
  154.7373  140.2742  155.6380 H   0  0  0  0  0  0  0  0  0  0  0  0  # atno 8009 bound_to 7997
  156.2856  140.2672  156.2091 H   0  0  0  0  0  0  0  0  0  0  0  0  # atno 8010 bound_to 7997
  139.4862  144.4425  151.8933 H   0  0  0  0  0  0  0  0  0  0  0  0  # atno 10167 bound_to 10162
  157.2335  130.7035  149.6325 H   0  0  0  0  0  0  0  0  0  0  0  0  # atno 10718 bound_to 10713
  153.3448  135.6982  153.6837 H   0  0  0  0  0  0  0  0  0  0  0  0  # atno 10763 bound_to 10752
  153.5588  135.3539  155.2791 H   0  0  0  0  0  0  0  0  0  0  0  0  # atno 10764 bound_to 10752
  154.8643  135.4244  154.2669 H   0  0  0  0  0  0  0  0  0  0  0  0  # atno 10765 bound_to 10752
  141.1535  133.7782  156.9938 H   0  0  0  0  0  0  0  0  0  0  0  0  # atno 11005 bound_to 11000
  145.8570  140.9497  143.0720 LP  0  0  0  0  0  0  0  0  0  0  0  0  # atno 17320 bound_to 7965
  144.6751  140.0481  143.7479 LP  0  0  0  0  0  0  0  0  0  0  0  0  # atno 17321 bound_to 7965
  140.3878  144.2654  150.5902 LP  0  0  0  0  0  0  0  0  0  0  0  0  # atno 17342 bound_to 10162
  140.5174  143.2274  151.8442 LP  0  0  0  0  0  0  0  0  0  0  0  0  # atno 17343 bound_to 10162
  155.9674  130.4481  150.5606 LP  0  0  0  0  0  0  0  0  0  0  0  0  # atno 17370 bound_to 10713
  157.3453  131.0724  151.1756 LP  0  0  0  0  0  0  0  0  0  0  0  0  # atno 17371 bound_to 10713
  140.0985  134.9549  157.1887 LP  0  0  0  0  0  0  0  0  0  0  0  0  # atno 17394 bound_to 11000
  140.3349  134.2768  155.7221 LP  0  0  0  0  0  0  0  0  0  0  0  0  # atno 17395 bound_to 11000

$$$$
