AV-unprocessed.smi:1417|AV-procd|sdf|5765|dock9
  -GOLD-   22720 5403D 1   1.00000     0.00000
 Structure written by MMmdl.
 39 40  0  0  0  0  0  0  0  0  1 V2000
  153.7837  142.8022  160.0846 C   0  0  0  0  0  0  0  0  0  0  0  0
  152.7276  142.4028  159.1117 C   0  0  0  0  0  0  0  0  0  0  0  0
  151.7698  143.1062  158.4372 C   0  0  0  0  0  0  0  0  0  0  0  0
  151.1057  142.0970  157.6804 C   0  0  0  0  0  0  0  0  0  0  0  0
  150.0089  142.2894  156.8009 N   0  0  0  0  0  0  0  0  0  0  0  0
  149.1738  141.3678  156.2925 C   0  0  0  0  0  0  0  0  0  0  0  0
  149.2079  140.1617  156.5363 O   0  0  0  0  0  0  0  0  0  0  0  0
  148.2767  141.9302  155.4695 N   0  0  0  0  0  0  0  0  0  0  0  0
  147.2314  141.2138  154.7446 C   0  0  0  0  0  0  0  0  0  0  0  0
  146.3771  140.3680  155.7042 C   0  0  0  0  0  0  0  0  0  0  0  0
  145.3723  139.4909  154.9370 C   0  0  0  0  0  0  0  0  0  0  0  0
  146.0732  138.6143  153.9874 N   0  0  0  0  0  0  0  0  0  0  0  0
  145.1514  137.6945  153.2815 C   0  0  0  0  0  0  0  0  0  0  0  0
  145.8392  136.6778  152.3624 C   0  0  0  0  0  0  0  0  0  0  0  0
  145.7946  136.9174  151.0491 N   0  0  0  0  0  0  0  0  0  0  0  0
  146.3943  135.6872  152.8321 O   0  0  0  0  0  0  0  0  0  0  0  0
  146.8029  139.4197  153.0028 C   0  0  0  0  0  0  0  0  0  0  0  0
  147.8663  140.2888  153.6964 C   0  0  0  0  0  0  0  0  0  0  0  0
  151.6141  140.8950  157.8802 N   0  0  0  0  0  0  0  0  0  0  0  0
  152.6568  141.0822  158.7951 O   0  0  0  0  0  0  0  0  0  0  0  0
  153.6281  143.8239  160.4314 H   0  0  0  0  0  0  0  0  0  0  0  0
  154.7712  142.7469  159.6264 H   0  0  0  0  0  0  0  0  0  0  0  0
  153.7766  142.1459  160.9550 H   0  0  0  0  0  0  0  0  0  0  0  0
  151.5866  144.1687  158.4910 H   0  0  0  0  0  0  0  0  0  0  0  0
  149.8443  143.2452  156.5218 H   0  0  0  0  0  0  0  0  0  0  0  0
  148.3216  142.9288  155.3292 H   0  0  0  0  0  0  0  0  0  0  0  0
  146.5904  141.9325  154.2300 H   0  0  0  0  0  0  0  0  0  0  0  0
  147.0210  139.7308  156.3129 H   0  0  0  0  0  0  0  0  0  0  0  0
  145.8392  141.0146  156.3982 H   0  0  0  0  0  0  0  0  0  0  0  0
  144.8107  138.9075  155.6663 H   0  0  0  0  0  0  0  0  0  0  0  0
  144.6490  140.1159  154.4102 H   0  0  0  0  0  0  0  0  0  0  0  0
  144.5369  137.1596  154.0083 H   0  0  0  0  0  0  0  0  0  0  0  0
  144.4645  138.2727  152.6618 H   0  0  0  0  0  0  0  0  0  0  0  0
  146.2276  136.2699  150.4068 H   0  0  0  0  0  0  0  0  0  0  0  0
  145.3219  137.7399  150.7037 H   0  0  0  0  0  0  0  0  0  0  0  0
  147.2996  138.7651  152.2852 H   0  0  0  0  0  0  0  0  0  0  0  0
  146.1124  140.0462  152.4351 H   0  0  0  0  0  0  0  0  0  0  0  0
  148.4016  140.8800  152.9526 H   0  0  0  0  0  0  0  0  0  0  0  0
  148.6076  139.6420  154.1687 H   0  0  0  0  0  0  0  0  0  0  0  0
  1  2  1  0  0  0  0
  1 21  1  0  0  0  0
  1 22  1  0  0  0  0
  1 23  1  0  0  0  0
  2 20  1  0  0  0  0
  2  3  2  0  0  0  0
  3  4  1  0  0  0  0
  3 24  1  0  0  0  0
  4  5  1  0  0  0  0
  4 19  2  0  0  0  0
  5  6  1  0  0  0  0
  5 25  1  0  0  0  0
  6  7  2  0  0  0  0
  6  8  1  0  0  0  0
  8  9  1  0  0  0  0
  8 26  1  0  0  0  0
  9 18  1  0  0  0  0
  9 10  1  0  0  0  0
  9 27  1  0  0  0  0
 10 11  1  0  0  0  0
 10 28  1  0  0  0  0
 10 29  1  0  0  0  0
 11 12  1  0  0  0  0
 11 30  1  0  0  0  0
 11 31  1  0  0  0  0
 12 13  1  0  0  0  0
 12 17  1  0  0  0  0
 13 14  1  0  0  0  0
 13 32  1  0  0  0  0
 13 33  1  0  0  0  0
 14 15  1  0  0  0  0
 14 16  2  0  0  0  0
 15 34  1  0  0  0  0
 15 35  1  0  0  0  0
 17 18  1  0  0  0  0
 17 36  1  0  0  0  0
 17 37  1  0  0  0  0
 18 38  1  0  0  0  0
 18 39  1  0  0  0  0
 19 20  1  0  0  0  0
M  END
> <s_m_source_file>
AV-unprocessed.smi

> <i_m_source_file_index>
1417

> <i_lp_mmshare_version>
43012

> <i_f3d_flags>
0

> <s_epik_input>
W0NIM11jMVtjSF1jKG5vMSlbTkhdQyg9TylbTkhdW0NIXTJbQ0gyXVtDSDJdTihbQ0gyXVtDSDJdMilbQ0gyXUMoPU8pW05IMl0=

> <s_epik_cmdline>
J2VwaWtfcHl0aG9uJywgJy1waCcsICc3LjAnLCAnLXRuJywgJzgnLCAnLW1hJywgJzIwMCcsICctbWV0YWxfYmluZGluZycsICctaW1hZScsICc8aW5maWxlLm1hZT4nLCAnLW9tYWUnLCAnPG91dGZpbGUubWFlPic=

> <r_epik_Ionization_Penalty>
0.155825

> <r_epik_Ionization_Penalty_Charging>
0

> <r_epik_Ionization_Penalty_Neutral>
0.155825

> <r_epik_State_Penalty>
0.145092

> <r_epik_Charging_Adjusted_Penalty>
0.145092

> <i_epik_Tot_Q>
0

> <i_epik_Tot_abs_Q>
0

> <r_epik_Metal_State_Penalty>
0.171119

> <b_epik_Metal_Only>
0

> <s_lp_Force_Field>
OPLS_2005

> <r_lp_Energy>
11.4398

> <b_lp_Chiralities_Consistent>
1

> <s_lp_Variant>
AV-unprocessed.smi:1417-1

> <Gold.Version>
5.8.1

> <Gold.Id.Protein>
6NUR|6NUR_protein|mol2

> <Gold.PLP.Fitness>
31.7002

> <Gold.PLP.PLP>
-23.3403

> <Gold.PLP.part.hbond>
-3.3314

> <Gold.PLP.part.metal>
0.0000

> <Gold.PLP.part.buried>
-1.5873

> <Gold.PLP.part.nonpolar>
-19.3155

> <Gold.PLP.part.repulsive>
1.0829

> <Gold.PLP.ligand.clash>
0.0000

> <Gold.PLP.ligand.torsion>
0.3213

> <Gold.PLP.Chemscore.Hbond>
3.0000

> <Gold.PLP.Chemscore.CHOScore>
0.0000

> <Gold.PLP.Chemscore.Metal>
0.0000

> <Gold.Chemscore.Hbonds>
donor molecule, donor type, donor heavy atom, donor atom, acceptor molecule, acceptor atom, score
      L1  H     5    25       P1  8028  1.00
      L1  H     8    26       P1  8028  1.00
      L1  H    15    35       P1 10171  1.00

> <Gold.PLP.Chemscore.Internal.Correction>
0.0026

> <Gold.Rescore>
     Score         DG    S(hbond)    S(metal)    S(lipo)     H(rot)  DE(clash)    DE(int)     intcor
     13.49     -17.01       2.90        0.00      59.88       2.02       0.89       2.63       ----

> <Gold.Chemscore.Fitness>
13.4915

> <Gold.Chemscore.DG>
-17.0124

> <Gold.Chemscore.ZeroCoef>
-5.4800

> <Gold.Chemscore.Hbond>
2.9046

> <Gold.Chemscore.Metal>
0.0000

> <Gold.Chemscore.Lipo>
59.8845

> <Gold.Chemscore.Internal_Hbond>
0.0000

> <Gold.Chemscore.DEClash>
0.8934

> <Gold.Chemscore.DEInternal>
2.6276

> <Gold.Chemscore.Rot>
2.0217

> <Gold.Chemscore.Internal.Correction>
   9.000000E+99

> <Gold.Chemscore.Hbonds>
donor molecule, donor type, donor heavy atom, donor atom, acceptor molecule, acceptor atom, score
      L1  H     5    25       P1  8028  0.98
      L1  H     8    26       P1  8028  0.98
      L1  H    15    35       P1 10171  0.96

> <Gold.Chemscore.Hbond.Weighted>
-9.7015

> <Gold.Chemscore.Metal.Weighted>
-0.0000

> <Gold.Chemscore.Lipo.Weighted>
-7.0065

> <Gold.Chemscore.Internal_Hbond.Weighted>
0.0000

> <Gold.Chemscore.DEClash.Weighted>
0.8934

> <Gold.Chemscore.DEInternal.Weighted>
2.6276

> <Gold.Chemscore.Rot.Weighted>
5.1755

> <Gold.Chemscore.Internal.Correction.Weighted>
   9.000000E+99

> <Gold.Protein.RotatedTorsions>
[ 6907 6896 6895 6894 ] final  -74.07 input  -60.11 | X-H torsion
[ 7974 7965 7964 7962 ] final   -8.81 input  175.53 | X-H torsion
[ 8008 7997 7996 7995 ] final  146.45 input   59.86 | X-H torsion
[ 10167 10162 10161 10158 ] final   92.73 input  -65.29 | X-H torsion
[ 10718 10713 10712 10709 ] final -160.39 input   66.30 | X-H torsion
[ 10763 10752 10751 10750 ] final  -86.96 input  -60.55 | X-H torsion
[ 11005 11000 10999 10996 ] final   75.93 input  -57.11 | X-H torsion

> <Gold.Protein.ActiveResidues>
 VAL166  LYS551  ARG553  GLY616  TRP617  ASP618  TYR619  PRO620  LYS621  CYS622 
 ASP623  PHE694  ASN695  SER759  ASP760  ASP761  ALA762  ILE779  LEU786  VAL792 
 PHE793  MET794  SER795  GLU796  ALA797  LYS798  CYS799  TRP800  GLU811  SER814 

> <Gold.Protein.RotatedAtoms>
  150.7106  134.4923  159.5521 H   0  0  0  0  0  0  0  0  0  0  0  0  # atno 6907 bound_to 6896
  152.2538  134.8102  160.0451 H   0  0  0  0  0  0  0  0  0  0  0  0  # atno 6908 bound_to 6896
  151.8840  133.3466  159.3813 H   0  0  0  0  0  0  0  0  0  0  0  0  # atno 6909 bound_to 6896
  146.2270  140.2523  142.8348 H   0  0  0  0  0  0  0  0  0  0  0  0  # atno 7974 bound_to 7965
  156.2855  140.2182  156.5378 H   0  0  0  0  0  0  0  0  0  0  0  0  # atno 8008 bound_to 7997
  154.7395  140.0489  157.0820 H   0  0  0  0  0  0  0  0  0  0  0  0  # atno 8009 bound_to 7997
  155.0249  140.3128  155.4782 H   0  0  0  0  0  0  0  0  0  0  0  0  # atno 8010 bound_to 7997
  139.8248  144.6714  150.9473 H   0  0  0  0  0  0  0  0  0  0  0  0  # atno 10167 bound_to 10162
  156.5815  130.8731  151.2866 H   0  0  0  0  0  0  0  0  0  0  0  0  # atno 10718 bound_to 10713
  154.6283  135.5430  153.7652 H   0  0  0  0  0  0  0  0  0  0  0  0  # atno 10763 bound_to 10752
  153.0272  135.6429  154.1339 H   0  0  0  0  0  0  0  0  0  0  0  0  # atno 10764 bound_to 10752
  154.1270  135.2916  155.3174 H   0  0  0  0  0  0  0  0  0  0  0  0  # atno 10765 bound_to 10752
  139.9321  134.7559  156.1332 H   0  0  0  0  0  0  0  0  0  0  0  0  # atno 11005 bound_to 11000
  144.9402  140.8070  143.5635 LP  0  0  0  0  0  0  0  0  0  0  0  0  # atno 17320 bound_to 7965
  145.2474  139.2046  143.4961 LP  0  0  0  0  0  0  0  0  0  0  0  0  # atno 17321 bound_to 7965
  140.7811  143.4057  151.1076 LP  0  0  0  0  0  0  0  0  0  0  0  0  # atno 17342 bound_to 10162
  139.7714  143.8488  152.3121 LP  0  0  0  0  0  0  0  0  0  0  0  0  # atno 17343 bound_to 10162
  157.7325  130.9716  150.1933 LP  0  0  0  0  0  0  0  0  0  0  0  0  # atno 17370 bound_to 10713
  156.2627  130.3712  149.8113 LP  0  0  0  0  0  0  0  0  0  0  0  0  # atno 17371 bound_to 10713
  141.0915  133.6712  156.2552 LP  0  0  0  0  0  0  0  0  0  0  0  0  # atno 17394 bound_to 11000
  140.6174  134.5397  157.5542 LP  0  0  0  0  0  0  0  0  0  0  0  0  # atno 17395 bound_to 11000

$$$$
