AV-unprocessed.smi:3113|AV-procd|sdf|11854|dock4
  -GOLD-   2272017233D 1   1.00000     0.00000
 Structure written by MMmdl.
 34 35  0  0  0  0  0  0  0  0  1 V2000
  151.6617  138.4834  156.2843 C   0  0  0  0  0  0  0  0  0  0  0  0
  151.1840  138.6214  154.9510 C   0  0  0  0  0  0  0  0  0  0  0  0
  150.8124  139.8594  154.6677 N   0  0  0  0  0  0  0  0  0  0  0  0
  151.0385  140.5497  155.8066 N   0  0  0  0  0  0  0  0  0  0  0  0
  150.7346  141.9662  155.8626 C   0  0  0  0  0  0  0  0  0  0  0  0
  150.8362  142.5072  157.2955 C   0  0  0  0  0  0  0  0  0  0  0  0
  151.5743  143.7648  157.3309 N   0  0  0  0  0  0  0  0  0  0  0  0
  151.6090  144.3742  158.6562 C   0  0  0  0  0  0  0  0  0  0  0  0
  151.7145  143.3067  159.7548 C   0  0  2  0  0  0  0  0  0  0  0  0
  152.1335  143.9211  161.1044 C   0  0  0  0  0  0  0  0  0  0  0  0
  152.3203  142.8263  162.1611 C   0  0  0  0  0  0  0  0  0  0  0  0
  153.2851  141.7590  161.6340 C   0  0  0  0  0  0  0  0  0  0  0  0
  152.8259  141.2580  160.2555 C   0  0  0  0  0  0  0  0  0  0  0  0
  152.7016  142.3564  159.3570 O   0  0  0  0  0  0  0  0  0  0  0  0
  151.5533  139.7435  156.7997 C   0  0  0  0  0  0  0  0  0  0  0  0
  152.0266  137.5978  156.7832 H   0  0  0  0  0  0  0  0  0  0  0  0
  151.0966  137.8638  154.1863 H   0  0  0  0  0  0  0  0  0  0  0  0
  151.4270  142.4951  155.2063 H   0  0  0  0  0  0  0  0  0  0  0  0
  149.7325  142.1244  155.4610 H   0  0  0  0  0  0  0  0  0  0  0  0
  149.8343  142.6538  157.7012 H   0  0  0  0  0  0  0  0  0  0  0  0
  151.3276  141.7698  157.9316 H   0  0  0  0  0  0  0  0  0  0  0  0
  151.1683  144.4189  156.6691 H   0  0  0  0  0  0  0  0  0  0  0  0
  152.4437  145.0719  158.7370 H   0  0  0  0  0  0  0  0  0  0  0  0
  150.6996  144.9577  158.8051 H   0  0  0  0  0  0  0  0  0  0  0  0
  150.7491  142.8098  159.8710 H   0  0  0  0  0  0  0  0  0  0  0  0
  153.0657  144.4748  160.9837 H   0  0  0  0  0  0  0  0  0  0  0  0
  151.3851  144.6387  161.4425 H   0  0  0  0  0  0  0  0  0  0  0  0
  152.6952  143.2541  163.0911 H   0  0  0  0  0  0  0  0  0  0  0  0
  151.3566  142.3699  162.3908 H   0  0  0  0  0  0  0  0  0  0  0  0
  154.2879  142.1799  161.5522 H   0  0  0  0  0  0  0  0  0  0  0  0
  153.3498  140.9281  162.3370 H   0  0  0  0  0  0  0  0  0  0  0  0
  153.5531  140.5536  159.8518 H   0  0  0  0  0  0  0  0  0  0  0  0
  151.8760  140.7266  160.3304 H   0  0  0  0  0  0  0  0  0  0  0  0
  151.7951  140.1286  157.7794 H   0  0  0  0  0  0  0  0  0  0  0  0
  1 15  2  0  0  0  0
  1  2  1  0  0  0  0
  1 16  1  0  0  0  0
  2  3  2  0  0  0  0
  2 17  1  0  0  0  0
  3  4  1  0  0  0  0
  4  5  1  0  0  0  0
  4 15  1  0  0  0  0
  5  6  1  0  0  0  0
  5 18  1  0  0  0  0
  5 19  1  0  0  0  0
  6  7  1  0  0  0  0
  6 20  1  0  0  0  0
  6 21  1  0  0  0  0
  7  8  1  0  0  0  0
  7 22  1  0  0  0  0
  8  9  1  0  0  0  0
  8 23  1  0  0  0  0
  8 24  1  0  0  0  0
  9 14  1  0  0  0  0
  9 10  1  0  0  0  0
  9 25  1  0  0  0  0
 10 11  1  0  0  0  0
 10 26  1  0  0  0  0
 10 27  1  0  0  0  0
 11 12  1  0  0  0  0
 11 28  1  0  0  0  0
 11 29  1  0  0  0  0
 12 13  1  0  0  0  0
 12 30  1  0  0  0  0
 12 31  1  0  0  0  0
 13 14  1  0  0  0  0
 13 32  1  0  0  0  0
 13 33  1  0  0  0  0
 15 34  1  0  0  0  0
M  END
> <s_m_source_file>
AV-unprocessed.smi

> <i_m_source_file_index>
3113

> <i_lp_mmshare_version>
43012

> <i_f3d_flags>
0

> <s_epik_input>
W2NIXTFbY0hdW2NIXW5uMVtDSDJdW0NIMl1bTkhdW0NIMl1bQ0BASF0yW0NIMl1bQ0gyXVtDSDJdW0NIMl1PMg==

> <s_epik_cmdline>
J2VwaWtfcHl0aG9uJywgJy1waCcsICc3LjAnLCAnLXRuJywgJzgnLCAnLW1hJywgJzIwMCcsICctbWV0YWxfYmluZGluZycsICctaW1hZScsICc8aW5maWxlLm1hZT4nLCAnLW9tYWUnLCAnPG91dGZpbGUubWFlPic=

> <r_lp_tautomer_probability>
1

> <r_epik_Ionization_Penalty>
2.521

> <r_epik_Ionization_Penalty_Charging>
0

> <r_epik_Ionization_Penalty_Neutral>
2.521

> <r_epik_State_Penalty>
2.68614

> <r_epik_Charging_Adjusted_Penalty>
2.68614

> <i_epik_Tot_Q>
0

> <i_epik_Tot_abs_Q>
0

> <r_epik_Metal_State_Penalty>
2.68493

> <b_epik_Metal_Only>
0

> <s_lp_Force_Field>
OPLS_2005

> <r_lp_Energy>
11.6104

> <b_lp_Chiralities_Consistent>
1

> <s_lp_Variant>
AV-unprocessed.smi:3113-3

> <Gold.Version>
5.8.1

> <Gold.Id.Protein>
6NUR|6NUR_protein|mol2

> <Gold.PLP.Fitness>
44.3676

> <Gold.PLP.PLP>
-40.4157

> <Gold.PLP.part.hbond>
-2.0000

> <Gold.PLP.part.metal>
0.0000

> <Gold.PLP.part.buried>
-4.4439

> <Gold.PLP.part.nonpolar>
-33.7009

> <Gold.PLP.part.repulsive>
0.0889

> <Gold.PLP.ligand.clash>
0.6868

> <Gold.PLP.ligand.torsion>
0.6554

> <Gold.PLP.Chemscore.Hbond>
1.9750

> <Gold.PLP.Chemscore.CHOScore>
0.0000

> <Gold.PLP.Chemscore.Metal>
0.0000

> <Gold.Chemscore.Hbonds>
donor molecule, donor type, donor heavy atom, donor atom, acceptor molecule, acceptor atom, score
      P1  H  7989  7998       L1     3  1.00

> <Gold.PLP.Chemscore.Internal.Correction>
0.0246

> <Gold.Rescore>
     Score         DG    S(hbond)    S(metal)    S(lipo)     H(rot)  DE(clash)    DE(int)     intcor
     18.65     -19.02       1.77        0.00     100.76       1.62       0.02       0.36       ----

> <Gold.Chemscore.Fitness>
18.6483

> <Gold.Chemscore.DG>
-19.0232

> <Gold.Chemscore.ZeroCoef>
-5.4800

> <Gold.Chemscore.Hbond>
1.7678

> <Gold.Chemscore.Metal>
0.0000

> <Gold.Chemscore.Lipo>
100.7627

> <Gold.Chemscore.Internal_Hbond>
0.0000

> <Gold.Chemscore.DEClash>
0.0160

> <Gold.Chemscore.DEInternal>
0.3589

> <Gold.Chemscore.Rot>
1.6213

> <Gold.Chemscore.Internal.Correction>
   9.000000E+99

> <Gold.Chemscore.Hbonds>
donor molecule, donor type, donor heavy atom, donor atom, acceptor molecule, acceptor atom, score
      L1  H     7    22       P1  8028  0.02
      P1  H  7989  7998       L1     3  0.30

> <Gold.Chemscore.Hbond.Weighted>
-5.9045

> <Gold.Chemscore.Metal.Weighted>
-0.0000

> <Gold.Chemscore.Lipo.Weighted>
-11.7892

> <Gold.Chemscore.Internal_Hbond.Weighted>
0.0000

> <Gold.Chemscore.DEClash.Weighted>
0.0160

> <Gold.Chemscore.DEInternal.Weighted>
0.3589

> <Gold.Chemscore.Rot.Weighted>
4.1505

> <Gold.Chemscore.Internal.Correction.Weighted>
   9.000000E+99

> <Gold.Protein.RotatedTorsions>
[ 6907 6896 6895 6894 ] final -125.54 input  -60.11 | X-H torsion
[ 7974 7965 7964 7962 ] final  140.90 input  175.53 | X-H torsion
[ 8008 7997 7996 7995 ] final -121.37 input   59.86 | X-H torsion
[ 10167 10162 10161 10158 ] final  -65.99 input  -65.29 | X-H torsion
[ 10718 10713 10712 10709 ] final  -50.32 input   66.30 | X-H torsion
[ 10763 10752 10751 10750 ] final   53.30 input  -60.55 | X-H torsion
[ 11005 11000 10999 10996 ] final   35.98 input  -57.11 | X-H torsion

> <Gold.Protein.ActiveResidues>
 VAL166  LYS551  ARG553  GLY616  TRP617  ASP618  TYR619  PRO620  LYS621  CYS622 
 ASP623  PHE694  ASN695  SER759  ASP760  ASP761  ALA762  ILE779  LEU786  VAL792 
 PHE793  MET794  SER795  GLU796  ALA797  LYS798  CYS799  TRP800  GLU811  SER814 

> <Gold.Protein.RotatedAtoms>
  150.8878  133.7284  159.2913 H   0  0  0  0  0  0  0  0  0  0  0  0  # atno 6907 bound_to 6896
  151.4844  135.1052  159.9796 H   0  0  0  0  0  0  0  0  0  0  0  0  # atno 6908 bound_to 6896
  152.4801  133.8187  159.7097 H   0  0  0  0  0  0  0  0  0  0  0  0  # atno 6909 bound_to 6896
  144.9144  139.5249  143.5693 H   0  0  0  0  0  0  0  0  0  0  0  0  # atno 7974 bound_to 7965
  155.1469  140.0403  157.2812 H   0  0  0  0  0  0  0  0  0  0  0  0  # atno 8008 bound_to 7997
  154.6432  140.2552  155.7271 H   0  0  0  0  0  0  0  0  0  0  0  0  # atno 8009 bound_to 7997
  156.2542  140.2851  156.0835 H   0  0  0  0  0  0  0  0  0  0  0  0  # atno 8010 bound_to 7997
  140.5690  143.2316  151.6577 H   0  0  0  0  0  0  0  0  0  0  0  0  # atno 10167 bound_to 10162
  156.1811  130.4150  149.9505 H   0  0  0  0  0  0  0  0  0  0  0  0  # atno 10718 bound_to 10713
  152.9794  135.5783  154.4719 H   0  0  0  0  0  0  0  0  0  0  0  0  # atno 10763 bound_to 10752
  154.4281  135.2773  155.1933 H   0  0  0  0  0  0  0  0  0  0  0  0  # atno 10764 bound_to 10752
  154.3653  135.6179  153.5765 H   0  0  0  0  0  0  0  0  0  0  0  0  # atno 10765 bound_to 10752
  140.2372  134.3458  155.7940 H   0  0  0  0  0  0  0  0  0  0  0  0  # atno 11005 bound_to 11000
  146.3175  139.7976  142.8972 LP  0  0  0  0  0  0  0  0  0  0  0  0  # atno 17320 bound_to 7965
  145.3399  141.0285  143.3398 LP  0  0  0  0  0  0  0  0  0  0  0  0  # atno 17321 bound_to 7965
  139.5107  144.3532  152.0632 LP  0  0  0  0  0  0  0  0  0  0  0  0  # atno 17342 bound_to 10162
  140.2668  144.4008  150.6165 LP  0  0  0  0  0  0  0  0  0  0  0  0  # atno 17343 bound_to 10162
  156.7275  130.9030  151.3623 LP  0  0  0  0  0  0  0  0  0  0  0  0  # atno 17370 bound_to 10713
  157.6869  130.9194  150.0409 LP  0  0  0  0  0  0  0  0  0  0  0  0  # atno 17371 bound_to 10713
  141.2213  133.7278  156.8827 LP  0  0  0  0  0  0  0  0  0  0  0  0  # atno 17394 bound_to 11000
  140.1690  134.9113  157.2810 LP  0  0  0  0  0  0  0  0  0  0  0  0  # atno 17395 bound_to 11000

$$$$
