AV-unprocessed.smi:2123|AV-procd|sdf|8649|dock1
  -GOLD-   2272011393D 1   1.00000     0.00000
 Structure written by MMmdl.
 47 48  0  0  0  0  0  0  0  0  1 V2000
  145.5720  135.8195  151.2943 C   0  0  0  0  0  0  0  0  0  0  0  0
  145.4866  136.9170  152.7330 S   0  0  0  0  0  0  0  0  0  0  0  0
  146.5643  138.2532  152.1511 C   0  0  0  0  0  0  0  0  0  0  0  0
  146.8286  139.2862  153.2595 C   0  0  0  0  0  0  0  0  0  0  0  0
  148.0125  138.9260  154.1630 C   0  0  0  0  0  0  0  0  0  0  0  0
  147.8401  138.6434  155.3492 O   0  0  0  0  0  0  0  0  0  0  0  0
  149.2206  138.9417  153.5791 N   0  0  0  0  0  0  0  0  0  0  0  0
  150.4828  138.6364  154.2435 C   0  0  0  0  0  0  0  0  0  0  0  0
  150.8177  139.6227  155.3479 C   0  0  0  0  0  0  0  0  0  0  0  0
  151.8857  139.3831  156.2341 C   0  0  0  0  0  0  0  0  0  0  0  0
  152.1579  140.3252  157.2446 C   0  0  0  0  0  0  0  0  0  0  0  0
  151.3567  141.4885  157.3396 C   0  0  0  0  0  0  0  0  0  0  0  0
  151.6057  142.4440  158.3489 N   0  0  0  0  0  0  0  0  0  0  0  0
  151.8486  143.8272  157.9446 C   0  0  0  0  0  0  0  0  0  0  0  0
  151.7602  144.7809  159.1518 C   0  0  1  0  0  0  0  0  0  0  0  0
  150.3175  145.0500  159.6162 C   0  0  0  0  0  0  0  0  0  0  0  0
  152.5913  144.3101  160.2150 O   0  0  0  0  0  0  0  0  0  0  0  0
  152.3138  142.9778  160.6448 C   0  0  2  0  0  0  0  0  0  0  0  0
  153.2853  142.6343  161.7789 C   0  0  0  0  0  0  0  0  0  0  0  0
  152.4532  142.0108  159.4551 C   0  0  0  0  0  0  0  0  0  0  0  0
  150.3286  141.7120  156.4836 N   0  0  0  0  0  0  0  0  0  0  0  0
  150.0705  140.8053  155.5180 C   0  0  0  0  0  0  0  0  0  0  0  0
  144.9673  134.9286  151.4641 H   0  0  0  0  0  0  0  0  0  0  0  0
  146.6011  135.5102  151.1116 H   0  0  0  0  0  0  0  0  0  0  0  0
  145.1983  136.3278  150.4053 H   0  0  0  0  0  0  0  0  0  0  0  0
  147.5015  137.8147  151.8055 H   0  0  0  0  0  0  0  0  0  0  0  0
  146.0925  138.7290  151.2906 H   0  0  0  0  0  0  0  0  0  0  0  0
  147.0193  140.2615  152.8094 H   0  0  0  0  0  0  0  0  0  0  0  0
  145.9398  139.3952  153.8821 H   0  0  0  0  0  0  0  0  0  0  0  0
  149.2687  139.1835  152.5999 H   0  0  0  0  0  0  0  0  0  0  0  0
  150.4716  137.6237  154.6506 H   0  0  0  0  0  0  0  0  0  0  0  0
  151.2748  138.6514  153.4942 H   0  0  0  0  0  0  0  0  0  0  0  0
  152.4858  138.4894  156.1480 H   0  0  0  0  0  0  0  0  0  0  0  0
  152.9616  140.1365  157.9405 H   0  0  0  0  0  0  0  0  0  0  0  0
  152.8423  143.8902  157.4989 H   0  0  0  0  0  0  0  0  0  0  0  0
  151.1335  144.1383  157.1818 H   0  0  0  0  0  0  0  0  0  0  0  0
  152.1752  145.7414  158.8449 H   0  0  0  0  0  0  0  0  0  0  0  0
  149.7424  145.5337  158.8264 H   0  0  0  0  0  0  0  0  0  0  0  0
  150.3053  145.7098  160.4838 H   0  0  0  0  0  0  0  0  0  0  0  0
  149.7903  144.1345  159.8832 H   0  0  0  0  0  0  0  0  0  0  0  0
  151.3004  142.9235  161.0432 H   0  0  0  0  0  0  0  0  0  0  0  0
  153.1079  141.6270  162.1566 H   0  0  0  0  0  0  0  0  0  0  0  0
  153.1697  143.3265  162.6133 H   0  0  0  0  0  0  0  0  0  0  0  0
  154.3206  142.6885  161.4412 H   0  0  0  0  0  0  0  0  0  0  0  0
  152.2070  141.0028  159.7853 H   0  0  0  0  0  0  0  0  0  0  0  0
  153.4880  141.9853  159.1109 H   0  0  0  0  0  0  0  0  0  0  0  0
  149.2407  141.0316  154.8651 H   0  0  0  0  0  0  0  0  0  0  0  0
  1  2  1  0  0  0  0
  1 23  1  0  0  0  0
  1 24  1  0  0  0  0
  1 25  1  0  0  0  0
  2  3  1  0  0  0  0
  3  4  1  0  0  0  0
  3 26  1  0  0  0  0
  3 27  1  0  0  0  0
  4  5  1  0  0  0  0
  4 28  1  0  0  0  0
  4 29  1  0  0  0  0
  5  6  2  0  0  0  0
  5  7  1  0  0  0  0
  7  8  1  0  0  0  0
  7 30  1  0  0  0  0
  8  9  1  0  0  0  0
  8 31  1  0  0  0  0
  8 32  1  0  0  0  0
  9 22  1  0  0  0  0
  9 10  2  0  0  0  0
 10 11  1  0  0  0  0
 10 33  1  0  0  0  0
 11 12  2  0  0  0  0
 11 34  1  0  0  0  0
 12 13  1  0  0  0  0
 12 21  1  0  0  0  0
 13 20  1  0  0  0  0
 13 14  1  0  0  0  0
 14 15  1  0  0  0  0
 14 35  1  0  0  0  0
 14 36  1  0  0  0  0
 15 16  1  0  0  0  0
 15 17  1  0  0  0  0
 15 37  1  0  0  0  0
 16 38  1  0  0  0  0
 16 39  1  0  0  0  0
 16 40  1  0  0  0  0
 17 18  1  0  0  0  0
 18 19  1  0  0  0  0
 18 20  1  0  0  0  0
 18 41  1  0  0  0  0
 19 42  1  0  0  0  0
 19 43  1  0  0  0  0
 19 44  1  0  0  0  0
 20 45  1  0  0  0  0
 20 46  1  0  0  0  0
 21 22  2  0  0  0  0
 22 47  1  0  0  0  0
M  END
> <s_m_source_file>
AV-unprocessed.smi

> <i_m_source_file_index>
2123

> <i_lp_mmshare_version>
43012

> <i_f3d_flags>
0

> <s_epik_input>
W0NIM11TW0NIMl1bQ0gyXUMoPU8pW05IXVtDSDJdYzFbY0hdW2NIXWMobltjSF0xKU4yW0NIMl1bQ0BASF0oW0NIM10pT1tDQEBIXShbQ0gzXSlbQ0gyXTI=

> <s_epik_cmdline>
J2VwaWtfcHl0aG9uJywgJy1waCcsICc3LjAnLCAnLXRuJywgJzgnLCAnLW1hJywgJzIwMCcsICctbWV0YWxfYmluZGluZycsICctaW1hZScsICc8aW5maWxlLm1hZT4nLCAnLW9tYWUnLCAnPG91dGZpbGUubWFlPic=

> <r_lp_tautomer_probability>
1

> <r_epik_Ionization_Penalty>
0.00642497

> <r_epik_Ionization_Penalty_Charging>
0

> <r_epik_Ionization_Penalty_Neutral>
0.00642497

> <r_epik_State_Penalty>
0.0047515

> <r_epik_Charging_Adjusted_Penalty>
0.0047515

> <i_epik_Tot_Q>
0

> <i_epik_Tot_abs_Q>
0

> <r_epik_Metal_State_Penalty>
-0

> <b_epik_Metal_Only>
0

> <s_lp_Force_Field>
OPLS_2005

> <r_lp_Energy>
17.9077

> <b_lp_Chiralities_Consistent>
1

> <s_lp_Variant>
AV-unprocessed.smi:2123-3

> <Gold.Version>
5.8.1

> <Gold.Id.Protein>
6NUR|6NUR_protein|mol2

> <Gold.PLP.Fitness>
52.3904

> <Gold.PLP.PLP>
-49.9539

> <Gold.PLP.part.hbond>
-1.4510

> <Gold.PLP.part.metal>
0.0000

> <Gold.PLP.part.buried>
-5.4175

> <Gold.PLP.part.nonpolar>
-45.0505

> <Gold.PLP.part.repulsive>
0.3156

> <Gold.PLP.ligand.clash>
0.0000

> <Gold.PLP.ligand.torsion>
0.5297

> <Gold.PLP.Chemscore.Hbond>
0.9913

> <Gold.PLP.Chemscore.CHOScore>
0.0000

> <Gold.PLP.Chemscore.Metal>
0.0000

> <Gold.Chemscore.Hbonds>
donor molecule, donor type, donor heavy atom, donor atom, acceptor molecule, acceptor atom, score
      L1  H     7    30       P1  7957  1.00

> <Gold.PLP.Chemscore.Internal.Correction>
0.5221

> <Gold.Rescore>
     Score         DG    S(hbond)    S(metal)    S(lipo)     H(rot)  DE(clash)    DE(int)     intcor
     18.67     -19.50       0.96        0.00     129.74       1.70       0.05       0.78       ----

> <Gold.Chemscore.Fitness>
18.6714

> <Gold.Chemscore.DG>
-19.5034

> <Gold.Chemscore.ZeroCoef>
-5.4800

> <Gold.Chemscore.Hbond>
0.9607

> <Gold.Chemscore.Metal>
0.0000

> <Gold.Chemscore.Lipo>
129.7370

> <Gold.Chemscore.Internal_Hbond>
0.0000

> <Gold.Chemscore.DEClash>
0.0544

> <Gold.Chemscore.DEInternal>
0.7777

> <Gold.Chemscore.Rot>
1.7049

> <Gold.Chemscore.Internal.Correction>
   9.000000E+99

> <Gold.Chemscore.Hbonds>
donor molecule, donor type, donor heavy atom, donor atom, acceptor molecule, acceptor atom, score
      L1  H     7    30       P1  7957  0.99

> <Gold.Chemscore.Hbond.Weighted>
-3.2089

> <Gold.Chemscore.Metal.Weighted>
-0.0000

> <Gold.Chemscore.Lipo.Weighted>
-15.1792

> <Gold.Chemscore.Internal_Hbond.Weighted>
0.0000

> <Gold.Chemscore.DEClash.Weighted>
0.0544

> <Gold.Chemscore.DEInternal.Weighted>
0.7777

> <Gold.Chemscore.Rot.Weighted>
4.3647

> <Gold.Chemscore.Internal.Correction.Weighted>
   9.000000E+99

> <Gold.Protein.RotatedTorsions>
[ 6907 6896 6895 6894 ] final   -4.74 input  -60.11 | X-H torsion
[ 7974 7965 7964 7962 ] final -143.02 input  175.53 | X-H torsion
[ 8008 7997 7996 7995 ] final -159.67 input   59.86 | X-H torsion
[ 10167 10162 10161 10158 ] final -162.55 input  -65.29 | X-H torsion
[ 10718 10713 10712 10709 ] final -167.01 input   66.30 | X-H torsion
[ 10763 10752 10751 10750 ] final  174.14 input  -60.55 | X-H torsion
[ 11005 11000 10999 10996 ] final  -42.44 input  -57.11 | X-H torsion

> <Gold.Protein.ActiveResidues>
 VAL166  LYS551  ARG553  GLY616  TRP617  ASP618  TYR619  PRO620  LYS621  CYS622 
 ASP623  PHE694  ASN695  SER759  ASP760  ASP761  ALA762  ILE779  LEU786  VAL792 
 PHE793  MET794  SER795  GLU796  ALA797  LYS798  CYS799  TRP800  GLU811  SER814 

> <Gold.Protein.RotatedAtoms>
  151.4928  135.1058  159.9807 H   0  0  0  0  0  0  0  0  0  0  0  0  # atno 6907 bound_to 6896
  152.4734  133.8077  159.6997 H   0  0  0  0  0  0  0  0  0  0  0  0  # atno 6908 bound_to 6896
  150.8756  133.7381  159.2973 H   0  0  0  0  0  0  0  0  0  0  0  0  # atno 6909 bound_to 6896
  144.8400  140.5886  143.5459 H   0  0  0  0  0  0  0  0  0  0  0  0  # atno 7974 bound_to 7965
  155.7660  140.0845  157.2132 H   0  0  0  0  0  0  0  0  0  0  0  0  # atno 8008 bound_to 7997
  154.4000  140.1534  156.2944 H   0  0  0  0  0  0  0  0  0  0  0  0  # atno 8009 bound_to 7997
  155.8793  140.3421  155.5879 H   0  0  0  0  0  0  0  0  0  0  0  0  # atno 8010 bound_to 7997
  139.6384  144.0306  152.2072 H   0  0  0  0  0  0  0  0  0  0  0  0  # atno 10167 bound_to 10162
  156.6761  130.9103  151.3050 H   0  0  0  0  0  0  0  0  0  0  0  0  # atno 10718 bound_to 10713
  154.4498  135.2764  155.1789 H   0  0  0  0  0  0  0  0  0  0  0  0  # atno 10763 bound_to 10752
  154.3621  135.6127  153.5700 H   0  0  0  0  0  0  0  0  0  0  0  0  # atno 10764 bound_to 10752
  152.9846  135.5837  154.4840 H   0  0  0  0  0  0  0  0  0  0  0  0  # atno 10765 bound_to 10752
  141.0315  133.6818  156.2595 H   0  0  0  0  0  0  0  0  0  0  0  0  # atno 11005 bound_to 11000
  145.4714  139.1503  143.3812 LP  0  0  0  0  0  0  0  0  0  0  0  0  # atno 17320 bound_to 7965
  146.2694  140.4848  142.8821 LP  0  0  0  0  0  0  0  0  0  0  0  0  # atno 17321 bound_to 7965
  139.9989  144.6307  150.7747 LP  0  0  0  0  0  0  0  0  0  0  0  0  # atno 17342 bound_to 10162
  140.7478  143.2911  151.3327 LP  0  0  0  0  0  0  0  0  0  0  0  0  # atno 17343 bound_to 10162
  157.7060  130.9385  150.0933 LP  0  0  0  0  0  0  0  0  0  0  0  0  # atno 17370 bound_to 10713
  156.1902  130.3654  149.8920 LP  0  0  0  0  0  0  0  0  0  0  0  0  # atno 17371 bound_to 10713
  140.6397  134.5178  157.5568 LP  0  0  0  0  0  0  0  0  0  0  0  0  # atno 17394 bound_to 11000
  139.9211  134.8146  156.1208 LP  0  0  0  0  0  0  0  0  0  0  0  0  # atno 17395 bound_to 11000

$$$$
