AV-unprocessed.smi:2973|AV-procd|sdf|11345|dock7
  -GOLD-   2272016263D 1   1.00000     0.00000
 Structure written by MMmdl.
 48 50  0  0  0  0  0  0  0  0  2 V2000
  150.8918  141.9674  156.7761 C   0  0  0  0  0  0  0  0  0  0  0  0
  150.0444  141.3781  155.6262 C   0  0  2  0  0  0  0  0  0  0  0  0
  148.5413  141.5129  155.9585 C   0  0  0  0  0  0  0  0  0  0  0  0
  147.6511  141.0068  154.8141 C   0  0  0  0  0  0  0  0  0  0  0  0
  147.9829  139.5536  154.4530 C   0  0  0  0  0  0  0  0  0  0  0  0
  149.4729  139.4008  154.1024 C   0  0  0  0  0  0  0  0  0  0  0  0
  150.4264  139.9165  155.2138 C   0  0  1  0  0  0  0  0  0  0  0  0
  151.7869  139.8745  154.7063 N   0  5  0  0  0  0  0  0  0  0  0  0
  152.5166  139.0214  155.4616 C   0  0  0  0  0  0  0  0  0  0  0  0
  153.7082  138.7491  155.3196 O   0  0  0  0  0  0  0  0  0  0  0  0
  151.7657  138.4757  156.4364 N   0  0  0  0  0  0  0  0  0  0  0  0
  152.2597  137.5310  157.4471 C   0  0  0  0  0  0  0  0  0  0  0  0
  151.9097  136.0698  157.1323 C   0  0  0  0  0  0  0  0  0  0  0  0
  152.7823  135.2011  157.0968 O   0  0  0  0  0  0  0  0  0  0  0  0
  150.6098  135.8122  156.9244 N   0  0  0  0  0  0  0  0  0  0  0  0
  150.0541  134.5020  156.6072 C   0  0  0  0  0  0  0  0  0  0  0  0
  150.1026  134.2138  155.0976 C   0  0  0  0  0  0  0  0  0  0  0  0
  149.9415  132.7365  154.7916 C   0  0  0  0  0  0  0  0  0  0  0  0
  150.6514  131.7665  155.5313 C   0  0  0  0  0  0  0  0  0  0  0  0
  150.4585  130.4076  155.2149 C   0  0  0  0  0  0  0  0  0  0  0  0
  149.5665  130.0724  154.1780 C   0  0  0  0  0  0  0  0  0  0  0  0
  148.9041  131.1156  153.5007 C   0  0  0  0  0  0  0  0  0  0  0  0
  149.0821  132.4214  153.7960 N   0  0  0  0  0  0  0  0  0  0  0  0
  150.5125  138.9398  156.3854 C   0  0  0  0  0  0  0  0  0  0  0  0
  149.5824  138.6534  157.1406 O   0  0  0  0  0  0  0  0  0  0  0  0
  150.7384  141.4293  157.7118 H   0  0  0  0  0  0  0  0  0  0  0  0
  150.6297  143.0101  156.9553 H   0  0  0  0  0  0  0  0  0  0  0  0
  151.9572  141.9397  156.5472 H   0  0  0  0  0  0  0  0  0  0  0  0
  150.2279  142.0117  154.7565 H   0  0  0  0  0  0  0  0  0  0  0  0
  148.3052  140.9693  156.8735 H   0  0  0  0  0  0  0  0  0  0  0  0
  148.3015  142.5575  156.1599 H   0  0  0  0  0  0  0  0  0  0  0  0
  146.6011  141.0890  155.0956 H   0  0  0  0  0  0  0  0  0  0  0  0
  147.7875  141.6414  153.9374 H   0  0  0  0  0  0  0  0  0  0  0  0
  147.7181  138.8965  155.2812 H   0  0  0  0  0  0  0  0  0  0  0  0
  147.3727  139.2359  153.6072 H   0  0  0  0  0  0  0  0  0  0  0  0
  149.6813  138.3536  153.8759 H   0  0  0  0  0  0  0  0  0  0  0  0
  149.6670  139.9465  153.1776 H   0  0  0  0  0  0  0  0  0  0  0  0
  153.3434  137.6108  157.5431 H   0  0  0  0  0  0  0  0  0  0  0  0
  151.8566  137.7996  158.4252 H   0  0  0  0  0  0  0  0  0  0  0  0
  149.9610  136.5842  156.9767 H   0  0  0  0  0  0  0  0  0  0  0  0
  150.6347  133.7521  157.1451 H   0  0  0  0  0  0  0  0  0  0  0  0
  149.0311  134.4288  156.9806 H   0  0  0  0  0  0  0  0  0  0  0  0
  149.3173  134.7678  154.5810 H   0  0  0  0  0  0  0  0  0  0  0  0
  151.0480  134.5645  154.6812 H   0  0  0  0  0  0  0  0  0  0  0  0
  151.3261  132.0548  156.3243 H   0  0  0  0  0  0  0  0  0  0  0  0
  150.9842  129.6366  155.7587 H   0  0  0  0  0  0  0  0  0  0  0  0
  149.3931  129.0410  153.9087 H   0  0  0  0  0  0  0  0  0  0  0  0
  148.2125  130.8955  152.7010 H   0  0  0  0  0  0  0  0  0  0  0  0
  1  2  1  0  0  0  0
  1 26  1  0  0  0  0
  1 27  1  0  0  0  0
  1 28  1  0  0  0  0
  2  7  1  0  0  0  0
  2  3  1  0  0  0  0
  2 29  1  0  0  0  0
  3  4  1  0  0  0  0
  3 30  1  0  0  0  0
  3 31  1  0  0  0  0
  4  5  1  0  0  0  0
  4 32  1  0  0  0  0
  4 33  1  0  0  0  0
  5  6  1  0  0  0  0
  5 34  1  0  0  0  0
  5 35  1  0  0  0  0
  6  7  1  0  0  0  0
  6 36  1  0  0  0  0
  6 37  1  0  0  0  0
  7 24  1  0  0  0  0
  7  8  1  0  0  0  0
  8  9  1  0  0  0  0
  9 10  2  0  0  0  0
  9 11  1  0  0  0  0
 11 12  1  0  0  0  0
 11 24  1  0  0  0  0
 12 13  1  0  0  0  0
 12 38  1  0  0  0  0
 12 39  1  0  0  0  0
 13 14  2  0  0  0  0
 13 15  1  0  0  0  0
 15 16  1  0  0  0  0
 15 40  1  0  0  0  0
 16 17  1  0  0  0  0
 16 41  1  0  0  0  0
 16 42  1  0  0  0  0
 17 18  1  0  0  0  0
 17 43  1  0  0  0  0
 17 44  1  0  0  0  0
 18 23  1  0  0  0  0
 18 19  2  0  0  0  0
 19 20  1  0  0  0  0
 19 45  1  0  0  0  0
 20 21  2  0  0  0  0
 20 46  1  0  0  0  0
 21 22  1  0  0  0  0
 21 47  1  0  0  0  0
 22 23  2  0  0  0  0
 22 48  1  0  0  0  0
 24 25  2  0  0  0  0
M  CHG  1   8  -1
M  END
> <s_m_source_file>
AV-unprocessed.smi

> <i_m_source_file_index>
2973

> <i_lp_mmshare_version>
43012

> <i_f3d_flags>
0

> <s_epik_input>
W0NIMl0xW0NIMl1bQ0gyXVtDSDJdW0NAQEhdKFtDSDNdKVtDQF0xMltOSF1DKD1PKU4oQzI9TylbQ0gyXUMoPU8pW05IXVtDSDJdW0NIMl1jM1tjSF1bY0hdW2NIXVtjSF1uMw==

> <s_epik_cmdline>
J2VwaWtfcHl0aG9uJywgJy1waCcsICc3LjAnLCAnLXRuJywgJzgnLCAnLW1hJywgJzIwMCcsICctbWV0YWxfYmluZGluZycsICctaW1hZScsICc8aW5maWxlLm1hZT4nLCAnLW9tYWUnLCAnPG91dGZpbGUubWFlPic=

> <r_lp_tautomer_probability>
1

> <r_epik_Ionization_Penalty>
6.04175

> <r_epik_Ionization_Penalty_Charging>
6.01728

> <r_epik_Ionization_Penalty_Neutral>
0.0244696

> <r_epik_State_Penalty>
6.03712

> <r_epik_Charging_Adjusted_Penalty>
12.0544

> <i_epik_Tot_Q>
-1

> <i_epik_Tot_abs_Q>
1

> <r_epik_Metal_State_Penalty>
2.01153

> <b_epik_Metal_Only>
1

> <s_lp_Force_Field>
OPLS_2005

> <r_lp_Energy>
12.5421

> <b_lp_Chiralities_Consistent>
1

> <s_lp_Variant>
AV-unprocessed.smi:2973-9

> <Gold.Version>
5.8.1

> <Gold.Id.Protein>
6NUR|6NUR_protein|mol2

> <Gold.PLP.Fitness>
47.0276

> <Gold.PLP.PLP>
-37.5305

> <Gold.PLP.part.hbond>
-3.1541

> <Gold.PLP.part.metal>
0.0000

> <Gold.PLP.part.buried>
-3.7518

> <Gold.PLP.part.nonpolar>
-30.6390

> <Gold.PLP.part.repulsive>
0.3036

> <Gold.PLP.ligand.clash>
0.0000

> <Gold.PLP.ligand.torsion>
0.7532

> <Gold.PLP.Chemscore.Hbond>
2.8480

> <Gold.PLP.Chemscore.CHOScore>
0.8069

> <Gold.PLP.Chemscore.Metal>
0.0000

> <Gold.Chemscore.Hbonds>
donor molecule, donor type, donor heavy atom, donor atom, acceptor molecule, acceptor atom, score
      P1  H  7989  7998       L1     8  1.00
      P1  H  7997  8010       L1    10  0.85
      P1  H 10752 10763       L1    14  1.00
      L1  C    22    48       P1 10747  0.81

> <Gold.PLP.Chemscore.Internal.Correction>
0.0389

> <Gold.Rescore>
     Score         DG    S(hbond)    S(metal)    S(lipo)     H(rot)  DE(clash)    DE(int)     intcor
     17.87     -19.41       2.93        0.00      74.91       1.81       0.00       1.54       ----

> <Gold.Chemscore.Fitness>
17.8720

> <Gold.Chemscore.DG>
-19.4121

> <Gold.Chemscore.ZeroCoef>
-5.4800

> <Gold.Chemscore.Hbond>
2.9339

> <Gold.Chemscore.Metal>
0.0000

> <Gold.Chemscore.Lipo>
74.9060

> <Gold.Chemscore.Internal_Hbond>
0.0000

> <Gold.Chemscore.DEClash>
0.0029

> <Gold.Chemscore.DEInternal>
1.5372

> <Gold.Chemscore.Rot>
1.8090

> <Gold.Chemscore.Internal.Correction>
   9.000000E+99

> <Gold.Chemscore.Hbonds>
donor molecule, donor type, donor heavy atom, donor atom, acceptor molecule, acceptor atom, score
      P1  H  7989  7998       L1     8  0.23
      P1  H  7997  8010       L1    10  0.29
      P1  H 10752 10763       L1    14  0.68

> <Gold.Chemscore.Hbond.Weighted>
-9.7991

> <Gold.Chemscore.Metal.Weighted>
-0.0000

> <Gold.Chemscore.Lipo.Weighted>
-8.7640

> <Gold.Chemscore.Internal_Hbond.Weighted>
0.0000

> <Gold.Chemscore.DEClash.Weighted>
0.0029

> <Gold.Chemscore.DEInternal.Weighted>
1.5372

> <Gold.Chemscore.Rot.Weighted>
4.6310

> <Gold.Chemscore.Internal.Correction.Weighted>
   9.000000E+99

> <Gold.Protein.RotatedTorsions>
[ 6907 6896 6895 6894 ] final  174.95 input  -60.11 | X-H torsion
[ 7974 7965 7964 7962 ] final  106.79 input  175.53 | X-H torsion
[ 8008 7997 7996 7995 ] final  103.09 input   59.86 | X-H torsion
[ 10167 10162 10161 10158 ] final  -80.59 input  -65.29 | X-H torsion
[ 10718 10713 10712 10709 ] final  -88.33 input   66.30 | X-H torsion
[ 10763 10752 10751 10750 ] final  129.81 input  -60.55 | X-H torsion
[ 11005 11000 10999 10996 ] final  175.70 input  -57.11 | X-H torsion

> <Gold.Protein.ActiveResidues>
 VAL166  LYS551  ARG553  GLY616  TRP617  ASP618  TYR619  PRO620  LYS621  CYS622 
 ASP623  PHE694  ASN695  SER759  ASP760  ASP761  ALA762  ILE779  LEU786  VAL792 
 PHE793  MET794  SER795  GLU796  ALA797  LYS798  CYS799  TRP800  GLU811  SER814 

> <Gold.Protein.RotatedAtoms>
  151.7441  133.3323  159.3373 H   0  0  0  0  0  0  0  0  0  0  0  0  # atno 6907 bound_to 6896
  150.7561  134.6251  159.6166 H   0  0  0  0  0  0  0  0  0  0  0  0  # atno 6908 bound_to 6896
  152.3511  134.7006  160.0287 H   0  0  0  0  0  0  0  0  0  0  0  0  # atno 6909 bound_to 6896
  145.3020  139.2566  143.3808 H   0  0  0  0  0  0  0  0  0  0  0  0  # atno 7974 bound_to 7965
  156.1452  140.3170  155.8559 H   0  0  0  0  0  0  0  0  0  0  0  0  # atno 8008 bound_to 7997
  155.4077  140.0504  157.3050 H   0  0  0  0  0  0  0  0  0  0  0  0  # atno 8009 bound_to 7997
  154.5010  140.2129  155.9358 H   0  0  0  0  0  0  0  0  0  0  0  0  # atno 8010 bound_to 7997
  140.4489  143.2489  151.8518 H   0  0  0  0  0  0  0  0  0  0  0  0  # atno 10167 bound_to 10162
  155.9984  130.4832  150.5003 H   0  0  0  0  0  0  0  0  0  0  0  0  # atno 10718 bound_to 10713
  153.7478  135.3214  155.3316 H   0  0  0  0  0  0  0  0  0  0  0  0  # atno 10763 bound_to 10752
  154.8273  135.4560  154.0962 H   0  0  0  0  0  0  0  0  0  0  0  0  # atno 10764 bound_to 10752
  153.2156  135.6941  153.8144 H   0  0  0  0  0  0  0  0  0  0  0  0  # atno 10765 bound_to 10752
  140.3651  134.7079  157.4356 H   0  0  0  0  0  0  0  0  0  0  0  0  # atno 11005 bound_to 11000
  146.3148  140.3537  142.8658 LP  0  0  0  0  0  0  0  0  0  0  0  0  # atno 17320 bound_to 7965
  144.9085  140.7729  143.5822 LP  0  0  0  0  0  0  0  0  0  0  0  0  # atno 17321 bound_to 7965
  139.4795  144.5143  151.8890 LP  0  0  0  0  0  0  0  0  0  0  0  0  # atno 17342 bound_to 10162
  140.4230  144.2217  150.5887 LP  0  0  0  0  0  0  0  0  0  0  0  0  # atno 17343 bound_to 10162
  157.2988  131.0641  151.2082 LP  0  0  0  0  0  0  0  0  0  0  0  0  # atno 17370 bound_to 10713
  157.3069  130.6870  149.6194 LP  0  0  0  0  0  0  0  0  0  0  0  0  # atno 17371 bound_to 10713
  140.0596  134.6014  155.8764 LP  0  0  0  0  0  0  0  0  0  0  0  0  # atno 17394 bound_to 11000
  141.1972  133.6595  156.5730 LP  0  0  0  0  0  0  0  0  0  0  0  0  # atno 17395 bound_to 11000

$$$$
