AV-unprocessed.smi:2931|AV-procd|sdf|11243|dock2
  -GOLD-   2272016133D 1   1.00000     0.00000
 Structure written by MMmdl.
 42 43  0  0  0  0  0  0  0  0  2 V2000
  145.5554  134.6189  151.3409 C   0  0  0  0  0  0  0  0  0  0  0  0
  146.7218  134.2938  152.1893 N   0  3  2  0  0  0  0  0  0  0  0  0
  147.1985  132.9022  151.9885 C   0  0  0  0  0  0  0  0  0  0  0  0
  148.4881  132.6386  152.7849 C   0  0  0  0  0  0  0  0  0  0  0  0
  148.3014  132.9674  154.2760 C   0  0  0  0  0  0  0  0  0  0  0  0
  147.7613  134.3969  154.4639 C   0  0  1  0  0  0  0  0  0  0  0  0
  148.7964  135.3706  154.1146 N   0  0  0  0  0  0  0  0  0  0  0  0
  149.5640  136.0311  154.9930 C   0  0  0  0  0  0  0  0  0  0  0  0
  149.4655  135.9170  156.2146 O   0  0  0  0  0  0  0  0  0  0  0  0
  150.4474  136.8318  154.3815 N   0  0  0  0  0  0  0  0  0  0  0  0
  151.4227  137.6726  155.0664 C   0  0  0  0  0  0  0  0  0  0  0  0
  151.3105  139.1431  154.6316 C   0  0  0  0  0  0  0  0  0  0  0  0
  150.8276  140.0349  155.7587 C   0  0  0  0  0  0  0  0  0  0  0  0
  149.8125  140.9887  155.5395 C   0  0  0  0  0  0  0  0  0  0  0  0
  149.3971  141.7885  156.6232 C   0  0  0  0  0  0  0  0  0  0  0  0
  149.9213  141.6872  157.8638 N   0  0  0  0  0  0  0  0  0  0  0  0
  150.8922  140.7703  158.0661 C   0  0  0  0  0  0  0  0  0  0  0  0
  151.3800  139.9225  157.0513 C   0  0  0  0  0  0  0  0  0  0  0  0
  146.4789  134.5906  153.6235 C   0  0  0  0  0  0  0  0  0  0  0  0
  144.6953  134.0017  151.6043 H   0  0  0  0  0  0  0  0  0  0  0  0
  145.7867  134.4538  150.2882 H   0  0  0  0  0  0  0  0  0  0  0  0
  145.2741  135.6659  151.4583 H   0  0  0  0  0  0  0  0  0  0  0  0
  146.4189  132.2022  152.2935 H   0  0  0  0  0  0  0  0  0  0  0  0
  147.3845  132.7277  150.9279 H   0  0  0  0  0  0  0  0  0  0  0  0
  148.7891  131.5967  152.6703 H   0  0  0  0  0  0  0  0  0  0  0  0
  149.3007  133.2378  152.3723 H   0  0  0  0  0  0  0  0  0  0  0  0
  147.5991  132.2570  154.7144 H   0  0  0  0  0  0  0  0  0  0  0  0
  149.2417  132.8380  154.8138 H   0  0  0  0  0  0  0  0  0  0  0  0
  147.5157  134.5317  155.5189 H   0  0  0  0  0  0  0  0  0  0  0  0
  148.9611  135.5267  153.1307 H   0  0  0  0  0  0  0  0  0  0  0  0
  150.4556  136.8555  153.3722 H   0  0  0  0  0  0  0  0  0  0  0  0
  151.3008  137.5830  156.1474 H   0  0  0  0  0  0  0  0  0  0  0  0
  152.4179  137.2918  154.8346 H   0  0  0  0  0  0  0  0  0  0  0  0
  152.2788  139.5064  154.2848 H   0  0  0  0  0  0  0  0  0  0  0  0
  150.6260  139.2380  153.7873 H   0  0  0  0  0  0  0  0  0  0  0  0
  149.3599  141.1069  154.5658 H   0  0  0  0  0  0  0  0  0  0  0  0
  148.6224  142.5290  156.4899 H   0  0  0  0  0  0  0  0  0  0  0  0
  151.2923  140.7094  159.0673 H   0  0  0  0  0  0  0  0  0  0  0  0
  152.1572  139.2033  157.2641 H   0  0  0  0  0  0  0  0  0  0  0  0
  146.1081  135.6109  153.7298 H   0  0  0  0  0  0  0  0  0  0  0  0
  145.6884  133.9374  153.9969 H   0  0  0  0  0  0  0  0  0  0  0  0
  147.4704  134.9032  151.8923 H   0  0  0  0  0  0  0  0  0  0  0  0
  1  2  1  0  0  0  0
  1 20  1  0  0  0  0
  1 21  1  0  0  0  0
  1 22  1  0  0  0  0
  2 19  1  0  0  0  0
  2  3  1  0  0  0  0
  2 42  1  0  0  0  0
  3  4  1  0  0  0  0
  3 23  1  0  0  0  0
  3 24  1  0  0  0  0
  4  5  1  0  0  0  0
  4 25  1  0  0  0  0
  4 26  1  0  0  0  0
  5  6  1  0  0  0  0
  5 27  1  0  0  0  0
  5 28  1  0  0  0  0
  6  7  1  0  0  0  0
  6 19  1  0  0  0  0
  6 29  1  0  0  0  0
  7  8  1  0  0  0  0
  7 30  1  0  0  0  0
  8  9  2  0  0  0  0
  8 10  1  0  0  0  0
 10 11  1  0  0  0  0
 10 31  1  0  0  0  0
 11 12  1  0  0  0  0
 11 32  1  0  0  0  0
 11 33  1  0  0  0  0
 12 13  1  0  0  0  0
 12 34  1  0  0  0  0
 12 35  1  0  0  0  0
 13 18  1  0  0  0  0
 13 14  2  0  0  0  0
 14 15  1  0  0  0  0
 14 36  1  0  0  0  0
 15 16  2  0  0  0  0
 15 37  1  0  0  0  0
 16 17  1  0  0  0  0
 17 18  2  0  0  0  0
 17 38  1  0  0  0  0
 18 39  1  0  0  0  0
 19 40  1  0  0  0  0
 19 41  1  0  0  0  0
M  CHG  1   2   1
M  END
> <s_m_source_file>
AV-unprocessed.smi

> <i_m_source_file_index>
2931

> <i_lp_mmshare_version>
43012

> <i_f3d_flags>
0

> <s_epik_input>
W0NIM11OMVtDSDJdW0NIMl1bQ0gyXVtDQEhdKFtDSDJdMSlbTkhdQyg9TylbTkhdW0NIMl1bQ0gyXWMyW2NIXVtjSF1uW2NIXVtjSF0y

> <s_epik_cmdline>
J2VwaWtfcHl0aG9uJywgJy1waCcsICc3LjAnLCAnLXRuJywgJzgnLCAnLW1hJywgJzIwMCcsICctbWV0YWxfYmluZGluZycsICctaW1hZScsICc8aW5maWxlLm1hZT4nLCAnLW9tYWUnLCAnPG91dGZpbGUubWFlPic=

> <r_epik_Ionization_Penalty>
0.0573876

> <r_epik_Ionization_Penalty_Charging>
0.00229982

> <r_epik_Ionization_Penalty_Neutral>
0.0550878

> <r_epik_State_Penalty>
0.0473925

> <r_epik_Charging_Adjusted_Penalty>
0.0496923

> <i_epik_Tot_Q>
1

> <i_epik_Tot_abs_Q>
1

> <r_epik_Metal_State_Penalty>
0.0433388

> <b_epik_Metal_Only>
0

> <s_lp_Force_Field>
OPLS_2005

> <r_lp_Energy>
20.9129

> <b_lp_Chiralities_Consistent>
1

> <s_lp_Variant>
AV-unprocessed.smi:2931-2

> <Gold.Version>
5.8.1

> <Gold.Id.Protein>
6NUR|6NUR_protein|mol2

> <Gold.PLP.Fitness>
43.3245

> <Gold.PLP.PLP>
-31.0726

> <Gold.PLP.part.hbond>
-3.1177

> <Gold.PLP.part.metal>
0.0000

> <Gold.PLP.part.buried>
-0.1705

> <Gold.PLP.part.nonpolar>
-27.6263

> <Gold.PLP.part.repulsive>
0.1636

> <Gold.PLP.ligand.clash>
0.0000

> <Gold.PLP.ligand.torsion>
0.7976

> <Gold.PLP.Chemscore.Hbond>
3.6077

> <Gold.PLP.Chemscore.CHOScore>
1.0000

> <Gold.PLP.Chemscore.Metal>
0.0000

> <Gold.Chemscore.Hbonds>
donor molecule, donor type, donor heavy atom, donor atom, acceptor molecule, acceptor atom, score
      L1  H     2    42       P1  7948  2.00
      L1  H     7    30       P1  7948  0.73
      L1  H    10    31       P1  7949  0.21
      L1  C    15    37       P1  8028  0.95

> <Gold.PLP.Chemscore.Internal.Correction>
0.0238

> <Gold.Rescore>
     Score         DG    S(hbond)    S(metal)    S(lipo)     H(rot)  DE(clash)    DE(int)     intcor
     15.19     -15.70       1.96        0.00      65.59       1.56       0.00       0.52       ----

> <Gold.Chemscore.Fitness>
15.1886

> <Gold.Chemscore.DG>
-15.7044

> <Gold.Chemscore.ZeroCoef>
-5.4800

> <Gold.Chemscore.Hbond>
1.9585

> <Gold.Chemscore.Metal>
0.0000

> <Gold.Chemscore.Lipo>
65.5925

> <Gold.Chemscore.Internal_Hbond>
0.0000

> <Gold.Chemscore.DEClash>
0.0000

> <Gold.Chemscore.DEInternal>
0.5158

> <Gold.Chemscore.Rot>
1.5592

> <Gold.Chemscore.Internal.Correction>
   9.000000E+99

> <Gold.Chemscore.Hbonds>
donor molecule, donor type, donor heavy atom, donor atom, acceptor molecule, acceptor atom, score
      L1  H     2    42       P1  7948  0.81
      L1  H     7    30       P1  7948  0.47

> <Gold.Chemscore.Hbond.Weighted>
-6.5416

> <Gold.Chemscore.Metal.Weighted>
-0.0000

> <Gold.Chemscore.Lipo.Weighted>
-7.6743

> <Gold.Chemscore.Internal_Hbond.Weighted>
0.0000

> <Gold.Chemscore.DEClash.Weighted>
0.0000

> <Gold.Chemscore.DEInternal.Weighted>
0.5158

> <Gold.Chemscore.Rot.Weighted>
3.9915

> <Gold.Chemscore.Internal.Correction.Weighted>
   9.000000E+99

> <Gold.Protein.RotatedTorsions>
[ 6907 6896 6895 6894 ] final  134.62 input  -60.11 | X-H torsion
[ 7974 7965 7964 7962 ] final  153.97 input  175.53 | X-H torsion
[ 8008 7997 7996 7995 ] final  -54.78 input   59.86 | X-H torsion
[ 10167 10162 10161 10158 ] final  126.65 input  -65.29 | X-H torsion
[ 10718 10713 10712 10709 ] final   18.92 input   66.30 | X-H torsion
[ 10763 10752 10751 10750 ] final -139.10 input  -60.55 | X-H torsion
[ 11005 11000 10999 10996 ] final  148.57 input  -57.11 | X-H torsion

> <Gold.Protein.ActiveResidues>
 VAL166  LYS551  ARG553  GLY616  TRP617  ASP618  TYR619  PRO620  LYS621  CYS622 
 ASP623  PHE694  ASN695  SER759  ASP760  ASP761  ALA762  ILE779  LEU786  VAL792 
 PHE793  MET794  SER795  GLU796  ALA797  LYS798  CYS799  TRP800  GLU811  SER814 

> <Gold.Protein.RotatedAtoms>
  152.3093  133.5736  159.5669 H   0  0  0  0  0  0  0  0  0  0  0  0  # atno 6907 bound_to 6896
  150.7315  134.0176  159.3699 H   0  0  0  0  0  0  0  0  0  0  0  0  # atno 6908 bound_to 6896
  151.8070  135.0692  160.0459 H   0  0  0  0  0  0  0  0  0  0  0  0  # atno 6909 bound_to 6896
  144.8119  139.6871  143.6137 H   0  0  0  0  0  0  0  0  0  0  0  0  # atno 7974 bound_to 7965
  154.4173  140.1168  156.5371 H   0  0  0  0  0  0  0  0  0  0  0  0  # atno 8008 bound_to 7997
  155.6546  140.3496  155.4741 H   0  0  0  0  0  0  0  0  0  0  0  0  # atno 8009 bound_to 7997
  155.9764  140.1151  157.0756 H   0  0  0  0  0  0  0  0  0  0  0  0  # atno 8010 bound_to 7997
  139.5620  144.6887  151.4017 H   0  0  0  0  0  0  0  0  0  0  0  0  # atno 10167 bound_to 10162
  157.1031  130.6477  149.5877 H   0  0  0  0  0  0  0  0  0  0  0  0  # atno 10718 bound_to 10713
  154.8619  135.3592  154.5491 H   0  0  0  0  0  0  0  0  0  0  0  0  # atno 10763 bound_to 10752
  153.6110  135.7009  153.5351 H   0  0  0  0  0  0  0  0  0  0  0  0  # atno 10764 bound_to 10752
  153.3209  135.4151  155.1377 H   0  0  0  0  0  0  0  0  0  0  0  0  # atno 10765 bound_to 10752
  140.0971  134.9006  157.1740 H   0  0  0  0  0  0  0  0  0  0  0  0  # atno 11005 bound_to 11000
  146.2419  139.6019  142.9486 LP  0  0  0  0  0  0  0  0  0  0  0  0  # atno 17320 bound_to 7965
  145.5303  141.0427  143.2387 LP  0  0  0  0  0  0  0  0  0  0  0  0  # atno 17321 bound_to 7965
  140.6900  143.7883  150.7242 LP  0  0  0  0  0  0  0  0  0  0  0  0  # atno 17342 bound_to 10162
  140.1363  143.4481  152.2222 LP  0  0  0  0  0  0  0  0  0  0  0  0  # atno 17343 bound_to 10162
  155.9868  130.4905  150.7098 LP  0  0  0  0  0  0  0  0  0  0  0  0  # atno 17370 bound_to 10713
  157.4623  131.0884  151.0732 LP  0  0  0  0  0  0  0  0  0  0  0  0  # atno 17371 bound_to 10713
  140.3271  134.2851  155.7235 LP  0  0  0  0  0  0  0  0  0  0  0  0  # atno 17394 bound_to 11000
  141.2095  133.7747  156.9992 LP  0  0  0  0  0  0  0  0  0  0  0  0  # atno 17395 bound_to 11000

$$$$
