AV-unprocessed.smi:271|AV-procd|sdf|2050|dock8
  -GOLD-   2262021283D 1   1.00000     0.00000
 Structure written by MMmdl.
 58 60  0  0  0  0  0  0  0  0  1 V2000
  146.1340  133.7643  161.7030 C   0  0  0  0  0  0  0  0  0  0  0  0
  147.4125  134.6098  161.8088 C   0  0  0  0  0  0  0  0  0  0  0  0
  147.3751  135.4821  163.0752 C   0  0  0  0  0  0  0  0  0  0  0  0
  147.6213  135.4450  160.5304 C   0  0  0  0  0  0  0  0  0  0  0  0
  147.8496  134.5924  159.2644 C   0  0  0  0  0  0  0  0  0  0  0  0
  148.9063  135.1066  158.3931 N   0  0  0  0  0  0  0  0  0  0  0  0
  148.7308  136.4935  157.9676 C   0  0  0  0  0  0  0  0  0  0  0  0
  150.0519  137.1921  157.6075 C   0  0  0  0  0  0  0  0  0  0  0  0
  151.0505  137.0869  158.6812 C   0  0  0  0  0  0  0  0  0  0  0  0
  151.8361  137.0044  159.5264 N   0  0  0  0  0  0  0  0  0  0  0  0
  149.2193  134.2793  157.3698 C   0  0  0  0  0  0  0  0  0  0  0  0
  150.2451  133.4148  157.5650 N   0  0  0  0  0  0  0  0  0  0  0  0
  150.5968  132.5676  156.5934 C   0  0  0  0  0  0  0  0  0  0  0  0
  150.0634  132.4234  155.3785 N   0  0  0  0  0  0  0  0  0  0  0  0
  149.0297  133.2912  155.1803 C   0  0  0  0  0  0  0  0  0  0  0  0
  148.5490  134.2509  156.1143 C   0  0  0  0  0  0  0  0  0  0  0  0
  147.4950  134.9659  155.5602 N   0  0  0  0  0  0  0  0  0  0  0  0
  147.3587  134.4559  154.3669 C   0  0  0  0  0  0  0  0  0  0  0  0
  148.2271  133.4315  154.0601 N   0  0  0  0  0  0  0  0  0  0  0  0
  148.2941  132.6831  152.8123 C   0  0  0  0  0  0  0  0  0  0  0  0
  147.0123  131.8687  152.4826 C   0  0  1  0  0  0  0  0  0  0  0  0
  146.0877  131.7135  153.7133 C   0  0  0  0  0  0  0  0  0  0  0  0
  146.0429  130.3685  154.1412 O   0  0  0  0  0  0  0  0  0  0  0  0
  146.2413  132.4433  151.2647 C   0  0  2  0  0  0  0  0  0  0  0  0
  145.5538  133.7766  151.5098 C   0  0  0  0  0  0  0  0  0  0  0  0
  144.5212  133.8345  150.3872 C   0  0  0  0  0  0  0  0  0  0  0  0
  144.2044  132.4824  150.0746 O   0  0  0  0  0  0  0  0  0  0  0  0
  145.0355  131.6057  150.8257 C   0  0  0  0  0  0  0  0  0  0  0  0
  145.2502  134.3943  161.5974 H   0  0  0  0  0  0  0  0  0  0  0  0
  145.9966  133.1445  162.5897 H   0  0  0  0  0  0  0  0  0  0  0  0
  146.1720  133.0975  160.8411 H   0  0  0  0  0  0  0  0  0  0  0  0
  148.2508  133.9181  161.9025 H   0  0  0  0  0  0  0  0  0  0  0  0
  146.5749  136.2212  163.0240 H   0  0  0  0  0  0  0  0  0  0  0  0
  148.3131  136.0157  163.2257 H   0  0  0  0  0  0  0  0  0  0  0  0
  147.2073  134.8733  163.9642 H   0  0  0  0  0  0  0  0  0  0  0  0
  146.7431  136.0710  160.3665 H   0  0  0  0  0  0  0  0  0  0  0  0
  148.4560  136.1295  160.6876 H   0  0  0  0  0  0  0  0  0  0  0  0
  148.0767  133.5612  159.5337 H   0  0  0  0  0  0  0  0  0  0  0  0
  146.9224  134.5596  158.6910 H   0  0  0  0  0  0  0  0  0  0  0  0
  148.0447  136.5353  157.1207 H   0  0  0  0  0  0  0  0  0  0  0  0
  148.2515  137.0440  158.7778 H   0  0  0  0  0  0  0  0  0  0  0  0
  150.4829  136.7524  156.7079 H   0  0  0  0  0  0  0  0  0  0  0  0
  149.8976  138.2534  157.4111 H   0  0  0  0  0  0  0  0  0  0  0  0
  151.4222  131.9098  156.8228 H   0  0  0  0  0  0  0  0  0  0  0  0
  146.6092  134.8148  153.6777 H   0  0  0  0  0  0  0  0  0  0  0  0
  148.5221  133.3823  152.0079 H   0  0  0  0  0  0  0  0  0  0  0  0
  149.1551  132.0157  152.8635 H   0  0  0  0  0  0  0  0  0  0  0  0
  147.3415  130.8665  152.2035 H   0  0  0  0  0  0  0  0  0  0  0  0
  146.4092  132.3510  154.5370 H   0  0  0  0  0  0  0  0  0  0  0  0
  145.0647  132.0017  153.4749 H   0  0  0  0  0  0  0  0  0  0  0  0
  145.1460  130.1442  154.3368 H   0  0  0  0  0  0  0  0  0  0  0  0
  146.9183  132.5641  150.4179 H   0  0  0  0  0  0  0  0  0  0  0  0
  145.0501  133.7726  152.4776 H   0  0  0  0  0  0  0  0  0  0  0  0
  146.2354  134.6271  151.4844 H   0  0  0  0  0  0  0  0  0  0  0  0
  143.6314  134.3951  150.6744 H   0  0  0  0  0  0  0  0  0  0  0  0
  144.9460  134.3044  149.4995 H   0  0  0  0  0  0  0  0  0  0  0  0
  145.3118  130.7333  150.2347 H   0  0  0  0  0  0  0  0  0  0  0  0
  144.4724  131.2575  151.6929 H   0  0  0  0  0  0  0  0  0  0  0  0
  1  2  1  0  0  0  0
  1 29  1  0  0  0  0
  1 30  1  0  0  0  0
  1 31  1  0  0  0  0
  2  3  1  0  0  0  0
  2  4  1  0  0  0  0
  2 32  1  0  0  0  0
  3 33  1  0  0  0  0
  3 34  1  0  0  0  0
  3 35  1  0  0  0  0
  4  5  1  0  0  0  0
  4 36  1  0  0  0  0
  4 37  1  0  0  0  0
  5  6  1  0  0  0  0
  5 38  1  0  0  0  0
  5 39  1  0  0  0  0
  6  7  1  0  0  0  0
  6 11  1  0  0  0  0
  7  8  1  0  0  0  0
  7 40  1  0  0  0  0
  7 41  1  0  0  0  0
  8  9  1  0  0  0  0
  8 42  1  0  0  0  0
  8 43  1  0  0  0  0
  9 10  3  0  0  0  0
 11 16  1  0  0  0  0
 11 12  2  0  0  0  0
 12 13  1  0  0  0  0
 13 14  2  0  0  0  0
 13 44  1  0  0  0  0
 14 15  1  0  0  0  0
 15 19  1  0  0  0  0
 15 16  2  0  0  0  0
 16 17  1  0  0  0  0
 17 18  2  0  0  0  0
 18 19  1  0  0  0  0
 18 45  1  0  0  0  0
 19 20  1  0  0  0  0
 20 21  1  0  0  0  0
 20 46  1  0  0  0  0
 20 47  1  0  0  0  0
 21 22  1  0  0  0  0
 21 24  1  0  0  0  0
 21 48  1  0  0  0  0
 22 23  1  0  0  0  0
 22 49  1  0  0  0  0
 22 50  1  0  0  0  0
 23 51  1  0  0  0  0
 24 28  1  0  0  0  0
 24 25  1  0  0  0  0
 24 52  1  0  0  0  0
 25 26  1  0  0  0  0
 25 53  1  0  0  0  0
 25 54  1  0  0  0  0
 26 27  1  0  0  0  0
 26 55  1  0  0  0  0
 26 56  1  0  0  0  0
 27 28  1  0  0  0  0
 28 57  1  0  0  0  0
 28 58  1  0  0  0  0
M  END
> <s_m_source_file>
AV-unprocessed.smi

> <i_m_source_file_index>
271

> <i_lp_mmshare_version>
43012

> <i_f3d_flags>
0

> <s_epik_input>
W0NIM11bQ0hdKFtDSDNdKVtDSDJdW0NIMl1OKFtDSDJdW0NIMl1DI04pYyhuW2NIXW4xKWMoYzEyKW5bY0hdbjJbQ0gyXVtDQEhdKFtDSDJdW09IXSlbQ0BASF0zW0NIMl1bQ0gyXU9bQ0gyXTM=

> <s_epik_cmdline>
J2VwaWtfcHl0aG9uJywgJy1waCcsICc3LjAnLCAnLXRuJywgJzgnLCAnLW1hJywgJzIwMCcsICctbWV0YWxfYmluZGluZycsICctaW1hZScsICc8aW5maWxlLm1hZT4nLCAnLW9tYWUnLCAnPG91dGZpbGUubWFlPic=

> <r_lp_tautomer_probability>
1

> <r_epik_Ionization_Penalty>
0.000825874

> <r_epik_Ionization_Penalty_Charging>
0

> <r_epik_Ionization_Penalty_Neutral>
0.000825874

> <r_epik_State_Penalty>
0.000396768

> <r_epik_Charging_Adjusted_Penalty>
0.000396768

> <i_epik_Tot_Q>
0

> <i_epik_Tot_abs_Q>
0

> <r_epik_Metal_State_Penalty>
-0

> <b_epik_Metal_Only>
0

> <s_lp_Force_Field>
OPLS_2005

> <r_lp_Energy>
35.3128

> <b_lp_Chiralities_Consistent>
1

> <s_lp_Variant>
AV-unprocessed.smi:271-2

> <Gold.Version>
5.8.1

> <Gold.Id.Protein>
6NUR|6NUR_protein|mol2

> <Gold.PLP.Fitness>
45.6049

> <Gold.PLP.PLP>
-40.7128

> <Gold.PLP.part.hbond>
-3.4382

> <Gold.PLP.part.metal>
0.0000

> <Gold.PLP.part.buried>
-6.1880

> <Gold.PLP.part.nonpolar>
-33.1603

> <Gold.PLP.part.repulsive>
0.2144

> <Gold.PLP.ligand.clash>
0.0000

> <Gold.PLP.ligand.torsion>
2.4900

> <Gold.PLP.Chemscore.Hbond>
3.0000

> <Gold.PLP.Chemscore.CHOScore>
0.0000

> <Gold.PLP.Chemscore.Metal>
0.0000

> <Gold.Chemscore.Hbonds>
donor molecule, donor type, donor heavy atom, donor atom, acceptor molecule, acceptor atom, score
      L1  H    23    51       P1 10956  1.00
      P1  H  6896  6907       L1    12  1.00
      P1  H  6896  6908       L1    10  0.95

> <Gold.PLP.Chemscore.Internal.Correction>
0.8722

> <Gold.Rescore>
     Score         DG    S(hbond)    S(metal)    S(lipo)     H(rot)  DE(clash)    DE(int)     intcor
     14.20     -16.75       3.22        0.00      86.76       3.77       0.07       2.47       ----

> <Gold.Chemscore.Fitness>
14.2026

> <Gold.Chemscore.DG>
-16.7461

> <Gold.Chemscore.ZeroCoef>
-5.4800

> <Gold.Chemscore.Hbond>
3.2220

> <Gold.Chemscore.Metal>
0.0000

> <Gold.Chemscore.Lipo>
86.7631

> <Gold.Chemscore.Internal_Hbond>
0.0000

> <Gold.Chemscore.DEClash>
0.0731

> <Gold.Chemscore.DEInternal>
2.4704

> <Gold.Chemscore.Rot>
3.7683

> <Gold.Chemscore.Internal.Correction>
   9.000000E+99

> <Gold.Chemscore.Hbonds>
donor molecule, donor type, donor heavy atom, donor atom, acceptor molecule, acceptor atom, score
      L1  H    23    51       P1 10956  0.29
      P1  H  6896  6907       L1    12  0.38
      P1  H  6896  6908       L1    10  0.21

> <Gold.Chemscore.Hbond.Weighted>
-10.7616

> <Gold.Chemscore.Metal.Weighted>
-0.0000

> <Gold.Chemscore.Lipo.Weighted>
-10.1513

> <Gold.Chemscore.Internal_Hbond.Weighted>
0.0000

> <Gold.Chemscore.DEClash.Weighted>
0.0731

> <Gold.Chemscore.DEInternal.Weighted>
2.4704

> <Gold.Chemscore.Rot.Weighted>
9.6468

> <Gold.Chemscore.Internal.Correction.Weighted>
   9.000000E+99

> <Gold.Protein.RotatedTorsions>
[ 6907 6896 6895 6894 ] final -118.63 input  -60.11 | X-H torsion
[ 7974 7965 7964 7962 ] final -165.09 input  175.53 | X-H torsion
[ 8008 7997 7996 7995 ] final   94.36 input   59.86 | X-H torsion
[ 10167 10162 10161 10158 ] final  -13.24 input  -65.29 | X-H torsion
[ 10718 10713 10712 10709 ] final  -97.98 input   66.30 | X-H torsion
[ 10763 10752 10751 10750 ] final  -32.41 input  -60.55 | X-H torsion
[ 11005 11000 10999 10996 ] final  166.39 input  -57.11 | X-H torsion

> <Gold.Protein.ActiveResidues>
 VAL166  LYS551  ARG553  GLY616  TRP617  ASP618  TYR619  PRO620  LYS621  CYS622 
 ASP623  PHE694  ASN695  SER759  ASP760  ASP761  ALA762  ILE779  LEU786  VAL792 
 PHE793  MET794  SER795  GLU796  ALA797  LYS798  CYS799  TRP800  GLU811  SER814 

> <Gold.Protein.RotatedAtoms>
  150.8236  133.8210  159.3127 H   0  0  0  0  0  0  0  0  0  0  0  0  # atno 6907 bound_to 6896
  151.5961  135.1049  160.0059 H   0  0  0  0  0  0  0  0  0  0  0  0  # atno 6908 bound_to 6896
  152.4323  133.7259  159.6616 H   0  0  0  0  0  0  0  0  0  0  0  0  # atno 6909 bound_to 6896
  144.7279  140.2864  143.6227 H   0  0  0  0  0  0  0  0  0  0  0  0  # atno 7974 bound_to 7965
  156.0570  140.3301  155.7417 H   0  0  0  0  0  0  0  0  0  0  0  0  # atno 8008 bound_to 7997
  155.5513  140.0610  157.2867 H   0  0  0  0  0  0  0  0  0  0  0  0  # atno 8009 bound_to 7997
  154.4463  140.1893  156.0678 H   0  0  0  0  0  0  0  0  0  0  0  0  # atno 8010 bound_to 7997
  140.7178  143.5447  150.9369 H   0  0  0  0  0  0  0  0  0  0  0  0  # atno 10167 bound_to 10162
  156.0096  130.5218  150.6455 H   0  0  0  0  0  0  0  0  0  0  0  0  # atno 10718 bound_to 10713
  153.8133  135.6880  153.4837 H   0  0  0  0  0  0  0  0  0  0  0  0  # atno 10763 bound_to 10752
  153.1615  135.4578  154.9776 H   0  0  0  0  0  0  0  0  0  0  0  0  # atno 10764 bound_to 10752
  154.7958  135.3318  154.7612 H   0  0  0  0  0  0  0  0  0  0  0  0  # atno 10765 bound_to 10752
  140.2659  134.7865  157.3632 H   0  0  0  0  0  0  0  0  0  0  0  0  # atno 11005 bound_to 11000
  145.7898  139.1922  143.2109 LP  0  0  0  0  0  0  0  0  0  0  0  0  # atno 17320 bound_to 7965
  146.0765  140.7811  142.9662 LP  0  0  0  0  0  0  0  0  0  0  0  0  # atno 17321 bound_to 7965
  139.9170  143.6651  152.3104 LP  0  0  0  0  0  0  0  0  0  0  0  0  # atno 17342 bound_to 10162
  139.7055  144.7628  151.1201 LP  0  0  0  0  0  0  0  0  0  0  0  0  # atno 17343 bound_to 10162
  157.4227  131.0839  151.1115 LP  0  0  0  0  0  0  0  0  0  0  0  0  # atno 17370 bound_to 10713
  157.1713  130.6268  149.5641 LP  0  0  0  0  0  0  0  0  0  0  0  0  # atno 17371 bound_to 10713
  140.1419  134.4961  155.8025 LP  0  0  0  0  0  0  0  0  0  0  0  0  # atno 17394 bound_to 11000
  141.2184  133.6828  156.7225 LP  0  0  0  0  0  0  0  0  0  0  0  0  # atno 17395 bound_to 11000

$$$$
