AV-unprocessed.smi:2884|AV-procd|sdf|11084|dock2
  -GOLD-   2272015553D 1   1.00000     0.00000
 Structure written by MMmdl.
 42 43  0  0  0  0  0  0  0  0  3 V2000
  149.0883  141.4535  155.0763 C   0  0  0  0  0  0  0  0  0  0  0  0
  147.9669  140.9017  154.1869 C   0  0  0  0  0  0  0  0  0  0  0  0
  146.7156  140.5108  154.9824 C   0  0  0  0  0  0  0  0  0  0  0  0
  146.0149  139.5138  154.2459 O   0  0  0  0  0  0  0  0  0  0  0  0
  145.8792  138.1918  154.7827 C   0  0  0  0  0  0  0  0  0  0  0  0
  145.2227  137.4252  153.6070 C   0  0  0  0  0  0  0  0  0  0  0  0
  143.7831  137.6459  153.5367 N   0  0  0  0  0  0  0  0  0  0  0  0
  142.7368  136.7386  153.6516 C   0  0  0  0  0  0  0  0  0  0  0  0
  142.9466  135.3488  153.8747 C   0  0  0  0  0  0  0  0  0  0  0  0
  141.9086  134.5245  153.9745 N   0  3  0  0  0  0  0  0  0  0  0  0
  140.6570  134.9147  153.8805 N   0  5  0  0  0  0  0  0  0  0  0  0
  140.3221  136.2225  153.6695 C   0  0  0  0  0  0  0  0  0  0  0  0
  139.1604  136.6142  153.5778 O   0  0  0  0  0  0  0  0  0  0  0  0
  141.4461  137.1697  153.5523 C   0  0  0  0  0  0  0  0  0  0  0  0
  141.0886  138.8428  153.2753 Cl  0  0  0  0  0  0  0  0  0  0  0  0
  147.2450  137.5714  155.1921 C   0  0  0  0  0  0  0  0  0  0  0  0
  147.0906  136.1749  155.8206 C   0  0  0  0  0  0  0  0  0  0  0  0
  146.1412  136.2133  157.0284 C   0  0  0  0  0  0  0  0  0  0  0  0
  144.7758  136.8117  156.6543 C   0  0  0  0  0  0  0  0  0  0  0  0
  144.9292  138.2022  156.0094 C   0  0  0  0  0  0  0  0  0  0  0  0
  142.1374  133.5313  154.1358 H   0  0  0  0  0  0  0  0  0  0  0  0
  149.9531  141.7402  154.4779 H   0  0  0  0  0  0  0  0  0  0  0  0
  149.4194  140.7106  155.8028 H   0  0  0  0  0  0  0  0  0  0  0  0
  148.7571  142.3348  155.6261 H   0  0  0  0  0  0  0  0  0  0  0  0
  147.6984  141.6562  153.4472 H   0  0  0  0  0  0  0  0  0  0  0  0
  148.3312  140.0393  153.6277 H   0  0  0  0  0  0  0  0  0  0  0  0
  147.0197  140.1535  155.9649 H   0  0  0  0  0  0  0  0  0  0  0  0
  146.0966  141.3954  155.1257 H   0  0  0  0  0  0  0  0  0  0  0  0
  145.6975  137.6768  152.6619 H   0  0  0  0  0  0  0  0  0  0  0  0
  145.3804  136.3544  153.7397 H   0  0  0  0  0  0  0  0  0  0  0  0
  143.5306  138.5702  153.2155 H   0  0  0  0  0  0  0  0  0  0  0  0
  143.9299  134.9083  153.9732 H   0  0  0  0  0  0  0  0  0  0  0  0
  147.9238  137.5266  154.3403 H   0  0  0  0  0  0  0  0  0  0  0  0
  147.7378  138.1970  155.9348 H   0  0  0  0  0  0  0  0  0  0  0  0
  146.7196  135.4656  155.0819 H   0  0  0  0  0  0  0  0  0  0  0  0
  148.0670  135.8032  156.1324 H   0  0  0  0  0  0  0  0  0  0  0  0
  146.0099  135.2086  157.4312 H   0  0  0  0  0  0  0  0  0  0  0  0
  146.5914  136.8078  157.8245 H   0  0  0  0  0  0  0  0  0  0  0  0
  144.2491  136.1367  155.9798 H   0  0  0  0  0  0  0  0  0  0  0  0
  144.1537  136.8889  157.5465 H   0  0  0  0  0  0  0  0  0  0  0  0
  145.3107  138.8731  156.7778 H   0  0  0  0  0  0  0  0  0  0  0  0
  143.9505  138.5908  155.7258 H   0  0  0  0  0  0  0  0  0  0  0  0
  1  2  1  0  0  0  0
  1 22  1  0  0  0  0
  1 23  1  0  0  0  0
  1 24  1  0  0  0  0
  2  3  1  0  0  0  0
  2 25  1  0  0  0  0
  2 26  1  0  0  0  0
  3  4  1  0  0  0  0
  3 27  1  0  0  0  0
  3 28  1  0  0  0  0
  4  5  1  0  0  0  0
  5 20  1  0  0  0  0
  5  6  1  0  0  0  0
  5 16  1  0  0  0  0
  6 29  1  0  0  0  0
  6 30  1  0  0  0  0
  6  7  1  0  0  0  0
  7  8  1  0  0  0  0
  7 31  1  0  0  0  0
  8 14  2  0  0  0  0
  8  9  1  0  0  0  0
  9 32  1  0  0  0  0
  9 10  2  0  0  0  0
 10 11  1  0  0  0  0
 10 21  1  0  0  0  0
 11 12  1  0  0  0  0
 12 13  2  0  0  0  0
 12 14  1  0  0  0  0
 14 15  1  0  0  0  0
 16 17  1  0  0  0  0
 16 33  1  0  0  0  0
 16 34  1  0  0  0  0
 17 18  1  0  0  0  0
 17 35  1  0  0  0  0
 17 36  1  0  0  0  0
 18 19  1  0  0  0  0
 18 37  1  0  0  0  0
 18 38  1  0  0  0  0
 19 20  1  0  0  0  0
 19 39  1  0  0  0  0
 19 40  1  0  0  0  0
 20 41  1  0  0  0  0
 20 42  1  0  0  0  0
M  CHG  1  10   1
M  CHG  1  11  -1
M  END
> <s_m_source_file>
AV-unprocessed.smi

> <i_m_source_file_index>
2884

> <i_lp_mmshare_version>
43012

> <i_f3d_flags>
0

> <s_epik_input>
W0NIMl0xW0NIMl1bQ0gyXVtDSDJdW0NIMl1DMShPW0NIMl1bQ0gyXVtDSDNdKVtDSDJdW05IXWMyW2NIXW5bbkhdYyg9TyljMkNs

> <s_epik_cmdline>
J2VwaWtfcHl0aG9uJywgJy1waCcsICc3LjAnLCAnLXRuJywgJzgnLCAnLW1hJywgJzIwMCcsICctbWV0YWxfYmluZGluZycsICctaW1hZScsICc8aW5maWxlLm1hZT4nLCAnLW9tYWUnLCAnPG91dGZpbGUubWFlPic=

> <r_lp_tautomer_probability>
0.0138196

> <r_epik_Ionization_Penalty>
2.73941

> <r_epik_Ionization_Penalty_Charging>
2.73941

> <r_epik_Ionization_Penalty_Neutral>
1.09968e-06

> <r_epik_State_Penalty>
2.7044

> <r_epik_Charging_Adjusted_Penalty>
5.44381

> <i_epik_Tot_Q>
0

> <i_epik_Tot_abs_Q>
2

> <r_epik_Metal_State_Penalty>
2.9982

> <b_epik_Metal_Only>
0

> <s_lp_Force_Field>
OPLS_2005

> <r_lp_Energy>
38.2513

> <b_lp_Chiralities_Consistent>
1

> <s_lp_Variant>
AV-unprocessed.smi:2884-2

> <Gold.Version>
5.8.1

> <Gold.Id.Protein>
6NUR|6NUR_protein|mol2

> <Gold.PLP.Fitness>
34.5846

> <Gold.PLP.PLP>
-24.3543

> <Gold.PLP.part.hbond>
-4.1174

> <Gold.PLP.part.metal>
0.0000

> <Gold.PLP.part.buried>
-5.1032

> <Gold.PLP.part.nonpolar>
-16.7052

> <Gold.PLP.part.repulsive>
1.3433

> <Gold.PLP.ligand.clash>
0.0000

> <Gold.PLP.ligand.torsion>
0.8930

> <Gold.PLP.Chemscore.Hbond>
4.0000

> <Gold.PLP.Chemscore.CHOScore>
0.0000

> <Gold.PLP.Chemscore.Metal>
0.0000

> <Gold.Chemscore.Hbonds>
donor molecule, donor type, donor heavy atom, donor atom, acceptor molecule, acceptor atom, score
      L1  H     7    31       P1 10175  1.00
      L1  H    10    21       P1 10957  2.00
      P1  H 11000 11005       L1    11  0.75

> <Gold.PLP.Chemscore.Internal.Correction>
0.0163

> <Gold.Rescore>
     Score         DG    S(hbond)    S(metal)    S(lipo)     H(rot)  DE(clash)    DE(int)     intcor
     13.16     -14.40       2.44        0.00      45.26       1.77       0.43       0.81       ----

> <Gold.Chemscore.Fitness>
13.1642

> <Gold.Chemscore.DG>
-14.4022

> <Gold.Chemscore.ZeroCoef>
-5.4800

> <Gold.Chemscore.Hbond>
2.4398

> <Gold.Chemscore.Metal>
0.0000

> <Gold.Chemscore.Lipo>
45.2560

> <Gold.Chemscore.Internal_Hbond>
0.0000

> <Gold.Chemscore.DEClash>
0.4262

> <Gold.Chemscore.DEInternal>
0.8118

> <Gold.Chemscore.Rot>
1.7663

> <Gold.Chemscore.Internal.Correction>
   9.000000E+99

> <Gold.Chemscore.Hbonds>
donor molecule, donor type, donor heavy atom, donor atom, acceptor molecule, acceptor atom, score
      L1  H     7    31       P1 10175  0.95
      L1  H    10    21       P1 10957  0.99
      P1  H 11000 11005       L1    11  0.06

> <Gold.Chemscore.Hbond.Weighted>
-8.1489

> <Gold.Chemscore.Metal.Weighted>
-0.0000

> <Gold.Chemscore.Lipo.Weighted>
-5.2950

> <Gold.Chemscore.Internal_Hbond.Weighted>
0.0000

> <Gold.Chemscore.DEClash.Weighted>
0.4262

> <Gold.Chemscore.DEInternal.Weighted>
0.8118

> <Gold.Chemscore.Rot.Weighted>
4.5216

> <Gold.Chemscore.Internal.Correction.Weighted>
   9.000000E+99

> <Gold.Protein.RotatedTorsions>
[ 6907 6896 6895 6894 ] final  157.93 input  -60.11 | X-H torsion
[ 7974 7965 7964 7962 ] final -173.20 input  175.53 | X-H torsion
[ 8008 7997 7996 7995 ] final   43.64 input   59.86 | X-H torsion
[ 10167 10162 10161 10158 ] final  171.62 input  -65.29 | X-H torsion
[ 10718 10713 10712 10709 ] final  -61.72 input   66.30 | X-H torsion
[ 10763 10752 10751 10750 ] final  170.30 input  -60.55 | X-H torsion
[ 11005 11000 10999 10996 ] final   44.49 input  -57.11 | X-H torsion

> <Gold.Protein.ActiveResidues>
 VAL166  LYS551  ARG553  GLY616  TRP617  ASP618  TYR619  PRO620  LYS621  CYS622 
 ASP623  PHE694  ASN695  SER759  ASP760  ASP761  ALA762  ILE779  LEU786  VAL792 
 PHE793  MET794  SER795  GLU796  ALA797  LYS798  CYS799  TRP800  GLU811  SER814 

> <Gold.Protein.RotatedAtoms>
  152.0078  133.3850  159.4207 H   0  0  0  0  0  0  0  0  0  0  0  0  # atno 6907 bound_to 6896
  150.6903  134.3763  159.5023 H   0  0  0  0  0  0  0  0  0  0  0  0  # atno 6908 bound_to 6896
  152.1519  134.8981  160.0598 H   0  0  0  0  0  0  0  0  0  0  0  0  # atno 6909 bound_to 6896
  144.7140  140.1658  143.6372 H   0  0  0  0  0  0  0  0  0  0  0  0  # atno 7974 bound_to 7965
  155.3061  140.3388  155.4245 H   0  0  0  0  0  0  0  0  0  0  0  0  # atno 8008 bound_to 7997
  156.1978  140.1721  156.8001 H   0  0  0  0  0  0  0  0  0  0  0  0  # atno 8009 bound_to 7997
  154.5520  140.0703  156.8667 H   0  0  0  0  0  0  0  0  0  0  0  0  # atno 8010 bound_to 7997
  139.5052  144.3465  151.9966 H   0  0  0  0  0  0  0  0  0  0  0  0  # atno 10167 bound_to 10162
  156.0903  130.4201  150.1033 H   0  0  0  0  0  0  0  0  0  0  0  0  # atno 10718 bound_to 10713
  154.3956  135.2754  155.2128 H   0  0  0  0  0  0  0  0  0  0  0  0  # atno 10763 bound_to 10752
  154.4176  135.6007  153.5994 H   0  0  0  0  0  0  0  0  0  0  0  0  # atno 10764 bound_to 10752
  152.9831  135.5964  154.4216 H   0  0  0  0  0  0  0  0  0  0  0  0  # atno 10765 bound_to 10752
  140.1547  134.4417  155.8358 H   0  0  0  0  0  0  0  0  0  0  0  0  # atno 11005 bound_to 11000
  145.8989  139.2418  143.1505 LP  0  0  0  0  0  0  0  0  0  0  0  0  # atno 17320 bound_to 7965
  145.9830  140.8666  143.0104 LP  0  0  0  0  0  0  0  0  0  0  0  0  # atno 17321 bound_to 7965
  140.2902  144.3762  150.6091 LP  0  0  0  0  0  0  0  0  0  0  0  0  # atno 17342 bound_to 10162
  140.5952  143.2167  151.7178 LP  0  0  0  0  0  0  0  0  0  0  0  0  # atno 17343 bound_to 10162
  156.9045  130.9631  151.3572 LP  0  0  0  0  0  0  0  0  0  0  0  0  # atno 17370 bound_to 10713
  157.6050  130.8540  149.8861 LP  0  0  0  0  0  0  0  0  0  0  0  0  # atno 17371 bound_to 10713
  141.2203  133.6887  156.7485 LP  0  0  0  0  0  0  0  0  0  0  0  0  # atno 17394 bound_to 11000
  140.2562  134.8502  157.3715 LP  0  0  0  0  0  0  0  0  0  0  0  0  # atno 17395 bound_to 11000

$$$$
