AV-unprocessed.smi:3056|AV-procd|sdf|11653|dock9
  -GOLD-   2272017 53D 1   1.00000     0.00000
 Structure written by MMmdl.
 47 48  0  0  0  0  0  0  0  0  1 V2000
  144.4211  132.1116  149.6621 C   0  0  0  0  0  0  0  0  0  0  0  0
  145.0110  133.2509  150.4419 C   0  0  0  0  0  0  0  0  0  0  0  0
  146.3248  133.3577  150.9799 C   0  0  0  0  0  0  0  0  0  0  0  0
  146.5288  134.4993  151.6165 N   0  0  0  0  0  0  0  0  0  0  0  0
  145.3581  135.1637  151.5071 N   0  0  0  0  0  0  0  0  0  0  0  0
  145.2131  136.4847  152.1056 C   0  0  2  0  0  0  0  0  0  0  0  0
  145.9911  137.5140  151.2640 C   0  0  0  0  0  0  0  0  0  0  0  0
  145.6352  136.4854  153.5991 C   0  0  2  0  0  0  0  0  0  0  0  0
  144.8859  137.5416  154.4393 C   0  0  0  0  0  0  0  0  0  0  0  0
  147.0721  136.7571  153.6772 N   0  0  0  0  0  0  0  0  0  0  0  0
  147.6424  136.6579  155.0340 C   0  0  0  0  0  0  0  0  0  0  0  0
  149.1828  136.7135  155.0963 C   0  0  0  0  0  0  0  0  0  0  0  0
  149.7940  135.7502  155.5629 O   0  0  0  0  0  0  0  0  0  0  0  0
  149.8245  137.8147  154.6379 N   0  0  0  0  0  0  0  0  0  0  0  0
  151.2643  138.0285  154.7993 C   0  0  0  0  0  0  0  0  0  0  0  0
  151.4587  139.2136  155.7625 C   0  0  0  0  0  0  0  0  0  0  0  0
  150.7943  140.3681  155.2499 O   0  0  0  0  0  0  0  0  0  0  0  0
  149.3959  140.1762  155.0331 C   0  0  1  0  0  0  0  0  0  0  0  0
  148.8095  141.4862  154.4963 C   0  0  0  0  0  0  0  0  0  0  0  0
  149.2010  139.0037  154.0515 C   0  0  0  0  0  0  0  0  0  0  0  0
  144.4232  134.4286  150.8063 C   0  0  0  0  0  0  0  0  0  0  0  0
  145.1138  131.2737  149.5813 H   0  0  0  0  0  0  0  0  0  0  0  0
  144.1608  132.4125  148.6472 H   0  0  0  0  0  0  0  0  0  0  0  0
  143.5120  131.7326  150.1294 H   0  0  0  0  0  0  0  0  0  0  0  0
  147.1322  132.6424  150.9267 H   0  0  0  0  0  0  0  0  0  0  0  0
  144.1550  136.7508  152.0538 H   0  0  0  0  0  0  0  0  0  0  0  0
  145.8160  138.5323  151.6113 H   0  0  0  0  0  0  0  0  0  0  0  0
  145.6859  137.4736  150.2180 H   0  0  0  0  0  0  0  0  0  0  0  0
  147.0655  137.3318  151.3039 H   0  0  0  0  0  0  0  0  0  0  0  0
  145.4071  135.5009  154.0078 H   0  0  0  0  0  0  0  0  0  0  0  0
  143.8112  137.3609  154.4479 H   0  0  0  0  0  0  0  0  0  0  0  0
  145.0473  138.5454  154.0451 H   0  0  0  0  0  0  0  0  0  0  0  0
  145.2071  137.5397  155.4805 H   0  0  0  0  0  0  0  0  0  0  0  0
  147.5626  136.1479  153.0376 H   0  0  0  0  0  0  0  0  0  0  0  0
  147.2540  137.4843  155.6297 H   0  0  0  0  0  0  0  0  0  0  0  0
  147.2805  135.7402  155.4952 H   0  0  0  0  0  0  0  0  0  0  0  0
  151.7867  137.1518  155.1841 H   0  0  0  0  0  0  0  0  0  0  0  0
  151.7141  138.2491  153.8303 H   0  0  0  0  0  0  0  0  0  0  0  0
  151.0728  138.9736  156.7547 H   0  0  0  0  0  0  0  0  0  0  0  0
  152.5191  139.4378  155.8775 H   0  0  0  0  0  0  0  0  0  0  0  0
  148.9163  139.9430  155.9857 H   0  0  0  0  0  0  0  0  0  0  0  0
  147.7366  141.3945  154.3251 H   0  0  0  0  0  0  0  0  0  0  0  0
  149.2769  141.7704  153.5533 H   0  0  0  0  0  0  0  0  0  0  0  0
  148.9641  142.3009  155.2041 H   0  0  0  0  0  0  0  0  0  0  0  0
  149.6863  139.2282  153.1003 H   0  0  0  0  0  0  0  0  0  0  0  0
  148.1472  138.8731  153.8104 H   0  0  0  0  0  0  0  0  0  0  0  0
  143.4265  134.8033  150.6239 H   0  0  0  0  0  0  0  0  0  0  0  0
  1  2  1  0  0  0  0
  1 22  1  0  0  0  0
  1 23  1  0  0  0  0
  1 24  1  0  0  0  0
  2 21  2  0  0  0  0
  2  3  1  0  0  0  0
  3  4  2  0  0  0  0
  3 25  1  0  0  0  0
  4  5  1  0  0  0  0
  5  6  1  0  0  0  0
  5 21  1  0  0  0  0
  6  7  1  0  0  0  0
  6  8  1  0  0  0  0
  6 26  1  0  0  0  0
  7 27  1  0  0  0  0
  7 28  1  0  0  0  0
  7 29  1  0  0  0  0
  8  9  1  0  0  0  0
  8 10  1  0  0  0  0
  8 30  1  0  0  0  0
  9 31  1  0  0  0  0
  9 32  1  0  0  0  0
  9 33  1  0  0  0  0
 10 11  1  0  0  0  0
 10 34  1  0  0  0  0
 11 12  1  0  0  0  0
 11 35  1  0  0  0  0
 11 36  1  0  0  0  0
 12 13  2  0  0  0  0
 12 14  1  0  0  0  0
 14 20  1  0  0  0  0
 14 15  1  0  0  0  0
 15 16  1  0  0  0  0
 15 37  1  0  0  0  0
 15 38  1  0  0  0  0
 16 17  1  0  0  0  0
 16 39  1  0  0  0  0
 16 40  1  0  0  0  0
 17 18  1  0  0  0  0
 18 19  1  0  0  0  0
 18 20  1  0  0  0  0
 18 41  1  0  0  0  0
 19 42  1  0  0  0  0
 19 43  1  0  0  0  0
 19 44  1  0  0  0  0
 20 45  1  0  0  0  0
 20 46  1  0  0  0  0
 21 47  1  0  0  0  0
M  END
> <s_m_source_file>
AV-unprocessed.smi

> <i_m_source_file_index>
3056

> <i_lp_mmshare_version>
43012

> <i_f3d_flags>
0

> <s_epik_input>
W0NIM11jMVtjSF1ubihbY0hdMSlbQ0BIXShbQ0gzXSlbQ0BIXShbQ0gzXSlbTkhdW0NIMl1DKD1PKU4yW0NIMl1bQ0gyXU9bQ0BASF0oW0NIM10pW0NIMl0y

> <s_epik_cmdline>
J2VwaWtfcHl0aG9uJywgJy1waCcsICc3LjAnLCAnLXRuJywgJzgnLCAnLW1hJywgJzIwMCcsICctbWV0YWxfYmluZGluZycsICctaW1hZScsICc8aW5maWxlLm1hZT4nLCAnLW9tYWUnLCAnPG91dGZpbGUubWFlPic=

> <r_lp_tautomer_probability>
1

> <r_epik_Ionization_Penalty>
0.667689

> <r_epik_Ionization_Penalty_Charging>
0

> <r_epik_Ionization_Penalty_Neutral>
0.667689

> <r_epik_State_Penalty>
0.684601

> <r_epik_Charging_Adjusted_Penalty>
0.684601

> <i_epik_Tot_Q>
0

> <i_epik_Tot_abs_Q>
0

> <r_epik_Metal_State_Penalty>
0.681448

> <b_epik_Metal_Only>
0

> <s_lp_Force_Field>
OPLS_2005

> <r_lp_Energy>
29.7123

> <b_lp_Chiralities_Consistent>
1

> <s_lp_Variant>
AV-unprocessed.smi:3056-9

> <Gold.Version>
5.8.1

> <Gold.Id.Protein>
6NUR|6NUR_protein|mol2

> <Gold.PLP.Fitness>
41.0425

> <Gold.PLP.PLP>
-33.2636

> <Gold.PLP.part.hbond>
-2.0000

> <Gold.PLP.part.metal>
0.0000

> <Gold.PLP.part.buried>
0.3778

> <Gold.PLP.part.nonpolar>
-33.5385

> <Gold.PLP.part.repulsive>
1.5303

> <Gold.PLP.ligand.clash>
0.0000

> <Gold.PLP.ligand.torsion>
0.8956

> <Gold.PLP.Chemscore.Hbond>
1.8000

> <Gold.PLP.Chemscore.CHOScore>
1.3640

> <Gold.PLP.Chemscore.Metal>
0.0000

> <Gold.Chemscore.Hbonds>
donor molecule, donor type, donor heavy atom, donor atom, acceptor molecule, acceptor atom, score
      L1  H    10    34       P1  7948  0.78
      P1  H  7989  7998       L1    17  1.00
      L1  C     3    25       P1 10747  0.72
      L1  C    21    47       P1 10186  0.67

> <Gold.PLP.Chemscore.Internal.Correction>
0.0782

> <Gold.Rescore>
     Score         DG    S(hbond)    S(metal)    S(lipo)     H(rot)  DE(clash)    DE(int)     intcor
     11.85     -15.57       1.34        0.00      84.69       1.68       2.64       1.08       ----

> <Gold.Chemscore.Fitness>
11.8451

> <Gold.Chemscore.DG>
-15.5654

> <Gold.Chemscore.ZeroCoef>
-5.4800

> <Gold.Chemscore.Hbond>
1.3400

> <Gold.Chemscore.Metal>
0.0000

> <Gold.Chemscore.Lipo>
84.6917

> <Gold.Chemscore.Internal_Hbond>
0.0000

> <Gold.Chemscore.DEClash>
2.6383

> <Gold.Chemscore.DEInternal>
1.0820

> <Gold.Chemscore.Rot>
1.6793

> <Gold.Chemscore.Internal.Correction>
   9.000000E+99

> <Gold.Chemscore.Hbonds>
donor molecule, donor type, donor heavy atom, donor atom, acceptor molecule, acceptor atom, score
      L1  H    10    34       P1  7948  0.78
      P1  H  7989  7998       L1    17  0.43

> <Gold.Chemscore.Hbond.Weighted>
-4.4755

> <Gold.Chemscore.Metal.Weighted>
-0.0000

> <Gold.Chemscore.Lipo.Weighted>
-9.9089

> <Gold.Chemscore.Internal_Hbond.Weighted>
0.0000

> <Gold.Chemscore.DEClash.Weighted>
2.6383

> <Gold.Chemscore.DEInternal.Weighted>
1.0820

> <Gold.Chemscore.Rot.Weighted>
4.2990

> <Gold.Chemscore.Internal.Correction.Weighted>
   9.000000E+99

> <Gold.Protein.RotatedTorsions>
[ 6907 6896 6895 6894 ] final -118.71 input  -60.11 | X-H torsion
[ 7974 7965 7964 7962 ] final  -23.83 input  175.53 | X-H torsion
[ 8008 7997 7996 7995 ] final  132.24 input   59.86 | X-H torsion
[ 10167 10162 10161 10158 ] final   -9.01 input  -65.29 | X-H torsion
[ 10718 10713 10712 10709 ] final    0.89 input   66.30 | X-H torsion
[ 10763 10752 10751 10750 ] final  109.47 input  -60.55 | X-H torsion
[ 11005 11000 10999 10996 ] final   47.23 input  -57.11 | X-H torsion

> <Gold.Protein.ActiveResidues>
 VAL166  LYS551  ARG553  GLY616  TRP617  ASP618  TYR619  PRO620  LYS621  CYS622 
 ASP623  PHE694  ASN695  SER759  ASP760  ASP761  ALA762  ILE779  LEU786  VAL792 
 PHE793  MET794  SER795  GLU796  ALA797  LYS798  CYS799  TRP800  GLU811  SER814 

> <Gold.Protein.RotatedAtoms>
  150.8243  133.8199  159.3125 H   0  0  0  0  0  0  0  0  0  0  0  0  # atno 6907 bound_to 6896
  151.5948  135.1049  160.0056 H   0  0  0  0  0  0  0  0  0  0  0  0  # atno 6908 bound_to 6896
  152.4329  133.7268  159.6621 H   0  0  0  0  0  0  0  0  0  0  0  0  # atno 6909 bound_to 6896
  146.1592  140.4670  142.8578 H   0  0  0  0  0  0  0  0  0  0  0  0  # atno 7974 bound_to 7965
  156.2980  140.2551  156.3057 H   0  0  0  0  0  0  0  0  0  0  0  0  # atno 8008 bound_to 7997
  154.9374  140.0397  157.2098 H   0  0  0  0  0  0  0  0  0  0  0  0  # atno 8009 bound_to 7997
  154.8159  140.2852  155.5825 H   0  0  0  0  0  0  0  0  0  0  0  0  # atno 8010 bound_to 7997
  140.7075  143.5906  150.8898 H   0  0  0  0  0  0  0  0  0  0  0  0  # atno 10167 bound_to 10162
  156.8401  130.5518  149.5678 H   0  0  0  0  0  0  0  0  0  0  0  0  # atno 10718 bound_to 10713
  153.4352  135.3779  155.2195 H   0  0  0  0  0  0  0  0  0  0  0  0  # atno 10763 bound_to 10752
  154.8752  135.3849  154.4219 H   0  0  0  0  0  0  0  0  0  0  0  0  # atno 10764 bound_to 10752
  153.4757  135.7087  153.6030 H   0  0  0  0  0  0  0  0  0  0  0  0  # atno 10765 bound_to 10752
  140.1297  134.4721  155.8531 H   0  0  0  0  0  0  0  0  0  0  0  0  # atno 11005 bound_to 11000
  144.8004  140.6202  143.6482 LP  0  0  0  0  0  0  0  0  0  0  0  0  # atno 17320 bound_to 7965
  145.4632  139.1511  143.3855 LP  0  0  0  0  0  0  0  0  0  0  0  0  # atno 17321 bound_to 7965
  139.9631  143.6141  152.2996 LP  0  0  0  0  0  0  0  0  0  0  0  0  # atno 17342 bound_to 10162
  139.6701  144.7661  151.1799 LP  0  0  0  0  0  0  0  0  0  0  0  0  # atno 17343 bound_to 10162
  156.0885  130.5877  150.9691 LP  0  0  0  0  0  0  0  0  0  0  0  0  # atno 17370 bound_to 10713
  157.6360  131.0916  150.8348 LP  0  0  0  0  0  0  0  0  0  0  0  0  # atno 17371 bound_to 10713
  141.2168  133.6791  156.7046 LP  0  0  0  0  0  0  0  0  0  0  0  0  # atno 17394 bound_to 11000
  140.2858  134.8280  157.3973 LP  0  0  0  0  0  0  0  0  0  0  0  0  # atno 17395 bound_to 11000

$$$$
