AV-unprocessed.smi:3083|AV-procd|sdf|11745|dock4
  -GOLD-   2272017143D 1   1.00000     0.00000
 Structure written by MMmdl.
 28 29  0  0  0  0  0  0  0  0  2 V2000
  150.2820  137.9924  153.1959 N   0  3  0  0  0  0  0  0  0  0  0  0
  150.5949  138.2206  154.6190 C   0  0  1  0  0  0  0  0  0  0  0  0
  151.8313  139.1332  154.7778 C   0  0  0  0  0  0  0  0  0  0  0  0
  152.1455  139.4095  156.2568 C   0  0  0  0  0  0  0  0  0  0  0  0
  150.9220  139.9662  157.0006 C   0  0  0  0  0  0  0  0  0  0  0  0
  149.7240  139.0093  156.8813 C   0  0  0  0  0  0  0  0  0  0  0  0
  149.3489  138.7064  155.4148 C   0  0  1  0  0  0  0  0  0  0  0  0
  148.6106  139.8193  154.8126 N   0  0  0  0  0  0  0  0  0  0  0  0
  149.0872  141.0897  154.5560 C   0  0  0  0  0  0  0  0  0  0  0  0
  148.0867  141.7963  153.9533 C   0  0  0  0  0  0  0  0  0  0  0  0
  147.0223  140.8587  153.8612 C   0  0  0  0  0  0  0  0  0  0  0  0
  147.3407  139.6796  154.3684 N   0  0  0  0  0  0  0  0  0  0  0  0
  150.2960  138.8769  152.7075 H   0  0  0  0  0  0  0  0  0  0  0  0
  149.3652  137.5771  153.1126 H   0  0  0  0  0  0  0  0  0  0  0  0
  150.8699  137.2450  155.0222 H   0  0  0  0  0  0  0  0  0  0  0  0
  152.6970  138.6636  154.3094 H   0  0  0  0  0  0  0  0  0  0  0  0
  151.6926  140.0784  154.2548 H   0  0  0  0  0  0  0  0  0  0  0  0
  152.4734  138.4871  156.7381 H   0  0  0  0  0  0  0  0  0  0  0  0
  152.9780  140.1094  156.3345 H   0  0  0  0  0  0  0  0  0  0  0  0
  151.1682  140.1177  158.0520 H   0  0  0  0  0  0  0  0  0  0  0  0
  150.6608  140.9482  156.6050 H   0  0  0  0  0  0  0  0  0  0  0  0
  149.9720  138.0742  157.3854 H   0  0  0  0  0  0  0  0  0  0  0  0
  148.8652  139.4185  157.4149 H   0  0  0  0  0  0  0  0  0  0  0  0
  148.6462  137.8717  155.4352 H   0  0  0  0  0  0  0  0  0  0  0  0
  150.0920  141.3842  154.8210 H   0  0  0  0  0  0  0  0  0  0  0  0
  148.1146  142.8235  153.6206 H   0  0  0  0  0  0  0  0  0  0  0  0
  146.0369  140.9973  153.4411 H   0  0  0  0  0  0  0  0  0  0  0  0
  150.9710  137.3741  152.7925 H   0  0  0  0  0  0  0  0  0  0  0  0
  1  2  1  0  0  0  0
  1 13  1  0  0  0  0
  1 14  1  0  0  0  0
  1 28  1  0  0  0  0
  2  7  1  0  0  0  0
  2  3  1  0  0  0  0
  2 15  1  0  0  0  0
  3  4  1  0  0  0  0
  3 16  1  0  0  0  0
  3 17  1  0  0  0  0
  4  5  1  0  0  0  0
  4 18  1  0  0  0  0
  4 19  1  0  0  0  0
  5  6  1  0  0  0  0
  5 20  1  0  0  0  0
  5 21  1  0  0  0  0
  6  7  1  0  0  0  0
  6 22  1  0  0  0  0
  6 23  1  0  0  0  0
  7  8  1  0  0  0  0
  7 24  1  0  0  0  0
  8 12  1  0  0  0  0
  8  9  1  0  0  0  0
  9 10  2  0  0  0  0
  9 25  1  0  0  0  0
 10 11  1  0  0  0  0
 10 26  1  0  0  0  0
 11 12  2  0  0  0  0
 11 27  1  0  0  0  0
M  CHG  1   1   1
M  END
> <s_m_source_file>
AV-unprocessed.smi

> <i_m_source_file_index>
3083

> <i_lp_mmshare_version>
43012

> <i_f3d_flags>
0

> <s_epik_input>
W05IMl1bQ0BASF0xW0NIMl1bQ0gyXVtDSDJdW0NIMl1bQ0BIXTFuMltjSF1bY0hdW2NIXW4y

> <s_epik_cmdline>
J2VwaWtfcHl0aG9uJywgJy1waCcsICc3LjAnLCAnLXRuJywgJzgnLCAnLW1hJywgJzIwMCcsICctbWV0YWxfYmluZGluZycsICctaW1hZScsICc8aW5maWxlLm1hZT4nLCAnLW9tYWUnLCAnPG91dGZpbGUubWFlPic=

> <r_lp_tautomer_probability>
1

> <r_epik_Ionization_Penalty>
0.00385053

> <r_epik_Ionization_Penalty_Charging>
0.0038389

> <r_epik_Ionization_Penalty_Neutral>
1.16305e-05

> <r_epik_State_Penalty>
-0

> <r_epik_Charging_Adjusted_Penalty>
0.0038389

> <i_epik_Tot_Q>
1

> <i_epik_Tot_abs_Q>
1

> <r_epik_Metal_State_Penalty>
-0

> <b_epik_Metal_Only>
0

> <s_lp_Force_Field>
OPLS_2005

> <r_lp_Energy>
16.3847

> <b_lp_Chiralities_Consistent>
1

> <s_lp_Variant>
AV-unprocessed.smi:3083-2

> <Gold.Version>
5.8.1

> <Gold.Id.Protein>
6NUR|6NUR_protein|mol2

> <Gold.PLP.Fitness>
32.7125

> <Gold.PLP.PLP>
-19.0610

> <Gold.PLP.part.hbond>
-3.0000

> <Gold.PLP.part.metal>
0.0000

> <Gold.PLP.part.buried>
2.2567

> <Gold.PLP.part.nonpolar>
-18.1182

> <Gold.PLP.part.repulsive>
0.2195

> <Gold.PLP.ligand.clash>
0.0000

> <Gold.PLP.ligand.torsion>
0.0325

> <Gold.PLP.Chemscore.Hbond>
3.5520

> <Gold.PLP.Chemscore.CHOScore>
0.9986

> <Gold.PLP.Chemscore.Metal>
0.0000

> <Gold.Chemscore.Hbonds>
donor molecule, donor type, donor heavy atom, donor atom, acceptor molecule, acceptor atom, score
      L1  H     1    13       P1  7957  0.97
      L1  H     1    14       P1  7948  0.86
      L1  H     1    28       P1  7949  1.58
      L1  C    11    27       P1 10175  0.86

> <Gold.PLP.Chemscore.Internal.Correction>
0.0647

> <Gold.Rescore>
     Score         DG    S(hbond)    S(metal)    S(lipo)     H(rot)  DE(clash)    DE(int)     intcor
     12.93     -13.15       1.23        0.00      52.36       1.00       0.18       0.04       ----

> <Gold.Chemscore.Fitness>
12.9296

> <Gold.Chemscore.DG>
-13.1464

> <Gold.Chemscore.ZeroCoef>
-5.4800

> <Gold.Chemscore.Hbond>
1.2278

> <Gold.Chemscore.Metal>
0.0000

> <Gold.Chemscore.Lipo>
52.3554

> <Gold.Chemscore.Internal_Hbond>
0.0000

> <Gold.Chemscore.DEClash>
0.1779

> <Gold.Chemscore.DEInternal>
0.0390

> <Gold.Chemscore.Rot>
1.0000

> <Gold.Chemscore.Internal.Correction>
   9.000000E+99

> <Gold.Chemscore.Hbonds>
donor molecule, donor type, donor heavy atom, donor atom, acceptor molecule, acceptor atom, score
      L1  H     1    13       P1  7957  0.34
      L1  H     1    14       P1  7948  0.40
      L1  H     1    28       P1  7949  0.18

> <Gold.Chemscore.Hbond.Weighted>
-4.1009

> <Gold.Chemscore.Metal.Weighted>
-0.0000

> <Gold.Chemscore.Lipo.Weighted>
-6.1256

> <Gold.Chemscore.Internal_Hbond.Weighted>
0.0000

> <Gold.Chemscore.DEClash.Weighted>
0.1779

> <Gold.Chemscore.DEInternal.Weighted>
0.0390

> <Gold.Chemscore.Rot.Weighted>
2.5600

> <Gold.Chemscore.Internal.Correction.Weighted>
   9.000000E+99

> <Gold.Protein.RotatedTorsions>
[ 6907 6896 6895 6894 ] final  -22.53 input  -60.11 | X-H torsion
[ 7974 7965 7964 7962 ] final   20.14 input  175.53 | X-H torsion
[ 8008 7997 7996 7995 ] final  149.72 input   59.86 | X-H torsion
[ 10167 10162 10161 10158 ] final  161.58 input  -65.29 | X-H torsion
[ 10718 10713 10712 10709 ] final  158.43 input   66.30 | X-H torsion
[ 10763 10752 10751 10750 ] final   -5.76 input  -60.55 | X-H torsion
[ 11005 11000 10999 10996 ] final  149.87 input  -57.11 | X-H torsion

> <Gold.Protein.ActiveResidues>
 VAL166  LYS551  ARG553  GLY616  TRP617  ASP618  TYR619  PRO620  LYS621  CYS622 
 ASP623  PHE694  ASN695  SER759  ASP760  ASP761  ALA762  ILE779  LEU786  VAL792 
 PHE793  MET794  SER795  GLU796  ALA797  LYS798  CYS799  TRP800  GLU811  SER814 

> <Gold.Protein.RotatedAtoms>
  151.2172  135.0504  159.8934 H   0  0  0  0  0  0  0  0  0  0  0  0  # atno 6907 bound_to 6896
  152.5419  134.0680  159.8192 H   0  0  0  0  0  0  0  0  0  0  0  0  # atno 6908 bound_to 6896
  151.0841  133.5318  159.2650 H   0  0  0  0  0  0  0  0  0  0  0  0  # atno 6909 bound_to 6896
  146.2123  139.8212  142.8679 H   0  0  0  0  0  0  0  0  0  0  0  0  # atno 7974 bound_to 7965
  156.2744  140.2094  156.5903 H   0  0  0  0  0  0  0  0  0  0  0  0  # atno 8008 bound_to 7997
  154.6987  140.0523  157.0460 H   0  0  0  0  0  0  0  0  0  0  0  0  # atno 8009 bound_to 7997
  155.0764  140.3182  155.4617 H   0  0  0  0  0  0  0  0  0  0  0  0  # atno 8010 bound_to 7997
  139.4851  144.4523  151.8814 H   0  0  0  0  0  0  0  0  0  0  0  0  # atno 10167 bound_to 10162
  157.1779  131.0625  151.2147 H   0  0  0  0  0  0  0  0  0  0  0  0  # atno 10718 bound_to 10713
  153.4030  135.7005  153.6412 H   0  0  0  0  0  0  0  0  0  0  0  0  # atno 10763 bound_to 10752
  153.4938  135.3667  155.2505 H   0  0  0  0  0  0  0  0  0  0  0  0  # atno 10764 bound_to 10752
  154.8712  135.4095  154.3369 H   0  0  0  0  0  0  0  0  0  0  0  0  # atno 10765 bound_to 10752
  140.1082  134.8941  157.1897 H   0  0  0  0  0  0  0  0  0  0  0  0  # atno 11005 bound_to 11000
  145.3094  141.0216  143.3563 LP  0  0  0  0  0  0  0  0  0  0  0  0  # atno 17320 bound_to 7965
  144.8947  139.4728  143.6661 LP  0  0  0  0  0  0  0  0  0  0  0  0  # atno 17321 bound_to 7965
  140.3980  144.2530  150.5895 LP  0  0  0  0  0  0  0  0  0  0  0  0  # atno 17342 bound_to 10162
  140.5084  143.2297  151.8573 LP  0  0  0  0  0  0  0  0  0  0  0  0  # atno 17343 bound_to 10162
  157.3980  130.7318  149.6746 LP  0  0  0  0  0  0  0  0  0  0  0  0  # atno 17370 bound_to 10713
  155.9728  130.4128  150.4052 LP  0  0  0  0  0  0  0  0  0  0  0  0  # atno 17371 bound_to 10713
  140.3127  134.3006  155.7263 LP  0  0  0  0  0  0  0  0  0  0  0  0  # atno 17394 bound_to 11000
  141.2123  133.7660  156.9799 LP  0  0  0  0  0  0  0  0  0  0  0  0  # atno 17395 bound_to 11000

$$$$
