AV-unprocessed.smi:228|AV-procd|sdf|1745|dock1
  -GOLD-   2262020253D 1   1.00000     0.00000
 Structure written by MMmdl.
 59 62  0  0  0  0  0  0  0  0  1 V2000
  148.5352  140.1340  154.3926 C   0  0  0  0  0  0  0  0  0  0  0  0
  149.0128  138.8565  154.9138 N   0  0  0  0  0  0  0  0  0  0  0  0
  149.8843  138.8776  156.0865 C   0  0  0  0  0  0  0  0  0  0  0  0
  150.6628  140.2066  156.2209 C   0  0  2  0  0  0  0  0  0  0  0  0
  151.5582  140.2753  155.1290 O   0  0  0  0  0  0  0  0  0  0  0  0
  151.4888  140.2750  157.5257 C   0  0  0  0  0  0  0  0  0  0  0  0
  151.5143  141.5806  158.1881 N   0  0  0  0  0  0  0  0  0  0  0  0
  151.4635  142.6955  157.2449 C   0  0  0  0  0  0  0  0  0  0  0  0
  151.5268  144.0574  157.9590 C   0  0  0  0  0  0  0  0  0  0  0  0
  152.6991  144.1244  158.7641 O   0  0  0  0  0  0  0  0  0  0  0  0
  152.7591  143.0812  159.7310 C   0  0  0  0  0  0  0  0  0  0  0  0
  152.7058  141.7184  159.0196 C   0  0  0  0  0  0  0  0  0  0  0  0
  148.2701  137.7408  154.6873 C   0  0  0  0  0  0  0  0  0  0  0  0
  148.5924  136.5891  155.3345 N   0  0  0  0  0  0  0  0  0  0  0  0
  147.8960  135.4705  155.1164 C   0  0  0  0  0  0  0  0  0  0  0  0
  146.8499  135.2841  154.3112 N   0  0  0  0  0  0  0  0  0  0  0  0
  146.5006  136.4386  153.6751 C   0  0  0  0  0  0  0  0  0  0  0  0
  147.1541  137.6984  153.8006 C   0  0  0  0  0  0  0  0  0  0  0  0
  146.5188  138.6357  152.9952 N   0  0  0  0  0  0  0  0  0  0  0  0
  145.5656  137.9647  152.4098 C   0  0  0  0  0  0  0  0  0  0  0  0
  145.4577  136.6439  152.7862 N   0  0  0  0  0  0  0  0  0  0  0  0
  144.5300  135.6681  152.2772 C   0  0  0  0  0  0  0  0  0  0  0  0
  144.6997  134.1720  152.5756 C   0  0  0  0  0  0  0  0  0  0  0  0
  145.2783  133.9459  151.1621 C   0  0  0  0  0  0  0  0  0  0  0  0
  146.8208  133.9739  151.1098 C   0  0  0  0  0  0  0  0  0  0  0  0
  147.3974  132.7652  151.5596 O   0  0  0  0  0  0  0  0  0  0  0  0
  144.7691  132.6723  150.4635 C   0  0  0  0  0  0  0  0  0  0  0  0
  145.0780  132.6629  149.0850 O   0  0  0  0  0  0  0  0  0  0  0  0
  144.5568  135.2618  150.7988 C   0  0  0  0  0  0  0  0  0  0  0  0
  148.2531  140.0445  153.3428 H   0  0  0  0  0  0  0  0  0  0  0  0
  149.3120  140.8955  154.4646 H   0  0  0  0  0  0  0  0  0  0  0  0
  147.6699  140.4814  154.9582 H   0  0  0  0  0  0  0  0  0  0  0  0
  149.2332  138.7399  156.9500 H   0  0  0  0  0  0  0  0  0  0  0  0
  150.5542  138.0178  156.1181 H   0  0  0  0  0  0  0  0  0  0  0  0
  149.9778  141.0546  156.1731 H   0  0  0  0  0  0  0  0  0  0  0  0
  152.1986  139.5865  155.2250 H   0  0  0  0  0  0  0  0  0  0  0  0
  151.0446  139.5727  158.2318 H   0  0  0  0  0  0  0  0  0  0  0  0
  152.5034  139.9101  157.3563 H   0  0  0  0  0  0  0  0  0  0  0  0
  152.2899  142.6193  156.5367 H   0  0  0  0  0  0  0  0  0  0  0  0
  150.5446  142.6534  156.6610 H   0  0  0  0  0  0  0  0  0  0  0  0
  151.5484  144.8673  157.2298 H   0  0  0  0  0  0  0  0  0  0  0  0
  150.6425  144.2090  158.5798 H   0  0  0  0  0  0  0  0  0  0  0  0
  153.6833  143.1759  160.3010 H   0  0  0  0  0  0  0  0  0  0  0  0
  151.9339  143.1820  160.4376 H   0  0  0  0  0  0  0  0  0  0  0  0
  152.7317  140.9233  159.7656 H   0  0  0  0  0  0  0  0  0  0  0  0
  153.6004  141.5989  158.4063 H   0  0  0  0  0  0  0  0  0  0  0  0
  148.2245  134.5998  155.6646 H   0  0  0  0  0  0  0  0  0  0  0  0
  144.9108  138.4284  151.6871 H   0  0  0  0  0  0  0  0  0  0  0  0
  143.5411  136.0211  152.5719 H   0  0  0  0  0  0  0  0  0  0  0  0
  145.3853  133.9232  153.3850 H   0  0  0  0  0  0  0  0  0  0  0  0
  143.7386  133.6780  152.7282 H   0  0  0  0  0  0  0  0  0  0  0  0
  147.1766  134.1431  150.0937 H   0  0  0  0  0  0  0  0  0  0  0  0
  147.2190  134.7940  151.7077 H   0  0  0  0  0  0  0  0  0  0  0  0
  147.7560  132.3071  150.8150 H   0  0  0  0  0  0  0  0  0  0  0  0
  145.1833  131.7752  150.9244 H   0  0  0  0  0  0  0  0  0  0  0  0
  143.6855  132.5887  150.5526 H   0  0  0  0  0  0  0  0  0  0  0  0
  145.2696  133.5473  148.8130 H   0  0  0  0  0  0  0  0  0  0  0  0
  143.5543  135.0970  150.4000 H   0  0  0  0  0  0  0  0  0  0  0  0
  145.1264  135.9191  150.1420 H   0  0  0  0  0  0  0  0  0  0  0  0
  1  2  1  0  0  0  0
  1 30  1  0  0  0  0
  1 31  1  0  0  0  0
  1 32  1  0  0  0  0
  2  3  1  0  0  0  0
  2 13  1  0  0  0  0
  3  4  1  0  0  0  0
  3 33  1  0  0  0  0
  3 34  1  0  0  0  0
  4  5  1  0  0  0  0
  4  6  1  0  0  0  0
  4 35  1  0  0  0  0
  5 36  1  0  0  0  0
  6  7  1  0  0  0  0
  6 37  1  0  0  0  0
  6 38  1  0  0  0  0
  7 12  1  0  0  0  0
  7  8  1  0  0  0  0
  8  9  1  0  0  0  0
  8 39  1  0  0  0  0
  8 40  1  0  0  0  0
  9 10  1  0  0  0  0
  9 41  1  0  0  0  0
  9 42  1  0  0  0  0
 10 11  1  0  0  0  0
 11 12  1  0  0  0  0
 11 43  1  0  0  0  0
 11 44  1  0  0  0  0
 12 45  1  0  0  0  0
 12 46  1  0  0  0  0
 13 18  1  0  0  0  0
 13 14  2  0  0  0  0
 14 15  1  0  0  0  0
 15 16  2  0  0  0  0
 15 47  1  0  0  0  0
 16 17  1  0  0  0  0
 17 21  1  0  0  0  0
 17 18  2  0  0  0  0
 18 19  1  0  0  0  0
 19 20  2  0  0  0  0
 20 21  1  0  0  0  0
 20 48  1  0  0  0  0
 21 22  1  0  0  0  0
 22 29  1  0  0  0  0
 22 23  1  0  0  0  0
 22 49  1  0  0  0  0
 23 24  1  0  0  0  0
 23 50  1  0  0  0  0
 23 51  1  0  0  0  0
 24 25  1  0  0  0  0
 24 27  1  0  0  0  0
 24 29  1  0  0  0  0
 25 26  1  0  0  0  0
 25 52  1  0  0  0  0
 25 53  1  0  0  0  0
 26 54  1  0  0  0  0
 27 28  1  0  0  0  0
 27 55  1  0  0  0  0
 27 56  1  0  0  0  0
 28 57  1  0  0  0  0
 29 58  1  0  0  0  0
 29 59  1  0  0  0  0
M  END
> <s_m_source_file>
AV-unprocessed.smi

> <i_m_source_file_index>
228

> <i_lp_mmshare_version>
43012

> <i_f3d_flags>
0

> <s_epik_input>
W0NIMl0xW0NIMl1PW0NIMl1bQ0gyXU4xW0NIMl1bQ0BASF0oW09IXSlbQ0gyXU4oW0NIM10pYyhuW2NIXW4yKWMoYzIzKW5bY0hdbjNbQ0hdKFtDSDJdNClbQ0gyXUM0KFtDSDJdW09IXSlbQ0gyXVtPSF0=

> <s_epik_cmdline>
J2VwaWtfcHl0aG9uJywgJy1waCcsICc3LjAnLCAnLXRuJywgJzgnLCAnLW1hJywgJzIwMCcsICctbWV0YWxfYmluZGluZycsICctaW1hZScsICc8aW5maWxlLm1hZT4nLCAnLW9tYWUnLCAnPG91dGZpbGUubWFlPic=

> <r_lp_tautomer_probability>
1

> <r_epik_Ionization_Penalty>
0.423559

> <r_epik_Ionization_Penalty_Charging>
0

> <r_epik_Ionization_Penalty_Neutral>
0.423559

> <r_epik_State_Penalty>
0.438466

> <r_epik_Charging_Adjusted_Penalty>
0.438466

> <i_epik_Tot_Q>
0

> <i_epik_Tot_abs_Q>
0

> <r_epik_Metal_State_Penalty>
0.436601

> <b_epik_Metal_Only>
0

> <s_lp_Force_Field>
OPLS_2005

> <r_lp_Energy>
66.0814

> <b_lp_Chiralities_Consistent>
1

> <s_lp_Variant>
AV-unprocessed.smi:228-3

> <Gold.Version>
5.8.1

> <Gold.Id.Protein>
6NUR|6NUR_protein|mol2

> <Gold.PLP.Fitness>
50.8661

> <Gold.PLP.PLP>
-38.2325

> <Gold.PLP.part.hbond>
-3.0000

> <Gold.PLP.part.metal>
0.0000

> <Gold.PLP.part.buried>
-5.2362

> <Gold.PLP.part.nonpolar>
-29.6243

> <Gold.PLP.part.repulsive>
0.4408

> <Gold.PLP.ligand.clash>
0.0000

> <Gold.PLP.ligand.torsion>
1.4315

> <Gold.PLP.Chemscore.Hbond>
2.9760

> <Gold.PLP.Chemscore.CHOScore>
1.6809

> <Gold.PLP.Chemscore.Metal>
0.0000

> <Gold.Chemscore.Hbonds>
donor molecule, donor type, donor heavy atom, donor atom, acceptor molecule, acceptor atom, score
      L1  H    26    54       P1 10747  0.88
      L1  H    28    57       P1  7921  1.00
      P1  H  7989  7998       L1     5  0.96
      L1  C    20    48       P1 10171  1.00
      L1  C    20    48       P1 10175  0.74

> <Gold.PLP.Chemscore.Internal.Correction>
1.5260

> <Gold.Rescore>
     Score         DG    S(hbond)    S(metal)    S(lipo)     H(rot)  DE(clash)    DE(int)     intcor
      9.14     -13.24       2.53        0.00      96.04       4.66       0.40       3.69       ----

> <Gold.Chemscore.Fitness>
9.1432

> <Gold.Chemscore.DG>
-13.2371

> <Gold.Chemscore.ZeroCoef>
-5.4800

> <Gold.Chemscore.Hbond>
2.5298

> <Gold.Chemscore.Metal>
0.0000

> <Gold.Chemscore.Lipo>
96.0443

> <Gold.Chemscore.Internal_Hbond>
0.0000

> <Gold.Chemscore.DEClash>
0.4038

> <Gold.Chemscore.DEInternal>
3.6901

> <Gold.Chemscore.Rot>
4.6600

> <Gold.Chemscore.Internal.Correction>
   9.000000E+99

> <Gold.Chemscore.Hbonds>
donor molecule, donor type, donor heavy atom, donor atom, acceptor molecule, acceptor atom, score
      L1  H    26    54       P1 10747  0.85
      L1  H    28    57       P1  7921  0.57
      P1  H  7989  7998       L1     5  0.60

> <Gold.Chemscore.Hbond.Weighted>
-8.4496

> <Gold.Chemscore.Metal.Weighted>
-0.0000

> <Gold.Chemscore.Lipo.Weighted>
-11.2372

> <Gold.Chemscore.Internal_Hbond.Weighted>
0.0000

> <Gold.Chemscore.DEClash.Weighted>
0.4038

> <Gold.Chemscore.DEInternal.Weighted>
3.6901

> <Gold.Chemscore.Rot.Weighted>
11.9297

> <Gold.Chemscore.Internal.Correction.Weighted>
   9.000000E+99

> <Gold.Protein.RotatedTorsions>
[ 6907 6896 6895 6894 ] final   40.73 input  -60.11 | X-H torsion
[ 7974 7965 7964 7962 ] final  151.23 input  175.53 | X-H torsion
[ 8008 7997 7996 7995 ] final   15.37 input   59.86 | X-H torsion
[ 10167 10162 10161 10158 ] final  134.79 input  -65.29 | X-H torsion
[ 10718 10713 10712 10709 ] final  152.38 input   66.30 | X-H torsion
[ 10763 10752 10751 10750 ] final   44.36 input  -60.55 | X-H torsion
[ 11005 11000 10999 10996 ] final   25.96 input  -57.11 | X-H torsion

> <Gold.Protein.ActiveResidues>
 VAL166  LYS551  ARG553  GLY616  TRP617  ASP618  TYR619  PRO620  LYS621  CYS622 
 ASP623  PHE694  ASN695  SER759  ASP760  ASP761  ALA762  ILE779  LEU786  VAL792 
 PHE793  MET794  SER795  GLU796  ALA797  LYS798  CYS799  TRP800  GLU811  SER814 

> <Gold.Protein.RotatedAtoms>
  152.1863  134.8711  160.0521 H   0  0  0  0  0  0  0  0  0  0  0  0  # atno 6907 bound_to 6896
  151.9616  133.3692  159.4046 H   0  0  0  0  0  0  0  0  0  0  0  0  # atno 6908 bound_to 6896
  150.6926  134.4158  159.5226 H   0  0  0  0  0  0  0  0  0  0  0  0  # atno 6909 bound_to 6896
  144.8307  139.6511  143.6060 H   0  0  0  0  0  0  0  0  0  0  0  0  # atno 7974 bound_to 7965
  154.8618  140.2945  155.5535 H   0  0  0  0  0  0  0  0  0  0  0  0  # atno 8008 bound_to 7997
  156.3020  140.2476  156.3525 H   0  0  0  0  0  0  0  0  0  0  0  0  # atno 8009 bound_to 7997
  154.8911  140.0394  157.1828 H   0  0  0  0  0  0  0  0  0  0  0  0  # atno 8010 bound_to 7997
  139.5242  144.6550  151.5190 H   0  0  0  0  0  0  0  0  0  0  0  0  # atno 10167 bound_to 10162
  157.2585  131.0793  151.1682 H   0  0  0  0  0  0  0  0  0  0  0  0  # atno 10718 bound_to 10713
  152.9842  135.6073  154.3262 H   0  0  0  0  0  0  0  0  0  0  0  0  # atno 10763 bound_to 10752
  154.2968  135.2773  155.2631 H   0  0  0  0  0  0  0  0  0  0  0  0  # atno 10764 bound_to 10752
  154.4901  135.5894  153.6509 H   0  0  0  0  0  0  0  0  0  0  0  0  # atno 10765 bound_to 10752
  140.3422  134.2321  155.7689 H   0  0  0  0  0  0  0  0  0  0  0  0  # atno 11005 bound_to 11000
  146.2610  139.6410  142.9362 LP  0  0  0  0  0  0  0  0  0  0  0  0  # atno 17320 bound_to 7965
  145.4902  141.0438  143.2597 LP  0  0  0  0  0  0  0  0  0  0  0  0  # atno 17321 bound_to 7965
  140.6371  143.8962  150.6657 LP  0  0  0  0  0  0  0  0  0  0  0  0  # atno 17342 bound_to 10162
  140.2285  143.3754  152.1585 LP  0  0  0  0  0  0  0  0  0  0  0  0  # atno 17343 bound_to 10162
  157.3201  130.6933  149.6264 LP  0  0  0  0  0  0  0  0  0  0  0  0  # atno 17370 bound_to 10713
  155.9664  130.4338  150.5021 LP  0  0  0  0  0  0  0  0  0  0  0  0  # atno 17371 bound_to 10713
  141.2035  133.7909  157.0334 LP  0  0  0  0  0  0  0  0  0  0  0  0  # atno 17394 bound_to 11000
  140.0772  134.9669  157.1565 LP  0  0  0  0  0  0  0  0  0  0  0  0  # atno 17395 bound_to 11000

$$$$
