#       Name:                AV-unprocessed.smi:927
#       Creating user name   scv26
#       Creation time:       Fri Mar 27 02:09:29 2020


#       File generated by GOLD software.
#

@<TRIPOS>MOLECULE
AV-unprocessed.smi:927
    24    24     1
SMALL
NO_CHARGES


@<TRIPOS>ATOM
      1 ****        -1.9761   2.3768  -0.0595 N.4            1 S1                 1.0000
      2 ****        -1.4510   1.0070   0.0816 C.3            1 S1                 0.0000
      3 ****         0.0786   0.9606  -0.0841 C.3            1 S1                 0.0000
      4 ****         0.6711   1.7341   0.9413 O.3            1 S1                 0.0000
      5 ****         0.5900  -0.4715  -0.0753 C.ar           1 S1                 0.0000
      6 ****         0.6903  -1.2044   1.1273 C.ar           1 S1                 0.0000
      7 ****         1.1668  -2.5295   1.0716 C.ar           1 S1                 0.0000
      8 ****         1.5310  -3.1382  -0.0772 N.ar           1 S1                 0.0000
      9 ****         1.4308  -2.4340  -1.2247 C.ar           1 S1                 0.0000
     10 ****         0.9672  -1.1040  -1.2786 C.ar           1 S1                 0.0000
     11 ****        -2.9789   2.3688   0.0592 H              1 S1                 0.0000
     12 ****        -1.7464   2.7350  -0.9754 H              1 S1                 0.0000
     13 ****        -1.7476   0.6103   1.0535 H              1 S1                 0.0000
     14 ****        -1.9281   0.3841  -0.6759 H              1 S1                 0.0000
     15 ****         0.3524   1.4183  -1.0359 H              1 S1                 0.0000
     16 ****         1.6080   1.7356   0.8122 H              1 S1                 0.0000
     17 ****         0.4091  -0.7658   2.0736 H              1 S1                 0.0000
     18 ****         1.2560  -3.1163   1.9739 H              1 S1                 0.0000
     19 ****         1.7278  -2.9459  -2.1281 H              1 S1                 0.0000
     20 ****         0.9055  -0.5869  -2.2249 H              1 S1                 0.0000
     21 ****        -1.5573   2.9662   0.6461 H              1 S1                 0.0000
     22 ****         0.4540   1.3360   1.8325 LP             1 S1                 0.0000
     23 ****         0.3235   2.6708   0.9010 LP             1 S1                 0.0000
     24 ****         1.8645  -4.0810  -0.0781 LP             1 S1                 0.0000
@<TRIPOS>BOND
    1    1    2 1     
    2    1   11 1     
    3    1   12 1     
    4    1   21 1     
    5    2    3 1     
    6    2   13 1     
    7    2   14 1     
    8    3    4 1     
    9    3    5 1     
   10    3   15 1     
   11    4   16 1     
   12    5   10 ar    
   13    5    6 ar    
   14    6    7 ar    
   15    6   17 1     
   16    7    8 ar    
   17    7   18 1     
   18    8    9 ar    
   19    9   10 ar    
   20    9   19 1     
   21   10   20 1     
   22    4   22 1     
   23    4   23 1     
   24    8   24 1     
@<TRIPOS>SUBSTRUCTURE
      1 S1             1
@<TRIPOS>SET
LONE_PAIRS      STATIC     ATOMS    <user>   **** ""
3 22 23 24
DONOR_HYDROGENS      STATIC     ATOMS    <user>   **** ""
4 11 12 21 16
ATOM$BLUE        STATIC     ATOMS    COLORGROUP SYSTEM
3 22 23 24
ATOM$RED        STATIC     ATOMS    COLORGROUP SYSTEM
4 11 12 21 16
