#       Name:                AV-unprocessed.smi:2448
#       Creating user name   scv26
#       Creation time:       Fri Mar 27 13:28:22 2020


#       File generated by GOLD software.
#

@<TRIPOS>MOLECULE
AV-unprocessed.smi:2448
    41    42     1
SMALL
NO_CHARGES


@<TRIPOS>ATOM
      1 ****        -2.6845  -0.8037   0.7535 O.3            1 S1                 0.0000
      2 ****        -1.9024   0.3523   0.9978 C.3            1 S1                 0.0000
      3 ****        -0.4930   0.1092   0.4206 C.3            1 S1                 0.0000
      4 ****         0.2476  -0.8993   1.1808 N.3            1 S1                 0.0000
      5 ****         1.6773  -1.0405   0.8644 C.3            1 S1                 0.0000
      6 ****         1.9347  -1.6205  -0.5520 C.3            1 S1                 0.0000
      7 ****         1.7663  -0.6370  -1.6996 C.ar           1 S1                 0.0000
      8 ****         0.8854  -0.9200  -2.7649 C.ar           1 S1                 0.0000
      9 ****         0.7628   0.0213  -3.8064 C.ar           1 S1                 0.0000
     10 ****         1.4515   1.1820  -3.8418 N.ar           1 S1                 0.0000
     11 ****         2.3020   1.4421  -2.8260 C.ar           1 S1                 0.0000
     12 ****         2.4978   0.5691  -1.7372 C.ar           1 S1                 0.0000
     13 ****         2.3589  -1.9017   1.9490 C.3            1 S1                 0.0000
     14 ****         2.1336  -1.3759   3.1538 F              1 S1                 0.0000
     15 ****         1.8865  -3.1488   1.9279 F              1 S1                 0.0000
     16 ****         3.6772  -1.9346   1.7533 F              1 S1                 0.0000
     17 ****        -2.6000   1.5343   0.3044 C.3            1 S1                 0.0000
     18 ****        -3.8348   1.9021   1.1323 C.3            1 S1                 0.0000
     19 ****        -3.4275   1.6164   2.8723 S.3            1 S1                 0.0000
     20 ****        -1.9138   0.6891   2.5006 C.3            1 S1                 0.0000
     21 ****        -2.6846  -0.9750  -0.1758 H              1 S1                 0.0000
     22 ****        -0.5836  -0.1836  -0.6236 H              1 S1                 0.0000
     23 ****         0.0614   1.0484   0.4354 H              1 S1                 0.0000
     24 ****         0.1406  -0.7207   2.1744 H              1 S1                 0.0000
     25 ****         2.1472  -0.0588   0.9297 H              1 S1                 0.0000
     26 ****         2.9603  -1.9835  -0.6181 H              1 S1                 0.0000
     27 ****         1.3030  -2.4948  -0.7146 H              1 S1                 0.0000
     28 ****         0.3098  -1.8338  -2.7847 H              1 S1                 0.0000
     29 ****         0.0927  -0.1632  -4.6330 H              1 S1                 0.0000
     30 ****         2.8442   2.3744  -2.8827 H              1 S1                 0.0000
     31 ****         3.1945   0.8248  -0.9525 H              1 S1                 0.0000
     32 ****        -1.9257   2.3916   0.2852 H              1 S1                 0.0000
     33 ****        -2.8591   1.3150  -0.7322 H              1 S1                 0.0000
     34 ****        -4.1497   2.9324   0.9659 H              1 S1                 0.0000
     35 ****        -4.6704   1.2532   0.8684 H              1 S1                 0.0000
     36 ****        -1.8347  -0.1977   3.1307 H              1 S1                 0.0000
     37 ****        -1.0711   1.3372   2.7437 H              1 S1                 0.0000
     38 ****        -3.6212  -0.6500   1.0682 LP             1 S1                 0.0000
     39 ****        -2.2933  -1.5847   1.2404 LP             1 S1                 0.0000
     40 ****        -0.1605  -1.7694   0.9042 LP             1 S1                 0.0000
     41 ****         1.3354   1.8282  -4.5960 LP             1 S1                 0.0000
@<TRIPOS>BOND
    1    1    2 1     
    2    1   21 1     
    3    2   20 1     
    4    2    3 1     
    5    2   17 1     
    6    3    4 1     
    7    3   22 1     
    8    3   23 1     
    9    4    5 1     
   10    4   24 1     
   11    5    6 1     
   12    5   13 1     
   13    5   25 1     
   14    6    7 1     
   15    6   26 1     
   16    6   27 1     
   17    7   12 ar    
   18    7    8 ar    
   19    8    9 ar    
   20    8   28 1     
   21    9   10 ar    
   22    9   29 1     
   23   10   11 ar    
   24   11   12 ar    
   25   11   30 1     
   26   12   31 1     
   27   13   14 1     
   28   13   15 1     
   29   13   16 1     
   30   17   18 1     
   31   17   32 1     
   32   17   33 1     
   33   18   19 1     
   34   18   34 1     
   35   18   35 1     
   36   19   20 1     
   37   20   36 1     
   38   20   37 1     
   39    1   38 1     
   40    1   39 1     
   41    4   40 1     
   42   10   41 1     
@<TRIPOS>SUBSTRUCTURE
      1 S1             1
@<TRIPOS>SET
LONE_PAIRS      STATIC     ATOMS    <user>   **** ""
4 38 39 40 41
DONOR_HYDROGENS      STATIC     ATOMS    <user>   **** ""
2 21 24
ATOM$BLUE        STATIC     ATOMS    COLORGROUP SYSTEM
4 38 39 40 41
ATOM$RED        STATIC     ATOMS    COLORGROUP SYSTEM
2 21 24
