AV-unprocessed.smi:1809|AV-procd|sdf|7327|dock5
  -GOLD-   22720 8583D 1   1.00000     0.00000
 Structure written by MMmdl.
 39 41  0  0  0  0  0  0  0  0  3 V2000
  153.4853  142.8343  160.5331 C   0  0  0  0  0  0  0  0  0  0  0  0
  152.7723  142.1149  159.4402 C   0  0  0  0  0  0  0  0  0  0  0  0
  152.3738  142.7182  158.3175 N   0  0  0  0  0  0  0  0  0  0  0  0
  151.7334  141.8425  157.4526 N   0  0  0  0  0  0  0  0  0  0  0  0
  151.6661  140.5903  157.9271 C   0  0  0  0  0  0  0  0  0  0  0  0
  151.0807  139.5919  157.2451 N   0  5  0  0  0  0  0  0  0  0  0  0
  150.6792  139.7896  155.9699 C   0  0  0  0  0  0  0  0  0  0  0  0
  151.1677  140.5822  155.1614 O   0  0  0  0  0  0  0  0  0  0  0  0
  149.6449  139.0215  155.6068 N   0  0  0  0  0  0  0  0  0  0  0  0
  149.0054  139.0479  154.2994 C   0  0  0  0  0  0  0  0  0  0  0  0
  147.5096  139.3935  154.4287 C   0  0  2  0  0  0  0  0  0  0  0  0
  146.6326  138.1496  154.7099 C   0  0  0  0  0  0  0  0  0  0  0  0
  146.5089  137.3616  153.4692 N   0  3  1  0  0  0  0  0  0  0  0  0
  145.7207  136.1182  153.5104 C   0  0  0  0  0  0  0  0  0  0  0  0
  145.2779  135.8816  152.0527 C   0  0  0  0  0  0  0  0  0  0  0  0
  145.7121  137.1372  151.2750 C   0  0  0  0  0  0  0  0  0  0  0  0
  145.9505  138.1634  152.3783 C   0  0  2  0  0  0  0  0  0  0  0  0
  146.8957  139.3337  152.0814 C   0  0  0  0  0  0  0  0  0  0  0  0
  147.0249  140.1053  153.2786 O   0  0  0  0  0  0  0  0  0  0  0  0
  152.3924  140.4031  159.5232 S   0  0  0  0  0  0  0  0  0  0  0  0
  154.5447  142.9211  160.2918 H   0  0  0  0  0  0  0  0  0  0  0  0
  153.3828  142.2909  161.4726 H   0  0  0  0  0  0  0  0  0  0  0  0
  153.0702  143.8341  160.6622 H   0  0  0  0  0  0  0  0  0  0  0  0
  149.2697  138.3842  156.2945 H   0  0  0  0  0  0  0  0  0  0  0  0
  149.5198  139.7613  153.6545 H   0  0  0  0  0  0  0  0  0  0  0  0
  149.1188  138.0678  153.8337 H   0  0  0  0  0  0  0  0  0  0  0  0
  147.4066  140.0707  155.2775 H   0  0  0  0  0  0  0  0  0  0  0  0
  147.0664  137.5377  155.5016 H   0  0  0  0  0  0  0  0  0  0  0  0
  145.6418  138.4571  155.0471 H   0  0  0  0  0  0  0  0  0  0  0  0
  146.3119  135.2934  153.9088 H   0  0  0  0  0  0  0  0  0  0  0  0
  144.8470  136.2514  154.1504 H   0  0  0  0  0  0  0  0  0  0  0  0
  145.7373  134.9864  151.6323 H   0  0  0  0  0  0  0  0  0  0  0  0
  144.1963  135.7492  152.0050 H   0  0  0  0  0  0  0  0  0  0  0  0
  146.6409  136.9380  150.7382 H   0  0  0  0  0  0  0  0  0  0  0  0
  144.9675  137.4651  150.5490 H   0  0  0  0  0  0  0  0  0  0  0  0
  144.9826  138.5583  152.6951 H   0  0  0  0  0  0  0  0  0  0  0  0
  147.8688  138.9871  151.7325 H   0  0  0  0  0  0  0  0  0  0  0  0
  146.4825  139.9661  151.2955 H   0  0  0  0  0  0  0  0  0  0  0  0
  147.4422  137.1013  153.1832 H   0  0  0  0  0  0  0  0  0  0  0  0
  1  2  1  0  0  0  0
  1 21  1  0  0  0  0
  1 22  1  0  0  0  0
  1 23  1  0  0  0  0
  2 20  1  0  0  0  0
  2  3  2  0  0  0  0
  3  4  1  0  0  0  0
  4  5  2  0  0  0  0
  5  6  1  0  0  0  0
  5 20  1  0  0  0  0
  6  7  1  0  0  0  0
  7  8  2  0  0  0  0
  7  9  1  0  0  0  0
  9 10  1  0  0  0  0
  9 24  1  0  0  0  0
 10 11  1  0  0  0  0
 10 25  1  0  0  0  0
 10 26  1  0  0  0  0
 11 19  1  0  0  0  0
 11 12  1  0  0  0  0
 11 27  1  0  0  0  0
 12 13  1  0  0  0  0
 12 28  1  0  0  0  0
 12 29  1  0  0  0  0
 13 17  1  0  0  0  0
 13 14  1  0  0  0  0
 13 39  1  0  0  0  0
 14 15  1  0  0  0  0
 14 30  1  0  0  0  0
 14 31  1  0  0  0  0
 15 16  1  0  0  0  0
 15 32  1  0  0  0  0
 15 33  1  0  0  0  0
 16 17  1  0  0  0  0
 16 34  1  0  0  0  0
 16 35  1  0  0  0  0
 17 18  1  0  0  0  0
 17 36  1  0  0  0  0
 18 19  1  0  0  0  0
 18 37  1  0  0  0  0
 18 38  1  0  0  0  0
M  CHG  1   6  -1
M  CHG  1  13   1
M  END
> <s_m_source_file>
AV-unprocessed.smi

> <i_m_source_file_index>
1809

> <i_lp_mmshare_version>
43012

> <i_f3d_flags>
0

> <s_epik_input>
W0NIM11jMW5uYyhzMSlbTkhdQyg9TylbTkhdW0NIMl1bQ0BIXShbQ0gyXTIpT1tDSDJdW0NAQEhdKE4yMylbQ0gyXVtDSDJdW0NIMl0z

> <s_epik_cmdline>
J2VwaWtfcHl0aG9uJywgJy1waCcsICc3LjAnLCAnLXRuJywgJzgnLCAnLW1hJywgJzIwMCcsICctbWV0YWxfYmluZGluZycsICctaW1hZScsICc8aW5maWxlLm1hZT4nLCAnLW9tYWUnLCAnPG91dGZpbGUubWFlPic=

> <r_lp_tautomer_probability>
1

> <r_epik_Ionization_Penalty>
3.2601

> <r_epik_Ionization_Penalty_Charging>
3.1406

> <r_epik_Ionization_Penalty_Neutral>
0.119497

> <r_epik_State_Penalty>
3.08894

> <r_epik_Charging_Adjusted_Penalty>
6.22954

> <i_epik_Tot_Q>
0

> <i_epik_Tot_abs_Q>
2

> <r_epik_Metal_State_Penalty>
0.510807

> <b_epik_Metal_Only>
1

> <s_lp_Force_Field>
OPLS_2005

> <r_lp_Energy>
31.1042

> <b_lp_Chiralities_Consistent>
1

> <s_lp_Variant>
AV-unprocessed.smi:1809-19

> <Gold.Version>
5.8.1

> <Gold.Id.Protein>
6NUR|6NUR_protein|mol2

> <Gold.PLP.Fitness>
36.8765

> <Gold.PLP.PLP>
-28.8855

> <Gold.PLP.part.hbond>
-2.0000

> <Gold.PLP.part.metal>
0.0000

> <Gold.PLP.part.buried>
-0.6402

> <Gold.PLP.part.nonpolar>
-25.9510

> <Gold.PLP.part.repulsive>
0.3891

> <Gold.PLP.ligand.clash>
0.0000

> <Gold.PLP.ligand.torsion>
0.5209

> <Gold.PLP.Chemscore.Hbond>
3.0000

> <Gold.PLP.Chemscore.CHOScore>
0.0000

> <Gold.PLP.Chemscore.Metal>
0.0000

> <Gold.Chemscore.Hbonds>
donor molecule, donor type, donor heavy atom, donor atom, acceptor molecule, acceptor atom, score
      L1  H    13    39       P1  7948  1.24
      P1  H  7989  7998       L1     8  0.91

> <Gold.PLP.Chemscore.Internal.Correction>
0.0328

> <Gold.Rescore>
     Score         DG    S(hbond)    S(metal)    S(lipo)     H(rot)  DE(clash)    DE(int)     intcor
     14.73     -16.87       1.97        0.00      70.04       1.32       0.11       2.03       ----

> <Gold.Chemscore.Fitness>
14.7278

> <Gold.Chemscore.DG>
-16.8673

> <Gold.Chemscore.ZeroCoef>
-5.4800

> <Gold.Chemscore.Hbond>
1.9712

> <Gold.Chemscore.Metal>
0.0000

> <Gold.Chemscore.Lipo>
70.0385

> <Gold.Chemscore.Internal_Hbond>
0.0000

> <Gold.Chemscore.DEClash>
0.1059

> <Gold.Chemscore.DEInternal>
2.0336

> <Gold.Chemscore.Rot>
1.3246

> <Gold.Chemscore.Internal.Correction>
   9.000000E+99

> <Gold.Chemscore.Hbonds>
donor molecule, donor type, donor heavy atom, donor atom, acceptor molecule, acceptor atom, score
      L1  H    13    39       P1  7948  0.60
      P1  H  7989  7998       L1     8  0.90

> <Gold.Chemscore.Hbond.Weighted>
-6.5837

> <Gold.Chemscore.Metal.Weighted>
-0.0000

> <Gold.Chemscore.Lipo.Weighted>
-8.1945

> <Gold.Chemscore.Internal_Hbond.Weighted>
0.0000

> <Gold.Chemscore.DEClash.Weighted>
0.1059

> <Gold.Chemscore.DEInternal.Weighted>
2.0336

> <Gold.Chemscore.Rot.Weighted>
3.3910

> <Gold.Chemscore.Internal.Correction.Weighted>
   9.000000E+99

> <Gold.Protein.RotatedTorsions>
[ 6907 6896 6895 6894 ] final  145.88 input  -60.11 | X-H torsion
[ 7974 7965 7964 7962 ] final  152.11 input  175.53 | X-H torsion
[ 8008 7997 7996 7995 ] final  -51.86 input   59.86 | X-H torsion
[ 10167 10162 10161 10158 ] final  -24.11 input  -65.29 | X-H torsion
[ 10718 10713 10712 10709 ] final -161.54 input   66.30 | X-H torsion
[ 10763 10752 10751 10750 ] final   52.70 input  -60.55 | X-H torsion
[ 11005 11000 10999 10996 ] final  128.94 input  -57.11 | X-H torsion

> <Gold.Protein.ActiveResidues>
 VAL166  LYS551  ARG553  GLY616  TRP617  ASP618  TYR619  PRO620  LYS621  CYS622 
 ASP623  PHE694  ASN695  SER759  ASP760  ASP761  ALA762  ILE779  LEU786  VAL792 
 PHE793  MET794  SER795  GLU796  ALA797  LYS798  CYS799  TRP800  GLU811  SER814 

> <Gold.Protein.RotatedAtoms>
  152.1751  133.4669  159.4928 H   0  0  0  0  0  0  0  0  0  0  0  0  # atno 6907 bound_to 6896
  150.6925  134.1904  159.4292 H   0  0  0  0  0  0  0  0  0  0  0  0  # atno 6908 bound_to 6896
  151.9812  135.0027  160.0608 H   0  0  0  0  0  0  0  0  0  0  0  0  # atno 6909 bound_to 6896
  144.8245  139.6626  143.6086 H   0  0  0  0  0  0  0  0  0  0  0  0  # atno 7974 bound_to 7965
  154.4093  140.1238  156.4898 H   0  0  0  0  0  0  0  0  0  0  0  0  # atno 8008 bound_to 7997
  155.7002  140.3495  155.4910 H   0  0  0  0  0  0  0  0  0  0  0  0  # atno 8009 bound_to 7997
  155.9392  140.1084  157.1059 H   0  0  0  0  0  0  0  0  0  0  0  0  # atno 8010 bound_to 7997
  140.7288  143.4382  151.0697 H   0  0  0  0  0  0  0  0  0  0  0  0  # atno 10167 bound_to 10162
  156.5977  130.8797  151.2906 H   0  0  0  0  0  0  0  0  0  0  0  0  # atno 10718 bound_to 10713
  152.9790  135.5803  154.4622 H   0  0  0  0  0  0  0  0  0  0  0  0  # atno 10763 bound_to 10752
  154.4196  135.2771  155.1986 H   0  0  0  0  0  0  0  0  0  0  0  0  # atno 10764 bound_to 10752
  154.3741  135.6161  153.5809 H   0  0  0  0  0  0  0  0  0  0  0  0  # atno 10765 bound_to 10752
  139.9588  134.9607  156.9076 H   0  0  0  0  0  0  0  0  0  0  0  0  # atno 11005 bound_to 11000
  146.2550  139.6283  142.9401 LP  0  0  0  0  0  0  0  0  0  0  0  0  # atno 17320 bound_to 7965
  145.5031  141.0437  143.2529 LP  0  0  0  0  0  0  0  0  0  0  0  0  # atno 17321 bound_to 7965
  139.8046  143.8035  152.3166 LP  0  0  0  0  0  0  0  0  0  0  0  0  # atno 17342 bound_to 10162
  139.8064  144.7353  150.9756 LP  0  0  0  0  0  0  0  0  0  0  0  0  # atno 17343 bound_to 10162
  157.7287  130.9661  150.1757 LP  0  0  0  0  0  0  0  0  0  0  0  0  # atno 17370 bound_to 10713
  156.2496  130.3699  149.8247 LP  0  0  0  0  0  0  0  0  0  0  0  0  # atno 17371 bound_to 10713
  140.5547  134.0593  155.7380 LP  0  0  0  0  0  0  0  0  0  0  0  0  # atno 17394 bound_to 11000
  141.1263  133.9377  157.2628 LP  0  0  0  0  0  0  0  0  0  0  0  0  # atno 17395 bound_to 11000

$$$$
