AV-unprocessed.smi:748|AV-procd|sdf|3583|dock8
  -GOLD-   22720 0583D 1   1.00000     0.00000
 Structure written by MMmdl.
 50 51  0  0  0  0  0  0  0  0  1 V2000
  147.0901  134.0012  151.1407 C   0  0  0  0  0  0  0  0  0  0  0  0
  146.0391  135.0164  151.6163 C   0  0  0  0  0  0  0  0  0  0  0  0
  144.7949  135.0077  150.7183 C   0  0  0  0  0  0  0  0  0  0  0  0
  146.6081  136.3608  151.6455 N   0  0  0  0  0  0  0  0  0  0  0  0
  145.9966  137.4562  152.1231 C   0  0  0  0  0  0  0  0  0  0  0  0
  144.8576  137.4443  152.5914 O   0  0  0  0  0  0  0  0  0  0  0  0
  146.8023  138.7572  152.0563 C   0  0  0  0  0  0  0  0  0  0  0  0
  146.7726  139.5594  153.3722 C   0  0  0  0  0  0  0  0  0  0  0  0
  148.0709  139.5417  154.0358 N   0  0  0  0  0  0  0  0  0  0  0  0
  148.8526  140.6164  154.2284 C   0  0  0  0  0  0  0  0  0  0  0  0
  148.5426  141.7545  153.8742 O   0  0  0  0  0  0  0  0  0  0  0  0
  150.1270  140.3644  154.9821 C   0  0  0  0  0  0  0  0  0  0  0  0
  151.0366  139.3614  154.5800 C   0  0  0  0  0  0  0  0  0  0  0  0
  152.2167  139.1889  155.3259 C   0  0  0  0  0  0  0  0  0  0  0  0
  152.5296  139.9397  156.4018 N   0  0  0  0  0  0  0  0  0  0  0  0
  151.6755  140.9189  156.7883 C   0  0  0  0  0  0  0  0  0  0  0  0
  152.0203  141.7058  157.9083 N   0  0  0  0  0  0  0  0  0  0  0  0
  152.1837  140.9769  159.1631 C   0  0  0  0  0  0  0  0  0  0  0  0
  152.8489  141.8748  160.2198 C   0  0  0  0  0  0  0  0  0  0  0  0
  152.1048  143.0799  160.3673 O   0  0  0  0  0  0  0  0  0  0  0  0
  152.0555  143.8317  159.1579 C   0  0  2  0  0  0  0  0  0  0  0  0
  151.3210  145.1472  159.4362 C   0  0  0  0  0  0  0  0  0  0  0  0
  151.3524  142.9951  158.0722 C   0  0  0  0  0  0  0  0  0  0  0  0
  150.4622  141.1582  156.1008 C   0  0  0  0  0  0  0  0  0  0  0  0
  146.6787  132.9917  151.1237 H   0  0  0  0  0  0  0  0  0  0  0  0
  147.9575  133.9897  151.8014 H   0  0  0  0  0  0  0  0  0  0  0  0
  147.4411  134.2343  150.1348 H   0  0  0  0  0  0  0  0  0  0  0  0
  145.7214  134.7408  152.6235 H   0  0  0  0  0  0  0  0  0  0  0  0
  144.3333  134.0201  150.6990 H   0  0  0  0  0  0  0  0  0  0  0  0
  145.0426  135.2788  149.6914 H   0  0  0  0  0  0  0  0  0  0  0  0
  144.0453  135.7131  151.0785 H   0  0  0  0  0  0  0  0  0  0  0  0
  147.5432  136.4646  151.2787 H   0  0  0  0  0  0  0  0  0  0  0  0
  147.8334  138.5117  151.7982 H   0  0  0  0  0  0  0  0  0  0  0  0
  146.4112  139.3654  151.2399 H   0  0  0  0  0  0  0  0  0  0  0  0
  146.5143  140.6001  153.1732 H   0  0  0  0  0  0  0  0  0  0  0  0
  146.0053  139.1723  154.0455 H   0  0  0  0  0  0  0  0  0  0  0  0
  148.3979  138.6510  154.3808 H   0  0  0  0  0  0  0  0  0  0  0  0
  150.8472  138.7337  153.7213 H   0  0  0  0  0  0  0  0  0  0  0  0
  152.9318  138.4283  155.0491 H   0  0  0  0  0  0  0  0  0  0  0  0
  151.2017  140.6555  159.5127 H   0  0  0  0  0  0  0  0  0  0  0  0
  152.7833  140.0770  159.0337 H   0  0  0  0  0  0  0  0  0  0  0  0
  152.8841  141.3600  161.1799 H   0  0  0  0  0  0  0  0  0  0  0  0
  153.8796  142.1023  159.9433 H   0  0  0  0  0  0  0  0  0  0  0  0
  153.0738  144.0642  158.8402 H   0  0  0  0  0  0  0  0  0  0  0  0
  151.2713  145.7652  158.5393 H   0  0  0  0  0  0  0  0  0  0  0  0
  151.8319  145.7229  160.2082 H   0  0  0  0  0  0  0  0  0  0  0  0
  150.3009  144.9658  159.7758 H   0  0  0  0  0  0  0  0  0  0  0  0
  151.3605  143.5443  157.1295 H   0  0  0  0  0  0  0  0  0  0  0  0
  150.3092  142.8271  158.3436 H   0  0  0  0  0  0  0  0  0  0  0  0
  149.7839  141.9300  156.4346 H   0  0  0  0  0  0  0  0  0  0  0  0
  1  2  1  0  0  0  0
  1 25  1  0  0  0  0
  1 26  1  0  0  0  0
  1 27  1  0  0  0  0
  2  3  1  0  0  0  0
  2  4  1  0  0  0  0
  2 28  1  0  0  0  0
  3 29  1  0  0  0  0
  3 30  1  0  0  0  0
  3 31  1  0  0  0  0
  4  5  1  0  0  0  0
  4 32  1  0  0  0  0
  5  6  2  0  0  0  0
  5  7  1  0  0  0  0
  7  8  1  0  0  0  0
  7 33  1  0  0  0  0
  7 34  1  0  0  0  0
  8  9  1  0  0  0  0
  8 35  1  0  0  0  0
  8 36  1  0  0  0  0
  9 10  1  0  0  0  0
  9 37  1  0  0  0  0
 10 11  2  0  0  0  0
 10 12  1  0  0  0  0
 12 24  1  0  0  0  0
 12 13  2  0  0  0  0
 13 14  1  0  0  0  0
 13 38  1  0  0  0  0
 14 15  2  0  0  0  0
 14 39  1  0  0  0  0
 15 16  1  0  0  0  0
 16 17  1  0  0  0  0
 16 24  2  0  0  0  0
 17 23  1  0  0  0  0
 17 18  1  0  0  0  0
 18 19  1  0  0  0  0
 18 40  1  0  0  0  0
 18 41  1  0  0  0  0
 19 20  1  0  0  0  0
 19 42  1  0  0  0  0
 19 43  1  0  0  0  0
 20 21  1  0  0  0  0
 21 22  1  0  0  0  0
 21 23  1  0  0  0  0
 21 44  1  0  0  0  0
 22 45  1  0  0  0  0
 22 46  1  0  0  0  0
 22 47  1  0  0  0  0
 23 48  1  0  0  0  0
 23 49  1  0  0  0  0
 24 50  1  0  0  0  0
M  END
> <s_m_source_file>
AV-unprocessed.smi

> <i_m_source_file_index>
748

> <i_lp_mmshare_version>
43012

> <i_f3d_flags>
0

> <s_epik_input>
W0NIM11bQ0hdKFtDSDNdKVtOSF1DKD1PKVtDSDJdW0NIMl1bTkhdQyg9TyljMVtjSF1bY0hdbmMoW2NIXTEpTjJbQ0gyXVtDSDJdT1tDQEBIXShbQ0gzXSlbQ0gyXTI=

> <s_epik_cmdline>
J2VwaWtfcHl0aG9uJywgJy1waCcsICc3LjAnLCAnLXRuJywgJzgnLCAnLW1hJywgJzIwMCcsICctbWV0YWxfYmluZGluZycsICctaW1hZScsICc8aW5maWxlLm1hZT4nLCAnLW9tYWUnLCAnPG91dGZpbGUubWFlPic=

> <r_lp_tautomer_probability>
1

> <r_epik_Ionization_Penalty>
1.38678e-05

> <r_epik_Ionization_Penalty_Charging>
0

> <r_epik_Ionization_Penalty_Neutral>
1.38678e-05

> <r_epik_State_Penalty>
-0

> <r_epik_Charging_Adjusted_Penalty>
0

> <i_epik_Tot_Q>
0

> <i_epik_Tot_abs_Q>
0

> <r_epik_Metal_State_Penalty>
-0

> <b_epik_Metal_Only>
0

> <s_lp_Force_Field>
OPLS_2005

> <r_lp_Energy>
15.3694

> <b_lp_Chiralities_Consistent>
1

> <s_lp_Variant>
AV-unprocessed.smi:748-2

> <Gold.Version>
5.8.1

> <Gold.Id.Protein>
6NUR|6NUR_protein|mol2

> <Gold.PLP.Fitness>
55.6272

> <Gold.PLP.PLP>
-50.8900

> <Gold.PLP.part.hbond>
-2.8236

> <Gold.PLP.part.metal>
0.0000

> <Gold.PLP.part.buried>
-3.7874

> <Gold.PLP.part.nonpolar>
-44.3290

> <Gold.PLP.part.repulsive>
0.8920

> <Gold.PLP.ligand.clash>
0.0000

> <Gold.PLP.ligand.torsion>
1.7101

> <Gold.PLP.Chemscore.Hbond>
2.6000

> <Gold.PLP.Chemscore.CHOScore>
0.0000

> <Gold.PLP.Chemscore.Metal>
0.0000

> <Gold.Chemscore.Hbonds>
donor molecule, donor type, donor heavy atom, donor atom, acceptor molecule, acceptor atom, score
      L1  H     4    32       P1  7948  0.66
      P1  H  7997  8009       L1    15  1.00
      P1  H  8011  8017       L1    11  0.47

> <Gold.PLP.Chemscore.Internal.Correction>
0.3575

> <Gold.Rescore>
     Score         DG    S(hbond)    S(metal)    S(lipo)     H(rot)  DE(clash)    DE(int)     intcor
     19.23     -21.69       2.39        0.00     111.12       1.87       0.86       1.60       ----

> <Gold.Chemscore.Fitness>
19.2349

> <Gold.Chemscore.DG>
-21.6927

> <Gold.Chemscore.ZeroCoef>
-5.4800

> <Gold.Chemscore.Hbond>
2.3942

> <Gold.Chemscore.Metal>
0.0000

> <Gold.Chemscore.Lipo>
111.1224

> <Gold.Chemscore.Internal_Hbond>
0.0000

> <Gold.Chemscore.DEClash>
0.8569

> <Gold.Chemscore.DEInternal>
1.6010

> <Gold.Chemscore.Rot>
1.8692

> <Gold.Chemscore.Internal.Correction>
   9.000000E+99

> <Gold.Chemscore.Hbonds>
donor molecule, donor type, donor heavy atom, donor atom, acceptor molecule, acceptor atom, score
      L1  H     4    32       P1  7948  0.64
      P1  H  7997  8009       L1    15  0.60
      P1  H  8011  8017       L1    11  0.37

> <Gold.Chemscore.Hbond.Weighted>
-7.9966

> <Gold.Chemscore.Metal.Weighted>
-0.0000

> <Gold.Chemscore.Lipo.Weighted>
-13.0013

> <Gold.Chemscore.Internal_Hbond.Weighted>
0.0000

> <Gold.Chemscore.DEClash.Weighted>
0.8569

> <Gold.Chemscore.DEInternal.Weighted>
1.6010

> <Gold.Chemscore.Rot.Weighted>
4.7852

> <Gold.Chemscore.Internal.Correction.Weighted>
   9.000000E+99

> <Gold.Protein.RotatedTorsions>
[ 6907 6896 6895 6894 ] final -116.97 input  -60.11 | X-H torsion
[ 7974 7965 7964 7962 ] final  174.85 input  175.53 | X-H torsion
[ 8008 7997 7996 7995 ] final -168.01 input   59.86 | X-H torsion
[ 10167 10162 10161 10158 ] final -175.44 input  -65.29 | X-H torsion
[ 10718 10713 10712 10709 ] final  155.52 input   66.30 | X-H torsion
[ 10763 10752 10751 10750 ] final -113.97 input  -60.55 | X-H torsion
[ 11005 11000 10999 10996 ] final -158.07 input  -57.11 | X-H torsion

> <Gold.Protein.ActiveResidues>
 VAL166  LYS551  ARG553  GLY616  TRP617  ASP618  TYR619  PRO620  LYS621  CYS622 
 ASP623  PHE694  ASN695  SER759  ASP760  ASP761  ALA762  ILE779  LEU786  VAL792 
 PHE793  MET794  SER795  GLU796  ALA797  LYS798  CYS799  TRP800  GLU811  SER814 

> <Gold.Protein.RotatedAtoms>
  150.8099  133.8442  159.3187 H   0  0  0  0  0  0  0  0  0  0  0  0  # atno 6907 bound_to 6896
  151.6230  135.1028  160.0115 H   0  0  0  0  0  0  0  0  0  0  0  0  # atno 6908 bound_to 6896
  152.4190  133.7045  159.6500 H   0  0  0  0  0  0  0  0  0  0  0  0  # atno 6909 bound_to 6896
  144.7213  139.9858  143.6439 H   0  0  0  0  0  0  0  0  0  0  0  0  # atno 7974 bound_to 7965
  155.8856  140.1016  157.1455 H   0  0  0  0  0  0  0  0  0  0  0  0  # atno 8008 bound_to 7997
  154.4009  140.1320  156.4314 H   0  0  0  0  0  0  0  0  0  0  0  0  # atno 8009 bound_to 7997
  155.7593  140.3463  155.5192 H   0  0  0  0  0  0  0  0  0  0  0  0  # atno 8010 bound_to 7997
  139.5581  144.1939  152.1193 H   0  0  0  0  0  0  0  0  0  0  0  0  # atno 10167 bound_to 10162
  157.2173  131.0711  151.1934 H   0  0  0  0  0  0  0  0  0  0  0  0  # atno 10718 bound_to 10713
  154.8420  135.4435  154.1433 H   0  0  0  0  0  0  0  0  0  0  0  0  # atno 10763 bound_to 10752
  153.2613  135.6936  153.7582 H   0  0  0  0  0  0  0  0  0  0  0  0  # atno 10764 bound_to 10752
  153.6858  135.3395  155.3165 H   0  0  0  0  0  0  0  0  0  0  0  0  # atno 10765 bound_to 10752
  140.6577  134.4383  157.5235 H   0  0  0  0  0  0  0  0  0  0  0  0  # atno 11005 bound_to 11000
  146.0451  139.3458  143.0674 LP  0  0  0  0  0  0  0  0  0  0  0  0  # atno 17320 bound_to 7965
  145.8286  140.9642  143.0861 LP  0  0  0  0  0  0  0  0  0  0  0  0  # atno 17321 bound_to 7965
  140.1447  144.5170  150.6723 LP  0  0  0  0  0  0  0  0  0  0  0  0  # atno 17342 bound_to 10162
  140.6857  143.2348  151.5268 LP  0  0  0  0  0  0  0  0  0  0  0  0  # atno 17343 bound_to 10162
  157.3612  130.7132  149.6503 LP  0  0  0  0  0  0  0  0  0  0  0  0  # atno 17370 bound_to 10713
  155.9685  130.4225  150.4519 LP  0  0  0  0  0  0  0  0  0  0  0  0  # atno 17371 bound_to 10713
  139.9024  134.8526  156.1843 LP  0  0  0  0  0  0  0  0  0  0  0  0  # atno 17394 bound_to 11000
  141.0489  133.6899  156.1734 LP  0  0  0  0  0  0  0  0  0  0  0  0  # atno 17395 bound_to 11000

$$$$
