AV-unprocessed.smi:2923|AV-procd|sdf|11202|dock5
  -GOLD-   2272016 93D 1   1.00000     0.00000
 Structure written by MMmdl.
 47 49  0  0  0  0  0  0  0  0  2 V2000
  143.5145  132.3878  150.1977 C   0  0  0  0  0  0  0  0  0  0  0  0
  144.1536  132.6361  151.4812 N   0  0  0  0  0  0  0  0  0  0  0  0
  145.5489  132.2374  151.5880 C   0  0  0  0  0  0  0  0  0  0  0  0
  143.9149  133.9292  151.9662 C   0  0  0  0  0  0  0  0  0  0  0  0
  144.4284  135.0650  151.3069 C   0  0  0  0  0  0  0  0  0  0  0  0
  144.1683  136.3469  151.8333 C   0  0  0  0  0  0  0  0  0  0  0  0
  143.3924  136.4795  153.0052 C   0  0  0  0  0  0  0  0  0  0  0  0
  143.1726  137.7900  153.5087 N   0  0  0  0  0  0  0  0  0  0  0  0
  142.6095  138.1553  154.6732 C   0  0  0  0  0  0  0  0  0  0  0  0
  142.1447  137.3848  155.5128 O   0  0  0  0  0  0  0  0  0  0  0  0
  142.6010  139.4877  154.8091 N   0  0  0  0  0  0  0  0  0  0  0  0
  142.0339  140.2058  155.9554 C   0  0  2  0  0  0  0  0  0  0  0  0
  140.5590  140.5620  155.7514 C   0  0  2  0  0  0  0  0  0  0  0  0
  139.4687  140.1070  154.8502 C   0  0  0  0  0  0  0  0  0  0  0  0
  138.8727  141.5082  154.5453 C   0  0  0  0  0  0  0  0  0  0  0  0
  139.8188  142.4700  155.0796 O   0  0  0  0  0  0  0  0  0  0  0  0
  141.0591  141.7937  155.0247 C   0  0  1  0  0  0  0  0  0  0  0  0
  142.2773  141.7680  155.9748 C   0  0  0  0  0  0  0  0  0  0  0  0
  142.1270  142.4882  157.3272 C   0  0  0  0  0  0  0  0  0  0  0  0
  143.5907  142.2812  155.3738 C   0  0  0  0  0  0  0  0  0  0  0  0
  142.9105  135.3031  153.6302 C   0  0  0  0  0  0  0  0  0  0  0  0
  143.1838  134.0938  153.0939 N   0  3  0  0  0  0  0  0  0  0  0  0
  142.4670  132.6911  150.2197 H   0  0  0  0  0  0  0  0  0  0  0  0
  143.5512  131.3248  149.9581 H   0  0  0  0  0  0  0  0  0  0  0  0
  144.0158  132.9351  149.3985 H   0  0  0  0  0  0  0  0  0  0  0  0
  145.9385  132.4490  152.5845 H   0  0  0  0  0  0  0  0  0  0  0  0
  146.1642  132.7636  150.8574 H   0  0  0  0  0  0  0  0  0  0  0  0
  145.6487  131.1664  151.4094 H   0  0  0  0  0  0  0  0  0  0  0  0
  145.0173  134.9577  150.4074 H   0  0  0  0  0  0  0  0  0  0  0  0
  144.5608  137.2212  151.3346 H   0  0  0  0  0  0  0  0  0  0  0  0
  143.4364  138.5428  152.8899 H   0  0  0  0  0  0  0  0  0  0  0  0
  143.0014  140.0489  154.0717 H   0  0  0  0  0  0  0  0  0  0  0  0
  142.2233  139.7252  156.9168 H   0  0  0  0  0  0  0  0  0  0  0  0
  140.1254  140.7935  156.7273 H   0  0  0  0  0  0  0  0  0  0  0  0
  139.8501  139.6198  153.9520 H   0  0  0  0  0  0  0  0  0  0  0  0
  138.7564  139.4454  155.3438 H   0  0  0  0  0  0  0  0  0  0  0  0
  138.7506  141.6518  153.4711 H   0  0  0  0  0  0  0  0  0  0  0  0
  137.9006  141.6500  155.0182 H   0  0  0  0  0  0  0  0  0  0  0  0
  141.3471  141.6129  153.9839 H   0  0  0  0  0  0  0  0  0  0  0  0
  142.0070  143.5632  157.1895 H   0  0  0  0  0  0  0  0  0  0  0  0
  143.0053  142.3371  157.9555 H   0  0  0  0  0  0  0  0  0  0  0  0
  141.2713  142.1500  157.9088 H   0  0  0  0  0  0  0  0  0  0  0  0
  143.6154  143.3707  155.3342 H   0  0  0  0  0  0  0  0  0  0  0  0
  143.7403  141.9279  154.3536 H   0  0  0  0  0  0  0  0  0  0  0  0
  144.4504  141.9535  155.9588 H   0  0  0  0  0  0  0  0  0  0  0  0
  142.3314  135.2736  154.5406 H   0  0  0  0  0  0  0  0  0  0  0  0
  142.8242  133.2640  153.5658 H   0  0  0  0  0  0  0  0  0  0  0  0
  1  2  1  0  0  0  0
  1 23  1  0  0  0  0
  1 24  1  0  0  0  0
  1 25  1  0  0  0  0
  2  3  1  0  0  0  0
  2  4  1  0  0  0  0
  3 26  1  0  0  0  0
  3 27  1  0  0  0  0
  3 28  1  0  0  0  0
  4 22  1  0  0  0  0
  4  5  2  0  0  0  0
  5  6  1  0  0  0  0
  5 29  1  0  0  0  0
  6  7  2  0  0  0  0
  6 30  1  0  0  0  0
  7  8  1  0  0  0  0
  7 21  1  0  0  0  0
  8  9  1  0  0  0  0
  8 31  1  0  0  0  0
  9 10  2  0  0  0  0
  9 11  1  0  0  0  0
 11 12  1  0  0  0  0
 11 32  1  0  0  0  0
 12 18  1  0  0  0  0
 12 13  1  0  0  0  0
 12 33  1  0  0  0  0
 13 17  1  0  0  0  0
 13 14  1  0  0  0  0
 13 34  1  0  0  0  0
 14 15  1  0  0  0  0
 14 35  1  0  0  0  0
 14 36  1  0  0  0  0
 15 16  1  0  0  0  0
 15 37  1  0  0  0  0
 15 38  1  0  0  0  0
 16 17  1  0  0  0  0
 17 18  1  0  0  0  0
 17 39  1  0  0  0  0
 18 19  1  0  0  0  0
 18 20  1  0  0  0  0
 19 40  1  0  0  0  0
 19 41  1  0  0  0  0
 19 42  1  0  0  0  0
 20 43  1  0  0  0  0
 20 44  1  0  0  0  0
 20 45  1  0  0  0  0
 21 22  2  0  0  0  0
 21 46  1  0  0  0  0
 22 47  1  0  0  0  0
M  CHG  1  22   1
M  END
> <s_m_source_file>
AV-unprocessed.smi

> <i_m_source_file_index>
2923

> <i_lp_mmshare_version>
43012

> <i_f3d_flags>
0

> <s_epik_input>
W0NIM11OKFtDSDNdKWMxW2NIXVtjSF1jKFtjSF1uMSlbTkhdQyg9TylbTkhdW0NASF0yQyhbQ0gzXSkoW0NIM10pW0NAQEhdKFtDQEhdMjMpT1tDSDJdW0NIMl0z

> <s_epik_cmdline>
J2VwaWtfcHl0aG9uJywgJy1waCcsICc3LjAnLCAnLXRuJywgJzgnLCAnLW1hJywgJzIwMCcsICctbWV0YWxfYmluZGluZycsICctaW1hZScsICc8aW5maWxlLm1hZT4nLCAnLW9tYWUnLCAnPG91dGZpbGUubWFlPic=

> <r_lp_tautomer_probability>
0.999994

> <r_epik_Ionization_Penalty>
0.252205

> <r_epik_Ionization_Penalty_Charging>
0.252185

> <r_epik_Ionization_Penalty_Neutral>
1.99479e-05

> <r_epik_State_Penalty>
0.243573

> <r_epik_Charging_Adjusted_Penalty>
0.495758

> <i_epik_Tot_Q>
1

> <i_epik_Tot_abs_Q>
1

> <r_epik_Metal_State_Penalty>
0.534372

> <b_epik_Metal_Only>
0

> <s_lp_Force_Field>
OPLS_2005

> <r_lp_Energy>
76.1272

> <b_lp_Chiralities_Consistent>
1

> <s_lp_Variant>
AV-unprocessed.smi:2923-1

> <Gold.Version>
5.8.1

> <Gold.Id.Protein>
6NUR|6NUR_protein|mol2

> <Gold.PLP.Fitness>
39.4425

> <Gold.PLP.PLP>
-27.6277

> <Gold.PLP.part.hbond>
-3.0000

> <Gold.PLP.part.metal>
0.0000

> <Gold.PLP.part.buried>
-3.9460

> <Gold.PLP.part.nonpolar>
-19.7569

> <Gold.PLP.part.repulsive>
0.2902

> <Gold.PLP.ligand.clash>
0.0000

> <Gold.PLP.ligand.torsion>
0.3211

> <Gold.PLP.Chemscore.Hbond>
4.0000

> <Gold.PLP.Chemscore.CHOScore>
0.0000

> <Gold.PLP.Chemscore.Metal>
0.0000

> <Gold.Chemscore.Hbonds>
donor molecule, donor type, donor heavy atom, donor atom, acceptor molecule, acceptor atom, score
      L1  H     8    31       P1 10175  1.00
      L1  H    11    32       P1 10175  1.00
      L1  H    22    47       P1 10957  2.00

> <Gold.PLP.Chemscore.Internal.Correction>
0.4571

> <Gold.Rescore>
     Score         DG    S(hbond)    S(metal)    S(lipo)     H(rot)  DE(clash)    DE(int)     intcor
     16.79     -18.59       2.93        0.00      54.65       1.20       0.07       1.73       ----

> <Gold.Chemscore.Fitness>
16.7933

> <Gold.Chemscore.DG>
-18.5920

> <Gold.Chemscore.ZeroCoef>
-5.4800

> <Gold.Chemscore.Hbond>
2.9349

> <Gold.Chemscore.Metal>
0.0000

> <Gold.Chemscore.Lipo>
54.6506

> <Gold.Chemscore.Internal_Hbond>
0.0000

> <Gold.Chemscore.DEClash>
0.0659

> <Gold.Chemscore.DEInternal>
1.7327

> <Gold.Chemscore.Rot>
1.2049

> <Gold.Chemscore.Internal.Correction>
   9.000000E+99

> <Gold.Chemscore.Hbonds>
donor molecule, donor type, donor heavy atom, donor atom, acceptor molecule, acceptor atom, score
      L1  H     8    31       P1 10175  0.95
      L1  H    11    32       P1 10175  1.00
      L1  H    22    47       P1 10957  0.98

> <Gold.Chemscore.Hbond.Weighted>
-9.8025

> <Gold.Chemscore.Metal.Weighted>
-0.0000

> <Gold.Chemscore.Lipo.Weighted>
-6.3941

> <Gold.Chemscore.Internal_Hbond.Weighted>
0.0000

> <Gold.Chemscore.DEClash.Weighted>
0.0659

> <Gold.Chemscore.DEInternal.Weighted>
1.7327

> <Gold.Chemscore.Rot.Weighted>
3.0846

> <Gold.Chemscore.Internal.Correction.Weighted>
   9.000000E+99

> <Gold.Protein.RotatedTorsions>
[ 6907 6896 6895 6894 ] final -105.64 input  -60.11 | X-H torsion
[ 7974 7965 7964 7962 ] final -176.72 input  175.53 | X-H torsion
[ 8008 7997 7996 7995 ] final  -42.36 input   59.86 | X-H torsion
[ 10167 10162 10161 10158 ] final  -34.09 input  -65.29 | X-H torsion
[ 10718 10713 10712 10709 ] final  136.61 input   66.30 | X-H torsion
[ 10763 10752 10751 10750 ] final  145.95 input  -60.55 | X-H torsion
[ 11005 11000 10999 10996 ] final -111.14 input  -57.11 | X-H torsion

> <Gold.Protein.ActiveResidues>
 VAL166  LYS551  ARG553  GLY616  TRP617  ASP618  TYR619  PRO620  LYS621  CYS622 
 ASP623  PHE694  ASN695  SER759  ASP760  ASP761  ALA762  ILE779  LEU786  VAL792 
 PHE793  MET794  SER795  GLU796  ALA797  LYS798  CYS799  TRP800  GLU811  SER814 

> <Gold.Protein.RotatedAtoms>
  150.7347  134.0096  159.3664 H   0  0  0  0  0  0  0  0  0  0  0  0  # atno 6907 bound_to 6896
  151.8055  135.0694  160.0415 H   0  0  0  0  0  0  0  0  0  0  0  0  # atno 6908 bound_to 6896
  152.3110  133.5716  159.5717 H   0  0  0  0  0  0  0  0  0  0  0  0  # atno 6909 bound_to 6896
  144.7127  140.1128  143.6410 H   0  0  0  0  0  0  0  0  0  0  0  0  # atno 7974 bound_to 7965
  154.3999  140.1475  156.3343 H   0  0  0  0  0  0  0  0  0  0  0  0  # atno 8008 bound_to 7997
  155.8415  140.3462  155.5614 H   0  0  0  0  0  0  0  0  0  0  0  0  # atno 8009 bound_to 7997
  155.8082  140.0880  157.1909 H   0  0  0  0  0  0  0  0  0  0  0  0  # atno 8010 bound_to 7997
  140.7192  143.3573  151.2033 H   0  0  0  0  0  0  0  0  0  0  0  0  # atno 10167 bound_to 10162
  157.4448  131.1061  151.0102 H   0  0  0  0  0  0  0  0  0  0  0  0  # atno 10718 bound_to 10713
  154.0139  135.2912  155.3389 H   0  0  0  0  0  0  0  0  0  0  0  0  # atno 10763 bound_to 10752
  154.7087  135.5158  153.8637 H   0  0  0  0  0  0  0  0  0  0  0  0  # atno 10764 bound_to 10752
  153.0711  135.6648  154.0367 H   0  0  0  0  0  0  0  0  0  0  0  0  # atno 10765 bound_to 10752
  141.0751  133.9314  157.2405 H   0  0  0  0  0  0  0  0  0  0  0  0  # atno 11005 bound_to 11000
  145.9439  139.2688  143.1252 LP  0  0  0  0  0  0  0  0  0  0  0  0  # atno 17320 bound_to 7965
  145.9394  140.8990  143.0315 LP  0  0  0  0  0  0  0  0  0  0  0  0  # atno 17321 bound_to 7965
  139.7117  143.9365  152.2950 LP  0  0  0  0  0  0  0  0  0  0  0  0  # atno 17342 bound_to 10162
  139.9093  144.6866  150.8580 LP  0  0  0  0  0  0  0  0  0  0  0  0  # atno 17343 bound_to 10162
  157.0952  130.5959  149.5448 LP  0  0  0  0  0  0  0  0  0  0  0  0  # atno 17370 bound_to 10713
  155.9963  130.5032  150.7491 LP  0  0  0  0  0  0  0  0  0  0  0  0  # atno 17371 bound_to 10713
  139.9564  135.0164  156.9139 LP  0  0  0  0  0  0  0  0  0  0  0  0  # atno 17394 bound_to 11000
  140.5590  134.0553  155.7393 LP  0  0  0  0  0  0  0  0  0  0  0  0  # atno 17395 bound_to 11000

$$$$
