AV-unprocessed.smi:2552|AV-procd|sdf|10015|dock2
  -GOLD-   2272014 63D 1   1.00000     0.00000
 Structure written by MMmdl.
 34 36  0  0  0  0  0  0  0  0  1 V2000
  145.2586  141.8816  158.2680 C   0  0  0  0  0  0  0  0  0  0  0  0
  146.1737  141.6544  157.1520 N   0  0  0  0  0  0  0  0  0  0  0  0
  145.5519  141.4653  155.9119 N   0  0  0  0  0  0  0  0  0  0  0  0
  146.2441  141.2527  154.8365 C   0  0  0  0  0  0  0  0  0  0  0  0
  147.6989  141.2133  154.9481 C   0  0  0  0  0  0  0  0  0  0  0  0
  148.7763  141.0091  154.0426 C   0  0  0  0  0  0  0  0  0  0  0  0
  149.9584  141.0634  154.6533 N   0  0  0  0  0  0  0  0  0  0  0  0
  149.6871  141.2992  155.9633 N   0  0  0  0  0  0  0  0  0  0  0  0
  150.7763  141.3962  156.9229 C   0  0  0  0  0  0  0  0  0  0  0  0
  150.7192  142.6988  157.7466 C   0  0  2  0  0  0  0  0  0  0  0  0
  150.9829  143.7823  156.8777 O   0  0  0  0  0  0  0  0  0  0  0  0
  151.6651  142.6710  158.9419 C   0  0  0  0  0  0  0  0  0  0  0  0
  152.5118  141.5604  159.1553 C   0  0  0  0  0  0  0  0  0  0  0  0
  153.3723  141.5242  160.2693 C   0  0  0  0  0  0  0  0  0  0  0  0
  153.3911  142.5975  161.1797 C   0  0  0  0  0  0  0  0  0  0  0  0
  152.5468  143.7055  160.9765 C   0  0  0  0  0  0  0  0  0  0  0  0
  151.6841  143.7433  159.8636 C   0  0  0  0  0  0  0  0  0  0  0  0
  150.8687  144.8118  159.6921 F   0  0  0  0  0  0  0  0  0  0  0  0
  148.3220  141.3949  156.1382 C   0  0  0  0  0  0  0  0  0  0  0  0
  147.5243  141.6399  157.3623 C   0  0  0  0  0  0  0  0  0  0  0  0
  148.0550  141.8124  158.4597 O   0  0  0  0  0  0  0  0  0  0  0  0
  145.4471  142.8526  158.7283 H   0  0  0  0  0  0  0  0  0  0  0  0
  145.3843  141.1114  159.0306 H   0  0  0  0  0  0  0  0  0  0  0  0
  144.2146  141.8641  157.9506 H   0  0  0  0  0  0  0  0  0  0  0  0
  145.7582  141.1059  153.8720 H   0  0  0  0  0  0  0  0  0  0  0  0
  148.7424  140.8242  152.9791 H   0  0  0  0  0  0  0  0  0  0  0  0
  150.7480  140.5266  157.5819 H   0  0  0  0  0  0  0  0  0  0  0  0
  151.7166  141.3337  156.3743 H   0  0  0  0  0  0  0  0  0  0  0  0
  149.7016  142.8482  158.1071 H   0  0  0  0  0  0  0  0  0  0  0  0
  150.1620  144.0881  156.5233 H   0  0  0  0  0  0  0  0  0  0  0  0
  152.5001  140.7282  158.4668 H   0  0  0  0  0  0  0  0  0  0  0  0
  154.0160  140.6713  160.4265 H   0  0  0  0  0  0  0  0  0  0  0  0
  154.0503  142.5697  162.0346 H   0  0  0  0  0  0  0  0  0  0  0  0
  152.5580  144.5268  161.6774 H   0  0  0  0  0  0  0  0  0  0  0  0
  1  2  1  0  0  0  0
  1 22  1  0  0  0  0
  1 23  1  0  0  0  0
  1 24  1  0  0  0  0
  2 20  1  0  0  0  0
  2  3  1  0  0  0  0
  3  4  2  0  0  0  0
  4  5  1  0  0  0  0
  4 25  1  0  0  0  0
  5 19  2  0  0  0  0
  5  6  1  0  0  0  0
  6  7  2  0  0  0  0
  6 26  1  0  0  0  0
  7  8  1  0  0  0  0
  8  9  1  0  0  0  0
  8 19  1  0  0  0  0
  9 10  1  0  0  0  0
  9 27  1  0  0  0  0
  9 28  1  0  0  0  0
 10 11  1  0  0  0  0
 10 12  1  0  0  0  0
 10 29  1  0  0  0  0
 11 30  1  0  0  0  0
 12 17  1  0  0  0  0
 12 13  2  0  0  0  0
 13 14  1  0  0  0  0
 13 31  1  0  0  0  0
 14 15  2  0  0  0  0
 14 32  1  0  0  0  0
 15 16  1  0  0  0  0
 15 33  1  0  0  0  0
 16 17  2  0  0  0  0
 16 34  1  0  0  0  0
 17 18  1  0  0  0  0
 19 20  1  0  0  0  0
 20 21  2  0  0  0  0
M  END
> <s_m_source_file>
AV-unprocessed.smi

> <i_m_source_file_index>
2552

> <i_lp_mmshare_version>
43012

> <i_f3d_flags>
0

> <s_epik_input>
W2NIXTFubihbQ0gzXSljKD1PKWMoYzEyKW4obltjSF0yKVtDSDJdW0NASF0oW09IXSljM1tjSF1bY0hdW2NIXVtjSF1jM0Y=

> <s_epik_cmdline>
J2VwaWtfcHl0aG9uJywgJy1waCcsICc3LjAnLCAnLXRuJywgJzgnLCAnLW1hJywgJzIwMCcsICctbWV0YWxfYmluZGluZycsICctaW1hZScsICc8aW5maWxlLm1hZT4nLCAnLW9tYWUnLCAnPG91dGZpbGUubWFlPic=

> <r_lp_tautomer_probability>
1

> <r_epik_Ionization_Penalty>
6.28011e-06

> <r_epik_Ionization_Penalty_Charging>
1.65421e-10

> <r_epik_Ionization_Penalty_Neutral>
6.27995e-06

> <r_epik_State_Penalty>
-0

> <r_epik_Charging_Adjusted_Penalty>
1.65421e-10

> <i_epik_Tot_Q>
0

> <i_epik_Tot_abs_Q>
0

> <r_epik_Metal_State_Penalty>
-0

> <b_epik_Metal_Only>
0

> <s_lp_Force_Field>
OPLS_2005

> <r_lp_Energy>
28.555

> <b_lp_Chiralities_Consistent>
1

> <s_lp_Variant>
AV-unprocessed.smi:2552-1

> <Gold.Version>
5.8.1

> <Gold.Id.Protein>
6NUR|6NUR_protein|mol2

> <Gold.PLP.Fitness>
51.4119

> <Gold.PLP.PLP>
-41.1143

> <Gold.PLP.part.hbond>
-2.0000

> <Gold.PLP.part.metal>
0.0000

> <Gold.PLP.part.buried>
-5.9666

> <Gold.PLP.part.nonpolar>
-34.3116

> <Gold.PLP.part.repulsive>
0.3484

> <Gold.PLP.ligand.clash>
0.0000

> <Gold.PLP.ligand.torsion>
0.1076

> <Gold.PLP.Chemscore.Hbond>
1.6978

> <Gold.PLP.Chemscore.CHOScore>
1.8013

> <Gold.PLP.Chemscore.Metal>
0.0000

> <Gold.Chemscore.Hbonds>
donor molecule, donor type, donor heavy atom, donor atom, acceptor molecule, acceptor atom, score
      L1  H    11    30       P1  8028  1.00
      P1  H  7989  7998       L1     7  0.61
      L1  C     4    25       P1 10175  0.90
      L1  C     6    26       P1  7957  1.00

> <Gold.PLP.Chemscore.Internal.Correction>
0.0154

> <Gold.Rescore>
     Score         DG    S(hbond)    S(metal)    S(lipo)     H(rot)  DE(clash)    DE(int)     intcor
     15.94     -17.51       1.53        0.00     103.24       2.02       0.18       1.40       ----

> <Gold.Chemscore.Fitness>
15.9352

> <Gold.Chemscore.DG>
-17.5087

> <Gold.Chemscore.ZeroCoef>
-5.4800

> <Gold.Chemscore.Hbond>
1.5316

> <Gold.Chemscore.Metal>
0.0000

> <Gold.Chemscore.Lipo>
103.2438

> <Gold.Chemscore.Internal_Hbond>
0.0000

> <Gold.Chemscore.DEClash>
0.1771

> <Gold.Chemscore.DEInternal>
1.3963

> <Gold.Chemscore.Rot>
2.0181

> <Gold.Chemscore.Internal.Correction>
   9.000000E+99

> <Gold.Chemscore.Hbonds>
donor molecule, donor type, donor heavy atom, donor atom, acceptor molecule, acceptor atom, score
      L1  H    11    30       P1  8028  1.00
      P1  H  7989  7998       L1     7  0.53

> <Gold.Chemscore.Hbond.Weighted>
-5.1155

> <Gold.Chemscore.Metal.Weighted>
-0.0000

> <Gold.Chemscore.Lipo.Weighted>
-12.0795

> <Gold.Chemscore.Internal_Hbond.Weighted>
0.0000

> <Gold.Chemscore.DEClash.Weighted>
0.1771

> <Gold.Chemscore.DEInternal.Weighted>
1.3963

> <Gold.Chemscore.Rot.Weighted>
5.1663

> <Gold.Chemscore.Internal.Correction.Weighted>
   9.000000E+99

> <Gold.Protein.RotatedTorsions>
[ 6907 6896 6895 6894 ] final -126.01 input  -60.11 | X-H torsion
[ 7974 7965 7964 7962 ] final   95.46 input  175.53 | X-H torsion
[ 8008 7997 7996 7995 ] final -144.53 input   59.86 | X-H torsion
[ 10167 10162 10161 10158 ] final  -53.54 input  -65.29 | X-H torsion
[ 10718 10713 10712 10709 ] final   97.20 input   66.30 | X-H torsion
[ 10763 10752 10751 10750 ] final   85.96 input  -60.55 | X-H torsion
[ 11005 11000 10999 10996 ] final   73.13 input  -57.11 | X-H torsion

> <Gold.Protein.ActiveResidues>
 VAL166  LYS551  ARG553  GLY616  TRP617  ASP618  TYR619  PRO620  LYS621  CYS622 
 ASP623  PHE694  ASN695  SER759  ASP760  ASP761  ALA762  ILE779  LEU786  VAL792 
 PHE793  MET794  SER795  GLU796  ALA797  LYS798  CYS799  TRP800  GLU811  SER814 

> <Gold.Protein.RotatedAtoms>
  150.8925  133.7224  159.2900 H   0  0  0  0  0  0  0  0  0  0  0  0  # atno 6907 bound_to 6896
  151.4769  135.1048  159.9776 H   0  0  0  0  0  0  0  0  0  0  0  0  # atno 6908 bound_to 6896
  152.4829  133.8252  159.7129 H   0  0  0  0  0  0  0  0  0  0  0  0  # atno 6909 bound_to 6896
  145.4518  139.2293  143.3035 H   0  0  0  0  0  0  0  0  0  0  0  0  # atno 7974 bound_to 7965
  155.5283  140.0597  157.2894 H   0  0  0  0  0  0  0  0  0  0  0  0  # atno 8008 bound_to 7997
  154.4493  140.1940  156.0514 H   0  0  0  0  0  0  0  0  0  0  0  0  # atno 8009 bound_to 7997
  156.0670  140.3265  155.7533 H   0  0  0  0  0  0  0  0  0  0  0  0  # atno 8010 bound_to 7997
  140.6479  143.2547  151.4807 H   0  0  0  0  0  0  0  0  0  0  0  0  # atno 10167 bound_to 10162
  157.6916  131.0602  150.4608 H   0  0  0  0  0  0  0  0  0  0  0  0  # atno 10718 bound_to 10713
  153.1524  135.4598  154.9656 H   0  0  0  0  0  0  0  0  0  0  0  0  # atno 10763 bound_to 10752
  154.7835  135.3196  154.7939 H   0  0  0  0  0  0  0  0  0  0  0  0  # atno 10764 bound_to 10752
  153.8442  135.6927  153.4854 H   0  0  0  0  0  0  0  0  0  0  0  0  # atno 10765 bound_to 10752
  139.9455  134.7320  156.0990 H   0  0  0  0  0  0  0  0  0  0  0  0  # atno 11005 bound_to 11000
  146.2500  140.5278  142.8897 LP  0  0  0  0  0  0  0  0  0  0  0  0  # atno 17320 bound_to 7965
  144.8056  140.6294  143.6449 LP  0  0  0  0  0  0  0  0  0  0  0  0  # atno 17321 bound_to 7965
  139.5691  144.1971  152.1810 LP  0  0  0  0  0  0  0  0  0  0  0  0  # atno 17342 bound_to 10162
  140.1262  144.5329  150.6831 LP  0  0  0  0  0  0  0  0  0  0  0  0  # atno 17343 bound_to 10162
  156.4952  130.4104  149.6384 LP  0  0  0  0  0  0  0  0  0  0  0  0  # atno 17370 bound_to 10713
  156.3379  130.7366  151.2307 LP  0  0  0  0  0  0  0  0  0  0  0  0  # atno 17371 bound_to 10713
  141.1104  133.6645  156.2965 LP  0  0  0  0  0  0  0  0  0  0  0  0  # atno 17394 bound_to 11000
  140.5845  134.5713  157.5486 LP  0  0  0  0  0  0  0  0  0  0  0  0  # atno 17395 bound_to 11000

$$$$
