AV-unprocessed.smi:2759|AV-procd|sdf|10626|dock9
  -GOLD-   2272015 73D 1   1.00000     0.00000
 Structure written by MMmdl.
 43 44  0  0  0  0  0  0  0  0  1 V2000
  147.2085  134.8739  163.5482 C   0  0  0  0  0  0  0  0  0  0  0  0
  147.5661  134.7340  162.0554 C   0  0  0  0  0  0  0  0  0  0  0  0
  148.1808  133.3417  161.8183 C   0  0  0  0  0  0  0  0  0  0  0  0
  148.4881  135.8860  161.5736 C   0  0  2  0  0  0  0  0  0  0  0  0
  147.8975  137.1225  161.9326 O   0  0  0  0  0  0  0  0  0  0  0  0
  148.7208  135.9171  160.0465 C   0  0  0  0  0  0  0  0  0  0  0  0
  149.7277  136.9414  159.6359 C   0  0  0  0  0  0  0  0  0  0  0  0
  151.0014  137.0112  160.0147 N   0  0  0  0  0  0  0  0  0  0  0  0
  151.4397  138.0629  159.2678 C   0  0  0  0  0  0  0  0  0  0  0  0
  152.8542  138.5484  159.3049 C   0  0  0  0  0  0  0  0  0  0  0  0
  152.9301  140.0221  158.8981 C   0  0  0  0  0  0  0  0  0  0  0  0
  152.7414  140.3480  157.7265 O   0  0  0  0  0  0  0  0  0  0  0  0
  153.2030  140.9017  159.8753 N   0  0  0  0  0  0  0  0  0  0  0  0
  153.3634  142.3412  159.6942 C   0  0  0  0  0  0  0  0  0  0  0  0
  153.1223  143.0866  161.0210 C   0  0  0  0  0  0  0  0  0  0  0  0
  152.1688  144.2367  160.6933 C   0  0  0  0  0  0  0  0  0  0  0  0
  151.3426  143.7192  159.5202 C   0  0  0  0  0  0  0  0  0  0  0  0
  152.3370  142.9052  158.6918 C   0  0  0  0  0  0  0  0  0  0  0  0
  150.5333  138.6311  158.4806 N   0  0  0  0  0  0  0  0  0  0  0  0
  149.3796  137.8684  158.7115 O   0  0  0  0  0  0  0  0  0  0  0  0
  148.1031  134.8657  164.1716 H   0  0  0  0  0  0  0  0  0  0  0  0
  146.5681  134.0552  163.8778 H   0  0  0  0  0  0  0  0  0  0  0  0
  146.6689  135.7988  163.7523 H   0  0  0  0  0  0  0  0  0  0  0  0
  146.6343  134.7822  161.4897 H   0  0  0  0  0  0  0  0  0  0  0  0
  149.1664  133.2601  162.2778 H   0  0  0  0  0  0  0  0  0  0  0  0
  148.2823  133.1119  160.7585 H   0  0  0  0  0  0  0  0  0  0  0  0
  147.5532  132.5588  162.2450 H   0  0  0  0  0  0  0  0  0  0  0  0
  149.4485  135.8011  162.0844 H   0  0  0  0  0  0  0  0  0  0  0  0
  147.5178  137.0362  162.7940 H   0  0  0  0  0  0  0  0  0  0  0  0
  149.0931  134.9582  159.6907 H   0  0  0  0  0  0  0  0  0  0  0  0
  147.7852  136.0969  159.5153 H   0  0  0  0  0  0  0  0  0  0  0  0
  153.2634  138.4167  160.3077 H   0  0  0  0  0  0  0  0  0  0  0  0
  153.4676  137.9502  158.6298 H   0  0  0  0  0  0  0  0  0  0  0  0
  153.3343  140.5437  160.8104 H   0  0  0  0  0  0  0  0  0  0  0  0
  154.3733  142.5545  159.3385 H   0  0  0  0  0  0  0  0  0  0  0  0
  152.6464  142.4299  161.7513 H   0  0  0  0  0  0  0  0  0  0  0  0
  154.0510  143.4425  161.4681 H   0  0  0  0  0  0  0  0  0  0  0  0
  151.5533  144.5280  161.5449 H   0  0  0  0  0  0  0  0  0  0  0  0
  152.7411  145.1112  160.3810 H   0  0  0  0  0  0  0  0  0  0  0  0
  150.5496  143.0668  159.8885 H   0  0  0  0  0  0  0  0  0  0  0  0
  150.8765  144.5211  158.9469 H   0  0  0  0  0  0  0  0  0  0  0  0
  152.8481  143.5677  157.9923 H   0  0  0  0  0  0  0  0  0  0  0  0
  151.8399  142.1372  158.0976 H   0  0  0  0  0  0  0  0  0  0  0  0
  1  2  1  0  0  0  0
  1 21  1  0  0  0  0
  1 22  1  0  0  0  0
  1 23  1  0  0  0  0
  2  3  1  0  0  0  0
  2  4  1  0  0  0  0
  2 24  1  0  0  0  0
  3 25  1  0  0  0  0
  3 26  1  0  0  0  0
  3 27  1  0  0  0  0
  4  5  1  0  0  0  0
  4  6  1  0  0  0  0
  4 28  1  0  0  0  0
  5 29  1  0  0  0  0
  6  7  1  0  0  0  0
  6 30  1  0  0  0  0
  6 31  1  0  0  0  0
  7 20  1  0  0  0  0
  7  8  2  0  0  0  0
  8  9  1  0  0  0  0
  9 10  1  0  0  0  0
  9 19  2  0  0  0  0
 10 11  1  0  0  0  0
 10 32  1  0  0  0  0
 10 33  1  0  0  0  0
 11 12  2  0  0  0  0
 11 13  1  0  0  0  0
 13 14  1  0  0  0  0
 13 34  1  0  0  0  0
 14 18  1  0  0  0  0
 14 15  1  0  0  0  0
 14 35  1  0  0  0  0
 15 16  1  0  0  0  0
 15 36  1  0  0  0  0
 15 37  1  0  0  0  0
 16 17  1  0  0  0  0
 16 38  1  0  0  0  0
 16 39  1  0  0  0  0
 17 18  1  0  0  0  0
 17 40  1  0  0  0  0
 17 41  1  0  0  0  0
 18 42  1  0  0  0  0
 18 43  1  0  0  0  0
 19 20  1  0  0  0  0
M  END
> <s_m_source_file>
AV-unprocessed.smi

> <i_m_source_file_index>
2759

> <i_lp_mmshare_version>
43012

> <i_f3d_flags>
0

> <s_epik_input>
W0NIM11bQ0hdKFtDSDNdKVtDQEhdKFtPSF0pW0NIMl1jMW5jKG5vMSlbQ0gyXUMoPU8pW05IXVtDSF0yW0NIMl1bQ0gyXVtDSDJdW0NIMl0y

> <s_epik_cmdline>
J2VwaWtfcHl0aG9uJywgJy1waCcsICc3LjAnLCAnLXRuJywgJzgnLCAnLW1hJywgJzIwMCcsICctbWV0YWxfYmluZGluZycsICctaW1hZScsICc8aW5maWxlLm1hZT4nLCAnLW9tYWUnLCAnPG91dGZpbGUubWFlPic=

> <r_lp_tautomer_probability>
1

> <r_epik_Ionization_Penalty>
1.20032e-07

> <r_epik_Ionization_Penalty_Charging>
0

> <r_epik_Ionization_Penalty_Neutral>
1.20032e-07

> <r_epik_State_Penalty>
-0

> <r_epik_Charging_Adjusted_Penalty>
0

> <i_epik_Tot_Q>
0

> <i_epik_Tot_abs_Q>
0

> <r_epik_Metal_State_Penalty>
-0

> <b_epik_Metal_Only>
0

> <s_lp_Force_Field>
OPLS_2005

> <r_lp_Energy>
19.5735

> <b_lp_Chiralities_Consistent>
1

> <s_lp_Variant>
AV-unprocessed.smi:2759-1

> <Gold.Version>
5.8.1

> <Gold.Id.Protein>
6NUR|6NUR_protein|mol2

> <Gold.PLP.Fitness>
50.8383

> <Gold.PLP.PLP>
-41.1503

> <Gold.PLP.part.hbond>
-4.0866

> <Gold.PLP.part.metal>
0.0000

> <Gold.PLP.part.buried>
-4.4524

> <Gold.PLP.part.nonpolar>
-32.1309

> <Gold.PLP.part.repulsive>
0.1095

> <Gold.PLP.ligand.clash>
0.0000

> <Gold.PLP.ligand.torsion>
0.8504

> <Gold.PLP.Chemscore.Hbond>
3.7680

> <Gold.PLP.Chemscore.CHOScore>
0.0000

> <Gold.PLP.Chemscore.Metal>
0.0000

> <Gold.Chemscore.Hbonds>
donor molecule, donor type, donor heavy atom, donor atom, acceptor molecule, acceptor atom, score
      P1  H  6896  6908       L1     8  0.50
      P1  H  6931  6943       L1     5  1.00
      P1  H  6934  6947       L1     5  0.27
      P1  H  7997  8009       L1    12  0.93

> <Gold.PLP.Chemscore.Internal.Correction>
0.0847

> <Gold.Rescore>
     Score         DG    S(hbond)    S(metal)    S(lipo)     H(rot)  DE(clash)    DE(int)     intcor
     15.81     -19.15       2.74        0.00      96.66       2.65       0.03       3.31       ----

> <Gold.Chemscore.Fitness>
15.8080

> <Gold.Chemscore.DG>
-19.1487

> <Gold.Chemscore.ZeroCoef>
-5.4800

> <Gold.Chemscore.Hbond>
2.7410

> <Gold.Chemscore.Metal>
0.0000

> <Gold.Chemscore.Lipo>
96.6557

> <Gold.Chemscore.Internal_Hbond>
0.0000

> <Gold.Chemscore.DEClash>
0.0283

> <Gold.Chemscore.DEInternal>
3.3124

> <Gold.Chemscore.Rot>
2.6543

> <Gold.Chemscore.Internal.Correction>
   9.000000E+99

> <Gold.Chemscore.Hbonds>
donor molecule, donor type, donor heavy atom, donor atom, acceptor molecule, acceptor atom, score
      P1  H  6896  6908       L1     8  0.02
      P1  H  6931  6943       L1     5  0.53
      P1  H  6934  6947       L1     5  0.20
      P1  H  7997  8009       L1    12  0.44

> <Gold.Chemscore.Hbond.Weighted>
-9.1550

> <Gold.Chemscore.Metal.Weighted>
-0.0000

> <Gold.Chemscore.Lipo.Weighted>
-11.3087

> <Gold.Chemscore.Internal_Hbond.Weighted>
0.0000

> <Gold.Chemscore.DEClash.Weighted>
0.0283

> <Gold.Chemscore.DEInternal.Weighted>
3.3124

> <Gold.Chemscore.Rot.Weighted>
6.7950

> <Gold.Chemscore.Internal.Correction.Weighted>
   9.000000E+99

> <Gold.Protein.RotatedTorsions>
[ 6907 6896 6895 6894 ] final -147.24 input  -60.11 | X-H torsion
[ 7974 7965 7964 7962 ] final  127.54 input  175.53 | X-H torsion
[ 8008 7997 7996 7995 ] final  168.02 input   59.86 | X-H torsion
[ 10167 10162 10161 10158 ] final  126.94 input  -65.29 | X-H torsion
[ 10718 10713 10712 10709 ] final -130.64 input   66.30 | X-H torsion
[ 10763 10752 10751 10750 ] final  168.44 input  -60.55 | X-H torsion
[ 11005 11000 10999 10996 ] final -124.23 input  -57.11 | X-H torsion

> <Gold.Protein.ActiveResidues>
 VAL166  LYS551  ARG553  GLY616  TRP617  ASP618  TYR619  PRO620  LYS621  CYS622 
 ASP623  PHE694  ASN695  SER759  ASP760  ASP761  ALA762  ILE779  LEU786  VAL792 
 PHE793  MET794  SER795  GLU796  ALA797  LYS798  CYS799  TRP800  GLU811  SER814 

> <Gold.Protein.RotatedAtoms>
  151.1529  133.4895  159.2594 H   0  0  0  0  0  0  0  0  0  0  0  0  # atno 6907 bound_to 6896
  151.1534  135.0238  159.8688 H   0  0  0  0  0  0  0  0  0  0  0  0  # atno 6908 bound_to 6896
  152.5463  134.1411  159.8532 H   0  0  0  0  0  0  0  0  0  0  0  0  # atno 6909 bound_to 6896
  145.0494  139.3896  143.5062 H   0  0  0  0  0  0  0  0  0  0  0  0  # atno 7974 bound_to 7965
  156.1584  140.1601  156.8654 H   0  0  0  0  0  0  0  0  0  0  0  0  # atno 8008 bound_to 7997
  154.5136  140.0795  156.8074 H   0  0  0  0  0  0  0  0  0  0  0  0  # atno 8009 bound_to 7997
  155.3758  140.3402  155.4247 H   0  0  0  0  0  0  0  0  0  0  0  0  # atno 8010 bound_to 7997
  139.5604  144.6878  151.4059 H   0  0  0  0  0  0  0  0  0  0  0  0  # atno 10167 bound_to 10162
  156.2165  130.6951  151.0708 H   0  0  0  0  0  0  0  0  0  0  0  0  # atno 10718 bound_to 10713
  154.3685  135.2753  155.2279 H   0  0  0  0  0  0  0  0  0  0  0  0  # atno 10763 bound_to 10752
  154.4437  135.5948  153.6149 H   0  0  0  0  0  0  0  0  0  0  0  0  # atno 10764 bound_to 10752
  152.9839  135.6025  154.3914 H   0  0  0  0  0  0  0  0  0  0  0  0  # atno 10765 bound_to 10752
  140.9857  134.0610  157.3713 H   0  0  0  0  0  0  0  0  0  0  0  0  # atno 11005 bound_to 11000
  146.3516  140.0136  142.8665 LP  0  0  0  0  0  0  0  0  0  0  0  0  # atno 17320 bound_to 7965
  145.1547  140.9641  143.4412 LP  0  0  0  0  0  0  0  0  0  0  0  0  # atno 17321 bound_to 7965
  140.6883  143.7921  150.7218 LP  0  0  0  0  0  0  0  0  0  0  0  0  # atno 17342 bound_to 10162
  140.1396  143.4453  152.2202 LP  0  0  0  0  0  0  0  0  0  0  0  0  # atno 17343 bound_to 10162
  157.7065  131.0754  150.6647 LP  0  0  0  0  0  0  0  0  0  0  0  0  # atno 17370 bound_to 10713
  156.6709  130.4539  149.5657 LP  0  0  0  0  0  0  0  0  0  0  0  0  # atno 17371 bound_to 10713
  139.8970  135.0148  156.7077 LP  0  0  0  0  0  0  0  0  0  0  0  0  # atno 17394 bound_to 11000
  140.7117  133.9217  155.8089 LP  0  0  0  0  0  0  0  0  0  0  0  0  # atno 17395 bound_to 11000

$$$$
