AV-unprocessed.smi:1726|AV-procd|sdf|6959|dock6
  -GOLD-   22720 8173D 1   1.00000     0.00000
 Structure written by MMmdl.
 43 44  0  0  0  0  0  0  0  0  2 V2000
  145.4675  132.1245  151.1850 C   0  0  0  0  0  0  0  0  0  0  0  0
  146.7832  132.8973  151.3562 C   0  0  0  0  0  0  0  0  0  0  0  0
  146.5639  134.2902  151.8194 N   0  3  1  0  0  0  0  0  0  0  0  0
  145.6448  135.0457  150.9287 C   0  0  0  0  0  0  0  0  0  0  0  0
  145.5558  136.5247  151.3444 C   0  0  0  0  0  0  0  0  0  0  0  0
  145.1595  136.6699  152.8233 C   0  0  0  0  0  0  0  0  0  0  0  0
  146.0906  135.8415  153.7265 C   0  0  2  0  0  0  0  0  0  0  0  0
  147.4259  136.4401  153.7459 N   0  0  0  0  0  0  0  0  0  0  0  0
  147.9221  137.2042  154.7296 C   0  0  0  0  0  0  0  0  0  0  0  0
  147.2928  137.4732  155.7516 O   0  0  0  0  0  0  0  0  0  0  0  0
  149.1728  137.6054  154.4365 N   0  0  0  0  0  0  0  0  0  0  0  0
  150.0602  138.4112  155.1720 C   0  0  0  0  0  0  0  0  0  0  0  0
  149.7058  139.4707  155.9462 C   0  0  0  0  0  0  0  0  0  0  0  0
  150.6875  140.2570  156.6750 C   0  0  0  0  0  0  0  0  0  0  0  0
  150.2879  141.4814  157.4841 C   0  0  0  0  0  0  0  0  0  0  0  0
  150.7219  141.3567  158.7374 F   0  0  0  0  0  0  0  0  0  0  0  0
  150.8155  142.5934  156.9706 F   0  0  0  0  0  0  0  0  0  0  0  0
  148.9626  141.6234  157.5160 F   0  0  0  0  0  0  0  0  0  0  0  0
  151.9751  139.8957  156.5281 C   0  0  0  0  0  0  0  0  0  0  0  0
  152.3475  138.8021  155.7440 N   0  0  0  0  0  0  0  0  0  0  0  0
  151.4782  138.0316  155.0531 C   0  0  0  0  0  0  0  0  0  0  0  0
  151.8862  137.0840  154.3820 O   0  0  0  0  0  0  0  0  0  0  0  0
  146.1247  134.3763  153.2377 C   0  0  0  0  0  0  0  0  0  0  0  0
  153.3327  138.5854  155.6967 H   0  0  0  0  0  0  0  0  0  0  0  0
  145.6662  131.0824  150.9330 H   0  0  0  0  0  0  0  0  0  0  0  0
  144.8487  132.5354  150.3880 H   0  0  0  0  0  0  0  0  0  0  0  0
  144.8822  132.1351  152.1049 H   0  0  0  0  0  0  0  0  0  0  0  0
  147.3856  132.3645  152.0931 H   0  0  0  0  0  0  0  0  0  0  0  0
  147.3573  132.8953  150.4286 H   0  0  0  0  0  0  0  0  0  0  0  0
  145.9961  134.9868  149.8977 H   0  0  0  0  0  0  0  0  0  0  0  0
  144.6549  134.5868  150.9527 H   0  0  0  0  0  0  0  0  0  0  0  0
  146.5168  137.0102  151.1698 H   0  0  0  0  0  0  0  0  0  0  0  0
  144.8334  137.0448  150.7145 H   0  0  0  0  0  0  0  0  0  0  0  0
  145.1720  137.7198  153.1185 H   0  0  0  0  0  0  0  0  0  0  0  0
  144.1321  136.3280  152.9549 H   0  0  0  0  0  0  0  0  0  0  0  0
  145.6939  135.8677  154.7430 H   0  0  0  0  0  0  0  0  0  0  0  0
  148.0079  136.2762  152.9370 H   0  0  0  0  0  0  0  0  0  0  0  0
  149.5466  137.2827  153.5556 H   0  0  0  0  0  0  0  0  0  0  0  0
  148.6773  139.7715  156.0493 H   0  0  0  0  0  0  0  0  0  0  0  0
  152.8072  140.4088  156.9875 H   0  0  0  0  0  0  0  0  0  0  0  0
  145.1338  133.9297  153.3353 H   0  0  0  0  0  0  0  0  0  0  0  0
  146.7834  133.7914  153.8782 H   0  0  0  0  0  0  0  0  0  0  0  0
  147.4596  134.7532  151.7603 H   0  0  0  0  0  0  0  0  0  0  0  0
  1  2  1  0  0  0  0
  1 25  1  0  0  0  0
  1 26  1  0  0  0  0
  1 27  1  0  0  0  0
  2  3  1  0  0  0  0
  2 28  1  0  0  0  0
  2 29  1  0  0  0  0
  3 23  1  0  0  0  0
  3  4  1  0  0  0  0
  3 43  1  0  0  0  0
  4  5  1  0  0  0  0
  4 30  1  0  0  0  0
  4 31  1  0  0  0  0
  5  6  1  0  0  0  0
  5 32  1  0  0  0  0
  5 33  1  0  0  0  0
  6  7  1  0  0  0  0
  6 34  1  0  0  0  0
  6 35  1  0  0  0  0
  7  8  1  0  0  0  0
  7 23  1  0  0  0  0
  7 36  1  0  0  0  0
  8  9  1  0  0  0  0
  8 37  1  0  0  0  0
  9 10  2  0  0  0  0
  9 11  1  0  0  0  0
 11 12  1  0  0  0  0
 11 38  1  0  0  0  0
 12 21  1  0  0  0  0
 12 13  2  0  0  0  0
 13 14  1  0  0  0  0
 13 39  1  0  0  0  0
 14 15  1  0  0  0  0
 14 19  2  0  0  0  0
 15 16  1  0  0  0  0
 15 17  1  0  0  0  0
 15 18  1  0  0  0  0
 19 20  1  0  0  0  0
 19 40  1  0  0  0  0
 20 24  1  0  0  0  0
 20 21  1  0  0  0  0
 21 22  2  0  0  0  0
 23 41  1  0  0  0  0
 23 42  1  0  0  0  0
M  CHG  1   3   1
M  END
> <s_m_source_file>
AV-unprocessed.smi

> <i_m_source_file_index>
1726

> <i_lp_mmshare_version>
43012

> <i_f3d_flags>
0

> <s_epik_input>
W0NIM11bQ0gyXU4xW0NIMl1bQ0gyXVtDSDJdW0NASF0oW0NIMl0xKVtOSF1DKD1PKVtOSF1jMltjSF1jKEMoRikoRilGKVtjSF1bbkhdYzI9Tw==

> <s_epik_cmdline>
J2VwaWtfcHl0aG9uJywgJy1waCcsICc3LjAnLCAnLXRuJywgJzgnLCAnLW1hJywgJzIwMCcsICctbWV0YWxfYmluZGluZycsICctaW1hZScsICc8aW5maWxlLm1hZT4nLCAnLW9tYWUnLCAnPG91dGZpbGUubWFlPic=

> <r_lp_tautomer_probability>
1

> <r_epik_Ionization_Penalty>
0.00745721

> <r_epik_Ionization_Penalty_Charging>
0.00743804

> <r_epik_Ionization_Penalty_Neutral>
1.91703e-05

> <r_epik_State_Penalty>
-0

> <r_epik_Charging_Adjusted_Penalty>
0.00743804

> <i_epik_Tot_Q>
1

> <i_epik_Tot_abs_Q>
1

> <r_epik_Metal_State_Penalty>
0.37929

> <b_epik_Metal_Only>
0

> <s_lp_Force_Field>
OPLS_2005

> <r_lp_Energy>
34.9839

> <b_lp_Chiralities_Consistent>
1

> <s_lp_Variant>
AV-unprocessed.smi:1726-3

> <Gold.Version>
5.8.1

> <Gold.Id.Protein>
6NUR|6NUR_protein|mol2

> <Gold.PLP.Fitness>
44.0026

> <Gold.PLP.PLP>
-31.4371

> <Gold.PLP.part.hbond>
-3.6423

> <Gold.PLP.part.metal>
0.0000

> <Gold.PLP.part.buried>
-2.5396

> <Gold.PLP.part.nonpolar>
-27.1281

> <Gold.PLP.part.repulsive>
0.4120

> <Gold.PLP.ligand.clash>
0.0000

> <Gold.PLP.ligand.torsion>
0.5749

> <Gold.PLP.Chemscore.Hbond>
4.5560

> <Gold.PLP.Chemscore.CHOScore>
0.0000

> <Gold.PLP.Chemscore.Metal>
0.0000

> <Gold.Chemscore.Hbonds>
donor molecule, donor type, donor heavy atom, donor atom, acceptor molecule, acceptor atom, score
      L1  H     3    43       P1  7948  1.89
      L1  H     8    37       P1  7948  0.75
      L1  H    11    38       P1  7948  0.80
      P1  H 10752 10763       L1    22  1.00

> <Gold.PLP.Chemscore.Internal.Correction>
0.0474

> <Gold.Rescore>
     Score         DG    S(hbond)    S(metal)    S(lipo)     H(rot)  DE(clash)    DE(int)     intcor
     18.91     -19.43       3.07        0.00      59.91       1.29       0.14       0.39       ----

> <Gold.Chemscore.Fitness>
18.9063

> <Gold.Chemscore.DG>
-19.4283

> <Gold.Chemscore.ZeroCoef>
-5.4800

> <Gold.Chemscore.Hbond>
3.0651

> <Gold.Chemscore.Metal>
0.0000

> <Gold.Chemscore.Lipo>
59.9062

> <Gold.Chemscore.Internal_Hbond>
0.0000

> <Gold.Chemscore.DEClash>
0.1362

> <Gold.Chemscore.DEInternal>
0.3857

> <Gold.Chemscore.Rot>
1.2884

> <Gold.Chemscore.Internal.Correction>
   9.000000E+99

> <Gold.Chemscore.Hbonds>
donor molecule, donor type, donor heavy atom, donor atom, acceptor molecule, acceptor atom, score
      L1  H     3    43       P1  7948  0.54
      L1  H     8    37       P1  7948  0.75
      L1  H    11    38       P1  7948  0.66
      P1  H 10752 10763       L1    22  0.96

> <Gold.Chemscore.Hbond.Weighted>
-10.2376

> <Gold.Chemscore.Metal.Weighted>
-0.0000

> <Gold.Chemscore.Lipo.Weighted>
-7.0090

> <Gold.Chemscore.Internal_Hbond.Weighted>
0.0000

> <Gold.Chemscore.DEClash.Weighted>
0.1362

> <Gold.Chemscore.DEInternal.Weighted>
0.3857

> <Gold.Chemscore.Rot.Weighted>
3.2983

> <Gold.Chemscore.Internal.Correction.Weighted>
   9.000000E+99

> <Gold.Protein.RotatedTorsions>
[ 6907 6896 6895 6894 ] final -163.14 input  -60.11 | X-H torsion
[ 7974 7965 7964 7962 ] final  117.93 input  175.53 | X-H torsion
[ 8008 7997 7996 7995 ] final -112.90 input   59.86 | X-H torsion
[ 10167 10162 10161 10158 ] final   59.39 input  -65.29 | X-H torsion
[ 10718 10713 10712 10709 ] final  -32.59 input   66.30 | X-H torsion
[ 10763 10752 10751 10750 ] final   36.54 input  -60.55 | X-H torsion
[ 11005 11000 10999 10996 ] final  -73.00 input  -57.11 | X-H torsion

> <Gold.Protein.ActiveResidues>
 VAL166  LYS551  ARG553  GLY616  TRP617  ASP618  TYR619  PRO620  LYS621  CYS622 
 ASP623  PHE694  ASN695  SER759  ASP760  ASP761  ALA762  ILE779  LEU786  VAL792 
 PHE793  MET794  SER795  GLU796  ALA797  LYS798  CYS799  TRP800  GLU811  SER814 

> <Gold.Protein.RotatedAtoms>
  151.3914  133.3787  159.2721 H   0  0  0  0  0  0  0  0  0  0  0  0  # atno 6907 bound_to 6896
  150.9502  134.8904  159.7678 H   0  0  0  0  0  0  0  0  0  0  0  0  # atno 6908 bound_to 6896
  152.5108  134.3869  159.9423 H   0  0  0  0  0  0  0  0  0  0  0  0  # atno 6909 bound_to 6896
  145.1613  139.3153  143.4515 H   0  0  0  0  0  0  0  0  0  0  0  0  # atno 7974 bound_to 7965
  155.0124  140.0393  157.2405 H   0  0  0  0  0  0  0  0  0  0  0  0  # atno 8008 bound_to 7997
  154.7448  140.2756  155.6319 H   0  0  0  0  0  0  0  0  0  0  0  0  # atno 8009 bound_to 7997
  156.2872  140.2658  156.2186 H   0  0  0  0  0  0  0  0  0  0  0  0  # atno 8010 bound_to 7997
  140.1769  144.4221  150.6634 H   0  0  0  0  0  0  0  0  0  0  0  0  # atno 10167 bound_to 10162
  156.3730  130.4343  149.7530 H   0  0  0  0  0  0  0  0  0  0  0  0  # atno 10718 bound_to 10713
  153.0073  135.6303  154.2002 H   0  0  0  0  0  0  0  0  0  0  0  0  # atno 10763 bound_to 10752
  154.1745  135.2816  155.3072 H   0  0  0  0  0  0  0  0  0  0  0  0  # atno 10764 bound_to 10752
  154.5882  135.5626  153.7312 H   0  0  0  0  0  0  0  0  0  0  0  0  # atno 10765 bound_to 10752
  141.1617  133.6864  156.7145 H   0  0  0  0  0  0  0  0  0  0  0  0  # atno 11005 bound_to 11000
  146.3482  140.1725  142.8589 LP  0  0  0  0  0  0  0  0  0  0  0  0  # atno 17320 bound_to 7965
  145.0328  140.8884  143.5099 LP  0  0  0  0  0  0  0  0  0  0  0  0  # atno 17321 bound_to 7965
  140.6545  143.2234  151.6000 LP  0  0  0  0  0  0  0  0  0  0  0  0  # atno 17342 bound_to 10162
  139.5313  144.2908  152.1154 LP  0  0  0  0  0  0  0  0  0  0  0  0  # atno 17343 bound_to 10162
  156.4650  130.7970  151.2989 LP  0  0  0  0  0  0  0  0  0  0  0  0  # atno 17370 bound_to 10713
  157.7485  131.0054  150.3111 LP  0  0  0  0  0  0  0  0  0  0  0  0  # atno 17371 bound_to 10713
  140.2862  134.8277  157.3977 LP  0  0  0  0  0  0  0  0  0  0  0  0  # atno 17394 bound_to 11000
  140.1388  134.4999  155.8047 LP  0  0  0  0  0  0  0  0  0  0  0  0  # atno 17395 bound_to 11000

$$$$
