#       Name:                AV-unprocessed.smi:189
#       Creating user name   scv26
#       Creation time:       Thu Mar 26 19:31:03 2020


#       File generated by GOLD software.
#

@<TRIPOS>MOLECULE
AV-unprocessed.smi:189
    61    65     1
SMALL
NO_CHARGES


@<TRIPOS>ATOM
      1 ****        -4.1698  -0.1781  -1.6978 C.3            1 S1                 0.0000
      2 ****        -3.1514   0.8203  -1.1221 C.3            1 S1                 0.0000
      3 ****        -3.8205   1.9105  -0.2723 C.3            1 S1                 0.0000
      4 ****        -3.8283   1.3382   1.1524 C.3            1 S1                 0.0000
      5 ****        -3.4543   2.3542   2.2463 C.3            1 S1                 0.0000
      6 ****        -3.3614   1.6980   3.6401 C.3            1 S1                 0.0000
      7 ****        -2.7482   0.2795   3.6206 C.3            1 S1                 0.0000
      8 ****        -1.9416   0.0101   2.3422 C.3            1 S1                 0.0000
      9 ****        -2.8613   0.1351   1.0997 C.3            1 S1                 0.0000
     10 ****        -2.2135   0.1607  -0.2162 N.3            1 S1                 0.0000
     11 ****        -0.9190   0.5623  -0.2745 C.ar           1 S1                 0.0000
     12 ****        -0.6032   1.8766  -0.4227 N.ar           1 S1                 0.0000
     13 ****         0.6769   2.2592  -0.4499 C.ar           1 S1                 0.0000
     14 ****         1.7753   1.5079  -0.3461 N.ar           1 S1                 0.0000
     15 ****         1.4611   0.1887  -0.1984 C.ar           1 S1                 0.0000
     16 ****         0.1508  -0.3633  -0.1505 C.ar           1 S1                 0.0000
     17 ****         0.2180  -1.7403   0.0188 N.2            1 S1                 0.0000
     18 ****         1.4981  -1.9893   0.0681 C.2            1 S1                 0.0000
     19 ****         2.3174  -0.8899  -0.0629 N.pl3          1 S1                 0.0000
     20 ****         3.7717  -0.8795  -0.0495 C.3            1 S1                 0.0000
     21 ****         4.4010  -1.0575  -1.4509 C.3            1 S1                 0.0000
     22 ****         4.0219   0.0334  -2.2720 O.3            1 S1                 0.0000
     23 ****         4.0027  -2.3527  -2.1546 C.3            1 S1                 0.0000
     24 ****         5.2440  -2.6948  -2.9666 C.3            1 S1                 0.0000
     25 ****         6.2947  -2.3439  -2.0828 O.3            1 S1                 0.0000
     26 ****         5.9406  -1.1342  -1.4203 C.3            1 S1                 0.0000
     27 ****        -4.8587   0.3201  -2.3801 H              1 S1                 0.0000
     28 ****        -4.7651  -0.6522  -0.9169 H              1 S1                 0.0000
     29 ****        -3.6665  -0.9669  -2.2576 H              1 S1                 0.0000
     30 ****        -2.6267   1.2783  -1.9622 H              1 S1                 0.0000
     31 ****        -3.2194   2.8197  -0.3096 H              1 S1                 0.0000
     32 ****        -4.8185   2.1729  -0.6250 H              1 S1                 0.0000
     33 ****        -4.8268   0.9559   1.3691 H              1 S1                 0.0000
     34 ****        -2.4895   2.8008   2.0006 H              1 S1                 0.0000
     35 ****        -4.1715   3.1752   2.2667 H              1 S1                 0.0000
     36 ****        -2.7723   2.3452   4.2908 H              1 S1                 0.0000
     37 ****        -4.3537   1.6463   4.0894 H              1 S1                 0.0000
     38 ****        -2.1242   0.1319   4.5025 H              1 S1                 0.0000
     39 ****        -3.5482  -0.4588   3.6901 H              1 S1                 0.0000
     40 ****        -1.1192   0.7256   2.3093 H              1 S1                 0.0000
     41 ****        -1.4913  -0.9822   2.3783 H              1 S1                 0.0000
     42 ****        -3.4783  -0.7646   1.0924 H              1 S1                 0.0000
     43 ****         0.8446   3.3192  -0.5699 H              1 S1                 0.0000
     44 ****         1.8821  -2.9905   0.1987 H              1 S1                 0.0000
     45 ****         4.1073   0.0560   0.4003 H              1 S1                 0.0000
     46 ****         4.1082  -1.6756   0.6159 H              1 S1                 0.0000
     47 ****         4.4192  -0.0779  -3.1221 H              1 S1                 0.0000
     48 ****         3.8368  -3.1446  -1.4232 H              1 S1                 0.0000
     49 ****         3.1003  -2.2670  -2.7615 H              1 S1                 0.0000
     50 ****         5.2882  -3.7468  -3.2487 H              1 S1                 0.0000
     51 ****         5.3032  -2.0885  -3.8717 H              1 S1                 0.0000
     52 ****         6.4043  -0.2891  -1.9315 H              1 S1                 0.0000
     53 ****         6.3362  -1.1551  -0.4044 H              1 S1                 0.0000
     54 ****        -2.0473  -0.7782  -0.5173 LP             1 S1                 0.0000
     55 ****        -1.3299   2.5578  -0.5114 LP             1 S1                 0.0000
     56 ****         2.7085   1.8661  -0.3731 LP             1 S1                 0.0000
     57 ****        -0.5390  -2.3901   0.0871 LP             1 S1                 0.0000
     58 ****         4.3370   0.8894  -1.8620 LP             1 S1                 0.0000
     59 ****         3.0265   0.0552  -2.3653 LP             1 S1                 0.0000
     60 ****         7.1403  -2.2107  -2.5996 LP             1 S1                 0.0000
     61 ****         6.4266  -3.0714  -1.4095 LP             1 S1                 0.0000
@<TRIPOS>BOND
    1    1    2 1     
    2    1   27 1     
    3    1   28 1     
    4    1   29 1     
    5    2   10 1     
    6    2    3 1     
    7    2   30 1     
    8    3    4 1     
    9    3   31 1     
   10    3   32 1     
   11    4    9 1     
   12    4    5 1     
   13    4   33 1     
   14    5    6 1     
   15    5   34 1     
   16    5   35 1     
   17    6    7 1     
   18    6   36 1     
   19    6   37 1     
   20    7    8 1     
   21    7   38 1     
   22    7   39 1     
   23    8    9 1     
   24    8   40 1     
   25    8   41 1     
   26    9   10 1     
   27    9   42 1     
   28   10   11 1     
   29   11   16 ar    
   30   11   12 ar    
   31   12   13 ar    
   32   13   14 ar    
   33   13   43 1     
   34   14   15 ar    
   35   15   19 1     
   36   15   16 ar    
   37   16   17 1     
   38   17   18 2     
   39   18   19 1     
   40   18   44 1     
   41   19   20 1     
   42   20   21 1     
   43   20   45 1     
   44   20   46 1     
   45   21   26 1     
   46   21   22 1     
   47   21   23 1     
   48   22   47 1     
   49   23   24 1     
   50   23   48 1     
   51   23   49 1     
   52   24   25 1     
   53   24   50 1     
   54   24   51 1     
   55   25   26 1     
   56   26   52 1     
   57   26   53 1     
   58   10   54 1     
   59   12   55 1     
   60   14   56 1     
   61   17   57 1     
   62   22   58 1     
   63   22   59 1     
   64   25   60 1     
   65   25   61 1     
@<TRIPOS>SUBSTRUCTURE
      1 S1             1
@<TRIPOS>SET
LONE_PAIRS      STATIC     ATOMS    <user>   **** ""
8 54 55 56 57 58 59 60 61
DONOR_HYDROGENS      STATIC     ATOMS    <user>   **** ""
1 47
ATOM$BLUE        STATIC     ATOMS    COLORGROUP SYSTEM
8 54 55 56 57 58 59 60 61
ATOM$RED        STATIC     ATOMS    COLORGROUP SYSTEM
1 47
