AV-unprocessed.smi:1813|AV-procd|sdf|7346|dock4
  -GOLD-   22720 9 03D 1   1.00000     0.00000
 Structure written by MMmdl.
 39 40  0  0  0  0  0  0  0  0  3 V2000
  145.7793  132.3414  149.2608 C   0  0  0  0  0  0  0  0  0  0  0  0
  146.8012  132.2896  150.2954 N   0  0  0  0  0  0  0  0  0  0  0  0
  146.7613  133.0013  151.4301 C   0  0  0  0  0  0  0  0  0  0  0  0
  145.8417  133.7705  151.7119 O   0  0  0  0  0  0  0  0  0  0  0  0
  147.9305  132.7969  152.3990 C   0  0  0  0  0  0  0  0  0  0  0  0
  147.8266  133.6342  153.6216 N   0  3  2  0  0  0  0  0  0  0  0  0
  149.0877  133.6772  154.4091 C   0  0  0  0  0  0  0  0  0  0  0  0
  148.9742  134.6651  155.5811 C   0  0  0  0  0  0  0  0  0  0  0  0
  147.7845  134.3141  156.4880 C   0  0  1  0  0  0  0  0  0  0  0  0
  147.6519  135.3181  157.5391 N   0  0  0  0  0  0  0  0  0  0  0  0
  148.4995  135.5032  158.5612 C   0  0  0  0  0  0  0  0  0  0  0  0
  149.4977  134.7874  158.6698 O   0  0  0  0  0  0  0  0  0  0  0  0
  148.1340  136.5028  159.3947 N   0  5  0  0  0  0  0  0  0  0  0  0
  147.8477  136.2347  160.6791 C   0  0  0  0  0  0  0  0  0  0  0  0
  147.7289  137.1846  161.6136 N   0  0  0  0  0  0  0  0  0  0  0  0
  147.4234  136.6825  162.8798 C   0  0  0  0  0  0  0  0  0  0  0  0
  147.2974  135.3190  162.9082 C   0  0  0  0  0  0  0  0  0  0  0  0
  147.5598  134.6208  161.3357 S   0  0  0  0  0  0  0  0  0  0  0  0
  146.4991  134.2309  155.6444 C   0  0  0  0  0  0  0  0  0  0  0  0
  146.6684  133.2547  154.4696 C   0  0  0  0  0  0  0  0  0  0  0  0
  146.0421  131.6684  148.4446 H   0  0  0  0  0  0  0  0  0  0  0  0
  145.6875  133.3496  148.8547 H   0  0  0  0  0  0  0  0  0  0  0  0
  144.8098  132.0348  149.6558 H   0  0  0  0  0  0  0  0  0  0  0  0
  147.5847  131.6722  150.1381 H   0  0  0  0  0  0  0  0  0  0  0  0
  147.9230  131.7418  152.6754 H   0  0  0  0  0  0  0  0  0  0  0  0
  148.8823  132.9828  151.8983 H   0  0  0  0  0  0  0  0  0  0  0  0
  149.3192  132.6784  154.7826 H   0  0  0  0  0  0  0  0  0  0  0  0
  149.9204  133.9755  153.7719 H   0  0  0  0  0  0  0  0  0  0  0  0
  149.8990  134.6591  156.1595 H   0  0  0  0  0  0  0  0  0  0  0  0
  148.8598  135.6778  155.1912 H   0  0  0  0  0  0  0  0  0  0  0  0
  147.9780  133.3417  156.9450 H   0  0  0  0  0  0  0  0  0  0  0  0
  146.8496  135.9292  157.4913 H   0  0  0  0  0  0  0  0  0  0  0  0
  147.3114  137.3696  163.7051 H   0  0  0  0  0  0  0  0  0  0  0  0
  147.0666  134.6861  163.7514 H   0  0  0  0  0  0  0  0  0  0  0  0
  145.6595  133.9140  156.2639 H   0  0  0  0  0  0  0  0  0  0  0  0
  146.2427  135.2196  155.2607 H   0  0  0  0  0  0  0  0  0  0  0  0
  145.7563  133.2558  153.8718 H   0  0  0  0  0  0  0  0  0  0  0  0
  146.8046  132.2376  154.8408 H   0  0  0  0  0  0  0  0  0  0  0  0
  147.6470  134.5761  153.3028 H   0  0  0  0  0  0  0  0  0  0  0  0
  1  2  1  0  0  0  0
  1 21  1  0  0  0  0
  1 22  1  0  0  0  0
  1 23  1  0  0  0  0
  2  3  1  0  0  0  0
  2 24  1  0  0  0  0
  3  4  2  0  0  0  0
  3  5  1  0  0  0  0
  5  6  1  0  0  0  0
  5 25  1  0  0  0  0
  5 26  1  0  0  0  0
  6 20  1  0  0  0  0
  6  7  1  0  0  0  0
  6 39  1  0  0  0  0
  7  8  1  0  0  0  0
  7 27  1  0  0  0  0
  7 28  1  0  0  0  0
  8  9  1  0  0  0  0
  8 29  1  0  0  0  0
  8 30  1  0  0  0  0
  9 10  1  0  0  0  0
  9 19  1  0  0  0  0
  9 31  1  0  0  0  0
 10 11  1  0  0  0  0
 10 32  1  0  0  0  0
 11 12  2  0  0  0  0
 11 13  1  0  0  0  0
 13 14  1  0  0  0  0
 14 18  1  0  0  0  0
 14 15  2  0  0  0  0
 15 16  1  0  0  0  0
 16 17  2  0  0  0  0
 16 33  1  0  0  0  0
 17 18  1  0  0  0  0
 17 34  1  0  0  0  0
 19 20  1  0  0  0  0
 19 35  1  0  0  0  0
 19 36  1  0  0  0  0
 20 37  1  0  0  0  0
 20 38  1  0  0  0  0
M  CHG  1   6   1
M  CHG  1  13  -1
M  END
> <s_m_source_file>
AV-unprocessed.smi

> <i_m_source_file_index>
1813

> <i_lp_mmshare_version>
43012

> <i_f3d_flags>
0

> <s_epik_input>
W0NIM11bTkhdQyg9TylbQ0gyXU4xW0NIMl1bQ0gyXVtDSF0oW0NIMl1bQ0gyXTEpW05IXUMoPU8pW05IXWMybltjSF1bY0hdczI=

> <s_epik_cmdline>
J2VwaWtfcHl0aG9uJywgJy1waCcsICc3LjAnLCAnLXRuJywgJzgnLCAnLW1hJywgJzIwMCcsICctbWV0YWxfYmluZGluZycsICctaW1hZScsICc8aW5maWxlLm1hZT4nLCAnLW9tYWUnLCAnPG91dGZpbGUubWFlPic=

> <r_lp_tautomer_probability>
0.999

> <r_epik_Ionization_Penalty>
7.12128

> <r_epik_Ionization_Penalty_Charging>
6.25357

> <r_epik_Ionization_Penalty_Neutral>
0.867707

> <r_epik_State_Penalty>
6.33838

> <r_epik_Charging_Adjusted_Penalty>
12.592

> <i_epik_Tot_Q>
0

> <i_epik_Tot_abs_Q>
2

> <r_epik_Metal_State_Penalty>
2.34161

> <b_epik_Metal_Only>
1

> <s_lp_Force_Field>
OPLS_2005

> <r_lp_Energy>
3.88073

> <b_lp_Chiralities_Consistent>
1

> <s_lp_Variant>
AV-unprocessed.smi:1813-7

> <Gold.Version>
5.8.1

> <Gold.Id.Protein>
6NUR|6NUR_protein|mol2

> <Gold.PLP.Fitness>
42.4629

> <Gold.PLP.PLP>
-32.6975

> <Gold.PLP.part.hbond>
-4.0000

> <Gold.PLP.part.metal>
0.0000

> <Gold.PLP.part.buried>
-3.4297

> <Gold.PLP.part.nonpolar>
-25.0110

> <Gold.PLP.part.repulsive>
0.2382

> <Gold.PLP.ligand.clash>
0.0000

> <Gold.PLP.ligand.torsion>
0.7768

> <Gold.PLP.Chemscore.Hbond>
3.7600

> <Gold.PLP.Chemscore.CHOScore>
0.0000

> <Gold.PLP.Chemscore.Metal>
0.0000

> <Gold.Chemscore.Hbonds>
donor molecule, donor type, donor heavy atom, donor atom, acceptor molecule, acceptor atom, score
      L1  H     2    24       P1 10747  1.00
      P1  H  6896  6909       L1    12  0.80
      P1  H  6931  6943       L1    15  1.00
      P1  H  6934  6947       L1    15  0.72

> <Gold.PLP.Chemscore.Internal.Correction>
0.0390

> <Gold.Rescore>
     Score         DG    S(hbond)    S(metal)    S(lipo)     H(rot)  DE(clash)    DE(int)     intcor
     15.52     -17.69       2.87        0.00      60.94       1.76       0.15       2.02       ----

> <Gold.Chemscore.Fitness>
15.5210

> <Gold.Chemscore.DG>
-17.6904

> <Gold.Chemscore.ZeroCoef>
-5.4800

> <Gold.Chemscore.Hbond>
2.8703

> <Gold.Chemscore.Metal>
0.0000

> <Gold.Chemscore.Lipo>
60.9410

> <Gold.Chemscore.Internal_Hbond>
0.0000

> <Gold.Chemscore.DEClash>
0.1534

> <Gold.Chemscore.DEInternal>
2.0159

> <Gold.Chemscore.Rot>
1.7603

> <Gold.Chemscore.Internal.Correction>
   9.000000E+99

> <Gold.Chemscore.Hbonds>
donor molecule, donor type, donor heavy atom, donor atom, acceptor molecule, acceptor atom, score
      L1  H     2    24       P1 10747  0.99
      P1  H  6896  6909       L1    12  0.79
      P1  H  6931  6943       L1    15  0.37
      P1  H  6934  6947       L1    15  0.62

> <Gold.Chemscore.Hbond.Weighted>
-9.5867

> <Gold.Chemscore.Metal.Weighted>
-0.0000

> <Gold.Chemscore.Lipo.Weighted>
-7.1301

> <Gold.Chemscore.Internal_Hbond.Weighted>
0.0000

> <Gold.Chemscore.DEClash.Weighted>
0.1534

> <Gold.Chemscore.DEInternal.Weighted>
2.0159

> <Gold.Chemscore.Rot.Weighted>
4.5064

> <Gold.Chemscore.Internal.Correction.Weighted>
   9.000000E+99

> <Gold.Protein.RotatedTorsions>
[ 6907 6896 6895 6894 ] final   30.51 input  -60.11 | X-H torsion
[ 7974 7965 7964 7962 ] final -176.75 input  175.53 | X-H torsion
[ 8008 7997 7996 7995 ] final  108.00 input   59.86 | X-H torsion
[ 10167 10162 10161 10158 ] final -148.01 input  -65.29 | X-H torsion
[ 10718 10713 10712 10709 ] final  -90.34 input   66.30 | X-H torsion
[ 10763 10752 10751 10750 ] final  127.55 input  -60.55 | X-H torsion
[ 11005 11000 10999 10996 ] final  -15.61 input  -57.11 | X-H torsion

> <Gold.Protein.ActiveResidues>
 VAL166  LYS551  ARG553  GLY616  TRP617  ASP618  TYR619  PRO620  LYS621  CYS622 
 ASP623  PHE694  ASN695  SER759  ASP760  ASP761  ALA762  ILE779  LEU786  VAL792 
 PHE793  MET794  SER795  GLU796  ALA797  LYS798  CYS799  TRP800  GLU811  SER814 

> <Gold.Protein.RotatedAtoms>
  152.0471  134.9676  160.0574 H   0  0  0  0  0  0  0  0  0  0  0  0  # atno 6907 bound_to 6896
  152.1092  133.4287  159.4631 H   0  0  0  0  0  0  0  0  0  0  0  0  # atno 6908 bound_to 6896
  150.6842  134.2587  159.4584 H   0  0  0  0  0  0  0  0  0  0  0  0  # atno 6909 bound_to 6896
  144.7127  140.1123  143.6410 H   0  0  0  0  0  0  0  0  0  0  0  0  # atno 7974 bound_to 7965
  156.1868  140.3084  155.9254 H   0  0  0  0  0  0  0  0  0  0  0  0  # atno 8008 bound_to 7997
  155.3262  140.0458  157.3058 H   0  0  0  0  0  0  0  0  0  0  0  0  # atno 8009 bound_to 7997
  154.5405  140.2260  155.8658 H   0  0  0  0  0  0  0  0  0  0  0  0  # atno 8010 bound_to 7997
  139.7570  143.8433  152.2599 H   0  0  0  0  0  0  0  0  0  0  0  0  # atno 10167 bound_to 10162
  155.9987  130.4906  150.5308 H   0  0  0  0  0  0  0  0  0  0  0  0  # atno 10718 bound_to 10713
  153.7113  135.3268  155.3247 H   0  0  0  0  0  0  0  0  0  0  0  0  # atno 10763 bound_to 10752
  154.8384  135.4477  154.1311 H   0  0  0  0  0  0  0  0  0  0  0  0  # atno 10764 bound_to 10752
  153.2406  135.6970  153.7867 H   0  0  0  0  0  0  0  0  0  0  0  0  # atno 10765 bound_to 10752
  140.7984  133.8233  155.9446 H   0  0  0  0  0  0  0  0  0  0  0  0  # atno 11005 bound_to 11000
  145.9444  139.2690  143.1250 LP  0  0  0  0  0  0  0  0  0  0  0  0  # atno 17320 bound_to 7965
  145.9390  140.8993  143.0317 LP  0  0  0  0  0  0  0  0  0  0  0  0  # atno 17321 bound_to 7965
  139.8428  144.7202  150.9310 LP  0  0  0  0  0  0  0  0  0  0  0  0  # atno 17342 bound_to 10162
  140.7803  143.3968  151.1216 LP  0  0  0  0  0  0  0  0  0  0  0  0  # atno 17343 bound_to 10162
  157.3257  131.0690  151.1899 LP  0  0  0  0  0  0  0  0  0  0  0  0  # atno 17370 bound_to 10713
  157.2796  130.6744  149.6059 LP  0  0  0  0  0  0  0  0  0  0  0  0  # atno 17371 bound_to 10713
  140.9320  134.2010  157.4857 LP  0  0  0  0  0  0  0  0  0  0  0  0  # atno 17394 bound_to 11000
  139.8724  134.9836  156.5207 LP  0  0  0  0  0  0  0  0  0  0  0  0  # atno 17395 bound_to 11000

$$$$
