AV-unprocessed.smi:1005|AV-procd|sdf|4376|dock2
  -GOLD-   22720 2293D 1   1.00000     0.00000
 Structure written by MMmdl.
 57 59  0  0  0  0  0  0  0  0  3 V2000
  151.9205  145.4098  160.1652 C   0  0  0  0  0  0  0  0  0  0  0  0
  151.7447  144.1187  159.3839 C   0  0  0  0  0  0  0  0  0  0  0  0
  151.1370  144.1790  158.1098 C   0  0  0  0  0  0  0  0  0  0  0  0
  150.9952  142.9825  157.4173 C   0  0  0  0  0  0  0  0  0  0  0  0
  150.4511  142.7139  156.1596 N   0  3  0  0  0  0  0  0  0  0  0  0
  150.5384  141.3798  155.9020 C   0  0  0  0  0  0  0  0  0  0  0  0
  151.1318  140.7918  156.9760 N   0  0  0  0  0  0  0  0  0  0  0  0
  151.4562  139.3767  157.2041 C   0  0  0  0  0  0  0  0  0  0  0  0
  150.2866  138.5826  157.8191 C   0  0  2  0  0  0  0  0  0  0  0  0
  149.6602  139.4237  158.7647 O   0  0  0  0  0  0  0  0  0  0  0  0
  150.7303  137.2893  158.5366 C   0  0  0  0  0  0  0  0  0  0  0  0
  149.7103  136.2460  158.6512 N   0  0  0  0  0  0  0  0  0  0  0  0
  149.2482  135.8318  157.3309 C   0  0  0  0  0  0  0  0  0  0  0  0
  148.1725  134.7377  157.4158 C   0  0  0  0  0  0  0  0  0  0  0  0
  147.0866  135.2065  158.2074 O   0  0  0  0  0  0  0  0  0  0  0  0
  147.4760  135.5703  159.5297 C   0  0  2  0  0  0  0  0  0  0  0  0
  146.2214  136.0598  160.2744 C   0  0  0  0  0  0  0  0  0  0  0  0
  146.2890  135.7975  161.7347 N   0  3  0  0  0  0  0  0  0  0  0  0
  146.6067  134.3889  162.0650 C   0  0  0  0  0  0  0  0  0  0  0  0
  147.1968  136.7367  162.4297 C   0  0  0  0  0  0  0  0  0  0  0  0
  148.5567  136.6684  159.4440 C   0  0  0  0  0  0  0  0  0  0  0  0
  151.4298  141.7530  157.9501 C   0  0  0  0  0  0  0  0  0  0  0  0
  152.0267  141.6763  159.2067 C   0  0  0  0  0  0  0  0  0  0  0  0
  152.1855  142.8832  159.9245 C   0  0  0  0  0  0  0  0  0  0  0  0
  152.8428  142.8300  161.2932 C   0  0  0  0  0  0  0  0  0  0  0  0
  151.4782  146.2571  159.6403 H   0  0  0  0  0  0  0  0  0  0  0  0
  152.9792  145.6245  160.3133 H   0  0  0  0  0  0  0  0  0  0  0  0
  151.4412  145.3371  161.1417 H   0  0  0  0  0  0  0  0  0  0  0  0
  150.8002  145.1163  157.6912 H   0  0  0  0  0  0  0  0  0  0  0  0
  150.1983  140.8783  155.0072 H   0  0  0  0  0  0  0  0  0  0  0  0
  151.7958  138.9268  156.2708 H   0  0  0  0  0  0  0  0  0  0  0  0
  152.3131  139.3552  157.8791 H   0  0  0  0  0  0  0  0  0  0  0  0
  149.5690  138.3632  157.0294 H   0  0  0  0  0  0  0  0  0  0  0  0
  149.6110  140.2957  158.4033 H   0  0  0  0  0  0  0  0  0  0  0  0
  151.5980  136.8678  158.0290 H   0  0  0  0  0  0  0  0  0  0  0  0
  151.0773  137.5641  159.5341 H   0  0  0  0  0  0  0  0  0  0  0  0
  148.8454  136.6915  156.7925 H   0  0  0  0  0  0  0  0  0  0  0  0
  150.0891  135.4626  156.7425 H   0  0  0  0  0  0  0  0  0  0  0  0
  147.8064  134.4872  156.4200 H   0  0  0  0  0  0  0  0  0  0  0  0
  148.5815  133.8231  157.8479 H   0  0  0  0  0  0  0  0  0  0  0  0
  147.8996  134.7007  160.0331 H   0  0  0  0  0  0  0  0  0  0  0  0
  146.0618  137.1255  160.1027 H   0  0  0  0  0  0  0  0  0  0  0  0
  145.3548  135.5483  159.8525 H   0  0  0  0  0  0  0  0  0  0  0  0
  147.5873  134.1084  161.6784 H   0  0  0  0  0  0  0  0  0  0  0  0
  145.8678  133.7033  161.6519 H   0  0  0  0  0  0  0  0  0  0  0  0
  146.6143  134.2418  163.1455 H   0  0  0  0  0  0  0  0  0  0  0  0
  148.2251  136.6122  162.0874 H   0  0  0  0  0  0  0  0  0  0  0  0
  147.1719  136.5711  163.5074 H   0  0  0  0  0  0  0  0  0  0  0  0
  146.8980  137.7702  162.2502 H   0  0  0  0  0  0  0  0  0  0  0  0
  148.8674  136.9267  160.4555 H   0  0  0  0  0  0  0  0  0  0  0  0
  148.1236  137.5715  159.0106 H   0  0  0  0  0  0  0  0  0  0  0  0
  152.3653  140.7379  159.6202 H   0  0  0  0  0  0  0  0  0  0  0  0
  153.1838  141.8226  161.5336 H   0  0  0  0  0  0  0  0  0  0  0  0
  152.1389  143.1380  162.0665 H   0  0  0  0  0  0  0  0  0  0  0  0
  153.7097  143.4903  161.3299 H   0  0  0  0  0  0  0  0  0  0  0  0
  145.3652  135.9843  162.0995 H   0  0  0  0  0  0  0  0  0  0  0  0
  150.0480  143.3892  155.5225 H   0  0  0  0  0  0  0  0  0  0  0  0
  1  2  1  0  0  0  0
  1 26  1  0  0  0  0
  1 27  1  0  0  0  0
  1 28  1  0  0  0  0
  2 24  1  0  0  0  0
  2  3  2  0  0  0  0
  3  4  1  0  0  0  0
  3 29  1  0  0  0  0
  4 22  2  0  0  0  0
  4  5  1  0  0  0  0
  5  6  2  0  0  0  0
  5 57  1  0  0  0  0
  6  7  1  0  0  0  0
  6 30  1  0  0  0  0
  7  8  1  0  0  0  0
  7 22  1  0  0  0  0
  8  9  1  0  0  0  0
  8 31  1  0  0  0  0
  8 32  1  0  0  0  0
  9 10  1  0  0  0  0
  9 11  1  0  0  0  0
  9 33  1  0  0  0  0
 10 34  1  0  0  0  0
 11 12  1  0  0  0  0
 11 35  1  0  0  0  0
 11 36  1  0  0  0  0
 12 21  1  0  0  0  0
 12 13  1  0  0  0  0
 13 14  1  0  0  0  0
 13 37  1  0  0  0  0
 13 38  1  0  0  0  0
 14 15  1  0  0  0  0
 14 39  1  0  0  0  0
 14 40  1  0  0  0  0
 15 16  1  0  0  0  0
 16 17  1  0  0  0  0
 16 21  1  0  0  0  0
 16 41  1  0  0  0  0
 17 18  1  0  0  0  0
 17 42  1  0  0  0  0
 17 43  1  0  0  0  0
 18 19  1  0  0  0  0
 18 20  1  0  0  0  0
 18 56  1  0  0  0  0
 19 44  1  0  0  0  0
 19 45  1  0  0  0  0
 19 46  1  0  0  0  0
 20 47  1  0  0  0  0
 20 48  1  0  0  0  0
 20 49  1  0  0  0  0
 21 50  1  0  0  0  0
 21 51  1  0  0  0  0
 22 23  1  0  0  0  0
 23 24  2  0  0  0  0
 23 52  1  0  0  0  0
 24 25  1  0  0  0  0
 25 53  1  0  0  0  0
 25 54  1  0  0  0  0
 25 55  1  0  0  0  0
M  CHG  1   5   1
M  CHG  1  18   1
M  END
> <s_m_source_file>
AV-unprocessed.smi

> <i_m_source_file_index>
1005

> <i_lp_mmshare_version>
43012

> <i_f3d_flags>
0

> <s_epik_input>
W0NIM11jKFtjSF0xKWMoW0NIM10pW2NIXWMoYzEyKW4oW2NIXW4yKVtDSDJdW0NASF0oW09IXSlbQ0gyXU4zW0NIMl1bQ0gyXU9bQ0BIXShbQ0gyXTMpW0NIMl1OKFtDSDNdKVtDSDNd

> <s_epik_cmdline>
J2VwaWtfcHl0aG9uJywgJy1waCcsICc3LjAnLCAnLXRuJywgJzgnLCAnLW1hJywgJzIwMCcsICctbWV0YWxfYmluZGluZycsICctaW1hZScsICc8aW5maWxlLm1hZT4nLCAnLW9tYWUnLCAnPG91dGZpbGUubWFlPic=

> <r_epik_Ionization_Penalty>
1.3281

> <r_epik_Ionization_Penalty_Charging>
1.21988

> <r_epik_Ionization_Penalty_Neutral>
0.10822

> <r_epik_State_Penalty>
1.32886

> <r_epik_Charging_Adjusted_Penalty>
2.54875

> <i_epik_Tot_Q>
2

> <i_epik_Tot_abs_Q>
2

> <r_epik_Metal_State_Penalty>
5.33912

> <b_epik_Metal_Only>
0

> <s_lp_Force_Field>
OPLS_2005

> <r_lp_Energy>
45.8235

> <b_lp_Chiralities_Consistent>
1

> <s_lp_Variant>
AV-unprocessed.smi:1005-15

> <Gold.Version>
5.8.1

> <Gold.Id.Protein>
6NUR|6NUR_protein|mol2

> <Gold.PLP.Fitness>
56.6304

> <Gold.PLP.PLP>
-50.2037

> <Gold.PLP.part.hbond>
-3.5566

> <Gold.PLP.part.metal>
0.0000

> <Gold.PLP.part.buried>
-4.9791

> <Gold.PLP.part.nonpolar>
-42.4888

> <Gold.PLP.part.repulsive>
0.1759

> <Gold.PLP.ligand.clash>
0.0000

> <Gold.PLP.ligand.torsion>
1.2989

> <Gold.PLP.Chemscore.Hbond>
2.9840

> <Gold.PLP.Chemscore.CHOScore>
0.0000

> <Gold.PLP.Chemscore.Metal>
0.0000

> <Gold.Chemscore.Hbonds>
donor molecule, donor type, donor heavy atom, donor atom, acceptor molecule, acceptor atom, score
      L1  H     5    57       P1  8028  1.44
      P1  H  6896  6908       L1    12  0.31

> <Gold.PLP.Chemscore.Internal.Correction>
0.0725

> <Gold.Rescore>
     Score         DG    S(hbond)    S(metal)    S(lipo)     H(rot)  DE(clash)    DE(int)     intcor
     15.07     -17.66       0.94        0.00     131.73       2.49       0.24       2.36       ----

> <Gold.Chemscore.Fitness>
15.0670

> <Gold.Chemscore.DG>
-17.6592

> <Gold.Chemscore.ZeroCoef>
-5.4800

> <Gold.Chemscore.Hbond>
0.9404

> <Gold.Chemscore.Metal>
0.0000

> <Gold.Chemscore.Lipo>
131.7274

> <Gold.Chemscore.Internal_Hbond>
0.0000

> <Gold.Chemscore.DEClash>
0.2373

> <Gold.Chemscore.DEInternal>
2.3550

> <Gold.Chemscore.Rot>
2.4897

> <Gold.Chemscore.Internal.Correction>
   9.000000E+99

> <Gold.Chemscore.Hbonds>
donor molecule, donor type, donor heavy atom, donor atom, acceptor molecule, acceptor atom, score
      L1  H     5    57       P1  8028  0.72
      P1  H  6896  6908       L1    12  0.01

> <Gold.Chemscore.Hbond.Weighted>
-3.1408

> <Gold.Chemscore.Metal.Weighted>
-0.0000

> <Gold.Chemscore.Lipo.Weighted>
-15.4121

> <Gold.Chemscore.Internal_Hbond.Weighted>
0.0000

> <Gold.Chemscore.DEClash.Weighted>
0.2373

> <Gold.Chemscore.DEInternal.Weighted>
2.3550

> <Gold.Chemscore.Rot.Weighted>
6.3737

> <Gold.Chemscore.Internal.Correction.Weighted>
   9.000000E+99

> <Gold.Protein.RotatedTorsions>
[ 6907 6896 6895 6894 ] final -149.60 input  -60.11 | X-H torsion
[ 7974 7965 7964 7962 ] final  -45.60 input  175.53 | X-H torsion
[ 8008 7997 7996 7995 ] final  108.67 input   59.86 | X-H torsion
[ 10167 10162 10161 10158 ] final   37.64 input  -65.29 | X-H torsion
[ 10718 10713 10712 10709 ] final -165.58 input   66.30 | X-H torsion
[ 10763 10752 10751 10750 ] final   28.56 input  -60.55 | X-H torsion
[ 11005 11000 10999 10996 ] final  -79.16 input  -57.11 | X-H torsion

> <Gold.Protein.ActiveResidues>
 VAL166  LYS551  ARG553  GLY616  TRP617  ASP618  TYR619  PRO620  LYS621  CYS622 
 ASP623  PHE694  ASN695  SER759  ASP760  ASP761  ALA762  ILE779  LEU786  VAL792 
 PHE793  MET794  SER795  GLU796  ALA797  LYS798  CYS799  TRP800  GLU811  SER814 

> <Gold.Protein.RotatedAtoms>
  151.1864  133.4694  159.2594 H   0  0  0  0  0  0  0  0  0  0  0  0  # atno 6907 bound_to 6896
  151.1207  135.0078  159.8547 H   0  0  0  0  0  0  0  0  0  0  0  0  # atno 6908 bound_to 6896
  152.5456  134.1775  159.8675 H   0  0  0  0  0  0  0  0  0  0  0  0  # atno 6909 bound_to 6896
  145.9804  140.7289  142.9366 H   0  0  0  0  0  0  0  0  0  0  0  0  # atno 7974 bound_to 7965
  156.1921  140.3072  155.9353 H   0  0  0  0  0  0  0  0  0  0  0  0  # atno 8008 bound_to 7997
  155.3150  140.0453  157.3054 H   0  0  0  0  0  0  0  0  0  0  0  0  # atno 8009 bound_to 7997
  154.5465  140.2278  155.8564 H   0  0  0  0  0  0  0  0  0  0  0  0  # atno 8010 bound_to 7997
  140.4013  144.1720  150.6134 H   0  0  0  0  0  0  0  0  0  0  0  0  # atno 10167 bound_to 10162
  156.6554  130.9024  151.3020 H   0  0  0  0  0  0  0  0  0  0  0  0  # atno 10718 bound_to 10713
  153.0484  135.6510  154.0757 H   0  0  0  0  0  0  0  0  0  0  0  0  # atno 10763 bound_to 10752
  154.0450  135.2900  155.3351 H   0  0  0  0  0  0  0  0  0  0  0  0  # atno 10764 bound_to 10752
  154.6756  135.5339  153.8262 H   0  0  0  0  0  0  0  0  0  0  0  0  # atno 10765 bound_to 10752
  141.1667  133.7094  156.8081 H   0  0  0  0  0  0  0  0  0  0  0  0  # atno 11005 bound_to 11000
  144.6860  140.2899  143.7279 LP  0  0  0  0  0  0  0  0  0  0  0  0  # atno 17320 bound_to 7965
  145.7777  139.1880  143.2176 LP  0  0  0  0  0  0  0  0  0  0  0  0  # atno 17321 bound_to 7965
  140.4737  143.2404  151.9053 LP  0  0  0  0  0  0  0  0  0  0  0  0  # atno 17342 bound_to 10162
  139.4784  144.5343  151.8621 LP  0  0  0  0  0  0  0  0  0  0  0  0  # atno 17343 bound_to 10162
  157.7127  130.9460  150.1145 LP  0  0  0  0  0  0  0  0  0  0  0  0  # atno 17370 bound_to 10713
  156.2052  130.3663  149.8739 LP  0  0  0  0  0  0  0  0  0  0  0  0  # atno 17371 bound_to 10713
  140.2207  134.8759  157.3374 LP  0  0  0  0  0  0  0  0  0  0  0  0  # atno 17394 bound_to 11000
  140.1991  134.4277  155.7673 LP  0  0  0  0  0  0  0  0  0  0  0  0  # atno 17395 bound_to 11000

$$$$
