AV-unprocessed.smi:72|AV-procd|sdf|716|dock9
  -GOLD-   2262017 43D 1   1.00000     0.00000
 Structure written by MMmdl.
 28 29  0  0  0  0  0  0  0  0  2 V2000
  153.0066  140.4043  159.0629 N   0  0  0  0  0  0  0  0  0  0  0  0
  152.1978  140.2897  158.1031 C   0  0  0  0  0  0  0  0  0  0  0  0
  150.7972  140.5976  158.2928 N   0  0  0  0  0  0  0  0  0  0  0  0
  150.0052  140.4648  157.2738 C   0  0  0  0  0  0  0  0  0  0  0  0
  150.4918  140.0248  155.9720 N   0  0  0  0  0  0  0  0  0  0  0  0
  149.5705  139.8643  154.7731 C   0  0  1  0  0  0  0  0  0  0  0  0
  148.4329  139.1335  155.1366 O   0  0  0  0  0  0  0  0  0  0  0  0
  147.2922  139.9841  155.1601 C   0  0  2  0  0  0  0  0  0  0  0  0
  145.9930  139.1694  155.0342 C   0  0  0  0  0  0  0  0  0  0  0  0
  144.8787  140.0319  154.9453 O   0  0  0  0  0  0  0  0  0  0  0  0
  147.5845  141.0078  154.0564 C   0  0  2  0  0  0  0  0  0  0  0  0
  147.2593  140.4931  152.7782 O   0  0  0  0  0  0  0  0  0  0  0  0
  149.0886  141.2141  154.1820 C   0  0  1  0  0  0  0  0  0  0  0  0
  149.3470  142.3320  155.0143 O   0  0  0  0  0  0  0  0  0  0  0  0
  151.8729  139.7300  155.8162 C   0  0  0  0  0  0  0  0  0  0  0  0
  152.2662  139.3656  154.7077 O   0  0  0  0  0  0  0  0  0  0  0  0
  152.6982  139.8671  156.8917 N   0  5  0  0  0  0  0  0  0  0  0  0
  150.1265  139.2570  154.0570 H   0  0  0  0  0  0  0  0  0  0  0  0
  147.2902  140.5040  156.1196 H   0  0  0  0  0  0  0  0  0  0  0  0
  147.0197  141.9304  154.1981 H   0  0  0  0  0  0  0  0  0  0  0  0
  149.5680  141.3875  153.2174 H   0  0  0  0  0  0  0  0  0  0  0  0
  152.5538  140.7184  159.9090 H   0  0  0  0  0  0  0  0  0  0  0  0
  148.9377  140.6742  157.3337 H   0  0  0  0  0  0  0  0  0  0  0  0
  146.0155  138.5064  154.1692 H   0  0  0  0  0  0  0  0  0  0  0  0
  145.8673  138.5370  155.9133 H   0  0  0  0  0  0  0  0  0  0  0  0
  144.6715  140.1611  154.0323 H   0  0  0  0  0  0  0  0  0  0  0  0
  148.0631  140.2705  152.3338 H   0  0  0  0  0  0  0  0  0  0  0  0
  148.7780  143.0391  154.7519 H   0  0  0  0  0  0  0  0  0  0  0  0
  1  2  2  0  0  0  0
  1 22  1  0  0  0  0
  2 17  1  0  0  0  0
  2  3  1  0  0  0  0
  3  4  2  0  0  0  0
  4  5  1  0  0  0  0
  4 23  1  0  0  0  0
  5  6  1  0  0  0  0
  5 15  1  0  0  0  0
  6 18  1  0  0  0  0
  6 13  1  0  0  0  0
  6  7  1  0  0  0  0
  7  8  1  0  0  0  0
  8 19  1  0  0  0  0
  8  9  1  0  0  0  0
  8 11  1  0  0  0  0
  9 10  1  0  0  0  0
  9 24  1  0  0  0  0
  9 25  1  0  0  0  0
 10 26  1  0  0  0  0
 11 20  1  0  0  0  0
 11 12  1  0  0  0  0
 11 13  1  0  0  0  0
 12 27  1  0  0  0  0
 13 21  1  0  0  0  0
 13 14  1  0  0  0  0
 14 28  1  0  0  0  0
 15 16  2  0  0  0  0
 15 17  1  0  0  0  0
M  CHG  1  17  -1
M  END
> <s_m_source_file>
AV-unprocessed.smi

> <i_m_source_file_index>
72

> <i_lp_mmshare_version>
43012

> <i_f3d_flags>
0

> <s_epik_input>
W05IMl1jMW5bY0hdbihjKD1PKW4xKVtDQEBIXTJPW0NASF0oW0NIMl1bT0hdKVtDQEBIXShbT0hdKVtDQEhdMltPSF0=

> <s_epik_cmdline>
J2VwaWtfcHl0aG9uJywgJy1waCcsICc3LjAnLCAnLXRuJywgJzgnLCAnLW1hJywgJzIwMCcsICctbWV0YWxfYmluZGluZycsICctaW1hZScsICc8aW5maWxlLm1hZT4nLCAnLW9tYWUnLCAnPG91dGZpbGUubWFlPic=

> <r_lp_tautomer_probability>
7.17554e-07

> <r_epik_Ionization_Penalty>
12.8705

> <r_epik_Ionization_Penalty_Charging>
5.64144

> <r_epik_Ionization_Penalty_Neutral>
7.22905

> <r_epik_State_Penalty>
3.30104

> <r_epik_Charging_Adjusted_Penalty>
8.94249

> <i_epik_Tot_Q>
-1

> <i_epik_Tot_abs_Q>
1

> <r_epik_Metal_State_Penalty>
0.529074

> <b_epik_Metal_Only>
1

> <s_epik_Chemistry_Notes>
This compound contains an acetal/aminal-like group ( X-CH(R)-Y where X, Y are N, S, or O) that may be acid/base labile, releasing an aldehyde.

> <s_lp_Force_Field>
OPLS_2005

> <r_lp_Energy>
37.2706

> <b_lp_Chiralities_Consistent>
1

> <s_lp_Variant>
AV-unprocessed.smi:72-54

> <Gold.Version>
5.8.1

> <Gold.Id.Protein>
6NUR|6NUR_protein|mol2

> <Gold.PLP.Fitness>
38.2061

> <Gold.PLP.PLP>
-23.0460

> <Gold.PLP.part.hbond>
-5.4665

> <Gold.PLP.part.metal>
0.0000

> <Gold.PLP.part.buried>
-2.2074

> <Gold.PLP.part.nonpolar>
-14.8214

> <Gold.PLP.part.repulsive>
0.1203

> <Gold.PLP.ligand.clash>
0.0000

> <Gold.PLP.ligand.torsion>
0.2614

> <Gold.PLP.Chemscore.Hbond>
5.2160

> <Gold.PLP.Chemscore.CHOScore>
0.0000

> <Gold.PLP.Chemscore.Metal>
0.0000

> <Gold.Chemscore.Hbonds>
donor molecule, donor type, donor heavy atom, donor atom, acceptor molecule, acceptor atom, score
      L1  H    10    26       P1 10175  1.00
      L1  H    12    27       P1  7957  1.00
      L1  H    14    28       P1  8028  0.42
      P1  H  7989  7998       L1    16  0.78
      P1  H  7997  8010       L1    17  2.00

> <Gold.PLP.Chemscore.Internal.Correction>
0.0348

> <Gold.Rescore>
     Score         DG    S(hbond)    S(metal)    S(lipo)     H(rot)  DE(clash)    DE(int)     intcor
     10.46     -11.06       4.11        0.00      18.88       4.04       0.03       0.57       ----

> <Gold.Chemscore.Fitness>
10.4582

> <Gold.Chemscore.DG>
-11.0569

> <Gold.Chemscore.ZeroCoef>
-5.4800

> <Gold.Chemscore.Hbond>
4.1052

> <Gold.Chemscore.Metal>
0.0000

> <Gold.Chemscore.Lipo>
18.8763

> <Gold.Chemscore.Internal_Hbond>
0.0000

> <Gold.Chemscore.DEClash>
0.0310

> <Gold.Chemscore.DEInternal>
0.5678

> <Gold.Chemscore.Rot>
4.0403

> <Gold.Chemscore.Internal.Correction>
   9.000000E+99

> <Gold.Chemscore.Hbonds>
donor molecule, donor type, donor heavy atom, donor atom, acceptor molecule, acceptor atom, score
      L1  H    10    26       P1 10175  1.00
      L1  H    12    27       P1  7957  0.99
      L1  H    14    28       P1  8028  0.42
      P1  H  7989  7998       L1    16  0.33
      P1  H  7997  8010       L1    17  0.81

> <Gold.Chemscore.Hbond.Weighted>
-13.7115

> <Gold.Chemscore.Metal.Weighted>
-0.0000

> <Gold.Chemscore.Lipo.Weighted>
-2.2085

> <Gold.Chemscore.Internal_Hbond.Weighted>
0.0000

> <Gold.Chemscore.DEClash.Weighted>
0.0310

> <Gold.Chemscore.DEInternal.Weighted>
0.5678

> <Gold.Chemscore.Rot.Weighted>
10.3431

> <Gold.Chemscore.Internal.Correction.Weighted>
   9.000000E+99

> <Gold.Protein.RotatedTorsions>
[ 6907 6896 6895 6894 ] final   42.48 input  -60.11 | X-H torsion
[ 7974 7965 7964 7962 ] final  161.86 input  175.53 | X-H torsion
[ 8008 7997 7996 7995 ] final   73.68 input   59.86 | X-H torsion
[ 10167 10162 10161 10158 ] final  -58.43 input  -65.29 | X-H torsion
[ 10718 10713 10712 10709 ] final   -6.10 input   66.30 | X-H torsion
[ 10763 10752 10751 10750 ] final  -79.94 input  -60.55 | X-H torsion
[ 11005 11000 10999 10996 ] final -129.10 input  -57.11 | X-H torsion

> <Gold.Protein.ActiveResidues>
 VAL166  LYS551  ARG553  GLY616  TRP617  ASP618  TYR619  PRO620  LYS621  CYS622 
 ASP623  PHE694  ASN695  SER759  ASP760  ASP761  ALA762  ILE779  LEU786  VAL792 
 PHE793  MET794  SER795  GLU796  ALA797  LYS798  CYS799  TRP800  GLU811  SER814 

> <Gold.Protein.RotatedAtoms>
  152.2084  134.8524  160.0499 H   0  0  0  0  0  0  0  0  0  0  0  0  # atno 6907 bound_to 6896
  151.9352  133.3617  159.3953 H   0  0  0  0  0  0  0  0  0  0  0  0  # atno 6908 bound_to 6896
  150.6970  134.4421  159.5341 H   0  0  0  0  0  0  0  0  0  0  0  0  # atno 6909 bound_to 6896
  144.7665  139.7957  143.6313 H   0  0  0  0  0  0  0  0  0  0  0  0  # atno 7974 bound_to 7965
  155.7872  140.3480  155.5329 H   0  0  0  0  0  0  0  0  0  0  0  0  # atno 8008 bound_to 7997
  155.8670  140.0980  157.1596 H   0  0  0  0  0  0  0  0  0  0  0  0  # atno 8009 bound_to 7997
  154.4015  140.1348  156.4018 H   0  0  0  0  0  0  0  0  0  0  0  0  # atno 8010 bound_to 7997
  140.6198  143.2415  151.5509 H   0  0  0  0  0  0  0  0  0  0  0  0  # atno 10167 bound_to 10162
  156.7368  130.5197  149.5833 H   0  0  0  0  0  0  0  0  0  0  0  0  # atno 10718 bound_to 10713
  154.5450  135.5678  153.6872 H   0  0  0  0  0  0  0  0  0  0  0  0  # atno 10763 bound_to 10752
  152.9974  135.6237  154.2451 H   0  0  0  0  0  0  0  0  0  0  0  0  # atno 10764 bound_to 10752
  154.2383  135.2863  155.2843 H   0  0  0  0  0  0  0  0  0  0  0  0  # atno 10765 bound_to 10752
  140.9461  134.1129  157.4106 H   0  0  0  0  0  0  0  0  0  0  0  0  # atno 11005 bound_to 11000
  146.1776  139.4954  142.9887 LP  0  0  0  0  0  0  0  0  0  0  0  0  # atno 17320 bound_to 7965
  145.6455  141.0275  143.1789 LP  0  0  0  0  0  0  0  0  0  0  0  0  # atno 17321 bound_to 7965
  139.5429  144.2600  152.1385 LP  0  0  0  0  0  0  0  0  0  0  0  0  # atno 17342 bound_to 10162
  140.1817  144.4838  150.6525 LP  0  0  0  0  0  0  0  0  0  0  0  0  # atno 17343 bound_to 10162
  156.1492  130.6298  151.0572 LP  0  0  0  0  0  0  0  0  0  0  0  0  # atno 17370 bound_to 10713
  157.6835  131.0831  150.7305 LP  0  0  0  0  0  0  0  0  0  0  0  0  # atno 17371 bound_to 10713
  139.8834  135.0051  156.6295 LP  0  0  0  0  0  0  0  0  0  0  0  0  # atno 17394 bound_to 11000
  140.7668  133.8772  155.8460 LP  0  0  0  0  0  0  0  0  0  0  0  0  # atno 17395 bound_to 11000

$$$$
