AV-unprocessed.smi:2973|AV-procd|sdf|11339|dock8
  -GOLD-   2272016253D 1   1.00000     0.00000
 Structure written by MMmdl.
 49 51  0  0  0  0  0  0  0  0  1 V2000
  151.2489  144.2621  157.0826 C   0  0  0  0  0  0  0  0  0  0  0  0
  151.6104  143.4453  158.3423 C   0  0  2  0  0  0  0  0  0  0  0  0
  153.0947  143.6619  158.7092 C   0  0  0  0  0  0  0  0  0  0  0  0
  153.4832  142.9230  159.9996 C   0  0  0  0  0  0  0  0  0  0  0  0
  153.1711  141.4233  159.9013 C   0  0  0  0  0  0  0  0  0  0  0  0
  151.6922  141.1923  159.5518 C   0  0  0  0  0  0  0  0  0  0  0  0
  151.2850  141.9218  158.2492 C   0  0  2  0  0  0  0  0  0  0  0  0
  151.9015  141.2979  157.0901 N   0  0  0  0  0  0  0  0  0  0  0  0
  151.0089  140.7605  156.2495 C   0  0  0  0  0  0  0  0  0  0  0  0
  151.2830  140.1883  155.1961 O   0  0  0  0  0  0  0  0  0  0  0  0
  149.7772  140.9701  156.7492 N   0  0  0  0  0  0  0  0  0  0  0  0
  148.5328  140.5551  156.0836 C   0  0  0  0  0  0  0  0  0  0  0  0
  148.0116  139.1645  156.4874 C   0  0  0  0  0  0  0  0  0  0  0  0
  147.7444  138.3490  155.6057 O   0  0  0  0  0  0  0  0  0  0  0  0
  147.8598  138.8946  157.7952 N   0  0  0  0  0  0  0  0  0  0  0  0
  147.3567  137.6431  158.3462 C   0  0  0  0  0  0  0  0  0  0  0  0
  148.4660  136.8664  159.0738 C   0  0  0  0  0  0  0  0  0  0  0  0
  147.9824  136.2617  160.3780 C   0  0  0  0  0  0  0  0  0  0  0  0
  147.9261  134.8615  160.5447 C   0  0  0  0  0  0  0  0  0  0  0  0
  147.4765  134.3502  161.7773 C   0  0  0  0  0  0  0  0  0  0  0  0
  147.1035  135.2538  162.7910 C   0  0  0  0  0  0  0  0  0  0  0  0
  147.1973  136.6346  162.5254 C   0  0  0  0  0  0  0  0  0  0  0  0
  147.6278  137.1355  161.3472 N   0  0  0  0  0  0  0  0  0  0  0  0
  149.8267  141.6397  157.9093 C   0  0  0  0  0  0  0  0  0  0  0  0
  148.8743  141.9975  158.6027 O   0  0  0  0  0  0  0  0  0  0  0  0
  151.7910  143.9124  156.2035 H   0  0  0  0  0  0  0  0  0  0  0  0
  151.4953  145.3152  157.2199 H   0  0  0  0  0  0  0  0  0  0  0  0
  150.1833  144.2140  156.8597 H   0  0  0  0  0  0  0  0  0  0  0  0
  151.0182  143.8564  159.1618 H   0  0  0  0  0  0  0  0  0  0  0  0
  153.7325  143.3248  157.8912 H   0  0  0  0  0  0  0  0  0  0  0  0
  153.2950  144.7268  158.8326 H   0  0  0  0  0  0  0  0  0  0  0  0
  154.5441  143.0682  160.2055 H   0  0  0  0  0  0  0  0  0  0  0  0
  152.9429  143.3537  160.8436 H   0  0  0  0  0  0  0  0  0  0  0  0
  153.8084  140.9633  159.1451 H   0  0  0  0  0  0  0  0  0  0  0  0
  153.4100  140.9319  160.8448 H   0  0  0  0  0  0  0  0  0  0  0  0
  151.4999  140.1213  159.4699 H   0  0  0  0  0  0  0  0  0  0  0  0
  151.0759  141.5471  160.3796 H   0  0  0  0  0  0  0  0  0  0  0  0
  152.9005  141.2841  156.9444 H   0  0  0  0  0  0  0  0  0  0  0  0
  147.7481  141.2862  156.2856 H   0  0  0  0  0  0  0  0  0  0  0  0
  148.6685  140.5668  155.0009 H   0  0  0  0  0  0  0  0  0  0  0  0
  148.1038  139.6165  158.4573 H   0  0  0  0  0  0  0  0  0  0  0  0
  146.5192  137.8366  159.0185 H   0  0  0  0  0  0  0  0  0  0  0  0
  146.9629  137.0476  157.5219 H   0  0  0  0  0  0  0  0  0  0  0  0
  148.8452  136.0687  158.4332 H   0  0  0  0  0  0  0  0  0  0  0  0
  149.3131  137.5222  159.2788 H   0  0  0  0  0  0  0  0  0  0  0  0
  148.2217  134.1939  159.7486 H   0  0  0  0  0  0  0  0  0  0  0  0
  147.4200  133.2844  161.9427 H   0  0  0  0  0  0  0  0  0  0  0  0
  146.7546  134.8974  163.7488 H   0  0  0  0  0  0  0  0  0  0  0  0
  146.9199  137.3559  163.2795 H   0  0  0  0  0  0  0  0  0  0  0  0
  1  2  1  0  0  0  0
  1 26  1  0  0  0  0
  1 27  1  0  0  0  0
  1 28  1  0  0  0  0
  2  7  1  0  0  0  0
  2  3  1  0  0  0  0
  2 29  1  0  0  0  0
  3  4  1  0  0  0  0
  3 30  1  0  0  0  0
  3 31  1  0  0  0  0
  4  5  1  0  0  0  0
  4 32  1  0  0  0  0
  4 33  1  0  0  0  0
  5  6  1  0  0  0  0
  5 34  1  0  0  0  0
  5 35  1  0  0  0  0
  6  7  1  0  0  0  0
  6 36  1  0  0  0  0
  6 37  1  0  0  0  0
  7 24  1  0  0  0  0
  7  8  1  0  0  0  0
  8  9  1  0  0  0  0
  8 38  1  0  0  0  0
  9 10  2  0  0  0  0
  9 11  1  0  0  0  0
 11 12  1  0  0  0  0
 11 24  1  0  0  0  0
 12 13  1  0  0  0  0
 12 39  1  0  0  0  0
 12 40  1  0  0  0  0
 13 14  2  0  0  0  0
 13 15  1  0  0  0  0
 15 16  1  0  0  0  0
 15 41  1  0  0  0  0
 16 17  1  0  0  0  0
 16 42  1  0  0  0  0
 16 43  1  0  0  0  0
 17 18  1  0  0  0  0
 17 44  1  0  0  0  0
 17 45  1  0  0  0  0
 18 23  1  0  0  0  0
 18 19  2  0  0  0  0
 19 20  1  0  0  0  0
 19 46  1  0  0  0  0
 20 21  2  0  0  0  0
 20 47  1  0  0  0  0
 21 22  1  0  0  0  0
 21 48  1  0  0  0  0
 22 23  2  0  0  0  0
 22 49  1  0  0  0  0
 24 25  2  0  0  0  0
M  END
> <s_m_source_file>
AV-unprocessed.smi

> <i_m_source_file_index>
2973

> <i_lp_mmshare_version>
43012

> <i_f3d_flags>
0

> <s_epik_input>
W0NIMl0xW0NIMl1bQ0gyXVtDSDJdW0NAQEhdKFtDSDNdKVtDQF0xMltOSF1DKD1PKU4oQzI9TylbQ0gyXUMoPU8pW05IXVtDSDJdW0NIMl1jM1tjSF1bY0hdW2NIXVtjSF1uMw==

> <s_epik_cmdline>
J2VwaWtfcHl0aG9uJywgJy1waCcsICc3LjAnLCAnLXRuJywgJzgnLCAnLW1hJywgJzIwMCcsICctbWV0YWxfYmluZGluZycsICctaW1hZScsICc8aW5maWxlLm1hZT4nLCAnLW9tYWUnLCAnPG91dGZpbGUubWFlPic=

> <r_lp_tautomer_probability>
1

> <r_epik_Ionization_Penalty>
0.0245152

> <r_epik_Ionization_Penalty_Charging>
0

> <r_epik_Ionization_Penalty_Neutral>
0.0245152

> <r_epik_State_Penalty>
0.0198648

> <r_epik_Charging_Adjusted_Penalty>
0.0198648

> <i_epik_Tot_Q>
0

> <i_epik_Tot_abs_Q>
0

> <r_epik_Metal_State_Penalty>
0.0400162

> <b_epik_Metal_Only>
0

> <s_lp_Force_Field>
OPLS_2005

> <r_lp_Energy>
21.7018

> <b_lp_Chiralities_Consistent>
1

> <s_lp_Variant>
AV-unprocessed.smi:2973-3

> <Gold.Version>
5.8.1

> <Gold.Id.Protein>
6NUR|6NUR_protein|mol2

> <Gold.PLP.Fitness>
50.9324

> <Gold.PLP.PLP>
-43.9340

> <Gold.PLP.part.hbond>
-3.5661

> <Gold.PLP.part.metal>
0.0000

> <Gold.PLP.part.buried>
-1.5722

> <Gold.PLP.part.nonpolar>
-39.4130

> <Gold.PLP.part.repulsive>
0.3773

> <Gold.PLP.ligand.clash>
0.0000

> <Gold.PLP.ligand.torsion>
0.8031

> <Gold.PLP.Chemscore.Hbond>
2.8560

> <Gold.PLP.Chemscore.CHOScore>
0.0000

> <Gold.PLP.Chemscore.Metal>
0.0000

> <Gold.Chemscore.Hbonds>
donor molecule, donor type, donor heavy atom, donor atom, acceptor molecule, acceptor atom, score
      P1  H  6931  6943       L1    23  0.99
      P1  H  6934  6947       L1    23  0.86
      P1  H  7989  7998       L1    10  1.00

> <Gold.PLP.Chemscore.Internal.Correction>
0.0365

> <Gold.Rescore>
     Score         DG    S(hbond)    S(metal)    S(lipo)     H(rot)  DE(clash)    DE(int)     intcor
     19.06     -21.34       2.07        0.00     117.00       1.86       1.50       0.79       ----

> <Gold.Chemscore.Fitness>
19.0590

> <Gold.Chemscore.DG>
-21.3443

> <Gold.Chemscore.ZeroCoef>
-5.4800

> <Gold.Chemscore.Hbond>
2.0734

> <Gold.Chemscore.Metal>
0.0000

> <Gold.Chemscore.Lipo>
116.9983

> <Gold.Chemscore.Internal_Hbond>
0.0000

> <Gold.Chemscore.DEClash>
1.4962

> <Gold.Chemscore.DEInternal>
0.7891

> <Gold.Chemscore.Rot>
1.8553

> <Gold.Chemscore.Internal.Correction>
   9.000000E+99

> <Gold.Chemscore.Hbonds>
donor molecule, donor type, donor heavy atom, donor atom, acceptor molecule, acceptor atom, score
      P1  H  6931  6943       L1    23  0.25
      P1  H  6934  6947       L1    23  0.78
      P1  H  7989  7998       L1    10  0.98

> <Gold.Chemscore.Hbond.Weighted>
-6.9252

> <Gold.Chemscore.Metal.Weighted>
-0.0000

> <Gold.Chemscore.Lipo.Weighted>
-13.6888

> <Gold.Chemscore.Internal_Hbond.Weighted>
0.0000

> <Gold.Chemscore.DEClash.Weighted>
1.4962

> <Gold.Chemscore.DEInternal.Weighted>
0.7891

> <Gold.Chemscore.Rot.Weighted>
4.7497

> <Gold.Chemscore.Internal.Correction.Weighted>
   9.000000E+99

> <Gold.Protein.RotatedTorsions>
[ 6907 6896 6895 6894 ] final  126.09 input  -60.11 | X-H torsion
[ 7974 7965 7964 7962 ] final  168.19 input  175.53 | X-H torsion
[ 8008 7997 7996 7995 ] final -127.53 input   59.86 | X-H torsion
[ 10167 10162 10161 10158 ] final -115.27 input  -65.29 | X-H torsion
[ 10718 10713 10712 10709 ] final  164.35 input   66.30 | X-H torsion
[ 10763 10752 10751 10750 ] final   -3.30 input  -60.55 | X-H torsion
[ 11005 11000 10999 10996 ] final   93.67 input  -57.11 | X-H torsion

> <Gold.Protein.ActiveResidues>
 VAL166  LYS551  ARG553  GLY616  TRP617  ASP618  TYR619  PRO620  LYS621  CYS622 
 ASP623  PHE694  ASN695  SER759  ASP760  ASP761  ALA762  ILE779  LEU786  VAL792 
 PHE793  MET794  SER795  GLU796  ALA797  LYS798  CYS799  TRP800  GLU811  SER814 

> <Gold.Protein.RotatedAtoms>
  152.3935  133.6712  159.6256 H   0  0  0  0  0  0  0  0  0  0  0  0  # atno 6907 bound_to 6896
  150.7838  133.8914  159.3323 H   0  0  0  0  0  0  0  0  0  0  0  0  # atno 6908 bound_to 6896
  151.6696  135.0979  160.0247 H   0  0  0  0  0  0  0  0  0  0  0  0  # atno 6909 bound_to 6896
  144.7397  139.8871  143.6400 H   0  0  0  0  0  0  0  0  0  0  0  0  # atno 7974 bound_to 7965
  155.2476  140.0431  157.2983 H   0  0  0  0  0  0  0  0  0  0  0  0  # atno 8008 bound_to 7997
  154.5789  140.2395  155.8052 H   0  0  0  0  0  0  0  0  0  0  0  0  # atno 8009 bound_to 7997
  156.2178  140.2979  155.9889 H   0  0  0  0  0  0  0  0  0  0  0  0  # atno 8010 bound_to 7997
  140.0919  143.4692  152.1865 H   0  0  0  0  0  0  0  0  0  0  0  0  # atno 10167 bound_to 10162
  157.0956  131.0429  151.2519 H   0  0  0  0  0  0  0  0  0  0  0  0  # atno 10718 bound_to 10713
  153.3696  135.6994  153.6648 H   0  0  0  0  0  0  0  0  0  0  0  0  # atno 10763 bound_to 10752
  153.5304  135.3593  155.2673 H   0  0  0  0  0  0  0  0  0  0  0  0  # atno 10764 bound_to 10752
  154.8679  135.4179  154.2971 H   0  0  0  0  0  0  0  0  0  0  0  0  # atno 10765 bound_to 10752
  139.8807  134.8803  156.3752 H   0  0  0  0  0  0  0  0  0  0  0  0  # atno 11005 bound_to 11000
  146.1169  139.4181  143.0252 LP  0  0  0  0  0  0  0  0  0  0  0  0  # atno 17320 bound_to 7965
  145.7361  141.0025  143.1326 LP  0  0  0  0  0  0  0  0  0  0  0  0  # atno 17321 bound_to 7965
  139.5720  144.7467  151.3866 LP  0  0  0  0  0  0  0  0  0  0  0  0  # atno 17342 bound_to 10162
  140.7024  143.7599  150.7425 LP  0  0  0  0  0  0  0  0  0  0  0  0  # atno 17343 bound_to 10162
  157.4684  130.7694  149.7300 LP  0  0  0  0  0  0  0  0  0  0  0  0  # atno 17370 bound_to 10713
  155.9886  130.3957  150.3108 LP  0  0  0  0  0  0  0  0  0  0  0  0  # atno 17371 bound_to 10713
  140.9437  133.7497  156.0180 LP  0  0  0  0  0  0  0  0  0  0  0  0  # atno 17394 bound_to 11000
  140.8189  134.3312  157.5388 LP  0  0  0  0  0  0  0  0  0  0  0  0  # atno 17395 bound_to 11000

$$$$
