#       Name:                AV-unprocessed.smi:1910
#       Creating user name   scv26
#       Creation time:       Fri Mar 27 09:47:43 2020


#       File generated by GOLD software.
#

@<TRIPOS>MOLECULE
AV-unprocessed.smi:1910
    48    49     1
SMALL
NO_CHARGES


@<TRIPOS>ATOM
      1 ****        -4.4560  -3.2870   0.8168 C.3            1 S1                 0.0000
      2 ****        -3.5433  -2.1948   0.8305 O.3            1 S1                 0.0000
      3 ****        -4.0311  -0.9239   0.5916 C.ar           1 S1                 0.0000
      4 ****        -5.3616  -0.7760   0.3703 N.ar           1 S1                 0.0000
      5 ****        -5.8399   0.4620   0.1313 C.ar           1 S1                 0.0000
      6 ****        -5.0247   1.6077   0.0933 C.ar           1 S1                 0.0000
      7 ****        -3.6444   1.4574   0.3223 C.ar           1 S1                 0.0000
      8 ****        -3.1278   0.1653   0.5890 C.ar           1 S1                 0.0000
      9 ****        -1.7509  -0.1111   0.8230 N.am           1 S1                 0.0000
     10 ****        -0.7571   0.7335   1.1481 C.2            1 S1                 0.0000
     11 ****        -0.8724   1.9482   1.3078 O.2            1 S1                 0.0000
     12 ****         0.4036   0.0787   1.2926 N.am           1 S1                 0.0000
     13 ****         1.6791   0.6959   1.6426 C.3            1 S1                 0.0000
     14 ****         2.3344   1.3996   0.4366 C.3            1 S1                 0.0000
     15 ****         3.3801   0.6297  -0.2344 N.3            1 S1                 0.0000
     16 ****         2.8551  -0.5602  -0.8998 C.3            1 S1                 0.0000
     17 ****         3.9612  -1.3471  -1.6243 C.3            1 S1                 0.0000
     18 ****         4.6230  -0.4962  -2.5543 O.3            1 S1                 0.0000
     19 ****         5.1888   0.6559  -1.9378 C.3            1 S1                 0.0000
     20 ****         4.0854   1.4478  -1.2151 C.3            1 S1                 0.0000
     21 ****        -3.9145  -4.2113   1.0168 H              1 S1                 0.0000
     22 ****        -4.9389  -3.3912  -0.1560 H              1 S1                 0.0000
     23 ****        -5.2210  -3.1788   1.5871 H              1 S1                 0.0000
     24 ****        -6.9031   0.5407  -0.0409 H              1 S1                 0.0000
     25 ****        -5.4481   2.5801  -0.1111 H              1 S1                 0.0000
     26 ****        -3.0170   2.3329   0.2750 H              1 S1                 0.0000
     27 ****        -1.5025  -1.0891   0.7887 H              1 S1                 0.0000
     28 ****         0.4077  -0.9205   1.1488 H              1 S1                 0.0000
     29 ****         1.5086   1.4223   2.4388 H              1 S1                 0.0000
     30 ****         2.3438  -0.0578   2.0659 H              1 S1                 0.0000
     31 ****         1.5807   1.7250  -0.2823 H              1 S1                 0.0000
     32 ****         2.7853   2.3178   0.8155 H              1 S1                 0.0000
     33 ****         2.3747  -1.2167  -0.1744 H              1 S1                 0.0000
     34 ****         2.0860  -0.2733  -1.6185 H              1 S1                 0.0000
     35 ****         4.6824  -1.7460  -0.9093 H              1 S1                 0.0000
     36 ****         3.5354  -2.1968  -2.1580 H              1 S1                 0.0000
     37 ****         5.9709   0.3561  -1.2385 H              1 S1                 0.0000
     38 ****         5.6614   1.2734  -2.7016 H              1 S1                 0.0000
     39 ****         3.3790   1.8331  -1.9519 H              1 S1                 0.0000
     40 ****         4.5280   2.3151  -0.7241 H              1 S1                 0.0000
     41 ****        -2.8503  -2.3806   0.1339 LP             1 S1                 0.0000
     42 ****        -3.1133  -2.1810   1.7332 LP             1 S1                 0.0000
     43 ****        -5.9734  -1.5669   0.3841 LP             1 S1                 0.0000
     44 ****        -1.7651   2.3848   1.1955 LP             1 S1                 0.0000
     45 ****        -0.0735   2.4987   1.5498 LP             1 S1                 0.0000
     46 ****         4.0136   0.3372   0.4819 LP             1 S1                 0.0000
     47 ****         3.9615  -0.1986  -3.2426 LP             1 S1                 0.0000
     48 ****         5.3548  -1.0141  -2.9973 LP             1 S1                 0.0000
@<TRIPOS>BOND
    1    1    2 1     
    2    1   21 1     
    3    1   22 1     
    4    1   23 1     
    5    2    3 1     
    6    3    8 ar    
    7    3    4 ar    
    8    4    5 ar    
    9    5    6 ar    
   10    5   24 1     
   11    6    7 ar    
   12    6   25 1     
   13    7    8 ar    
   14    7   26 1     
   15    8    9 1     
   16    9   10 am    
   17    9   27 1     
   18   10   11 2     
   19   10   12 am    
   20   12   13 1     
   21   12   28 1     
   22   13   14 1     
   23   13   29 1     
   24   13   30 1     
   25   14   15 1     
   26   14   31 1     
   27   14   32 1     
   28   15   20 1     
   29   15   16 1     
   30   16   17 1     
   31   16   33 1     
   32   16   34 1     
   33   17   18 1     
   34   17   35 1     
   35   17   36 1     
   36   18   19 1     
   37   19   20 1     
   38   19   37 1     
   39   19   38 1     
   40   20   39 1     
   41   20   40 1     
   42    2   41 1     
   43    2   42 1     
   44    4   43 1     
   45   11   44 1     
   46   11   45 1     
   47   15   46 1     
   48   18   47 1     
   49   18   48 1     
@<TRIPOS>SUBSTRUCTURE
      1 S1             1
@<TRIPOS>SET
LONE_PAIRS      STATIC     ATOMS    <user>   **** ""
8 41 42 43 44 45 46 47 48
DONOR_HYDROGENS      STATIC     ATOMS    <user>   **** ""
2 27 28
ATOM$BLUE        STATIC     ATOMS    COLORGROUP SYSTEM
8 41 42 43 44 45 46 47 48
ATOM$RED        STATIC     ATOMS    COLORGROUP SYSTEM
2 27 28
