AV-unprocessed.smi:3117|AV-procd|sdf|11879|dock10
  -GOLD-   2272017263D 1   1.00000     0.00000
 Structure written by MMmdl.
 37 37  0  0  0  0  0  0  0  0  2 V2000
  150.2853  141.2083  158.1526 C   0  0  0  0  0  0  0  0  0  0  0  0
  151.0284  142.0090  157.0678 C   0  0  1  0  0  0  0  0  0  0  0  0
  150.1868  142.0568  155.8511 N   0  3  0  0  0  0  0  0  0  0  0  0
  149.4453  140.8108  155.5571 C   0  0  0  0  0  0  0  0  0  0  0  0
  148.6179  140.9131  154.2583 C   0  0  0  0  0  0  0  0  0  0  0  0
  148.0016  139.5476  153.9109 C   0  0  0  0  0  0  0  0  0  0  0  0
  147.5186  141.9879  154.3447 C   0  0  0  0  0  0  0  0  0  0  0  0
  149.4943  141.2483  153.1996 O   0  0  0  0  0  0  0  0  0  0  0  0
  151.4073  143.4434  157.5265 C   0  0  2  0  0  0  0  0  0  0  0  0
  152.2956  144.1862  156.5096 C   0  0  0  0  0  0  0  0  0  0  0  0
  152.0445  143.4450  158.8377 N   0  0  0  0  0  0  0  0  0  0  0  0
  151.7078  144.1860  159.9522 C   0  0  0  0  0  0  0  0  0  0  0  0
  152.5848  143.8532  160.9447 C   0  0  0  0  0  0  0  0  0  0  0  0
  153.4363  142.8904  160.3350 C   0  0  0  0  0  0  0  0  0  0  0  0
  153.1110  142.6481  159.0757 N   0  0  0  0  0  0  0  0  0  0  0  0
  150.9021  141.0543  159.0383 H   0  0  0  0  0  0  0  0  0  0  0  0
  150.0050  140.2205  157.7855 H   0  0  0  0  0  0  0  0  0  0  0  0
  149.3732  141.7170  158.4665 H   0  0  0  0  0  0  0  0  0  0  0  0
  151.9461  141.4625  156.8421 H   0  0  0  0  0  0  0  0  0  0  0  0
  149.5136  142.8017  155.9579 H   0  0  0  0  0  0  0  0  0  0  0  0
  150.1529  139.9838  155.4821 H   0  0  0  0  0  0  0  0  0  0  0  0
  148.7889  140.5873  156.3995 H   0  0  0  0  0  0  0  0  0  0  0  0
  147.3075  139.2199  154.6856 H   0  0  0  0  0  0  0  0  0  0  0  0
  148.7674  138.7775  153.8095 H   0  0  0  0  0  0  0  0  0  0  0  0
  147.4487  139.5862  152.9714 H   0  0  0  0  0  0  0  0  0  0  0  0
  146.8247  141.7752  155.1586 H   0  0  0  0  0  0  0  0  0  0  0  0
  146.9369  142.0340  153.4231 H   0  0  0  0  0  0  0  0  0  0  0  0
  147.9327  142.9819  154.5158 H   0  0  0  0  0  0  0  0  0  0  0  0
  149.4538  140.5658  152.5464 H   0  0  0  0  0  0  0  0  0  0  0  0
  150.4836  144.0154  157.6303 H   0  0  0  0  0  0  0  0  0  0  0  0
  151.7818  144.3329  155.5594 H   0  0  0  0  0  0  0  0  0  0  0  0
  153.2171  143.6393  156.3080 H   0  0  0  0  0  0  0  0  0  0  0  0
  152.5714  145.1738  156.8806 H   0  0  0  0  0  0  0  0  0  0  0  0
  150.8805  144.8803  159.9481 H   0  0  0  0  0  0  0  0  0  0  0  0
  152.6148  144.2396  161.9528 H   0  0  0  0  0  0  0  0  0  0  0  0
  154.2748  142.3637  160.7664 H   0  0  0  0  0  0  0  0  0  0  0  0
  150.7773  142.2715  155.0600 H   0  0  0  0  0  0  0  0  0  0  0  0
  1  2  1  0  0  0  0
  1 16  1  0  0  0  0
  1 17  1  0  0  0  0
  1 18  1  0  0  0  0
  2  3  1  0  0  0  0
  2  9  1  0  0  0  0
  2 19  1  0  0  0  0
  3  4  1  0  0  0  0
  3 20  1  0  0  0  0
  3 37  1  0  0  0  0
  4  5  1  0  0  0  0
  4 21  1  0  0  0  0
  4 22  1  0  0  0  0
  5  6  1  0  0  0  0
  5  7  1  0  0  0  0
  5  8  1  0  0  0  0
  6 23  1  0  0  0  0
  6 24  1  0  0  0  0
  6 25  1  0  0  0  0
  7 26  1  0  0  0  0
  7 27  1  0  0  0  0
  7 28  1  0  0  0  0
  8 29  1  0  0  0  0
  9 10  1  0  0  0  0
  9 11  1  0  0  0  0
  9 30  1  0  0  0  0
 10 31  1  0  0  0  0
 10 32  1  0  0  0  0
 10 33  1  0  0  0  0
 11 15  1  0  0  0  0
 11 12  1  0  0  0  0
 12 13  2  0  0  0  0
 12 34  1  0  0  0  0
 13 14  1  0  0  0  0
 13 35  1  0  0  0  0
 14 15  2  0  0  0  0
 14 36  1  0  0  0  0
M  CHG  1   3   1
M  END
> <s_m_source_file>
AV-unprocessed.smi

> <i_m_source_file_index>
3117

> <i_lp_mmshare_version>
43012

> <i_f3d_flags>
0

> <s_epik_input>
W0NIM11DKFtDSDNdKShbT0hdKVtDSDJdW05IXVtDQEBIXShbQ0gzXSlbQ0BIXShbQ0gzXSluMVtjSF1bY0hdW2NIXW4x

> <s_epik_cmdline>
J2VwaWtfcHl0aG9uJywgJy1waCcsICc3LjAnLCAnLXRuJywgJzgnLCAnLW1hJywgJzIwMCcsICctbWV0YWxfYmluZGluZycsICctaW1hZScsICc8aW5maWxlLm1hZT4nLCAnLW9tYWUnLCAnPG91dGZpbGUubWFlPic=

> <r_lp_tautomer_probability>
1

> <r_epik_Ionization_Penalty>
0.0164263

> <r_epik_Ionization_Penalty_Charging>
0.0164138

> <r_epik_Ionization_Penalty_Neutral>
1.24697e-05

> <r_epik_State_Penalty>
0.0129543

> <r_epik_Charging_Adjusted_Penalty>
0.0293681

> <i_epik_Tot_Q>
1

> <i_epik_Tot_abs_Q>
1

> <r_epik_Metal_State_Penalty>
0.0129806

> <b_epik_Metal_Only>
0

> <s_lp_Force_Field>
OPLS_2005

> <r_lp_Energy>
13.915

> <b_lp_Chiralities_Consistent>
1

> <s_lp_Variant>
AV-unprocessed.smi:3117-2

> <Gold.Version>
5.8.1

> <Gold.Id.Protein>
6NUR|6NUR_protein|mol2

> <Gold.PLP.Fitness>
45.5628

> <Gold.PLP.PLP>
-34.4566

> <Gold.PLP.part.hbond>
-3.5873

> <Gold.PLP.part.metal>
0.0000

> <Gold.PLP.part.buried>
-5.1884

> <Gold.PLP.part.nonpolar>
-26.2834

> <Gold.PLP.part.repulsive>
0.1206

> <Gold.PLP.ligand.clash>
0.0000

> <Gold.PLP.ligand.torsion>
0.4953

> <Gold.PLP.Chemscore.Hbond>
3.9993

> <Gold.PLP.Chemscore.CHOScore>
0.0000

> <Gold.PLP.Chemscore.Metal>
0.0000

> <Gold.Chemscore.Hbonds>
donor molecule, donor type, donor heavy atom, donor atom, acceptor molecule, acceptor atom, score
      L1  H     3    20       P1  8028  1.95
      L1  H     8    29       P1  7957  0.89
      P1  H  7989  7998       L1     8  0.02
      P1  H  8011  8017       L1     8  0.88

> <Gold.PLP.Chemscore.Internal.Correction>
0.0989

> <Gold.Rescore>
     Score         DG    S(hbond)    S(metal)    S(lipo)     H(rot)  DE(clash)    DE(int)     intcor
     17.51     -19.19       2.45        0.00      96.91       2.27       1.39       0.29       ----

> <Gold.Chemscore.Fitness>
17.5144

> <Gold.Chemscore.DG>
-19.1937

> <Gold.Chemscore.ZeroCoef>
-5.4800

> <Gold.Chemscore.Hbond>
2.4529

> <Gold.Chemscore.Metal>
0.0000

> <Gold.Chemscore.Lipo>
96.9104

> <Gold.Chemscore.Internal_Hbond>
0.0000

> <Gold.Chemscore.DEClash>
1.3929

> <Gold.Chemscore.DEInternal>
0.2864

> <Gold.Chemscore.Rot>
2.2725

> <Gold.Chemscore.Internal.Correction>
   9.000000E+99

> <Gold.Chemscore.Hbonds>
donor molecule, donor type, donor heavy atom, donor atom, acceptor molecule, acceptor atom, score
      L1  H     3    20       P1  8028  0.88
      L1  H     8    29       P1  7957  0.82
      P1  H  8011  8017       L1     8  0.22

> <Gold.Chemscore.Hbond.Weighted>
-8.1928

> <Gold.Chemscore.Metal.Weighted>
-0.0000

> <Gold.Chemscore.Lipo.Weighted>
-11.3385

> <Gold.Chemscore.Internal_Hbond.Weighted>
0.0000

> <Gold.Chemscore.DEClash.Weighted>
1.3929

> <Gold.Chemscore.DEInternal.Weighted>
0.2864

> <Gold.Chemscore.Rot.Weighted>
5.8176

> <Gold.Chemscore.Internal.Correction.Weighted>
   9.000000E+99

> <Gold.Protein.RotatedTorsions>
[ 6907 6896 6895 6894 ] final  123.25 input  -60.11 | X-H torsion
[ 7974 7965 7964 7962 ] final  152.33 input  175.53 | X-H torsion
[ 8008 7997 7996 7995 ] final   18.59 input   59.86 | X-H torsion
[ 10167 10162 10161 10158 ] final  135.28 input  -65.29 | X-H torsion
[ 10718 10713 10712 10709 ] final   49.23 input   66.30 | X-H torsion
[ 10763 10752 10751 10750 ] final  -59.55 input  -60.55 | X-H torsion
[ 11005 11000 10999 10996 ] final  -51.35 input  -57.11 | X-H torsion

> <Gold.Protein.ActiveResidues>
 VAL166  LYS551  ARG553  GLY616  TRP617  ASP618  TYR619  PRO620  LYS621  CYS622 
 ASP623  PHE694  ASN695  SER759  ASP760  ASP761  ALA762  ILE779  LEU786  VAL792 
 PHE793  MET794  SER795  GLU796  ALA797  LYS798  CYS799  TRP800  GLU811  SER814 

> <Gold.Protein.RotatedAtoms>
  152.4177  133.7064  159.6453 H   0  0  0  0  0  0  0  0  0  0  0  0  # atno 6907 bound_to 6896
  150.8053  133.8510  159.3214 H   0  0  0  0  0  0  0  0  0  0  0  0  # atno 6908 bound_to 6896
  151.6236  135.1031  160.0158 H   0  0  0  0  0  0  0  0  0  0  0  0  # atno 6909 bound_to 6896
  144.8230  139.6654  143.6092 H   0  0  0  0  0  0  0  0  0  0  0  0  # atno 7974 bound_to 7965
  154.9082  140.3010  155.5280 H   0  0  0  0  0  0  0  0  0  0  0  0  # atno 8008 bound_to 7997
  156.3016  140.2394  156.4053 H   0  0  0  0  0  0  0  0  0  0  0  0  # atno 8009 bound_to 7997
  154.8452  140.0412  157.1557 H   0  0  0  0  0  0  0  0  0  0  0  0  # atno 8010 bound_to 7997
  139.5223  144.6525  151.5261 H   0  0  0  0  0  0  0  0  0  0  0  0  # atno 10167 bound_to 10162
  157.4766  130.8288  149.8046 H   0  0  0  0  0  0  0  0  0  0  0  0  # atno 10718 bound_to 10713
  154.2555  135.6318  153.5255 H   0  0  0  0  0  0  0  0  0  0  0  0  # atno 10763 bound_to 10752
  152.9905  135.5575  154.5761 H   0  0  0  0  0  0  0  0  0  0  0  0  # atno 10764 bound_to 10752
  154.5298  135.2887  155.1165 H   0  0  0  0  0  0  0  0  0  0  0  0  # atno 10765 bound_to 10752
  141.0866  133.6641  156.3865 H   0  0  0  0  0  0  0  0  0  0  0  0  # atno 11005 bound_to 11000
  146.2536  139.6252  142.9410 LP  0  0  0  0  0  0  0  0  0  0  0  0  # atno 17320 bound_to 7965
  145.5062  141.0436  143.2513 LP  0  0  0  0  0  0  0  0  0  0  0  0  # atno 17321 bound_to 7965
  140.6335  143.9029  150.6627 LP  0  0  0  0  0  0  0  0  0  0  0  0  # atno 17342 bound_to 10162
  140.2341  143.3713  152.1541 LP  0  0  0  0  0  0  0  0  0  0  0  0  # atno 17343 bound_to 10162
  156.0100  130.3838  150.2298 LP  0  0  0  0  0  0  0  0  0  0  0  0  # atno 17370 bound_to 10713
  157.0482  131.0055  151.3262 LP  0  0  0  0  0  0  0  0  0  0  0  0  # atno 17371 bound_to 10713
  140.5348  134.6177  157.5361 LP  0  0  0  0  0  0  0  0  0  0  0  0  # atno 17394 bound_to 11000
  139.9685  134.7332  156.0088 LP  0  0  0  0  0  0  0  0  0  0  0  0  # atno 17395 bound_to 11000

$$$$
