#       Name:                AV-unprocessed.smi:1260
#       Creating user name   scv26
#       Creation time:       Fri Mar 27 04:41:56 2020


#       File generated by GOLD software.
#

@<TRIPOS>MOLECULE
AV-unprocessed.smi:1260
    42    44     1
SMALL
NO_CHARGES


@<TRIPOS>ATOM
      1 ****         0.6743   2.3327   0.7239 O.2            1 S1                 0.0000
      2 ****         1.4116   1.3580   0.8727 C.2            1 S1                 0.0000
      3 ****         2.9308   1.5340   0.9549 C.3            1 S1                 0.0000
      4 ****         3.2984   2.6979   1.7413 N.pl3          1 S1                 0.0000
      5 ****         3.3402   2.8869   3.0619 C.2            1 S1                 0.0000
      6 ****         3.7340   4.1136   3.3681 N.2            1 S1                 0.0000
      7 ****         3.9420   4.6957   2.1288 N.2            1 S1                 0.0000
      8 ****         3.6862   3.8601   1.1597 N.2            1 S1                 0.0000
      9 ****         0.9520   0.1004   0.9602 N.am           1 S1                 0.0000
     10 ****        -0.4587  -0.2753   0.9087 C.3            1 S1                 0.0000
     11 ****        -0.7236  -1.6994   1.3805 C.3            1 S1                 0.0000
     12 ****        -2.1062  -2.0083   0.7965 C.3            1 S1                 0.0000
     13 ****        -2.2674  -1.1527  -0.4052 N.4            1 S1                 1.0000
     14 ****        -2.5978  -1.9064  -1.6444 C.3            1 S1                 0.0000
     15 ****        -2.3570  -1.0442  -2.8923 C.3            1 S1                 0.0000
     16 ****        -0.8761  -0.6395  -3.0197 C.3            1 S1                 0.0000
     17 ****        -0.1435  -0.6481  -1.6639 C.3            1 S1                 0.0000
     18 ****        -1.0842  -0.2508  -0.4997 C.3            1 S1                 0.0000
     19 ****         3.3939   0.6551   1.4059 H              1 S1                 0.0000
     20 ****         3.3381   1.6337  -0.0523 H              1 S1                 0.0000
     21 ****         3.0835   2.1331   3.7917 H              1 S1                 0.0000
     22 ****         1.6234  -0.6455   1.0739 H              1 S1                 0.0000
     23 ****        -1.0260   0.3978   1.5554 H              1 S1                 0.0000
     24 ****         0.0158  -2.3817   0.9585 H              1 S1                 0.0000
     25 ****        -0.6936  -1.8001   2.4659 H              1 S1                 0.0000
     26 ****        -2.2217  -3.0724   0.5852 H              1 S1                 0.0000
     27 ****        -2.8849  -1.7339   1.5090 H              1 S1                 0.0000
     28 ****        -1.9876  -2.8089  -1.7113 H              1 S1                 0.0000
     29 ****        -3.6374  -2.2320  -1.5958 H              1 S1                 0.0000
     30 ****        -2.6782  -1.5728  -3.7903 H              1 S1                 0.0000
     31 ****        -2.9760  -0.1481  -2.8288 H              1 S1                 0.0000
     32 ****        -0.3606  -1.3143  -3.7041 H              1 S1                 0.0000
     33 ****        -0.8171   0.3517  -3.4707 H              1 S1                 0.0000
     34 ****         0.2592  -1.6448  -1.4781 H              1 S1                 0.0000
     35 ****         0.7164   0.0193  -1.7232 H              1 S1                 0.0000
     36 ****        -1.4471   0.7579  -0.7036 H              1 S1                 0.0000
     37 ****        -3.0554  -0.5491  -0.2176 H              1 S1                 0.0000
     38 ****         1.0661   3.2502   0.6555 LP             1 S1                 0.0000
     39 ****        -0.3164   2.2069   0.6714 LP             1 S1                 0.0000
     40 ****         3.8524   4.5206   4.2738 LP             1 S1                 0.0000
     41 ****         4.2495   5.6376   1.9936 LP             1 S1                 0.0000
     42 ****         3.7615   4.0414   0.1791 LP             1 S1                 0.0000
@<TRIPOS>BOND
    1    1    2 2     
    2    2    3 1     
    3    2    9 am    
    4    3    4 1     
    5    3   19 1     
    6    3   20 1     
    7    4    8 1     
    8    4    5 1     
    9    5    6 2     
   10    5   21 1     
   11    6    7 1     
   12    7    8 2     
   13    9   10 1     
   14    9   22 1     
   15   10   18 1     
   16   10   11 1     
   17   10   23 1     
   18   11   12 1     
   19   11   24 1     
   20   11   25 1     
   21   12   13 1     
   22   12   26 1     
   23   12   27 1     
   24   13   18 1     
   25   13   14 1     
   26   13   37 1     
   27   14   15 1     
   28   14   28 1     
   29   14   29 1     
   30   15   16 1     
   31   15   30 1     
   32   15   31 1     
   33   16   17 1     
   34   16   32 1     
   35   16   33 1     
   36   17   18 1     
   37   17   34 1     
   38   17   35 1     
   39   18   36 1     
   40    1   38 1     
   41    1   39 1     
   42    6   40 1     
   43    7   41 1     
   44    8   42 1     
@<TRIPOS>SUBSTRUCTURE
      1 S1             1
@<TRIPOS>SET
LONE_PAIRS      STATIC     ATOMS    <user>   **** ""
5 38 39 40 41 42
DONOR_HYDROGENS      STATIC     ATOMS    <user>   **** ""
2 22 37
ATOM$BLUE        STATIC     ATOMS    COLORGROUP SYSTEM
5 38 39 40 41 42
ATOM$RED        STATIC     ATOMS    COLORGROUP SYSTEM
2 22 37
