AV-unprocessed.smi:754|AV-procd|sdf|3607|dock6
  -GOLD-   22720 1 03D 1   1.00000     0.00000
 Structure written by MMmdl.
 37 38  0  0  0  0  0  0  0  0  1 V2000
  152.0013  144.2803  157.9656 C   0  0  0  0  0  0  0  0  0  0  0  0
  151.0784  143.1203  158.3457 C   0  0  0  0  0  0  0  0  0  0  0  0
  151.0822  142.1673  157.2961 O   0  0  0  0  0  0  0  0  0  0  0  0
  150.3774  140.9804  157.6262 C   0  0  2  0  0  0  0  0  0  0  0  0
  151.0493  140.1195  158.6996 C   0  0  0  0  0  0  0  0  0  0  0  0
  150.6889  138.8980  157.8478 C   0  0  1  0  0  0  0  0  0  0  0  0
  149.4094  138.3264  158.2687 N   0  0  0  0  0  0  0  0  0  0  0  0
  149.2566  137.0962  158.7818 C   0  0  0  0  0  0  0  0  0  0  0  0
  150.1864  136.3043  158.9320 O   0  0  0  0  0  0  0  0  0  0  0  0
  147.8373  136.6943  159.1830 C   0  0  0  0  0  0  0  0  0  0  0  0
  147.7708  136.3553  160.5919 N   0  0  0  0  0  0  0  0  0  0  0  0
  147.5691  135.1867  161.2044 C   0  0  0  0  0  0  0  0  0  0  0  0
  147.5717  135.3179  162.5221 N   0  0  0  0  0  0  0  0  0  0  0  0
  147.7923  136.6733  162.7024 N   0  0  0  0  0  0  0  0  0  0  0  0
  147.9104  137.2941  161.5607 N   0  0  0  0  0  0  0  0  0  0  0  0
  150.5931  139.8342  156.6086 C   0  0  0  0  0  0  0  0  0  0  0  0
  149.4522  139.6051  155.6103 C   0  0  0  0  0  0  0  0  0  0  0  0
  151.8853  139.9060  155.7836 C   0  0  0  0  0  0  0  0  0  0  0  0
  152.0227  145.0350  158.7520 H   0  0  0  0  0  0  0  0  0  0  0  0
  151.6656  144.7627  157.0474 H   0  0  0  0  0  0  0  0  0  0  0  0
  153.0225  143.9322  157.8086 H   0  0  0  0  0  0  0  0  0  0  0  0
  151.4217  142.6641  159.2750 H   0  0  0  0  0  0  0  0  0  0  0  0
  150.0656  143.4895  158.5130 H   0  0  0  0  0  0  0  0  0  0  0  0
  149.3188  141.1546  157.8310 H   0  0  0  0  0  0  0  0  0  0  0  0
  152.1257  140.2852  158.7670 H   0  0  0  0  0  0  0  0  0  0  0  0
  150.5762  140.1643  159.6813 H   0  0  0  0  0  0  0  0  0  0  0  0
  151.5027  138.1725  157.7915 H   0  0  0  0  0  0  0  0  0  0  0  0
  148.5919  138.9111  158.1723 H   0  0  0  0  0  0  0  0  0  0  0  0
  147.1441  137.5123  158.9822 H   0  0  0  0  0  0  0  0  0  0  0  0
  147.5078  135.8395  158.5903 H   0  0  0  0  0  0  0  0  0  0  0  0
  147.4177  134.2498  160.6891 H   0  0  0  0  0  0  0  0  0  0  0  0
  149.5407  138.6355  155.1194 H   0  0  0  0  0  0  0  0  0  0  0  0
  149.4424  140.3689  154.8321 H   0  0  0  0  0  0  0  0  0  0  0  0
  148.4747  139.6373  156.0919 H   0  0  0  0  0  0  0  0  0  0  0  0
  152.0581  138.9799  155.2344 H   0  0  0  0  0  0  0  0  0  0  0  0
  152.7610  140.0729  156.4112 H   0  0  0  0  0  0  0  0  0  0  0  0
  151.8541  140.7176  155.0560 H   0  0  0  0  0  0  0  0  0  0  0  0
  1  2  1  0  0  0  0
  1 19  1  0  0  0  0
  1 20  1  0  0  0  0
  1 21  1  0  0  0  0
  2  3  1  0  0  0  0
  2 22  1  0  0  0  0
  2 23  1  0  0  0  0
  3  4  1  0  0  0  0
  4 16  1  0  0  0  0
  4  5  1  0  0  0  0
  4 24  1  0  0  0  0
  5  6  1  0  0  0  0
  5 25  1  0  0  0  0
  5 26  1  0  0  0  0
  6  7  1  0  0  0  0
  6 16  1  0  0  0  0
  6 27  1  0  0  0  0
  7  8  1  0  0  0  0
  7 28  1  0  0  0  0
  8  9  2  0  0  0  0
  8 10  1  0  0  0  0
 10 11  1  0  0  0  0
 10 29  1  0  0  0  0
 10 30  1  0  0  0  0
 11 15  1  0  0  0  0
 11 12  1  0  0  0  0
 12 13  2  0  0  0  0
 12 31  1  0  0  0  0
 13 14  1  0  0  0  0
 14 15  2  0  0  0  0
 16 17  1  0  0  0  0
 16 18  1  0  0  0  0
 17 32  1  0  0  0  0
 17 33  1  0  0  0  0
 17 34  1  0  0  0  0
 18 35  1  0  0  0  0
 18 36  1  0  0  0  0
 18 37  1  0  0  0  0
M  END
> <s_m_source_file>
AV-unprocessed.smi

> <i_m_source_file_index>
754

> <i_lp_mmshare_version>
43012

> <i_f3d_flags>
0

> <s_epik_input>
W0NIM11bQ0gyXU9bQ0BASF0oQzEoW0NIM10pW0NIM10pW0NIMl1bQ0BIXTFbTkhdQyg9TylbQ0gyXW4yW2NIXW5ubjI=

> <s_epik_cmdline>
J2VwaWtfcHl0aG9uJywgJy1waCcsICc3LjAnLCAnLXRuJywgJzgnLCAnLW1hJywgJzIwMCcsICctbWV0YWxfYmluZGluZycsICctaW1hZScsICc8aW5maWxlLm1hZT4nLCAnLW9tYWUnLCAnPG91dGZpbGUubWFlPic=

> <r_lp_tautomer_probability>
1

> <r_epik_Ionization_Penalty>
8.28422e-07

> <r_epik_Ionization_Penalty_Charging>
0

> <r_epik_Ionization_Penalty_Neutral>
8.28422e-07

> <r_epik_State_Penalty>
-0

> <r_epik_Charging_Adjusted_Penalty>
0

> <i_epik_Tot_Q>
0

> <i_epik_Tot_abs_Q>
0

> <r_epik_Metal_State_Penalty>
-0

> <b_epik_Metal_Only>
0

> <s_lp_Force_Field>
OPLS_2005

> <r_lp_Energy>
23.2797

> <b_lp_Chiralities_Consistent>
1

> <s_lp_Variant>
AV-unprocessed.smi:754-1

> <Gold.Version>
5.8.1

> <Gold.Id.Protein>
6NUR|6NUR_protein|mol2

> <Gold.PLP.Fitness>
35.7328

> <Gold.PLP.PLP>
-28.0540

> <Gold.PLP.part.hbond>
-3.6456

> <Gold.PLP.part.metal>
0.0000

> <Gold.PLP.part.buried>
-5.4628

> <Gold.PLP.part.nonpolar>
-19.9731

> <Gold.PLP.part.repulsive>
0.2015

> <Gold.PLP.ligand.clash>
0.0000

> <Gold.PLP.ligand.torsion>
0.3222

> <Gold.PLP.Chemscore.Hbond>
2.6560

> <Gold.PLP.Chemscore.CHOScore>
0.0000

> <Gold.PLP.Chemscore.Metal>
0.0000

> <Gold.Chemscore.Hbonds>
donor molecule, donor type, donor heavy atom, donor atom, acceptor molecule, acceptor atom, score
      P1  H  6896  6909       L1     9  1.00
      P1  H  6931  6943       L1    15  0.96
      P1  H  6934  6947       L1    15  0.64

> <Gold.PLP.Chemscore.Internal.Correction>
0.3553

> <Gold.Rescore>
     Score         DG    S(hbond)    S(metal)    S(lipo)     H(rot)  DE(clash)    DE(int)     intcor
     12.47     -12.85       2.23        0.00      53.06       2.46       0.04       0.34       ----

> <Gold.Chemscore.Fitness>
12.4679

> <Gold.Chemscore.DG>
-12.8503

> <Gold.Chemscore.ZeroCoef>
-5.4800

> <Gold.Chemscore.Hbond>
2.2347

> <Gold.Chemscore.Metal>
0.0000

> <Gold.Chemscore.Lipo>
53.0593

> <Gold.Chemscore.Internal_Hbond>
0.0000

> <Gold.Chemscore.DEClash>
0.0402

> <Gold.Chemscore.DEInternal>
0.3422

> <Gold.Chemscore.Rot>
2.4616

> <Gold.Chemscore.Internal.Correction>
   9.000000E+99

> <Gold.Chemscore.Hbonds>
donor molecule, donor type, donor heavy atom, donor atom, acceptor molecule, acceptor atom, score
      P1  H  6896  6909       L1     9  1.00
      P1  H  6931  6943       L1    15  0.22
      P1  H  6934  6947       L1    15  0.49

> <Gold.Chemscore.Hbond.Weighted>
-7.4640

> <Gold.Chemscore.Metal.Weighted>
-0.0000

> <Gold.Chemscore.Lipo.Weighted>
-6.2079

> <Gold.Chemscore.Internal_Hbond.Weighted>
0.0000

> <Gold.Chemscore.DEClash.Weighted>
0.0402

> <Gold.Chemscore.DEInternal.Weighted>
0.3422

> <Gold.Chemscore.Rot.Weighted>
6.3016

> <Gold.Chemscore.Internal.Correction.Weighted>
   9.000000E+99

> <Gold.Protein.RotatedTorsions>
[ 6907 6896 6895 6894 ] final   75.96 input  -60.11 | X-H torsion
[ 7974 7965 7964 7962 ] final  151.10 input  175.53 | X-H torsion
[ 8008 7997 7996 7995 ] final  -16.59 input   59.86 | X-H torsion
[ 10167 10162 10161 10158 ] final -160.08 input  -65.29 | X-H torsion
[ 10718 10713 10712 10709 ] final  -54.65 input   66.30 | X-H torsion
[ 10763 10752 10751 10750 ] final -153.24 input  -60.55 | X-H torsion
[ 11005 11000 10999 10996 ] final   -0.87 input  -57.11 | X-H torsion

> <Gold.Protein.ActiveResidues>
 VAL166  LYS551  ARG553  GLY616  TRP617  ASP618  TYR619  PRO620  LYS621  CYS622 
 ASP623  PHE694  ASN695  SER759  ASP760  ASP761  ALA762  ILE779  LEU786  VAL792 
 PHE793  MET794  SER795  GLU796  ALA797  LYS798  CYS799  TRP800  GLU811  SER814 

> <Gold.Protein.RotatedAtoms>
  152.5050  134.4042  159.9426 H   0  0  0  0  0  0  0  0  0  0  0  0  # atno 6907 bound_to 6896
  151.4007  133.3752  159.2739 H   0  0  0  0  0  0  0  0  0  0  0  0  # atno 6908 bound_to 6896
  150.9364  134.8797  159.7643 H   0  0  0  0  0  0  0  0  0  0  0  0  # atno 6909 bound_to 6896
  144.8316  139.6494  143.6056 H   0  0  0  0  0  0  0  0  0  0  0  0  # atno 7974 bound_to 7965
  154.5041  140.2165  155.9286 H   0  0  0  0  0  0  0  0  0  0  0  0  # atno 8008 bound_to 7997
  156.1472  140.3168  155.8555 H   0  0  0  0  0  0  0  0  0  0  0  0  # atno 8009 bound_to 7997
  155.4009  140.0484  157.3027 H   0  0  0  0  0  0  0  0  0  0  0  0  # atno 8010 bound_to 7997
  139.6566  143.9987  152.2198 H   0  0  0  0  0  0  0  0  0  0  0  0  # atno 10167 bound_to 10162
  156.1433  130.4153  150.0066 H   0  0  0  0  0  0  0  0  0  0  0  0  # atno 10718 bound_to 10713
  154.7941  135.3217  154.7709 H   0  0  0  0  0  0  0  0  0  0  0  0  # atno 10763 bound_to 10752
  153.8391  135.6872  153.4809 H   0  0  0  0  0  0  0  0  0  0  0  0  # atno 10764 bound_to 10752
  153.1624  135.4655  154.9731 H   0  0  0  0  0  0  0  0  0  0  0  0  # atno 10765 bound_to 10752
  140.6411  133.9489  155.8327 H   0  0  0  0  0  0  0  0  0  0  0  0  # atno 11005 bound_to 11000
  146.2619  139.6429  142.9356 LP  0  0  0  0  0  0  0  0  0  0  0  0  # atno 17320 bound_to 7965
  145.4883  141.0438  143.2607 LP  0  0  0  0  0  0  0  0  0  0  0  0  # atno 17321 bound_to 7965
  139.9715  144.6490  150.7984 LP  0  0  0  0  0  0  0  0  0  0  0  0  # atno 17342 bound_to 10162
  140.7562  143.3061  151.2959 LP  0  0  0  0  0  0  0  0  0  0  0  0  # atno 17343 bound_to 10162
  156.7945  130.9268  151.3646 LP  0  0  0  0  0  0  0  0  0  0  0  0  # atno 17370 bound_to 10713
  157.6595  130.8953  149.9799 LP  0  0  0  0  0  0  0  0  0  0  0  0  # atno 17371 bound_to 10713
  141.0606  134.0352  157.3663 LP  0  0  0  0  0  0  0  0  0  0  0  0  # atno 17394 bound_to 11000
  139.9080  135.0184  156.7569 LP  0  0  0  0  0  0  0  0  0  0  0  0  # atno 17395 bound_to 11000

$$$$
