#       Name:                AV-unprocessed.smi:37
#       Creating user name   scv26
#       Creation time:       Thu Mar 26 16:16:46 2020


#       File generated by GOLD software.
#

@<TRIPOS>MOLECULE
AV-unprocessed.smi:37
    54    55     1
SMALL
NO_CHARGES


@<TRIPOS>ATOM
      1 ****        -2.2493   3.8840  -3.4957 C.3            1 S1                 0.0000
      2 ****        -2.1153   3.7939  -1.9678 C.3            1 S1                 0.0000
      3 ****        -1.8002   2.3841  -1.4629 C.2            1 S1                 0.0000
      4 ****        -1.7447   1.4118  -2.2176 O.2            1 S1                 0.0000
      5 ****        -1.6057   2.3599  -0.1318 O.3            1 S1                 0.0000
      6 ****        -1.2673   1.1474   0.5284 C.3            1 S1                 0.0000
      7 ****         0.2590   1.0339   0.7106 C.3            1 S1                 0.0000
      8 ****         0.8431   0.7384  -0.5600 O.3            1 S1                 0.0000
      9 ****         1.8120  -0.2466  -0.4014 C.3            1 S1                 0.0000
     10 ****         2.0426  -0.9733  -1.7063 N.am           1 S1                 0.0000
     11 ****         1.1683  -0.8389  -2.7724 C.2            1 S1                 0.0000
     12 ****         1.3766  -1.4932  -3.9329 C.2            1 S1                 0.0000
     13 ****         0.5077  -1.3480  -4.9482 F              1 S1                 0.0000
     14 ****         2.5462  -2.3586  -4.0757 C.2            1 S1                 0.0000
     15 ****         2.7325  -2.9512  -5.1374 O.2            1 S1                 0.0000
     16 ****         3.3904  -2.4713  -3.0093 N.pl3          1 S1                -1.0000
     17 ****         3.1819  -1.8127  -1.8318 C.2            1 S1                 0.0000
     18 ****         3.9351  -1.9091  -0.8624 O.2            1 S1                 0.0000
     19 ****         1.2759  -1.1566   0.6993 C.3            1 S1                 0.0000
     20 ****        -0.1891  -2.3396   0.0233 Br             1 S1                 0.0000
     21 ****         0.7188  -0.1052   1.6489 C.3            1 S1                 0.0000
     22 ****        -0.3045  -0.6113   2.5006 O.3            1 S1                 0.0000
     23 ****         0.0118  -1.2690   3.6299 C.2            1 S1                 0.0000
     24 ****         1.1535  -1.4895   4.0376 O.2            1 S1                 0.0000
     25 ****        -1.2342  -1.7416   4.3817 C.3            1 S1                 0.0000
     26 ****        -0.9185  -2.5256   5.6644 C.3            1 S1                 0.0000
     27 ****        -2.4624   4.9080  -3.8022 H              1 S1                 0.0000
     28 ****        -3.0603   3.2543  -3.8634 H              1 S1                 0.0000
     29 ****        -1.3294   3.5757  -3.9942 H              1 S1                 0.0000
     30 ****        -1.3257   4.4655  -1.6303 H              1 S1                 0.0000
     31 ****        -3.0389   4.1317  -1.4973 H              1 S1                 0.0000
     32 ****        -1.7487   1.1859   1.5054 H              1 S1                 0.0000
     33 ****        -1.6731   0.2728   0.0180 H              1 S1                 0.0000
     34 ****         0.6556   1.9788   1.0839 H              1 S1                 0.0000
     35 ****         2.7604   0.2307  -0.1458 H              1 S1                 0.0000
     36 ****         0.2954  -0.2113  -2.6848 H              1 S1                 0.0000
     37 ****         2.0601  -1.7764   1.1346 H              1 S1                 0.0000
     38 ****         1.5409   0.2890   2.2491 H              1 S1                 0.0000
     39 ****        -1.8433  -0.8704   4.6240 H              1 S1                 0.0000
     40 ****        -1.8266  -2.3632   3.7098 H              1 S1                 0.0000
     41 ****        -1.8381  -2.8446   6.1550 H              1 S1                 0.0000
     42 ****        -0.3598  -1.9165   6.3759 H              1 S1                 0.0000
     43 ****        -0.3327  -3.4201   5.4500 H              1 S1                 0.0000
     44 ****        -1.9085   1.5291  -3.1971 LP             1 S1                 0.0000
     45 ****        -1.5359   0.5053  -1.8506 LP             1 S1                 0.0000
     46 ****         1.2644   1.5644  -0.9344 LP             1 S1                 0.0000
     47 ****         0.1345   0.4125  -1.1859 LP             1 S1                 0.0000
     48 ****         2.0869  -2.8387  -5.8928 LP             1 S1                 0.0000
     49 ****         3.5295  -3.5455  -5.2451 LP             1 S1                 0.0000
     50 ****         4.1942  -3.0602  -3.0938 LP             1 S1                 0.0000
     51 ****         3.7354  -1.4054  -0.0219 LP             1 S1                 0.0000
     52 ****         4.7465  -2.4912  -0.9156 LP             1 S1                 0.0000
     53 ****         1.9423  -1.1688   3.5133 LP             1 S1                 0.0000
     54 ****         1.2912  -1.9893   4.8928 LP             1 S1                 0.0000
@<TRIPOS>BOND
    1    1    2 1     
    2    1   27 1     
    3    1   28 1     
    4    1   29 1     
    5    2    3 1     
    6    2   30 1     
    7    2   31 1     
    8    3    4 2     
    9    3    5 1     
   10    5    6 1     
   11    6    7 1     
   12    6   32 1     
   13    6   33 1     
   14    7   21 1     
   15    7    8 1     
   16    7   34 1     
   17    8    9 1     
   18    9   10 1     
   19    9   19 1     
   20    9   35 1     
   21   10   17 am    
   22   10   11 1     
   23   11   12 2     
   24   11   36 1     
   25   12   13 1     
   26   12   14 1     
   27   14   15 2     
   28   14   16 1     
   29   16   17 1     
   30   17   18 2     
   31   19   20 1     
   32   19   21 1     
   33   19   37 1     
   34   21   22 1     
   35   21   38 1     
   36   22   23 1     
   37   23   24 2     
   38   23   25 1     
   39   25   26 1     
   40   25   39 1     
   41   25   40 1     
   42   26   41 1     
   43   26   42 1     
   44   26   43 1     
   45    4   44 1     
   46    4   45 1     
   47    8   46 1     
   48    8   47 1     
   49   15   48 1     
   50   15   49 1     
   51   16   50 1     
   52   18   51 1     
   53   18   52 1     
   54   24   53 1     
   55   24   54 1     
@<TRIPOS>SUBSTRUCTURE
      1 S1             1
@<TRIPOS>SET
LONE_PAIRS      STATIC     ATOMS    <user>   **** ""
11 44 45 46 47 48 49 50 51 52 53 54
ATOM$BLUE        STATIC     ATOMS    COLORGROUP SYSTEM
11 44 45 46 47 48 49 50 51 52 53 54
