AV-unprocessed.smi:2243|AV-procd|sdf|9066|dock6
  -GOLD-   2272012273D 1   1.00000     0.00000
 Structure written by MMmdl.
 34 35  0  0  0  0  0  0  0  0  1 V2000
  149.7129  141.4909  155.0319 C   0  0  0  0  0  0  0  0  0  0  0  0
  149.0713  141.0541  156.3599 C   0  0  2  0  0  0  0  0  0  0  0  0
  148.2924  142.1813  156.8752 N   0  0  0  0  0  0  0  0  0  0  0  0
  147.4455  142.1590  157.9168 C   0  0  0  0  0  0  0  0  0  0  0  0
  147.2428  141.1292  158.5676 O   0  0  0  0  0  0  0  0  0  0  0  0
  146.8963  143.4196  158.1018 N   0  0  0  0  0  0  0  0  0  0  0  0
  146.5561  143.8058  159.2925 C   0  0  0  0  0  0  0  0  0  0  0  0
  146.0005  145.0208  159.6602 N   0  0  0  0  0  0  0  0  0  0  0  0
  145.8009  145.0059  161.0130 C   0  0  0  0  0  0  0  0  0  0  0  0
  146.2127  143.8305  161.4791 C   0  0  0  0  0  0  0  0  0  0  0  0
  146.6814  143.0716  160.4496 O   0  0  0  0  0  0  0  0  0  0  0  0
  150.1059  140.5811  157.4158 C   0  0  0  0  0  0  0  0  0  0  0  0
  151.0502  141.7134  157.8682 C   0  0  0  0  0  0  0  0  0  0  0  0
  152.1056  141.1971  158.8597 C   0  0  0  0  0  0  0  0  0  0  0  0
  152.8476  140.1357  158.2728 O   0  0  0  0  0  0  0  0  0  0  0  0
  152.0361  139.0123  157.9532 C   0  0  0  0  0  0  0  0  0  0  0  0
  150.9742  139.4069  156.9142 C   0  0  0  0  0  0  0  0  0  0  0  0
  150.1907  140.6567  154.5192 H   0  0  0  0  0  0  0  0  0  0  0  0
  150.4651  142.2645  155.1893 H   0  0  0  0  0  0  0  0  0  0  0  0
  148.9625  141.8920  154.3497 H   0  0  0  0  0  0  0  0  0  0  0  0
  148.4091  140.2153  156.1390 H   0  0  0  0  0  0  0  0  0  0  0  0
  148.4061  143.0606  156.3919 H   0  0  0  0  0  0  0  0  0  0  0  0
  145.7672  145.8064  159.0702 H   0  0  0  0  0  0  0  0  0  0  0  0
  145.3732  145.8631  161.5115 H   0  0  0  0  0  0  0  0  0  0  0  0
  146.2380  143.4016  162.4697 H   0  0  0  0  0  0  0  0  0  0  0  0
  149.5574  140.2343  158.2932 H   0  0  0  0  0  0  0  0  0  0  0  0
  151.5502  142.1470  157.0011 H   0  0  0  0  0  0  0  0  0  0  0  0
  150.4904  142.5191  158.3420 H   0  0  0  0  0  0  0  0  0  0  0  0
  152.7929  142.0003  159.1253 H   0  0  0  0  0  0  0  0  0  0  0  0
  151.6376  140.8604  159.7863 H   0  0  0  0  0  0  0  0  0  0  0  0
  152.6725  138.2226  157.5541 H   0  0  0  0  0  0  0  0  0  0  0  0
  151.5692  138.6175  158.8568 H   0  0  0  0  0  0  0  0  0  0  0  0
  150.3582  138.5353  156.6923 H   0  0  0  0  0  0  0  0  0  0  0  0
  151.4670  139.6844  155.9814 H   0  0  0  0  0  0  0  0  0  0  0  0
  1  2  1  0  0  0  0
  1 18  1  0  0  0  0
  1 19  1  0  0  0  0
  1 20  1  0  0  0  0
  2  3  1  0  0  0  0
  2 12  1  0  0  0  0
  2 21  1  0  0  0  0
  3 22  1  0  0  0  0
  3  4  1  0  0  0  0
  4  6  1  0  0  0  0
  4  5  2  0  0  0  0
  6  7  2  0  0  0  0
  7 11  1  0  0  0  0
  7  8  1  0  0  0  0
  8 23  1  0  0  0  0
  8  9  1  0  0  0  0
  9 24  1  0  0  0  0
  9 10  2  0  0  0  0
 10 25  1  0  0  0  0
 10 11  1  0  0  0  0
 12 17  1  0  0  0  0
 12 13  1  0  0  0  0
 12 26  1  0  0  0  0
 13 14  1  0  0  0  0
 13 27  1  0  0  0  0
 13 28  1  0  0  0  0
 14 15  1  0  0  0  0
 14 29  1  0  0  0  0
 14 30  1  0  0  0  0
 15 16  1  0  0  0  0
 16 17  1  0  0  0  0
 16 31  1  0  0  0  0
 16 32  1  0  0  0  0
 17 33  1  0  0  0  0
 17 34  1  0  0  0  0
M  END
> <s_m_source_file>
AV-unprocessed.smi

> <i_m_source_file_index>
2243

> <i_lp_mmshare_version>
43012

> <i_f3d_flags>
0

> <s_epik_input>
W0NIMl0xW0NIMl1PW0NIMl1bQ0gyXVtDSF0xW0NASF0oW0NIM10pW05IXUMoPU8pW05IXWMybltjSF1bY0hdbzI=

> <s_epik_cmdline>
J2VwaWtfcHl0aG9uJywgJy1waCcsICc3LjAnLCAnLXRuJywgJzgnLCAnLW1hJywgJzIwMCcsICctbWV0YWxfYmluZGluZycsICctaW1hZScsICc8aW5maWxlLm1hZT4nLCAnLW9tYWUnLCAnPG91dGZpbGUubWFlPic=

> <r_lp_tautomer_probability>
0.107061

> <r_epik_Ionization_Penalty>
1.44639

> <r_epik_Ionization_Penalty_Charging>
1.44602

> <r_epik_Ionization_Penalty_Neutral>
0.000368208

> <r_epik_State_Penalty>
2.61815

> <r_epik_Charging_Adjusted_Penalty>
4.06418

> <i_epik_Tot_Q>
0

> <i_epik_Tot_abs_Q>
0

> <r_epik_Metal_State_Penalty>
3.54171

> <b_epik_Metal_Only>
0

> <s_lp_Force_Field>
OPLS_2005

> <r_lp_Energy>
34.6671

> <b_lp_Chiralities_Consistent>
1

> <s_lp_Variant>
AV-unprocessed.smi:2243-5

> <Gold.Version>
5.8.1

> <Gold.Id.Protein>
6NUR|6NUR_protein|mol2

> <Gold.PLP.Fitness>
33.3109

> <Gold.PLP.PLP>
-23.1867

> <Gold.PLP.part.hbond>
-5.0000

> <Gold.PLP.part.metal>
0.0000

> <Gold.PLP.part.buried>
-3.2490

> <Gold.PLP.part.nonpolar>
-16.7678

> <Gold.PLP.part.repulsive>
1.0013

> <Gold.PLP.ligand.clash>
0.0000

> <Gold.PLP.ligand.torsion>
0.2505

> <Gold.PLP.Chemscore.Hbond>
3.5366

> <Gold.PLP.Chemscore.CHOScore>
0.0000

> <Gold.PLP.Chemscore.Metal>
0.0000

> <Gold.Chemscore.Hbonds>
donor molecule, donor type, donor heavy atom, donor atom, acceptor molecule, acceptor atom, score
      L1  H     3    22       P1  8028  1.00
      P1  H  6933  6944       L1    11  0.52
      P1  H  6934  6946       L1    11  0.49
      P1  H  7997  8010       L1    15  0.68

> <Gold.PLP.Chemscore.Internal.Correction>
0.0156

> <Gold.Rescore>
     Score         DG    S(hbond)    S(metal)    S(lipo)     H(rot)  DE(clash)    DE(int)     intcor
     14.72     -16.64       2.60        0.00      50.15       1.32       0.26       1.67       ----

> <Gold.Chemscore.Fitness>
14.7167

> <Gold.Chemscore.DG>
-16.6446

> <Gold.Chemscore.ZeroCoef>
-5.4800

> <Gold.Chemscore.Hbond>
2.5976

> <Gold.Chemscore.Metal>
0.0000

> <Gold.Chemscore.Lipo>
50.1524

> <Gold.Chemscore.Internal_Hbond>
0.0000

> <Gold.Chemscore.DEClash>
0.2566

> <Gold.Chemscore.DEInternal>
1.6713

> <Gold.Chemscore.Rot>
1.3201

> <Gold.Chemscore.Internal.Correction>
   9.000000E+99

> <Gold.Chemscore.Hbonds>
donor molecule, donor type, donor heavy atom, donor atom, acceptor molecule, acceptor atom, score
      L1  H     3    22       P1  8028  0.78
      P1  H  6933  6944       L1    11  0.09
      P1  H  6934  6946       L1    11  0.45
      P1  H  7997  8010       L1    15  0.33

> <Gold.Chemscore.Hbond.Weighted>
-8.6761

> <Gold.Chemscore.Metal.Weighted>
-0.0000

> <Gold.Chemscore.Lipo.Weighted>
-5.8678

> <Gold.Chemscore.Internal_Hbond.Weighted>
0.0000

> <Gold.Chemscore.DEClash.Weighted>
0.2566

> <Gold.Chemscore.DEInternal.Weighted>
1.6713

> <Gold.Chemscore.Rot.Weighted>
3.3794

> <Gold.Chemscore.Internal.Correction.Weighted>
   9.000000E+99

> <Gold.Protein.RotatedTorsions>
[ 6907 6896 6895 6894 ] final -116.35 input  -60.11 | X-H torsion
[ 7974 7965 7964 7962 ] final   93.81 input  175.53 | X-H torsion
[ 8008 7997 7996 7995 ] final   47.15 input   59.86 | X-H torsion
[ 10167 10162 10161 10158 ] final  -20.28 input  -65.29 | X-H torsion
[ 10718 10713 10712 10709 ] final  -77.49 input   66.30 | X-H torsion
[ 10763 10752 10751 10750 ] final  -23.96 input  -60.55 | X-H torsion
[ 11005 11000 10999 10996 ] final   97.79 input  -57.11 | X-H torsion

> <Gold.Protein.ActiveResidues>
 VAL166  LYS551  ARG553  GLY616  TRP617  ASP618  TYR619  PRO620  LYS621  CYS622 
 ASP623  PHE694  ASN695  SER759  ASP760  ASP761  ALA762  ILE779  LEU786  VAL792 
 PHE793  MET794  SER795  GLU796  ALA797  LYS798  CYS799  TRP800  GLU811  SER814 

> <Gold.Protein.RotatedAtoms>
  150.8049  133.8529  159.3210 H   0  0  0  0  0  0  0  0  0  0  0  0  # atno 6907 bound_to 6896
  151.6331  135.1019  160.0135 H   0  0  0  0  0  0  0  0  0  0  0  0  # atno 6908 bound_to 6896
  152.4139  133.6967  159.6457 H   0  0  0  0  0  0  0  0  0  0  0  0  # atno 6909 bound_to 6896
  145.4740  139.2281  143.2919 H   0  0  0  0  0  0  0  0  0  0  0  0  # atno 7974 bound_to 7965
  155.3642  140.3420  155.4241 H   0  0  0  0  0  0  0  0  0  0  0  0  # atno 8008 bound_to 7997
  156.1697  140.1628  156.8503 H   0  0  0  0  0  0  0  0  0  0  0  0  # atno 8009 bound_to 7997
  154.5221  140.0764  156.8173 H   0  0  0  0  0  0  0  0  0  0  0  0  # atno 8010 bound_to 7997
  140.7275  143.4737  151.0211 H   0  0  0  0  0  0  0  0  0  0  0  0  # atno 10167 bound_to 10162
  156.0144  130.4492  150.3352 H   0  0  0  0  0  0  0  0  0  0  0  0  # atno 10718 bound_to 10713
  153.6762  135.6969  153.5132 H   0  0  0  0  0  0  0  0  0  0  0  0  # atno 10763 bound_to 10752
  153.2519  135.4272  155.0806 H   0  0  0  0  0  0  0  0  0  0  0  0  # atno 10764 bound_to 10752
  154.8413  135.3533  154.6306 H   0  0  0  0  0  0  0  0  0  0  0  0  # atno 10765 bound_to 10752
  139.8774  134.9018  156.4360 H   0  0  0  0  0  0  0  0  0  0  0  0  # atno 11005 bound_to 11000
  146.2380  140.5520  142.8946 LP  0  0  0  0  0  0  0  0  0  0  0  0  # atno 17320 bound_to 7965
  144.7928  140.6065  143.6530 LP  0  0  0  0  0  0  0  0  0  0  0  0  # atno 17321 bound_to 7965
  139.8431  143.7537  152.3180 LP  0  0  0  0  0  0  0  0  0  0  0  0  # atno 17342 bound_to 10162
  139.7693  144.7482  151.0248 LP  0  0  0  0  0  0  0  0  0  0  0  0  # atno 17343 bound_to 10162
  157.1449  131.0306  151.2911 LP  0  0  0  0  0  0  0  0  0  0  0  0  # atno 17370 bound_to 10713
  157.4441  130.7560  149.7094 LP  0  0  0  0  0  0  0  0  0  0  0  0  # atno 17371 bound_to 10713
  140.9033  133.7764  155.9706 LP  0  0  0  0  0  0  0  0  0  0  0  0  # atno 17394 bound_to 11000
  140.8627  134.2822  157.5227 LP  0  0  0  0  0  0  0  0  0  0  0  0  # atno 17395 bound_to 11000

$$$$
