#       Name:                AV-unprocessed.smi:1485
#       Creating user name   scv26
#       Creation time:       Fri Mar 27 06:09:51 2020


#       File generated by GOLD software.
#

@<TRIPOS>MOLECULE
AV-unprocessed.smi:1485
    51    52     1
SMALL
NO_CHARGES


@<TRIPOS>ATOM
      1 ****        -4.4456   3.2738   3.4811 C.3            1 S1                 0.0000
      2 ****        -3.9846   1.9367   3.3967 O.3            1 S1                 0.0000
      3 ****        -2.5704   1.8475   3.4293 C.3            1 S1                 0.0000
      4 ****        -2.1636   0.3689   3.3421 C.3            1 S1                 0.0000
      5 ****        -0.7056   0.2132   3.3323 N.am           1 S1                 0.0000
      6 ****        -0.1587   0.1096   2.0644 N.2            1 S1                 0.0000
      7 ****         1.1201  -0.0219   1.9165 C.2            1 S1                 0.0000
      8 ****         1.7473  -0.1349   0.5706 C.2            1 S1                 0.0000
      9 ****         2.9644  -0.2647   0.4285 O.2            1 S1                 0.0000
     10 ****         0.8922  -0.0878  -0.4670 N.am           1 S1                 0.0000
     11 ****         1.2610  -0.1842  -1.8756 C.3            1 S1                 0.0000
     12 ****         0.1763   0.4875  -2.7369 C.3            1 S1                 0.0000
     13 ****         0.4890   0.3538  -4.2349 C.3            1 S1                 0.0000
     14 ****         0.6749  -1.1180  -4.6357 C.3            1 S1                 0.0000
     15 ****         1.7674  -1.7984  -3.7889 C.3            1 S1                 0.0000
     16 ****         1.9540  -3.2690  -4.1879 C.3            1 S1                 0.0000
     17 ****         1.4512  -1.6589  -2.2870 C.3            1 S1                 0.0000
     18 ****         2.0020  -0.0642   3.0708 C.2            1 S1                 0.0000
     19 ****         1.4542   0.0434   4.3011 C.2            1 S1                 0.0000
     20 ****         0.0118   0.1992   4.4959 C.2            1 S1                 0.0000
     21 ****        -0.5093   0.3122   5.6050 O.2            1 S1                 0.0000
     22 ****        -5.5349   3.2891   3.4457 H              1 S1                 0.0000
     23 ****        -4.0735   3.8731   2.6490 H              1 S1                 0.0000
     24 ****        -4.1330   3.7402   4.4163 H              1 S1                 0.0000
     25 ****        -2.1434   2.4037   2.5932 H              1 S1                 0.0000
     26 ****        -2.1908   2.2929   4.3503 H              1 S1                 0.0000
     27 ****        -2.6029  -0.1902   4.1702 H              1 S1                 0.0000
     28 ****        -2.5893  -0.0709   2.4382 H              1 S1                 0.0000
     29 ****        -0.0905   0.0209  -0.2610 H              1 S1                 0.0000
     30 ****         2.1994   0.3512  -2.0338 H              1 S1                 0.0000
     31 ****        -0.7944   0.0345  -2.5299 H              1 S1                 0.0000
     32 ****         0.0883   1.5421  -2.4732 H              1 S1                 0.0000
     33 ****        -0.3131   0.8006  -4.8229 H              1 S1                 0.0000
     34 ****         1.3946   0.9141  -4.4711 H              1 S1                 0.0000
     35 ****        -0.2703  -1.6494  -4.5160 H              1 S1                 0.0000
     36 ****         0.9304  -1.1780  -5.6942 H              1 S1                 0.0000
     37 ****         2.7103  -1.2844  -3.9816 H              1 S1                 0.0000
     38 ****         1.0426  -3.8439  -4.0207 H              1 S1                 0.0000
     39 ****         2.7521  -3.7339  -3.6085 H              1 S1                 0.0000
     40 ****         2.2172  -3.3600  -5.2420 H              1 S1                 0.0000
     41 ****         2.2558  -2.1061  -1.7018 H              1 S1                 0.0000
     42 ****         0.5484  -2.2244  -2.0502 H              1 S1                 0.0000
     43 ****         3.0702  -0.1783   2.9566 H              1 S1                 0.0000
     44 ****         2.0980   0.0138   5.1680 H              1 S1                 0.0000
     45 ****        -4.3115   1.5382   2.5397 LP             1 S1                 0.0000
     46 ****        -4.3564   1.4199   4.1678 LP             1 S1                 0.0000
     47 ****        -0.7535   0.1365   1.2610 LP             1 S1                 0.0000
     48 ****         3.5609  -0.2967   1.2305 LP             1 S1                 0.0000
     49 ****         3.3557  -0.3380  -0.4889 LP             1 S1                 0.0000
     50 ****        -1.5004   0.4202   5.6831 LP             1 S1                 0.0000
     51 ****         0.0583   0.2960   6.4281 LP             1 S1                 0.0000
@<TRIPOS>BOND
    1    1    2 1     
    2    1   22 1     
    3    1   23 1     
    4    1   24 1     
    5    2    3 1     
    6    3    4 1     
    7    3   25 1     
    8    3   26 1     
    9    4    5 1     
   10    4   27 1     
   11    4   28 1     
   12    5   20 am    
   13    5    6 1     
   14    6    7 2     
   15    7    8 1     
   16    7   18 1     
   17    8    9 2     
   18    8   10 am    
   19   10   11 1     
   20   10   29 1     
   21   11   17 1     
   22   11   12 1     
   23   11   30 1     
   24   12   13 1     
   25   12   31 1     
   26   12   32 1     
   27   13   14 1     
   28   13   33 1     
   29   13   34 1     
   30   14   15 1     
   31   14   35 1     
   32   14   36 1     
   33   15   16 1     
   34   15   17 1     
   35   15   37 1     
   36   16   38 1     
   37   16   39 1     
   38   16   40 1     
   39   17   41 1     
   40   17   42 1     
   41   18   19 2     
   42   18   43 1     
   43   19   20 1     
   44   19   44 1     
   45   20   21 2     
   46    2   45 1     
   47    2   46 1     
   48    6   47 1     
   49    9   48 1     
   50    9   49 1     
   51   21   50 1     
   52   21   51 1     
@<TRIPOS>SUBSTRUCTURE
      1 S1             1
@<TRIPOS>SET
LONE_PAIRS      STATIC     ATOMS    <user>   **** ""
7 45 46 47 48 49 50 51
DONOR_HYDROGENS      STATIC     ATOMS    <user>   **** ""
1 29
ATOM$BLUE        STATIC     ATOMS    COLORGROUP SYSTEM
7 45 46 47 48 49 50 51
ATOM$RED        STATIC     ATOMS    COLORGROUP SYSTEM
1 29
