AV-unprocessed.smi:1718|AV-procd|sdf|6926|dock1
  -GOLD-   22720 8133D 1   1.00000     0.00000
 Structure written by MMmdl.
 39 40  0  0  0  0  0  0  0  0  2 V2000
  149.1463  139.8996  155.0128 C   0  0  0  0  0  0  0  0  0  0  0  0
  149.0471  140.5164  156.4164 C   0  0  2  0  0  0  0  0  0  0  0  0
  150.3715  140.8250  156.8434 O   0  0  0  0  0  0  0  0  0  0  0  0
  150.8743  142.0905  156.4248 C   0  0  0  0  0  0  0  0  0  0  0  0
  150.8354  143.0734  157.6027 C   0  0  2  0  0  0  0  0  0  0  0  0
  151.5174  144.4266  157.3484 C   0  0  0  0  0  0  0  0  0  0  0  0
  152.4204  144.6174  158.5573 C   0  0  0  0  0  0  0  0  0  0  0  0
  151.8935  143.5980  159.5607 C   0  0  0  0  0  0  0  0  0  0  0  0
  151.4897  142.5183  158.7362 O   0  0  0  0  0  0  0  0  0  0  0  0
  148.3723  139.5563  157.4102 C   0  0  0  0  0  0  0  0  0  0  0  0
  147.3180  139.8886  157.9511 O   0  0  0  0  0  0  0  0  0  0  0  0
  149.0023  138.3776  157.5842 N   0  0  0  0  0  0  0  0  0  0  0  0
  148.6525  137.2746  158.3820 C   0  0  0  0  0  0  0  0  0  0  0  0
  147.8147  137.3174  159.4551 C   0  0  0  0  0  0  0  0  0  0  0  0
  147.4962  136.1337  160.2439 C   0  0  0  0  0  0  0  0  0  0  0  0
  146.4890  136.1233  161.3802 C   0  0  0  0  0  0  0  0  0  0  0  0
  146.8888  136.9063  162.3827 F   0  0  0  0  0  0  0  0  0  0  0  0
  145.3119  136.5724  160.9469 F   0  0  0  0  0  0  0  0  0  0  0  0
  146.3147  134.8896  161.8542 F   0  0  0  0  0  0  0  0  0  0  0  0
  148.1290  135.0013  159.7696 C   0  0  0  0  0  0  0  0  0  0  0  0
  148.9917  134.8782  158.7372 N   0  5  0  0  0  0  0  0  0  0  0  0
  149.2808  135.9909  158.0054 C   0  0  0  0  0  0  0  0  0  0  0  0
  150.0505  135.9473  157.0448 O   0  0  0  0  0  0  0  0  0  0  0  0
  148.1634  139.6195  154.6320 H   0  0  0  0  0  0  0  0  0  0  0  0
  149.7754  139.0086  155.0086 H   0  0  0  0  0  0  0  0  0  0  0  0
  149.5809  140.6107  154.3102 H   0  0  0  0  0  0  0  0  0  0  0  0
  148.4681  141.4390  156.3413 H   0  0  0  0  0  0  0  0  0  0  0  0
  151.9016  141.9808  156.0750 H   0  0  0  0  0  0  0  0  0  0  0  0
  150.2899  142.4948  155.5979 H   0  0  0  0  0  0  0  0  0  0  0  0
  149.7963  143.2510  157.8851 H   0  0  0  0  0  0  0  0  0  0  0  0
  152.0971  144.4435  156.4249 H   0  0  0  0  0  0  0  0  0  0  0  0
  150.7721  145.2202  157.2842 H   0  0  0  0  0  0  0  0  0  0  0  0
  153.4487  144.3707  158.2899 H   0  0  0  0  0  0  0  0  0  0  0  0
  152.4066  145.6369  158.9439 H   0  0  0  0  0  0  0  0  0  0  0  0
  152.6470  143.2918  160.2870 H   0  0  0  0  0  0  0  0  0  0  0  0
  151.0303  143.9901  160.1010 H   0  0  0  0  0  0  0  0  0  0  0  0
  149.8340  138.2352  157.0296 H   0  0  0  0  0  0  0  0  0  0  0  0
  147.3632  138.2422  159.7722 H   0  0  0  0  0  0  0  0  0  0  0  0
  147.9033  134.0492  160.2954 H   0  0  0  0  0  0  0  0  0  0  0  0
  1  2  1  0  0  0  0
  1 24  1  0  0  0  0
  1 25  1  0  0  0  0
  1 26  1  0  0  0  0
  2  3  1  0  0  0  0
  2 10  1  0  0  0  0
  2 27  1  0  0  0  0
  3  4  1  0  0  0  0
  4  5  1  0  0  0  0
  4 28  1  0  0  0  0
  4 29  1  0  0  0  0
  5  9  1  0  0  0  0
  5  6  1  0  0  0  0
  5 30  1  0  0  0  0
  6  7  1  0  0  0  0
  6 31  1  0  0  0  0
  6 32  1  0  0  0  0
  7  8  1  0  0  0  0
  7 33  1  0  0  0  0
  7 34  1  0  0  0  0
  8  9  1  0  0  0  0
  8 35  1  0  0  0  0
  8 36  1  0  0  0  0
 10 11  2  0  0  0  0
 10 12  1  0  0  0  0
 12 13  1  0  0  0  0
 12 37  1  0  0  0  0
 13 22  1  0  0  0  0
 13 14  2  0  0  0  0
 14 15  1  0  0  0  0
 14 38  1  0  0  0  0
 15 16  1  0  0  0  0
 15 20  2  0  0  0  0
 16 17  1  0  0  0  0
 16 18  1  0  0  0  0
 16 19  1  0  0  0  0
 20 21  1  0  0  0  0
 20 39  1  0  0  0  0
 21 22  1  0  0  0  0
 22 23  2  0  0  0  0
M  CHG  1  21  -1
M  END
> <s_m_source_file>
AV-unprocessed.smi

> <i_m_source_file_index>
1718

> <i_lp_mmshare_version>
43012

> <i_f3d_flags>
0

> <s_epik_input>
TzFbQ0gyXVtDSDJdW0NIMl1bQ0BIXTFbQ0gyXU9bQ0BASF0oW0NIM10pQyg9TylbTkhdYzJbY0hdYyhDKEYpKEYpRilbY0hdW25IXWMyPU8=

> <s_epik_cmdline>
J2VwaWtfcHl0aG9uJywgJy1waCcsICc3LjAnLCAnLXRuJywgJzgnLCAnLW1hJywgJzIwMCcsICctbWV0YWxfYmluZGluZycsICctaW1hZScsICc8aW5maWxlLm1hZT4nLCAnLW9tYWUnLCAnPG91dGZpbGUubWFlPic=

> <r_epik_Ionization_Penalty>
2.5466

> <r_epik_Ionization_Penalty_Charging>
0.0575837

> <r_epik_Ionization_Penalty_Neutral>
2.48901

> <r_epik_State_Penalty>
2.6532

> <r_epik_Charging_Adjusted_Penalty>
2.71078

> <i_epik_Tot_Q>
-1

> <i_epik_Tot_abs_Q>
1

> <r_epik_Metal_State_Penalty>
0.516196

> <b_epik_Metal_Only>
0

> <s_lp_Force_Field>
OPLS_2005

> <r_lp_Energy>
37.3435

> <b_lp_Chiralities_Consistent>
1

> <s_lp_Variant>
AV-unprocessed.smi:1718-5

> <Gold.Version>
5.8.1

> <Gold.Id.Protein>
6NUR|6NUR_protein|mol2

> <Gold.PLP.Fitness>
43.2287

> <Gold.PLP.PLP>
-38.6604

> <Gold.PLP.part.hbond>
-2.0000

> <Gold.PLP.part.metal>
0.0000

> <Gold.PLP.part.buried>
-2.1389

> <Gold.PLP.part.nonpolar>
-33.6549

> <Gold.PLP.part.repulsive>
0.1263

> <Gold.PLP.ligand.clash>
0.0000

> <Gold.PLP.ligand.torsion>
0.7818

> <Gold.PLP.Chemscore.Hbond>
2.0000

> <Gold.PLP.Chemscore.CHOScore>
0.0000

> <Gold.PLP.Chemscore.Metal>
0.0000

> <Gold.Chemscore.Hbonds>
donor molecule, donor type, donor heavy atom, donor atom, acceptor molecule, acceptor atom, score
      P1  H  6896  6908       L1    21  2.00

> <Gold.PLP.Chemscore.Internal.Correction>
0.1319

> <Gold.Rescore>
     Score         DG    S(hbond)    S(metal)    S(lipo)     H(rot)  DE(clash)    DE(int)     intcor
     11.01     -13.30       0.65        0.00      88.70       1.85       0.26       2.03       ----

> <Gold.Chemscore.Fitness>
11.0109

> <Gold.Chemscore.DG>
-13.2957

> <Gold.Chemscore.ZeroCoef>
-5.4800

> <Gold.Chemscore.Hbond>
0.6476

> <Gold.Chemscore.Metal>
0.0000

> <Gold.Chemscore.Lipo>
88.6952

> <Gold.Chemscore.Internal_Hbond>
0.0000

> <Gold.Chemscore.DEClash>
0.2569

> <Gold.Chemscore.DEInternal>
2.0280

> <Gold.Chemscore.Rot>
1.8455

> <Gold.Chemscore.Internal.Correction>
   9.000000E+99

> <Gold.Chemscore.Hbonds>
donor molecule, donor type, donor heavy atom, donor atom, acceptor molecule, acceptor atom, score
      P1  H  6896  6908       L1    21  0.15

> <Gold.Chemscore.Hbond.Weighted>
-2.1629

> <Gold.Chemscore.Metal.Weighted>
-0.0000

> <Gold.Chemscore.Lipo.Weighted>
-10.3773

> <Gold.Chemscore.Internal_Hbond.Weighted>
0.0000

> <Gold.Chemscore.DEClash.Weighted>
0.2569

> <Gold.Chemscore.DEInternal.Weighted>
2.0280

> <Gold.Chemscore.Rot.Weighted>
4.7245

> <Gold.Chemscore.Internal.Correction.Weighted>
   9.000000E+99

> <Gold.Protein.RotatedTorsions>
[ 6907 6896 6895 6894 ] final  168.57 input  -60.11 | X-H torsion
[ 7974 7965 7964 7962 ] final  -57.52 input  175.53 | X-H torsion
[ 8008 7997 7996 7995 ] final  168.51 input   59.86 | X-H torsion
[ 10167 10162 10161 10158 ] final  -56.37 input  -65.29 | X-H torsion
[ 10718 10713 10712 10709 ] final  -16.24 input   66.30 | X-H torsion
[ 10763 10752 10751 10750 ] final   50.32 input  -60.55 | X-H torsion
[ 11005 11000 10999 10996 ] final   33.34 input  -57.11 | X-H torsion

> <Gold.Protein.ActiveResidues>
 VAL166  LYS551  ARG553  GLY616  TRP617  ASP618  TYR619  PRO620  LYS621  CYS622 
 ASP623  PHE694  ASN695  SER759  ASP760  ASP761  ALA762  ILE779  LEU786  VAL792 
 PHE793  MET794  SER795  GLU796  ALA797  LYS798  CYS799  TRP800  GLU811  SER814 

> <Gold.Protein.RotatedAtoms>
  151.8456  133.3431  159.3656 H   0  0  0  0  0  0  0  0  0  0  0  0  # atno 6907 bound_to 6896
  150.7221  134.5349  159.5728 H   0  0  0  0  0  0  0  0  0  0  0  0  # atno 6908 bound_to 6896
  152.2832  134.7806  160.0443 H   0  0  0  0  0  0  0  0  0  0  0  0  # atno 6909 bound_to 6896
  145.8501  140.8358  142.9990 H   0  0  0  0  0  0  0  0  0  0  0  0  # atno 7974 bound_to 7965
  156.1540  140.1588  156.8722 H   0  0  0  0  0  0  0  0  0  0  0  0  # atno 8008 bound_to 7997
  154.5098  140.0804  156.8003 H   0  0  0  0  0  0  0  0  0  0  0  0  # atno 8009 bound_to 7997
  155.3839  140.3406  155.4250 H   0  0  0  0  0  0  0  0  0  0  0  0  # atno 8010 bound_to 7997
  140.6321  143.2464  151.5214 H   0  0  0  0  0  0  0  0  0  0  0  0  # atno 10167 bound_to 10162
  156.5903  130.4797  149.6282 H   0  0  0  0  0  0  0  0  0  0  0  0  # atno 10718 bound_to 10713
  152.9785  135.5882  154.4233 H   0  0  0  0  0  0  0  0  0  0  0  0  # atno 10763 bound_to 10752
  154.3855  135.2767  155.2188 H   0  0  0  0  0  0  0  0  0  0  0  0  # atno 10764 bound_to 10752
  154.4083  135.6087  153.5992 H   0  0  0  0  0  0  0  0  0  0  0  0  # atno 10765 bound_to 10752
  140.2641  134.3158  155.7848 H   0  0  0  0  0  0  0  0  0  0  0  0  # atno 11005 bound_to 11000
  144.6729  140.0940  143.7464 LP  0  0  0  0  0  0  0  0  0  0  0  0  # atno 17320 bound_to 7965
  145.9368  139.2642  143.1292 LP  0  0  0  0  0  0  0  0  0  0  0  0  # atno 17321 bound_to 7965
  139.5534  144.2337  152.1570 LP  0  0  0  0  0  0  0  0  0  0  0  0  # atno 17342 bound_to 10162
  140.1584  144.5049  150.6647 LP  0  0  0  0  0  0  0  0  0  0  0  0  # atno 17343 bound_to 10162
  156.2555  130.6932  151.1684 LP  0  0  0  0  0  0  0  0  0  0  0  0  # atno 17370 bound_to 10713
  157.7305  131.0616  150.5723 LP  0  0  0  0  0  0  0  0  0  0  0  0  # atno 17371 bound_to 10713
  141.2186  133.7427  156.9233 LP  0  0  0  0  0  0  0  0  0  0  0  0  # atno 17394 bound_to 11000
  140.1436  134.9277  157.2500 LP  0  0  0  0  0  0  0  0  0  0  0  0  # atno 17395 bound_to 11000

$$$$
