#       Name:                AV-unprocessed.smi:2837
#       Creating user name   scv26
#       Creation time:       Fri Mar 27 15:37:16 2020


#       File generated by GOLD software.
#

@<TRIPOS>MOLECULE
AV-unprocessed.smi:2837
    37    39     1
SMALL
NO_CHARGES


@<TRIPOS>ATOM
      1 ****        -6.7685   1.4668  -1.1286 F              1 S1                 0.0000
      2 ****        -5.5508   1.8204  -0.6521 C.3            1 S1                 0.0000
      3 ****        -5.7503   2.6415   0.4081 F              1 S1                 0.0000
      4 ****        -4.8675   0.7088  -0.2699 O.3            1 S1                 0.0000
      5 ****        -3.4909   0.7255  -0.2734 C.ar           1 S1                 0.0000
      6 ****        -2.8083  -0.5055  -0.3641 C.ar           1 S1                 0.0000
      7 ****        -1.3985  -0.5313  -0.3542 C.ar           1 S1                 0.0000
      8 ****        -0.6822   0.6841  -0.2452 C.ar           1 S1                 0.0000
      9 ****         0.7159   0.7828  -0.2220 N.pl3          1 S1                 0.0000
     10 ****         1.5622  -0.4005  -0.3116 C.3            1 S1                 0.0000
     11 ****         1.5602  -1.2436   0.9710 C.3            1 S1                 0.0000
     12 ****         3.0533  -1.2992   1.3172 C.3            1 S1                 0.0000
     13 ****         3.8524  -2.1434   0.3151 C.3            1 S1                 0.0000
     14 ****         3.8792  -1.2309  -0.9106 C.3            1 S1                 0.0000
     15 ****         3.0508  -0.0316  -0.4303 C.3            1 S1                 0.0000
     16 ****         3.4431   0.0067   0.9323 O.3            1 S1                 0.0000
     17 ****        -1.3721   1.8420  -0.1519 N.pl3          1 S1                 1.0000
     18 ****        -2.7214   1.9085  -0.1581 C.ar           1 S1                 0.0000
     19 ****        -5.0292   2.3628  -1.4411 H              1 S1                 0.0000
     20 ****        -3.3645  -1.4281  -0.4427 H              1 S1                 0.0000
     21 ****        -0.8909  -1.4812  -0.4280 H              1 S1                 0.0000
     22 ****         1.1527   1.6705  -0.0179 H              1 S1                 0.0000
     23 ****         1.2616  -0.9874  -1.1804 H              1 S1                 0.0000
     24 ****         1.0085  -0.7545   1.7754 H              1 S1                 0.0000
     25 ****         1.1317  -2.2353   0.8224 H              1 S1                 0.0000
     26 ****         3.2568  -1.5390   2.3612 H              1 S1                 0.0000
     27 ****         4.8647  -2.3249   0.6781 H              1 S1                 0.0000
     28 ****         3.3816  -3.1070   0.1173 H              1 S1                 0.0000
     29 ****         4.9020  -0.9272  -1.1367 H              1 S1                 0.0000
     30 ****         3.4593  -1.7014  -1.8002 H              1 S1                 0.0000
     31 ****         3.2489   0.8852  -0.9870 H              1 S1                 0.0000
     32 ****        -3.1331   2.9029  -0.0639 H              1 S1                 0.0000
     33 ****        -0.8481   2.7136  -0.0683 H              1 S1                 0.0000
     34 ****        -5.1511  -0.0312  -0.8798 LP             1 S1                 0.0000
     35 ****        -5.1536   0.4984   0.6649 LP             1 S1                 0.0000
     36 ****         4.4277   0.1487   1.0344 LP             1 S1                 0.0000
     37 ****         2.9501   0.7104   1.4440 LP             1 S1                 0.0000
@<TRIPOS>BOND
    1    1    2 1     
    2    2    3 1     
    3    2    4 1     
    4    2   19 1     
    5    4    5 1     
    6    5   18 ar    
    7    5    6 ar    
    8    6    7 ar    
    9    6   20 1     
   10    7    8 ar    
   11    7   21 1     
   12    8    9 1     
   13    8   17 ar    
   14    9   10 1     
   15    9   22 1     
   16   10   15 1     
   17   10   11 1     
   18   10   23 1     
   19   11   12 1     
   20   11   24 1     
   21   11   25 1     
   22   12   16 1     
   23   12   13 1     
   24   12   26 1     
   25   13   14 1     
   26   13   27 1     
   27   13   28 1     
   28   14   15 1     
   29   14   29 1     
   30   14   30 1     
   31   15   16 1     
   32   15   31 1     
   33   17   18 ar    
   34   17   33 1     
   35   18   32 1     
   36    4   34 1     
   37    4   35 1     
   38   16   36 1     
   39   16   37 1     
@<TRIPOS>SUBSTRUCTURE
      1 S1             1
@<TRIPOS>SET
LONE_PAIRS      STATIC     ATOMS    <user>   **** ""
4 34 35 36 37
DONOR_HYDROGENS      STATIC     ATOMS    <user>   **** ""
2 22 33
ATOM$BLUE        STATIC     ATOMS    COLORGROUP SYSTEM
4 34 35 36 37
ATOM$RED        STATIC     ATOMS    COLORGROUP SYSTEM
2 22 33
