AV-unprocessed.smi:2226|AV-procd|sdf|9013|dock9
  -GOLD-   2272012213D 1   1.00000     0.00000
 Structure written by MMmdl.
 40 42  0  0  0  0  0  0  0  0  2 V2000
  149.0944  135.0999  154.7975 C   0  0  0  0  0  0  0  0  0  0  0  0
  149.5915  136.4922  154.6885 N   0  3  2  0  0  0  0  0  0  0  0  0
  151.0446  136.6552  154.9310 C   0  0  2  0  0  0  0  0  0  0  0  0
  151.3990  136.4293  156.4226 C   0  0  0  0  0  0  0  0  0  0  0  0
  150.5428  137.2470  157.4068 C   0  0  0  0  0  0  0  0  0  0  0  0
  149.0603  137.3073  156.9977 C   0  0  0  0  0  0  0  0  0  0  0  0
  148.8294  137.4901  155.4769 C   0  0  1  0  0  0  0  0  0  0  0  0
  149.1327  138.9049  154.9305 C   0  0  0  0  0  0  0  0  0  0  0  0
  150.6346  139.2360  154.7083 C   0  0  1  0  0  0  0  0  0  0  0  0
  151.2213  139.9954  155.8099 N   0  0  0  0  0  0  0  0  0  0  0  0
  150.7518  141.1411  156.3272 C   0  0  0  0  0  0  0  0  0  0  0  0
  149.7306  141.6796  155.8883 O   0  0  0  0  0  0  0  0  0  0  0  0
  151.5572  141.5494  157.3803 N   0  0  0  0  0  0  0  0  0  0  0  0
  151.4693  142.7637  157.8303 C   0  0  0  0  0  0  0  0  0  0  0  0
  150.6716  143.8504  157.4811 N   0  0  0  0  0  0  0  0  0  0  0  0
  150.9970  144.8978  158.2967 C   0  0  0  0  0  0  0  0  0  0  0  0
  151.9551  144.4927  159.1248 C   0  0  0  0  0  0  0  0  0  0  0  0
  152.2639  143.1912  158.8640 O   0  0  0  0  0  0  0  0  0  0  0  0
  151.5055  138.0079  154.3391 C   0  0  0  0  0  0  0  0  0  0  0  0
  149.1951  134.7025  155.8069 H   0  0  0  0  0  0  0  0  0  0  0  0
  149.6458  134.4460  154.1213 H   0  0  0  0  0  0  0  0  0  0  0  0
  148.0417  135.0487  154.5183 H   0  0  0  0  0  0  0  0  0  0  0  0
  151.5645  135.8826  154.3621 H   0  0  0  0  0  0  0  0  0  0  0  0
  151.2700  135.3719  156.6553 H   0  0  0  0  0  0  0  0  0  0  0  0
  152.4562  136.6345  156.5936 H   0  0  0  0  0  0  0  0  0  0  0  0
  150.6257  136.8148  158.4043 H   0  0  0  0  0  0  0  0  0  0  0  0
  150.9442  138.2486  157.5165 H   0  0  0  0  0  0  0  0  0  0  0  0
  148.5796  136.3818  157.3160 H   0  0  0  0  0  0  0  0  0  0  0  0
  148.5567  138.0998  157.5525 H   0  0  0  0  0  0  0  0  0  0  0  0
  147.7678  137.3153  155.2948 H   0  0  0  0  0  0  0  0  0  0  0  0
  148.6440  138.9797  153.9579 H   0  0  0  0  0  0  0  0  0  0  0  0
  148.6450  139.6614  155.5463 H   0  0  0  0  0  0  0  0  0  0  0  0
  150.6872  139.9072  153.8488 H   0  0  0  0  0  0  0  0  0  0  0  0
  152.0604  139.6140  156.2228 H   0  0  0  0  0  0  0  0  0  0  0  0
  149.9675  143.9034  156.7590 H   0  0  0  0  0  0  0  0  0  0  0  0
  150.4937  145.8478  158.1941 H   0  0  0  0  0  0  0  0  0  0  0  0
  152.4962  144.9869  159.9182 H   0  0  0  0  0  0  0  0  0  0  0  0
  152.5557  138.1901  154.5719 H   0  0  0  0  0  0  0  0  0  0  0  0
  151.4714  137.9056  153.2533 H   0  0  0  0  0  0  0  0  0  0  0  0
  149.4463  136.7404  153.7203 H   0  0  0  0  0  0  0  0  0  0  0  0
  1  2  1  0  0  0  0
  1 20  1  0  0  0  0
  1 21  1  0  0  0  0
  1 22  1  0  0  0  0
  2  7  1  0  0  0  0
  2  3  1  0  0  0  0
  2 40  1  0  0  0  0
  3 19  1  0  0  0  0
  3  4  1  0  0  0  0
  3 23  1  0  0  0  0
  4  5  1  0  0  0  0
  4 24  1  0  0  0  0
  4 25  1  0  0  0  0
  5  6  1  0  0  0  0
  5 26  1  0  0  0  0
  5 27  1  0  0  0  0
  6  7  1  0  0  0  0
  6 28  1  0  0  0  0
  6 29  1  0  0  0  0
  7  8  1  0  0  0  0
  7 30  1  0  0  0  0
  8  9  1  0  0  0  0
  8 31  1  0  0  0  0
  8 32  1  0  0  0  0
  9 10  1  0  0  0  0
  9 19  1  0  0  0  0
  9 33  1  0  0  0  0
 10 34  1  0  0  0  0
 10 11  1  0  0  0  0
 11 13  1  0  0  0  0
 11 12  2  0  0  0  0
 13 14  2  0  0  0  0
 14 18  1  0  0  0  0
 14 15  1  0  0  0  0
 15 35  1  0  0  0  0
 15 16  1  0  0  0  0
 16 36  1  0  0  0  0
 16 17  2  0  0  0  0
 17 37  1  0  0  0  0
 17 18  1  0  0  0  0
 19 38  1  0  0  0  0
 19 39  1  0  0  0  0
M  CHG  1   2   1
M  END
> <s_m_source_file>
AV-unprocessed.smi

> <i_m_source_file_index>
2226

> <i_lp_mmshare_version>
43012

> <i_f3d_flags>
0

> <s_epik_input>
W0NIMl0xW0NIMl1bQ0gyXVtDQEhdKE4oW0NIM10pW0NIXTEyKVtDSDJdW0NASF0oW0NIMl0yKVtOSF1DKD1PKVtOSF1jM25bY0hdW2NIXW8z

> <s_epik_cmdline>
J2VwaWtfcHl0aG9uJywgJy1waCcsICc3LjAnLCAnLXRuJywgJzgnLCAnLW1hJywgJzIwMCcsICctbWV0YWxfYmluZGluZycsICctaW1hZScsICc8aW5maWxlLm1hZT4nLCAnLW9tYWUnLCAnPG91dGZpbGUubWFlPic=

> <r_lp_tautomer_probability>
0.107061

> <r_epik_Ionization_Penalty>
1.08307

> <r_epik_Ionization_Penalty_Charging>
1.08272

> <r_epik_Ionization_Penalty_Neutral>
0.000345913

> <r_epik_State_Penalty>
2.5744

> <r_epik_Charging_Adjusted_Penalty>
3.65713

> <i_epik_Tot_Q>
1

> <i_epik_Tot_abs_Q>
1

> <r_epik_Metal_State_Penalty>
3.72133

> <b_epik_Metal_Only>
0

> <s_lp_Force_Field>
OPLS_2005

> <r_lp_Energy>
59.8025

> <b_lp_Chiralities_Consistent>
1

> <s_lp_Variant>
AV-unprocessed.smi:2226-13

> <Gold.Version>
5.8.1

> <Gold.Id.Protein>
6NUR|6NUR_protein|mol2

> <Gold.PLP.Fitness>
38.6051

> <Gold.PLP.PLP>
-28.5642

> <Gold.PLP.part.hbond>
-2.0000

> <Gold.PLP.part.metal>
0.0000

> <Gold.PLP.part.buried>
-4.8749

> <Gold.PLP.part.nonpolar>
-22.1876

> <Gold.PLP.part.repulsive>
0.2946

> <Gold.PLP.ligand.clash>
0.0000

> <Gold.PLP.ligand.torsion>
0.0846

> <Gold.PLP.Chemscore.Hbond>
3.0000

> <Gold.PLP.Chemscore.CHOScore>
0.3863

> <Gold.PLP.Chemscore.Metal>
0.0000

> <Gold.Chemscore.Hbonds>
donor molecule, donor type, donor heavy atom, donor atom, acceptor molecule, acceptor atom, score
      L1  H     2    40       P1  7948  2.00
      L1  H    15    35       P1  8028  1.00
      L1  C    16    36       P1  8029  0.41

> <Gold.PLP.Chemscore.Internal.Correction>
0.0513

> <Gold.Rescore>
     Score         DG    S(hbond)    S(metal)    S(lipo)     H(rot)  DE(clash)    DE(int)     intcor
     16.92     -17.09       1.90        0.00      66.73       1.00       0.04       0.13       ----

> <Gold.Chemscore.Fitness>
16.9151

> <Gold.Chemscore.DG>
-17.0874

> <Gold.Chemscore.ZeroCoef>
-5.4800

> <Gold.Chemscore.Hbond>
1.9040

> <Gold.Chemscore.Metal>
0.0000

> <Gold.Chemscore.Lipo>
66.7344

> <Gold.Chemscore.Internal_Hbond>
0.0000

> <Gold.Chemscore.DEClash>
0.0436

> <Gold.Chemscore.DEInternal>
0.1286

> <Gold.Chemscore.Rot>
1.0000

> <Gold.Chemscore.Internal.Correction>
   9.000000E+99

> <Gold.Chemscore.Hbonds>
donor molecule, donor type, donor heavy atom, donor atom, acceptor molecule, acceptor atom, score
      L1  H     2    40       P1  7948  0.82
      L1  H    15    35       P1  8028  0.97

> <Gold.Chemscore.Hbond.Weighted>
-6.3594

> <Gold.Chemscore.Metal.Weighted>
-0.0000

> <Gold.Chemscore.Lipo.Weighted>
-7.8079

> <Gold.Chemscore.Internal_Hbond.Weighted>
0.0000

> <Gold.Chemscore.DEClash.Weighted>
0.0436

> <Gold.Chemscore.DEInternal.Weighted>
0.1286

> <Gold.Chemscore.Rot.Weighted>
2.5600

> <Gold.Chemscore.Internal.Correction.Weighted>
   9.000000E+99

> <Gold.Protein.RotatedTorsions>
[ 6907 6896 6895 6894 ] final  168.17 input  -60.11 | X-H torsion
[ 7974 7965 7964 7962 ] final  -23.50 input  175.53 | X-H torsion
[ 8008 7997 7996 7995 ] final   46.31 input   59.86 | X-H torsion
[ 10167 10162 10161 10158 ] final   71.29 input  -65.29 | X-H torsion
[ 10718 10713 10712 10709 ] final -167.23 input   66.30 | X-H torsion
[ 10763 10752 10751 10750 ] final  -27.63 input  -60.55 | X-H torsion
[ 11005 11000 10999 10996 ] final  -10.27 input  -57.11 | X-H torsion

> <Gold.Protein.ActiveResidues>
 VAL166  LYS551  ARG553  GLY616  TRP617  ASP618  TYR619  PRO620  LYS621  CYS622 
 ASP623  PHE694  ASN695  SER759  ASP760  ASP761  ALA762  ILE779  LEU786  VAL792 
 PHE793  MET794  SER795  GLU796  ALA797  LYS798  CYS799  TRP800  GLU811  SER814 

> <Gold.Protein.RotatedAtoms>
  151.8519  133.3441  159.3675 H   0  0  0  0  0  0  0  0  0  0  0  0  # atno 6907 bound_to 6896
  150.7204  134.5291  159.5700 H   0  0  0  0  0  0  0  0  0  0  0  0  # atno 6908 bound_to 6896
  152.2786  134.7854  160.0452 H   0  0  0  0  0  0  0  0  0  0  0  0  # atno 6909 bound_to 6896
  146.1612  140.4624  142.8570 H   0  0  0  0  0  0  0  0  0  0  0  0  # atno 7974 bound_to 7965
  155.3503  140.3413  155.4239 H   0  0  0  0  0  0  0  0  0  0  0  0  # atno 8008 bound_to 7997
  156.1767  140.1650  156.8385 H   0  0  0  0  0  0  0  0  0  0  0  0  # atno 8009 bound_to 7997
  154.5290  140.0749  156.8293 H   0  0  0  0  0  0  0  0  0  0  0  0  # atno 8010 bound_to 7997
  140.0477  144.5337  150.7386 H   0  0  0  0  0  0  0  0  0  0  0  0  # atno 10167 bound_to 10162
  156.6794  130.9116  151.3055 H   0  0  0  0  0  0  0  0  0  0  0  0  # atno 10718 bound_to 10713
  153.7353  135.6936  153.4979 H   0  0  0  0  0  0  0  0  0  0  0  0  # atno 10763 bound_to 10752
  153.2107  135.4404  155.0375 H   0  0  0  0  0  0  0  0  0  0  0  0  # atno 10764 bound_to 10752
  154.8239  135.3436  154.6881 H   0  0  0  0  0  0  0  0  0  0  0  0  # atno 10765 bound_to 10752
  140.7430  133.8655  155.8983 H   0  0  0  0  0  0  0  0  0  0  0  0  # atno 11005 bound_to 11000
  144.8030  140.6248  143.6465 LP  0  0  0  0  0  0  0  0  0  0  0  0  # atno 17320 bound_to 7965
  145.4582  139.1515  143.3880 LP  0  0  0  0  0  0  0  0  0  0  0  0  # atno 17321 bound_to 7965
  140.7231  143.2608  151.4212 LP  0  0  0  0  0  0  0  0  0  0  0  0  # atno 17342 bound_to 10162
  139.5973  144.1371  152.2158 LP  0  0  0  0  0  0  0  0  0  0  0  0  # atno 17343 bound_to 10162
  157.7049  130.9374  150.0899 LP  0  0  0  0  0  0  0  0  0  0  0  0  # atno 17370 bound_to 10713
  156.1879  130.3653  149.8949 LP  0  0  0  0  0  0  0  0  0  0  0  0  # atno 17371 bound_to 10713
  140.9820  134.1393  157.4486 LP  0  0  0  0  0  0  0  0  0  0  0  0  # atno 17394 bound_to 11000
  139.8802  135.0013  156.6062 LP  0  0  0  0  0  0  0  0  0  0  0  0  # atno 17395 bound_to 11000

$$$$
