AV-unprocessed.smi:103|AV-procd|sdf|987|dock10
  -GOLD-   2262017563D 1   1.00000     0.00000
 Structure written by MMmdl.
 53 55  0  0  0  0  0  0  0  0  1 V2000
  145.3302  136.8401  161.4706 C   0  0  0  0  0  0  0  0  0  0  0  0
  146.7130  136.5721  160.8909 C   0  0  0  0  0  0  0  0  0  0  0  0
  147.6984  137.2138  161.2554 O   0  0  0  0  0  0  0  0  0  0  0  0
  146.7044  135.5894  159.9774 O   0  0  0  0  0  0  0  0  0  0  0  0
  147.9134  135.2247  159.3325 C   0  0  0  0  0  0  0  0  0  0  0  0
  148.5051  136.4474  158.6169 C   0  0  2  0  0  0  0  0  0  0  0  0
  147.4977  137.1768  157.9324 O   0  0  0  0  0  0  0  0  0  0  0  0
  148.1254  138.0069  157.0115 C   0  0  2  0  0  0  0  0  0  0  0  0
  147.1660  138.2870  155.9010 N   0  0  0  0  0  0  0  0  0  0  0  0
  146.7602  139.4898  155.3587 C   0  0  0  0  0  0  0  0  0  0  0  0
  147.2748  141.1208  155.8832 S   0  0  0  0  0  0  0  0  0  0  0  0
  148.3678  141.6383  154.4985 C   0  0  0  0  0  0  0  0  0  0  0  0
  146.0738  141.9695  155.8973 O   0  0  0  0  0  0  0  0  0  0  0  0
  148.0815  140.9472  157.1014 O   0  0  0  0  0  0  0  0  0  0  0  0
  145.8450  139.4329  154.4291 N   0  0  0  0  0  0  0  0  0  0  0  0
  145.6443  138.0690  154.2681 C   0  0  0  0  0  0  0  0  0  0  0  0
  144.8191  137.2864  153.4218 C   0  0  0  0  0  0  0  0  0  0  0  0
  143.9861  137.8185  152.5169 N   0  0  0  0  0  0  0  0  0  0  0  0
  144.8746  135.9383  153.5308 N   0  0  0  0  0  0  0  0  0  0  0  0
  145.6970  135.3825  154.4266 C   0  0  0  0  0  0  0  0  0  0  0  0
  146.5236  135.9825  155.2872 N   0  0  0  0  0  0  0  0  0  0  0  0
  146.4677  137.3427  155.1753 C   0  0  0  0  0  0  0  0  0  0  0  0
  149.3473  137.2345  156.4894 C   0  0  1  0  0  0  0  0  0  0  0  0
  150.4835  138.0669  156.2385 O   0  0  0  0  0  0  0  0  0  0  0  0
  151.4611  137.7523  155.3595 C   0  0  0  0  0  0  0  0  0  0  0  0
  152.4494  138.8944  155.1683 C   0  0  0  0  0  0  0  0  0  0  0  0
  151.5947  136.6848  154.7625 O   0  0  0  0  0  0  0  0  0  0  0  0
  149.5476  136.1278  157.5313 C   0  0  2  0  0  0  0  0  0  0  0  0
  149.3024  134.8582  156.9350 O   0  0  0  0  0  0  0  0  0  0  0  0
  150.3265  134.0451  156.6241 C   0  0  0  0  0  0  0  0  0  0  0  0
  150.0209  133.1637  155.4211 C   0  0  0  0  0  0  0  0  0  0  0  0
  151.4080  133.9846  157.2093 O   0  0  0  0  0  0  0  0  0  0  0  0
  144.5823  136.8645  160.6781 H   0  0  0  0  0  0  0  0  0  0  0  0
  145.3125  137.7982  161.9907 H   0  0  0  0  0  0  0  0  0  0  0  0
  145.0605  136.0566  162.1790 H   0  0  0  0  0  0  0  0  0  0  0  0
  148.6168  134.8640  160.0845 H   0  0  0  0  0  0  0  0  0  0  0  0
  147.7401  134.4116  158.6259 H   0  0  0  0  0  0  0  0  0  0  0  0
  148.9637  137.1116  159.3511 H   0  0  0  0  0  0  0  0  0  0  0  0
  148.3455  138.9619  157.4834 H   0  0  0  0  0  0  0  0  0  0  0  0
  148.7556  142.6369  154.6975 H   0  0  0  0  0  0  0  0  0  0  0  0
  147.8022  141.6471  153.5675 H   0  0  0  0  0  0  0  0  0  0  0  0
  149.1981  140.9377  154.4114 H   0  0  0  0  0  0  0  0  0  0  0  0
  143.9267  138.8217  152.4154 H   0  0  0  0  0  0  0  0  0  0  0  0
  143.4205  137.2159  151.9366 H   0  0  0  0  0  0  0  0  0  0  0  0
  145.6905  134.3031  154.4607 H   0  0  0  0  0  0  0  0  0  0  0  0
  149.0764  136.7757  155.5379 H   0  0  0  0  0  0  0  0  0  0  0  0
  151.9250  139.8078  154.8870 H   0  0  0  0  0  0  0  0  0  0  0  0
  153.1678  138.6528  154.3846 H   0  0  0  0  0  0  0  0  0  0  0  0
  152.9958  139.0779  156.0934 H   0  0  0  0  0  0  0  0  0  0  0  0
  150.5461  136.1395  157.9708 H   0  0  0  0  0  0  0  0  0  0  0  0
  149.1301  132.5637  155.6077 H   0  0  0  0  0  0  0  0  0  0  0  0
  150.8544  132.4912  155.2176 H   0  0  0  0  0  0  0  0  0  0  0  0
  149.8478  133.7774  154.5369 H   0  0  0  0  0  0  0  0  0  0  0  0
  1  2  1  0  0  0  0
  1 33  1  0  0  0  0
  1 34  1  0  0  0  0
  1 35  1  0  0  0  0
  2  3  2  0  0  0  0
  2  4  1  0  0  0  0
  4  5  1  0  0  0  0
  5  6  1  0  0  0  0
  5 36  1  0  0  0  0
  5 37  1  0  0  0  0
  6 28  1  0  0  0  0
  6  7  1  0  0  0  0
  6 38  1  0  0  0  0
  7  8  1  0  0  0  0
  8  9  1  0  0  0  0
  8 23  1  0  0  0  0
  8 39  1  0  0  0  0
  9 22  1  0  0  0  0
  9 10  1  0  0  0  0
 10 11  1  0  0  0  0
 10 15  2  0  0  0  0
 11 12  1  0  0  0  0
 11 13  2  0  0  0  0
 11 14  2  0  0  0  0
 12 40  1  0  0  0  0
 12 41  1  0  0  0  0
 12 42  1  0  0  0  0
 15 16  1  0  0  0  0
 16 22  2  0  0  0  0
 16 17  1  0  0  0  0
 17 18  1  0  0  0  0
 17 19  2  0  0  0  0
 18 43  1  0  0  0  0
 18 44  1  0  0  0  0
 19 20  1  0  0  0  0
 20 21  2  0  0  0  0
 20 45  1  0  0  0  0
 21 22  1  0  0  0  0
 23 24  1  0  0  0  0
 23 28  1  0  0  0  0
 23 46  1  0  0  0  0
 24 25  1  0  0  0  0
 25 26  1  0  0  0  0
 25 27  2  0  0  0  0
 26 47  1  0  0  0  0
 26 48  1  0  0  0  0
 26 49  1  0  0  0  0
 28 29  1  0  0  0  0
 28 50  1  0  0  0  0
 29 30  1  0  0  0  0
 30 31  1  0  0  0  0
 30 32  2  0  0  0  0
 31 51  1  0  0  0  0
 31 52  1  0  0  0  0
 31 53  1  0  0  0  0
M  END
> <s_m_source_file>
AV-unprocessed.smi

> <i_m_source_file_index>
103

> <i_lp_mmshare_version>
43012

> <i_f3d_flags>
0

> <s_epik_input>
W0NIM11DKD1PKU9bQ0gyXVtDQEBIXTFPW0NASF0oW0NAQEhdKE9DKD1PKVtDSDNdKVtDQEhdMU9DKD1PKVtDSDNdKW4oYyhuMilTKD1PKSg9TylbQ0gzXSljKGMyMyluW2NIXW5jM1tOSDJd

> <s_epik_cmdline>
J2VwaWtfcHl0aG9uJywgJy1waCcsICc3LjAnLCAnLXRuJywgJzgnLCAnLW1hJywgJzIwMCcsICctbWV0YWxfYmluZGluZycsICctaW1hZScsICc8aW5maWxlLm1hZT4nLCAnLW9tYWUnLCAnPG91dGZpbGUubWFlPic=

> <r_lp_tautomer_probability>
1

> <r_epik_Ionization_Penalty>
1.51338e-05

> <r_epik_Ionization_Penalty_Charging>
0

> <r_epik_Ionization_Penalty_Neutral>
1.51338e-05

> <r_epik_State_Penalty>
-0

> <r_epik_Charging_Adjusted_Penalty>
0

> <i_epik_Tot_Q>
0

> <i_epik_Tot_abs_Q>
0

> <r_epik_Metal_State_Penalty>
-0

> <b_epik_Metal_Only>
0

> <s_epik_Chemistry_Notes>
This compound has an ester and may undergo hydrolysis at high or low pH. This compound contains an acetal/aminal-like group ( X-CH(R)-Y where X, Y are N, S, or O) that may be acid/base labile, releasing an aldehyde.

> <s_lp_Force_Field>
OPLS_2005

> <r_lp_Energy>
18.7655

> <b_lp_Chiralities_Consistent>
1

> <s_lp_Variant>
AV-unprocessed.smi:103-11

> <Gold.Version>
5.8.1

> <Gold.Id.Protein>
6NUR|6NUR_protein|mol2

> <Gold.PLP.Fitness>
37.3459

> <Gold.PLP.PLP>
-27.4239

> <Gold.PLP.part.hbond>
-6.0000

> <Gold.PLP.part.metal>
0.0000

> <Gold.PLP.part.buried>
-6.2216

> <Gold.PLP.part.nonpolar>
-16.6581

> <Gold.PLP.part.repulsive>
0.5355

> <Gold.PLP.ligand.clash>
0.0000

> <Gold.PLP.ligand.torsion>
2.5619

> <Gold.PLP.Chemscore.Hbond>
4.2995

> <Gold.PLP.Chemscore.CHOScore>
0.0000

> <Gold.PLP.Chemscore.Metal>
0.0000

> <Gold.Chemscore.Hbonds>
donor molecule, donor type, donor heavy atom, donor atom, acceptor molecule, acceptor atom, score
      L1  H    18    43       P1 10175  1.00
      P1  H  6896  6909       L1    32  0.36
      P1  H  6931  6943       L1     3  0.94
      P1  H  6934  6947       L1     3  0.83
      P1  H 10752 10765       L1    27  1.00

> <Gold.PLP.Chemscore.Internal.Correction>
2.1471

> <Gold.Rescore>
     Score         DG    S(hbond)    S(metal)    S(lipo)     H(rot)  DE(clash)    DE(int)     intcor
      7.93     -13.07       4.28        0.00      35.48       4.25       0.00       5.14       ----

> <Gold.Chemscore.Fitness>
7.9311

> <Gold.Chemscore.DG>
-13.0725

> <Gold.Chemscore.ZeroCoef>
-5.4800

> <Gold.Chemscore.Hbond>
4.2846

> <Gold.Chemscore.Metal>
0.0000

> <Gold.Chemscore.Lipo>
35.4764

> <Gold.Chemscore.Internal_Hbond>
0.0000

> <Gold.Chemscore.DEClash>
0.0000

> <Gold.Chemscore.DEInternal>
5.1414

> <Gold.Chemscore.Rot>
4.2456

> <Gold.Chemscore.Internal.Correction>
   9.000000E+99

> <Gold.Chemscore.Hbonds>
donor molecule, donor type, donor heavy atom, donor atom, acceptor molecule, acceptor atom, score
      L1  H    18    43       P1 10175  1.00
      P1  H  6896  6909       L1    32  0.28
      P1  H  6931  6943       L1     3  0.91
      P1  H  6934  6947       L1     3  0.37
      P1  H 10752 10765       L1    27  0.98

> <Gold.Chemscore.Hbond.Weighted>
-14.3104

> <Gold.Chemscore.Metal.Weighted>
-0.0000

> <Gold.Chemscore.Lipo.Weighted>
-4.1507

> <Gold.Chemscore.Internal_Hbond.Weighted>
0.0000

> <Gold.Chemscore.DEClash.Weighted>
0.0000

> <Gold.Chemscore.DEInternal.Weighted>
5.1414

> <Gold.Chemscore.Rot.Weighted>
10.8687

> <Gold.Chemscore.Internal.Correction.Weighted>
   9.000000E+99

> <Gold.Protein.RotatedTorsions>
[ 6907 6896 6895 6894 ] final  -28.57 input  -60.11 | X-H torsion
[ 7974 7965 7964 7962 ] final   99.06 input  175.53 | X-H torsion
[ 8008 7997 7996 7995 ] final -155.28 input   59.86 | X-H torsion
[ 10167 10162 10161 10158 ] final  118.46 input  -65.29 | X-H torsion
[ 10718 10713 10712 10709 ] final   81.42 input   66.30 | X-H torsion
[ 10763 10752 10751 10750 ] final -171.80 input  -60.55 | X-H torsion
[ 11005 11000 10999 10996 ] final -122.23 input  -57.11 | X-H torsion

> <Gold.Protein.ActiveResidues>
 VAL166  LYS551  ARG553  GLY616  TRP617  ASP618  TYR619  PRO620  LYS621  CYS622 
 ASP623  PHE694  ASN695  SER759  ASP760  ASP761  ALA762  ILE779  LEU786  VAL792 
 PHE793  MET794  SER795  GLU796  ALA797  LYS798  CYS799  TRP800  GLU811  SER814 

> <Gold.Protein.RotatedAtoms>
  151.1311  135.0131  159.8582 H   0  0  0  0  0  0  0  0  0  0  0  0  # atno 6907 bound_to 6896
  152.5451  134.1609  159.8567 H   0  0  0  0  0  0  0  0  0  0  0  0  # atno 6908 bound_to 6896
  151.1676  133.4760  159.2627 H   0  0  0  0  0  0  0  0  0  0  0  0  # atno 6909 bound_to 6896
  145.4038  139.2343  143.3285 H   0  0  0  0  0  0  0  0  0  0  0  0  # atno 7974 bound_to 7965
  155.6993  140.0765  157.2416 H   0  0  0  0  0  0  0  0  0  0  0  0  # atno 8008 bound_to 7997
  154.4075  140.1650  156.2226 H   0  0  0  0  0  0  0  0  0  0  0  0  # atno 8009 bound_to 7997
  155.9382  140.3386  155.6308 H   0  0  0  0  0  0  0  0  0  0  0  0  # atno 8010 bound_to 7997
  139.6110  144.7081  151.2845 H   0  0  0  0  0  0  0  0  0  0  0  0  # atno 10167 bound_to 10162
  157.6832  131.0003  150.2225 H   0  0  0  0  0  0  0  0  0  0  0  0  # atno 10718 bound_to 10713
  154.6265  135.2881  155.0266 H   0  0  0  0  0  0  0  0  0  0  0  0  # atno 10763 bound_to 10752
  154.1442  135.6514  153.4953 H   0  0  0  0  0  0  0  0  0  0  0  0  # atno 10764 bound_to 10752
  153.0259  135.5340  154.7075 H   0  0  0  0  0  0  0  0  0  0  0  0  # atno 10765 bound_to 10752
  141.0011  134.0402  157.3537 H   0  0  0  0  0  0  0  0  0  0  0  0  # atno 11005 bound_to 11000
  146.2739  140.4740  142.8803 LP  0  0  0  0  0  0  0  0  0  0  0  0  # atno 17320 bound_to 7965
  144.8355  140.6776  143.6263 LP  0  0  0  0  0  0  0  0  0  0  0  0  # atno 17321 bound_to 7965
  140.7319  143.6839  150.7978 LP  0  0  0  0  0  0  0  0  0  0  0  0  # atno 17342 bound_to 10162
  140.0434  143.5323  152.2707 LP  0  0  0  0  0  0  0  0  0  0  0  0  # atno 17343 bound_to 10162
  156.2873  130.3741  149.7876 LP  0  0  0  0  0  0  0  0  0  0  0  0  # atno 17370 bound_to 10713
  156.5546  130.8357  151.3310 LP  0  0  0  0  0  0  0  0  0  0  0  0  # atno 17371 bound_to 10713
  139.9039  135.0173  156.7397 LP  0  0  0  0  0  0  0  0  0  0  0  0  # atno 17394 bound_to 11000
  140.6888  133.9408  155.7954 LP  0  0  0  0  0  0  0  0  0  0  0  0  # atno 17395 bound_to 11000

$$$$
