AV-unprocessed.smi:44|AV-procd|sdf|406|dock8
  -GOLD-   2262016263D 1   1.00000     0.00000
 Structure written by MMmdl.
 28 30  0  0  0  0  0  0  0  0  2 V2000
  152.4440  138.0749  154.6408 O   0  0  0  0  0  0  0  0  0  0  0  0
  152.4696  138.5735  155.7643 C   0  0  0  0  0  0  0  0  0  0  0  0
  153.1319  138.0535  156.8464 N   0  5  0  0  0  0  0  0  0  0  0  0
  153.0840  138.7196  158.0695 C   0  0  0  0  0  0  0  0  0  0  0  0
  152.4672  139.8183  158.3445 N   0  0  0  0  0  0  0  0  0  0  0  0
  151.7900  140.3612  157.2722 C   0  0  0  0  0  0  0  0  0  0  0  0
  151.7316  139.8454  156.0058 C   0  0  0  0  0  0  0  0  0  0  0  0
  150.9650  140.6490  155.1708 N   0  0  0  0  0  0  0  0  0  0  0  0
  150.5908  141.6291  155.9931 C   0  0  0  0  0  0  0  0  0  0  0  0
  151.0339  141.5265  157.2646 N   0  0  0  0  0  0  0  0  0  0  0  0
  150.7932  142.4509  158.4187 C   0  0  2  0  0  0  0  0  0  0  0  0
  151.3916  143.8239  158.1096 C   0  0  0  0  0  0  0  0  0  0  0  0
  152.8094  143.6450  158.6034 C   0  0  0  0  0  0  0  0  0  0  0  0
  152.5859  142.8039  159.8600 C   0  0  2  0  0  0  0  0  0  0  0  0
  153.8145  141.9766  160.2669 C   0  0  0  0  0  0  0  0  0  0  0  0
  153.6157  141.4100  161.5440 O   0  0  0  0  0  0  0  0  0  0  0  0
  151.4835  141.9550  159.5306 O   0  0  0  0  0  0  0  0  0  0  0  0
  149.7117  142.4457  158.5584 H   0  0  0  0  0  0  0  0  0  0  0  0
  152.2815  143.4684  160.6708 H   0  0  0  0  0  0  0  0  0  0  0  0
  153.6563  138.1958  158.8394 H   0  0  0  0  0  0  0  0  0  0  0  0
  149.9737  142.4466  155.6535 H   0  0  0  0  0  0  0  0  0  0  0  0
  151.3159  144.0836  157.0530 H   0  0  0  0  0  0  0  0  0  0  0  0
  150.8675  144.5770  158.6993 H   0  0  0  0  0  0  0  0  0  0  0  0
  153.3992  143.0967  157.8671 H   0  0  0  0  0  0  0  0  0  0  0  0
  153.3124  144.5902  158.8084 H   0  0  0  0  0  0  0  0  0  0  0  0
  154.0361  141.1989  159.5367 H   0  0  0  0  0  0  0  0  0  0  0  0
  154.6929  142.6195  160.3292 H   0  0  0  0  0  0  0  0  0  0  0  0
  152.8536  140.8523  161.5107 H   0  0  0  0  0  0  0  0  0  0  0  0
  1  2  2  0  0  0  0
  2  7  1  0  0  0  0
  2  3  1  0  0  0  0
  3  4  1  0  0  0  0
  4  5  2  0  0  0  0
  4 20  1  0  0  0  0
  5  6  1  0  0  0  0
  6 10  1  0  0  0  0
  6  7  2  0  0  0  0
  7  8  1  0  0  0  0
  8  9  2  0  0  0  0
  9 10  1  0  0  0  0
  9 21  1  0  0  0  0
 10 11  1  0  0  0  0
 11 18  1  0  0  0  0
 11 17  1  0  0  0  0
 11 12  1  0  0  0  0
 12 13  1  0  0  0  0
 12 22  1  0  0  0  0
 12 23  1  0  0  0  0
 13 14  1  0  0  0  0
 13 24  1  0  0  0  0
 13 25  1  0  0  0  0
 14 19  1  0  0  0  0
 14 15  1  0  0  0  0
 14 17  1  0  0  0  0
 15 16  1  0  0  0  0
 15 26  1  0  0  0  0
 15 27  1  0  0  0  0
 16 28  1  0  0  0  0
M  CHG  1   3  -1
M  END
> <s_m_source_file>
AV-unprocessed.smi

> <i_m_source_file_index>
44

> <i_lp_mmshare_version>
43012

> <i_f3d_flags>
0

> <s_epik_input>
bjFbY0hdW25IXWMoPU8pYyhjMTIpbltjSF1uMltDQEhdM1tDSDJdW0NIMl1bQ0BIXShPMylbQ0gyXVtPSF0=

> <s_epik_cmdline>
J2VwaWtfcHl0aG9uJywgJy1waCcsICc3LjAnLCAnLXRuJywgJzgnLCAnLW1hJywgJzIwMCcsICctbWV0YWxfYmluZGluZycsICctaW1hZScsICc8aW5maWxlLm1hZT4nLCAnLW9tYWUnLCAnPG91dGZpbGUubWFlPic=

> <r_lp_tautomer_probability>
0.85571

> <r_epik_Ionization_Penalty>
2.55863

> <r_epik_Ionization_Penalty_Charging>
1.36424e-10

> <r_epik_Ionization_Penalty_Neutral>
2.55863

> <r_epik_State_Penalty>
2.63326

> <r_epik_Charging_Adjusted_Penalty>
2.63326

> <i_epik_Tot_Q>
-1

> <i_epik_Tot_abs_Q>
1

> <r_epik_Metal_State_Penalty>
0.475154

> <b_epik_Metal_Only>
1

> <s_epik_Chemistry_Notes>
This compound contains an acetal/aminal-like group ( X-CH(R)-Y where X, Y are N, S, or O) that may be acid/base labile, releasing an aldehyde.

> <s_lp_Force_Field>
OPLS_2005

> <r_lp_Energy>
44.8592

> <b_lp_Chiralities_Consistent>
1

> <s_lp_Variant>
AV-unprocessed.smi:44-12

> <Gold.Version>
5.8.1

> <Gold.Id.Protein>
6NUR|6NUR_protein|mol2

> <Gold.PLP.Fitness>
39.9391

> <Gold.PLP.PLP>
-34.3329

> <Gold.PLP.part.hbond>
-2.0827

> <Gold.PLP.part.metal>
0.0000

> <Gold.PLP.part.buried>
-4.4181

> <Gold.PLP.part.nonpolar>
-27.3878

> <Gold.PLP.part.repulsive>
0.1211

> <Gold.PLP.ligand.clash>
0.0000

> <Gold.PLP.ligand.torsion>
0.0746

> <Gold.PLP.Chemscore.Hbond>
0.9120

> <Gold.PLP.Chemscore.CHOScore>
1.0000

> <Gold.PLP.Chemscore.Metal>
0.0000

> <Gold.Chemscore.Hbonds>
donor molecule, donor type, donor heavy atom, donor atom, acceptor molecule, acceptor atom, score
      P1  H  7989  7998       L1     8  0.91
      L1  C     9    21       P1  8028  1.00

> <Gold.PLP.Chemscore.Internal.Correction>
0.0195

> <Gold.Rescore>
     Score         DG    S(hbond)    S(metal)    S(lipo)     H(rot)  DE(clash)    DE(int)     intcor
      8.47     -10.17       1.23        0.00      54.47       2.26       0.02       1.67       ----

> <Gold.Chemscore.Fitness>
8.4715

> <Gold.Chemscore.DG>
-10.1680

> <Gold.Chemscore.ZeroCoef>
-5.4800

> <Gold.Chemscore.Hbond>
1.2269

> <Gold.Chemscore.Metal>
0.0000

> <Gold.Chemscore.Lipo>
54.4663

> <Gold.Chemscore.Internal_Hbond>
0.0000

> <Gold.Chemscore.DEClash>
0.0234

> <Gold.Chemscore.DEInternal>
1.6731

> <Gold.Chemscore.Rot>
2.2588

> <Gold.Chemscore.Internal.Correction>
   9.000000E+99

> <Gold.Chemscore.Hbonds>
donor molecule, donor type, donor heavy atom, donor atom, acceptor molecule, acceptor atom, score
      P1  H  7989  7998       L1     8  0.80

> <Gold.Chemscore.Hbond.Weighted>
-4.0979

> <Gold.Chemscore.Metal.Weighted>
-0.0000

> <Gold.Chemscore.Lipo.Weighted>
-6.3726

> <Gold.Chemscore.Internal_Hbond.Weighted>
0.0000

> <Gold.Chemscore.DEClash.Weighted>
0.0234

> <Gold.Chemscore.DEInternal.Weighted>
1.6731

> <Gold.Chemscore.Rot.Weighted>
5.7825

> <Gold.Chemscore.Internal.Correction.Weighted>
   9.000000E+99

> <Gold.Protein.RotatedTorsions>
[ 6907 6896 6895 6894 ] final  146.35 input  -60.11 | X-H torsion
[ 7974 7965 7964 7962 ] final   87.87 input  175.53 | X-H torsion
[ 8008 7997 7996 7995 ] final -150.44 input   59.86 | X-H torsion
[ 10167 10162 10161 10158 ] final -110.66 input  -65.29 | X-H torsion
[ 10718 10713 10712 10709 ] final  100.34 input   66.30 | X-H torsion
[ 10763 10752 10751 10750 ] final  -57.37 input  -60.55 | X-H torsion
[ 11005 11000 10999 10996 ] final   18.75 input  -57.11 | X-H torsion

> <Gold.Protein.ActiveResidues>
 VAL166  LYS551  ARG553  GLY616  TRP617  ASP618  TYR619  PRO620  LYS621  CYS622 
 ASP623  PHE694  ASN695  SER759  ASP760  ASP761  ALA762  ILE779  LEU786  VAL792 
 PHE793  MET794  SER795  GLU796  ALA797  LYS798  CYS799  TRP800  GLU811  SER814 

> <Gold.Protein.RotatedAtoms>
  152.1690  133.4631  159.4899 H   0  0  0  0  0  0  0  0  0  0  0  0  # atno 6907 bound_to 6896
  150.6917  134.1977  159.4319 H   0  0  0  0  0  0  0  0  0  0  0  0  # atno 6908 bound_to 6896
  151.9883  134.9992  160.0611 H   0  0  0  0  0  0  0  0  0  0  0  0  # atno 6909 bound_to 6896
  145.5533  139.2297  143.2500 H   0  0  0  0  0  0  0  0  0  0  0  0  # atno 7974 bound_to 7965
  155.6235  140.0684  157.2671 H   0  0  0  0  0  0  0  0  0  0  0  0  # atno 8008 bound_to 7997
  154.4223  140.1780  156.1446 H   0  0  0  0  0  0  0  0  0  0  0  0  # atno 8009 bound_to 7997
  155.9990  140.3338  155.6830 H   0  0  0  0  0  0  0  0  0  0  0  0  # atno 8010 bound_to 7997
  140.1420  143.4271  152.1555 H   0  0  0  0  0  0  0  0  0  0  0  0  # atno 10167 bound_to 10162
  157.6856  131.0695  150.5085 H   0  0  0  0  0  0  0  0  0  0  0  0  # atno 10718 bound_to 10713
  154.2214  135.6377  153.5146 H   0  0  0  0  0  0  0  0  0  0  0  0  # atno 10763 bound_to 10752
  152.9968  135.5497  154.6110 H   0  0  0  0  0  0  0  0  0  0  0  0  # atno 10764 bound_to 10752
  154.5571  135.2906  155.0928 H   0  0  0  0  0  0  0  0  0  0  0  0  # atno 10765 bound_to 10752
  140.4213  134.1515  155.7673 H   0  0  0  0  0  0  0  0  0  0  0  0  # atno 11005 bound_to 11000
  146.1902  140.6356  142.9149 LP  0  0  0  0  0  0  0  0  0  0  0  0  # atno 17320 bound_to 7965
  144.7519  140.5211  143.6796 LP  0  0  0  0  0  0  0  0  0  0  0  0  # atno 17321 bound_to 7965
  139.5467  144.7304  151.4561 LP  0  0  0  0  0  0  0  0  0  0  0  0  # atno 17342 bound_to 10162
  140.6754  143.8200  150.7052 LP  0  0  0  0  0  0  0  0  0  0  0  0  # atno 17343 bound_to 10162
  156.5403  130.4206  149.6157 LP  0  0  0  0  0  0  0  0  0  0  0  0  # atno 17370 bound_to 10713
  156.2991  130.7167  151.2034 LP  0  0  0  0  0  0  0  0  0  0  0  0  # atno 17371 bound_to 10713
  141.1783  133.8468  157.1347 LP  0  0  0  0  0  0  0  0  0  0  0  0  # atno 17394 bound_to 11000
  140.0198  134.9951  157.0568 LP  0  0  0  0  0  0  0  0  0  0  0  0  # atno 17395 bound_to 11000

$$$$
