AV-unprocessed.smi:195|AV-procd|sdf|1526|dock10
  -GOLD-   2262019373D 1   1.00000     0.00000
 Structure written by MMmdl.
 45 48  0  0  0  0  0  0  0  0  1 V2000
  148.6978  134.3714  158.9920 N   0  0  0  0  0  0  0  0  0  0  0  0
  148.6789  134.9977  158.0194 C   0  0  0  0  0  0  0  0  0  0  0  0
  148.6538  135.7951  156.7831 C   0  0  0  0  0  0  0  0  0  0  0  0
  149.2393  135.0615  155.5728 C   0  0  0  0  0  0  0  0  0  0  0  0
  148.3273  134.0160  155.3083 O   0  0  0  0  0  0  0  0  0  0  0  0
  149.6289  135.9083  154.3573 C   0  0  0  0  0  0  0  0  0  0  0  0
  151.0183  135.8033  154.7962 N   0  0  0  0  0  0  0  0  0  0  0  0
  151.5037  136.9782  155.4521 C   0  0  0  0  0  0  0  0  0  0  0  0
  152.5760  136.9200  156.2881 N   0  0  0  0  0  0  0  0  0  0  0  0
  153.0375  138.0137  156.9014 C   0  0  0  0  0  0  0  0  0  0  0  0
  152.5909  139.2668  156.8167 N   0  0  0  0  0  0  0  0  0  0  0  0
  151.5302  139.3483  155.9655 C   0  0  0  0  0  0  0  0  0  0  0  0
  150.9359  138.2695  155.2504 C   0  0  0  0  0  0  0  0  0  0  0  0
  149.8829  138.7434  154.4760 N   0  0  0  0  0  0  0  0  0  0  0  0
  149.8521  140.0245  154.7249 C   0  0  0  0  0  0  0  0  0  0  0  0
  150.8049  140.4711  155.6114 N   0  0  0  0  0  0  0  0  0  0  0  0
  151.0002  141.8348  156.0711 C   0  0  0  0  0  0  0  0  0  0  0  0
  150.5790  142.0232  157.5422 C   0  0  2  0  0  0  0  0  0  0  0  0
  149.2969  142.6209  157.5833 O   0  0  0  0  0  0  0  0  0  0  0  0
  151.5664  142.9075  158.3266 C   0  0  1  0  0  0  0  0  0  0  0  0
  151.5828  144.3749  157.8912 C   0  0  0  0  0  0  0  0  0  0  0  0
  152.0721  145.0637  159.1437 C   0  0  0  0  0  0  0  0  0  0  0  0
  151.3572  144.2655  160.2282 C   0  0  0  0  0  0  0  0  0  0  0  0
  151.2132  142.9461  159.7088 O   0  0  0  0  0  0  0  0  0  0  0  0
  150.7112  134.6385  155.6270 C   0  0  0  0  0  0  0  0  0  0  0  0
  147.6230  136.0993  156.5989 H   0  0  0  0  0  0  0  0  0  0  0  0
  149.2090  136.7098  156.9892 H   0  0  0  0  0  0  0  0  0  0  0  0
  147.4602  134.3902  155.3449 H   0  0  0  0  0  0  0  0  0  0  0  0
  149.4653  135.4030  153.4045 H   0  0  0  0  0  0  0  0  0  0  0  0
  149.2057  136.9135  154.3610 H   0  0  0  0  0  0  0  0  0  0  0  0
  153.8868  137.8620  157.5514 H   0  0  0  0  0  0  0  0  0  0  0  0
  149.1261  140.6820  154.2690 H   0  0  0  0  0  0  0  0  0  0  0  0
  152.0540  142.0850  155.9430 H   0  0  0  0  0  0  0  0  0  0  0  0
  150.4397  142.5081  155.4211 H   0  0  0  0  0  0  0  0  0  0  0  0
  150.5107  141.0473  158.0250 H   0  0  0  0  0  0  0  0  0  0  0  0
  149.2397  143.2553  156.8851 H   0  0  0  0  0  0  0  0  0  0  0  0
  152.5775  142.5027  158.2556 H   0  0  0  0  0  0  0  0  0  0  0  0
  152.2228  144.5559  157.0272 H   0  0  0  0  0  0  0  0  0  0  0  0
  150.5757  144.7173  157.6481 H   0  0  0  0  0  0  0  0  0  0  0  0
  153.1526  144.9469  159.2384 H   0  0  0  0  0  0  0  0  0  0  0  0
  151.8375  146.1280  159.1710 H   0  0  0  0  0  0  0  0  0  0  0  0
  151.9009  144.2667  161.1734 H   0  0  0  0  0  0  0  0  0  0  0  0
  150.3627  144.6756  160.4087 H   0  0  0  0  0  0  0  0  0  0  0  0
  151.1455  134.6101  156.6260 H   0  0  0  0  0  0  0  0  0  0  0  0
  150.9062  133.7086  155.0908 H   0  0  0  0  0  0  0  0  0  0  0  0
  1  2  3  0  0  0  0
  2  3  1  0  0  0  0
  3  4  1  0  0  0  0
  3 26  1  0  0  0  0
  3 27  1  0  0  0  0
  4 25  1  0  0  0  0
  4  5  1  0  0  0  0
  4  6  1  0  0  0  0
  5 28  1  0  0  0  0
  6  7  1  0  0  0  0
  6 29  1  0  0  0  0
  6 30  1  0  0  0  0
  7  8  1  0  0  0  0
  7 25  1  0  0  0  0
  8 13  1  0  0  0  0
  8  9  2  0  0  0  0
  9 10  1  0  0  0  0
 10 11  2  0  0  0  0
 10 31  1  0  0  0  0
 11 12  1  0  0  0  0
 12 16  1  0  0  0  0
 12 13  2  0  0  0  0
 13 14  1  0  0  0  0
 14 15  2  0  0  0  0
 15 16  1  0  0  0  0
 15 32  1  0  0  0  0
 16 17  1  0  0  0  0
 17 18  1  0  0  0  0
 17 33  1  0  0  0  0
 17 34  1  0  0  0  0
 18 19  1  0  0  0  0
 18 20  1  0  0  0  0
 18 35  1  0  0  0  0
 19 36  1  0  0  0  0
 20 24  1  0  0  0  0
 20 21  1  0  0  0  0
 20 37  1  0  0  0  0
 21 22  1  0  0  0  0
 21 38  1  0  0  0  0
 21 39  1  0  0  0  0
 22 23  1  0  0  0  0
 22 40  1  0  0  0  0
 22 41  1  0  0  0  0
 23 24  1  0  0  0  0
 23 42  1  0  0  0  0
 23 43  1  0  0  0  0
 25 44  1  0  0  0  0
 25 45  1  0  0  0  0
M  END
> <s_m_source_file>
AV-unprocessed.smi

> <i_m_source_file_index>
195

> <i_lp_mmshare_version>
43012

> <i_f3d_flags>
0

> <s_epik_input>
TiNDW0NIMl1DMShbT0hdKVtDSDJdTihbQ0gyXTEpYyhuW2NIXW4yKWMoYzIzKW5bY0hdbjNbQ0gyXVtDQEhdKFtPSF0pW0NAQEhdNFtDSDJdW0NIMl1bQ0gyXU80

> <s_epik_cmdline>
J2VwaWtfcHl0aG9uJywgJy1waCcsICc3LjAnLCAnLXRuJywgJzgnLCAnLW1hJywgJzIwMCcsICctbWV0YWxfYmluZGluZycsICctaW1hZScsICc8aW5maWxlLm1hZT4nLCAnLW9tYWUnLCAnPG91dGZpbGUubWFlPic=

> <r_lp_tautomer_probability>
1

> <r_epik_Ionization_Penalty>
0.00307146

> <r_epik_Ionization_Penalty_Charging>
0

> <r_epik_Ionization_Penalty_Neutral>
0.00307146

> <r_epik_State_Penalty>
0.0020279

> <r_epik_Charging_Adjusted_Penalty>
0.0020279

> <i_epik_Tot_Q>
0

> <i_epik_Tot_abs_Q>
0

> <r_epik_Metal_State_Penalty>
-0

> <b_epik_Metal_Only>
0

> <s_lp_Force_Field>
OPLS_2005

> <r_lp_Energy>
44.1004

> <b_lp_Chiralities_Consistent>
1

> <s_lp_Variant>
AV-unprocessed.smi:195-3

> <Gold.Version>
5.8.1

> <Gold.Id.Protein>
6NUR|6NUR_protein|mol2

> <Gold.PLP.Fitness>
46.3148

> <Gold.PLP.PLP>
-37.2604

> <Gold.PLP.part.hbond>
-5.1282

> <Gold.PLP.part.metal>
0.0000

> <Gold.PLP.part.buried>
-2.4991

> <Gold.PLP.part.nonpolar>
-30.8752

> <Gold.PLP.part.repulsive>
0.3441

> <Gold.PLP.ligand.clash>
0.0000

> <Gold.PLP.ligand.torsion>
1.2051

> <Gold.PLP.Chemscore.Hbond>
3.7100

> <Gold.PLP.Chemscore.CHOScore>
0.0000

> <Gold.PLP.Chemscore.Metal>
0.0000

> <Gold.Chemscore.Hbonds>
donor molecule, donor type, donor heavy atom, donor atom, acceptor molecule, acceptor atom, score
      L1  H    19    36       P1  8028  1.00
      P1  H  6896  6909       L1     1  1.00
      P1  H  7997  8010       L1    11  0.80
      P1  H 10752 10763       L1     9  0.58

> <Gold.PLP.Chemscore.Internal.Correction>
0.3347

> <Gold.Rescore>
     Score         DG    S(hbond)    S(metal)    S(lipo)     H(rot)  DE(clash)    DE(int)     intcor
     10.53     -14.77       2.64        0.00      85.30       3.72       1.62       2.62       ----

> <Gold.Chemscore.Fitness>
10.5304

> <Gold.Chemscore.DG>
-14.7663

> <Gold.Chemscore.ZeroCoef>
-5.4800

> <Gold.Chemscore.Hbond>
2.6442

> <Gold.Chemscore.Metal>
0.0000

> <Gold.Chemscore.Lipo>
85.3030

> <Gold.Chemscore.Internal_Hbond>
0.0000

> <Gold.Chemscore.DEClash>
1.6172

> <Gold.Chemscore.DEInternal>
2.6186

> <Gold.Chemscore.Rot>
3.7210

> <Gold.Chemscore.Internal.Correction>
   9.000000E+99

> <Gold.Chemscore.Hbonds>
donor molecule, donor type, donor heavy atom, donor atom, acceptor molecule, acceptor atom, score
      L1  H    19    36       P1  8028  0.95
      P1  H  6896  6909       L1     1  0.43
      P1  H  7997  8010       L1    11  0.11
      P1  H 10752 10763       L1     9  0.07

> <Gold.Chemscore.Hbond.Weighted>
-8.8315

> <Gold.Chemscore.Metal.Weighted>
-0.0000

> <Gold.Chemscore.Lipo.Weighted>
-9.9805

> <Gold.Chemscore.Internal_Hbond.Weighted>
0.0000

> <Gold.Chemscore.DEClash.Weighted>
1.6172

> <Gold.Chemscore.DEInternal.Weighted>
2.6186

> <Gold.Chemscore.Rot.Weighted>
9.5256

> <Gold.Chemscore.Internal.Correction.Weighted>
   9.000000E+99

> <Gold.Protein.RotatedTorsions>
[ 6907 6896 6895 6894 ] final   25.17 input  -60.11 | X-H torsion
[ 7974 7965 7964 7962 ] final   11.34 input  175.53 | X-H torsion
[ 8008 7997 7996 7995 ] final   71.46 input   59.86 | X-H torsion
[ 10167 10162 10161 10158 ] final -137.88 input  -65.29 | X-H torsion
[ 10718 10713 10712 10709 ] final  -44.53 input   66.30 | X-H torsion
[ 10763 10752 10751 10750 ] final  116.31 input  -60.55 | X-H torsion
[ 11005 11000 10999 10996 ] final   -5.33 input  -57.11 | X-H torsion

> <Gold.Protein.ActiveResidues>
 VAL166  LYS551  ARG553  GLY616  TRP617  ASP618  TYR619  PRO620  LYS621  CYS622 
 ASP623  PHE694  ASN695  SER759  ASP760  ASP761  ALA762  ILE779  LEU786  VAL792 
 PHE793  MET794  SER795  GLU796  ALA797  LYS798  CYS799  TRP800  GLU811  SER814 

> <Gold.Protein.RotatedAtoms>
  151.9685  135.0089  160.0551 H   0  0  0  0  0  0  0  0  0  0  0  0  # atno 6907 bound_to 6896
  152.1805  133.4699  159.4964 H   0  0  0  0  0  0  0  0  0  0  0  0  # atno 6908 bound_to 6896
  150.6916  134.1757  159.4272 H   0  0  0  0  0  0  0  0  0  0  0  0  # atno 6909 bound_to 6896
  146.2373  139.9500  142.8472 H   0  0  0  0  0  0  0  0  0  0  0  0  # atno 7974 bound_to 7965
  155.7541  140.3488  155.5165 H   0  0  0  0  0  0  0  0  0  0  0  0  # atno 8008 bound_to 7997
  155.8976  140.1028  157.1394 H   0  0  0  0  0  0  0  0  0  0  0  0  # atno 8009 bound_to 7997
  154.4040  140.1292  156.4382 H   0  0  0  0  0  0  0  0  0  0  0  0  # atno 8010 bound_to 7997
  139.8533  143.7170  152.2656 H   0  0  0  0  0  0  0  0  0  0  0  0  # atno 10167 bound_to 10162
  156.2376  130.4177  149.8799 H   0  0  0  0  0  0  0  0  0  0  0  0  # atno 10718 bound_to 10713
  153.5353  135.3570  155.2694 H   0  0  0  0  0  0  0  0  0  0  0  0  # atno 10763 bound_to 10752
  154.8723  135.4078  154.3106 H   0  0  0  0  0  0  0  0  0  0  0  0  # atno 10764 bound_to 10752
  153.3802  135.7068  153.6639 H   0  0  0  0  0  0  0  0  0  0  0  0  # atno 10765 bound_to 10752
  140.6900  133.9079  155.8611 H   0  0  0  0  0  0  0  0  0  0  0  0  # atno 11005 bound_to 11000
  145.1871  140.9794  143.4233 LP  0  0  0  0  0  0  0  0  0  0  0  0  # atno 17320 bound_to 7965
  144.9890  139.3707  143.6224 LP  0  0  0  0  0  0  0  0  0  0  0  0  # atno 17321 bound_to 7965
  139.7444  144.7551  151.0603 LP  0  0  0  0  0  0  0  0  0  0  0  0  # atno 17342 bound_to 10162
  140.7785  143.4934  150.9864 LP  0  0  0  0  0  0  0  0  0  0  0  0  # atno 17343 bound_to 10162
  156.6391  130.8697  151.3510 LP  0  0  0  0  0  0  0  0  0  0  0  0  # atno 17370 bound_to 10713
  157.7161  130.9499  150.1262 LP  0  0  0  0  0  0  0  0  0  0  0  0  # atno 17371 bound_to 10713
  141.0249  134.0837  157.4079 LP  0  0  0  0  0  0  0  0  0  0  0  0  # atno 17394 bound_to 11000
  139.8926  135.0126  156.6856 LP  0  0  0  0  0  0  0  0  0  0  0  0  # atno 17395 bound_to 11000

$$$$
