AV-unprocessed.smi:1045|AV-procd|sdf|4547|dock3
  -GOLD-   22720 2573D 1   1.00000     0.00000
 Structure written by MMmdl.
 43 44  0  0  0  0  0  0  0  0  2 V2000
  143.8662  134.7353  151.4342 C   0  0  0  0  0  0  0  0  0  0  0  0
  144.3621  135.7017  150.5245 O   0  0  0  0  0  0  0  0  0  0  0  0
  145.6620  136.1554  150.8696 C   0  0  0  0  0  0  0  0  0  0  0  0
  145.5694  137.4365  151.7142 C   0  0  1  0  0  0  0  0  0  0  0  0
  144.5253  137.3293  152.8352 C   0  0  0  0  0  0  0  0  0  0  0  0
  146.8787  137.7591  152.2781 N   0  0  0  0  0  0  0  0  0  0  0  0
  147.1388  138.7364  153.1580 C   0  0  0  0  0  0  0  0  0  0  0  0
  146.2833  139.4990  153.6066 O   0  0  0  0  0  0  0  0  0  0  0  0
  148.4410  138.7527  153.4911 N   0  0  0  0  0  0  0  0  0  0  0  0
  149.1142  139.6363  154.3772 C   0  0  0  0  0  0  0  0  0  0  0  0
  150.1953  139.1217  155.1246 C   0  0  0  0  0  0  0  0  0  0  0  0
  150.9028  139.9657  156.0049 C   0  0  0  0  0  0  0  0  0  0  0  0
  150.5240  141.3237  156.1175 C   0  0  0  0  0  0  0  0  0  0  0  0
  151.1639  142.2460  156.9572 N   0  0  0  0  0  0  0  0  0  0  0  0
  150.2758  143.0221  157.8064 C   0  0  0  0  0  0  0  0  0  0  0  0
  151.1698  143.6227  158.8943 C   0  0  0  0  0  0  0  0  0  0  0  0
  152.4154  142.7286  158.9191 C   0  0  0  0  0  0  0  0  0  0  0  0
  152.1619  141.6700  157.8427 C   0  0  0  0  0  0  0  0  0  0  0  0
  149.4933  141.7821  155.3747 N   0  3  0  0  0  0  0  0  0  0  0  0
  148.7873  141.0069  154.5231 C   0  0  0  0  0  0  0  0  0  0  0  0
  142.8692  134.4202  151.1268 H   0  0  0  0  0  0  0  0  0  0  0  0
  143.7941  135.1435  152.4432 H   0  0  0  0  0  0  0  0  0  0  0  0
  144.5058  133.8520  151.4587 H   0  0  0  0  0  0  0  0  0  0  0  0
  146.1894  135.3801  151.4281 H   0  0  0  0  0  0  0  0  0  0  0  0
  146.2403  136.3498  149.9648 H   0  0  0  0  0  0  0  0  0  0  0  0
  145.2453  138.2363  151.0462 H   0  0  0  0  0  0  0  0  0  0  0  0
  143.5379  137.1061  152.4303 H   0  0  0  0  0  0  0  0  0  0  0  0
  144.4494  138.2649  153.3904 H   0  0  0  0  0  0  0  0  0  0  0  0
  144.7793  136.5412  153.5449 H   0  0  0  0  0  0  0  0  0  0  0  0
  147.6494  137.1858  151.9673 H   0  0  0  0  0  0  0  0  0  0  0  0
  149.0068  138.0129  153.1015 H   0  0  0  0  0  0  0  0  0  0  0  0
  150.4820  138.0844  155.0298 H   0  0  0  0  0  0  0  0  0  0  0  0
  151.7269  139.5701  156.5802 H   0  0  0  0  0  0  0  0  0  0  0  0
  149.7657  143.7976  157.2342 H   0  0  0  0  0  0  0  0  0  0  0  0
  149.5166  142.3819  158.2575 H   0  0  0  0  0  0  0  0  0  0  0  0
  151.4509  144.6441  158.6343 H   0  0  0  0  0  0  0  0  0  0  0  0
  150.6616  143.6534  159.8584 H   0  0  0  0  0  0  0  0  0  0  0  0
  153.2996  143.3176  158.6719 H   0  0  0  0  0  0  0  0  0  0  0  0
  152.5821  142.2746  159.8965 H   0  0  0  0  0  0  0  0  0  0  0  0
  151.7865  140.7535  158.2999 H   0  0  0  0  0  0  0  0  0  0  0  0
  153.0748  141.4251  157.2988 H   0  0  0  0  0  0  0  0  0  0  0  0
  148.0031  141.5208  153.9880 H   0  0  0  0  0  0  0  0  0  0  0  0
  149.2353  142.7657  155.4586 H   0  0  0  0  0  0  0  0  0  0  0  0
  1  2  1  0  0  0  0
  1 21  1  0  0  0  0
  1 22  1  0  0  0  0
  1 23  1  0  0  0  0
  2  3  1  0  0  0  0
  3  4  1  0  0  0  0
  3 24  1  0  0  0  0
  3 25  1  0  0  0  0
  4  5  1  0  0  0  0
  4  6  1  0  0  0  0
  4 26  1  0  0  0  0
  5 27  1  0  0  0  0
  5 28  1  0  0  0  0
  5 29  1  0  0  0  0
  6  7  1  0  0  0  0
  6 30  1  0  0  0  0
  7  8  2  0  0  0  0
  7  9  1  0  0  0  0
  9 10  1  0  0  0  0
  9 31  1  0  0  0  0
 10 20  1  0  0  0  0
 10 11  2  0  0  0  0
 11 12  1  0  0  0  0
 11 32  1  0  0  0  0
 12 13  2  0  0  0  0
 12 33  1  0  0  0  0
 13 14  1  0  0  0  0
 13 19  1  0  0  0  0
 14 18  1  0  0  0  0
 14 15  1  0  0  0  0
 15 16  1  0  0  0  0
 15 34  1  0  0  0  0
 15 35  1  0  0  0  0
 16 17  1  0  0  0  0
 16 36  1  0  0  0  0
 16 37  1  0  0  0  0
 17 18  1  0  0  0  0
 17 38  1  0  0  0  0
 17 39  1  0  0  0  0
 18 40  1  0  0  0  0
 18 41  1  0  0  0  0
 19 20  2  0  0  0  0
 19 43  1  0  0  0  0
 20 42  1  0  0  0  0
M  CHG  1  19   1
M  END
> <s_m_source_file>
AV-unprocessed.smi

> <i_m_source_file_index>
1045

> <i_lp_mmshare_version>
43012

> <i_f3d_flags>
0

> <s_epik_input>
W0NIM11PW0NIMl1bQ0BIXShbQ0gzXSlbTkhdQyg9TylbTkhdYzFbY0hdW2NIXWMobltjSF0xKU4yW0NIMl1bQ0gyXVtDSDJdW0NIMl0y

> <s_epik_cmdline>
J2VwaWtfcHl0aG9uJywgJy1waCcsICc3LjAnLCAnLXRuJywgJzgnLCAnLW1hJywgJzIwMCcsICctbWV0YWxfYmluZGluZycsICctaW1hZScsICc8aW5maWxlLm1hZT4nLCAnLW9tYWUnLCAnPG91dGZpbGUubWFlPic=

> <r_lp_tautomer_probability>
0.999994

> <r_epik_Ionization_Penalty>
1.10308

> <r_epik_Ionization_Penalty_Charging>
1.10306

> <r_epik_Ionization_Penalty_Neutral>
1.99752e-05

> <r_epik_State_Penalty>
1.16038

> <r_epik_Charging_Adjusted_Penalty>
2.26344

> <i_epik_Tot_Q>
1

> <i_epik_Tot_abs_Q>
1

> <r_epik_Metal_State_Penalty>
1.24746

> <b_epik_Metal_Only>
0

> <s_lp_Force_Field>
OPLS_2005

> <r_lp_Energy>
39.8804

> <b_lp_Chiralities_Consistent>
1

> <s_lp_Variant>
AV-unprocessed.smi:1045-4

> <Gold.Version>
5.8.1

> <Gold.Id.Protein>
6NUR|6NUR_protein|mol2

> <Gold.PLP.Fitness>
40.7433

> <Gold.PLP.PLP>
-31.2460

> <Gold.PLP.part.hbond>
-3.9567

> <Gold.PLP.part.metal>
0.0000

> <Gold.PLP.part.buried>
-3.2498

> <Gold.PLP.part.nonpolar>
-26.9207

> <Gold.PLP.part.repulsive>
1.1813

> <Gold.PLP.ligand.clash>
0.0000

> <Gold.PLP.ligand.torsion>
0.7585

> <Gold.PLP.Chemscore.Hbond>
3.6599

> <Gold.PLP.Chemscore.CHOScore>
0.0000

> <Gold.PLP.Chemscore.Metal>
0.0000

> <Gold.Chemscore.Hbonds>
donor molecule, donor type, donor heavy atom, donor atom, acceptor molecule, acceptor atom, score
      L1  H     6    30       P1  7948  1.00
      L1  H     9    31       P1  7948  0.64
      L1  H    19    43       P1  8028  2.00

> <Gold.PLP.Chemscore.Internal.Correction>
0.0347

> <Gold.Rescore>
     Score         DG    S(hbond)    S(metal)    S(lipo)     H(rot)  DE(clash)    DE(int)     intcor
     15.89     -19.41       2.47        0.00      84.52       1.64       0.73       2.80       ----

> <Gold.Chemscore.Fitness>
15.8869

> <Gold.Chemscore.DG>
-19.4130

> <Gold.Chemscore.ZeroCoef>
-5.4800

> <Gold.Chemscore.Hbond>
2.4660

> <Gold.Chemscore.Metal>
0.0000

> <Gold.Chemscore.Lipo>
84.5194

> <Gold.Chemscore.Internal_Hbond>
0.0000

> <Gold.Chemscore.DEClash>
0.7253

> <Gold.Chemscore.DEInternal>
2.8007

> <Gold.Chemscore.Rot>
1.6376

> <Gold.Chemscore.Internal.Correction>
   9.000000E+99

> <Gold.Chemscore.Hbonds>
donor molecule, donor type, donor heavy atom, donor atom, acceptor molecule, acceptor atom, score
      L1  H     6    30       P1  7948  0.98
      L1  H     9    31       P1  7948  0.62
      L1  H    19    43       P1  8028  0.97

> <Gold.Chemscore.Hbond.Weighted>
-8.2366

> <Gold.Chemscore.Metal.Weighted>
-0.0000

> <Gold.Chemscore.Lipo.Weighted>
-9.8888

> <Gold.Chemscore.Internal_Hbond.Weighted>
0.0000

> <Gold.Chemscore.DEClash.Weighted>
0.7253

> <Gold.Chemscore.DEInternal.Weighted>
2.8007

> <Gold.Chemscore.Rot.Weighted>
4.1924

> <Gold.Chemscore.Internal.Correction.Weighted>
   9.000000E+99

> <Gold.Protein.RotatedTorsions>
[ 6907 6896 6895 6894 ] final  -37.45 input  -60.11 | X-H torsion
[ 7974 7965 7964 7962 ] final -167.84 input  175.53 | X-H torsion
[ 8008 7997 7996 7995 ] final -144.29 input   59.86 | X-H torsion
[ 10167 10162 10161 10158 ] final  -21.52 input  -65.29 | X-H torsion
[ 10718 10713 10712 10709 ] final  -57.06 input   66.30 | X-H torsion
[ 10763 10752 10751 10750 ] final -120.39 input  -60.55 | X-H torsion
[ 11005 11000 10999 10996 ] final  154.57 input  -57.11 | X-H torsion

> <Gold.Protein.ActiveResidues>
 VAL166  LYS551  ARG553  GLY616  TRP617  ASP618  TYR619  PRO620  LYS621  CYS622 
 ASP623  PHE694  ASN695  SER759  ASP760  ASP761  ALA762  ILE779  LEU786  VAL792 
 PHE793  MET794  SER795  GLU796  ALA797  LYS798  CYS799  TRP800  GLU811  SER814 

> <Gold.Protein.RotatedAtoms>
  151.0146  134.9422  159.8025 H   0  0  0  0  0  0  0  0  0  0  0  0  # atno 6907 bound_to 6896
  152.5311  134.2984  159.9079 H   0  0  0  0  0  0  0  0  0  0  0  0  # atno 6908 bound_to 6896
  151.2990  133.4089  159.2672 H   0  0  0  0  0  0  0  0  0  0  0  0  # atno 6909 bound_to 6896
  144.7215  140.2459  143.6285 H   0  0  0  0  0  0  0  0  0  0  0  0  # atno 7974 bound_to 7965
  155.5245  140.0594  157.2900 H   0  0  0  0  0  0  0  0  0  0  0  0  # atno 8008 bound_to 7997
  154.4506  140.1946  156.0478 H   0  0  0  0  0  0  0  0  0  0  0  0  # atno 8009 bound_to 7997
  156.0695  140.3262  155.7563 H   0  0  0  0  0  0  0  0  0  0  0  0  # atno 8010 bound_to 7997
  140.7282  143.4620  151.0367 H   0  0  0  0  0  0  0  0  0  0  0  0  # atno 10167 bound_to 10162
  156.1240  130.4164  150.0389 H   0  0  0  0  0  0  0  0  0  0  0  0  # atno 10718 bound_to 10713
  154.8643  135.4205  154.2451 H   0  0  0  0  0  0  0  0  0  0  0  0  # atno 10763 bound_to 10752
  153.3409  135.6993  153.6874 H   0  0  0  0  0  0  0  0  0  0  0  0  # atno 10764 bound_to 10752
  153.5852  135.3565  155.2863 H   0  0  0  0  0  0  0  0  0  0  0  0  # atno 10765 bound_to 10752
  140.1501  134.8680  157.2443 H   0  0  0  0  0  0  0  0  0  0  0  0  # atno 11005 bound_to 11000
  145.8275  139.2071  143.1902 LP  0  0  0  0  0  0  0  0  0  0  0  0  # atno 17320 bound_to 7965
  146.0460  140.8117  142.9805 LP  0  0  0  0  0  0  0  0  0  0  0  0  # atno 17321 bound_to 7965
  139.8305  143.7697  152.3179 LP  0  0  0  0  0  0  0  0  0  0  0  0  # atno 17342 bound_to 10162
  139.7811  144.7444  151.0086 LP  0  0  0  0  0  0  0  0  0  0  0  0  # atno 17343 bound_to 10162
  156.8319  130.9395  151.3636 LP  0  0  0  0  0  0  0  0  0  0  0  0  # atno 17370 bound_to 10713
  157.6423  130.8815  149.9471 LP  0  0  0  0  0  0  0  0  0  0  0  0  # atno 17371 bound_to 10713
  140.2615  134.3566  155.7405 LP  0  0  0  0  0  0  0  0  0  0  0  0  # atno 17394 bound_to 11000
  141.2198  133.7372  156.9087 LP  0  0  0  0  0  0  0  0  0  0  0  0  # atno 17395 bound_to 11000

$$$$
