AV-unprocessed.smi:2146|AV-procd|sdf|8739|dock7
  -GOLD-   2272011513D 1   1.00000     0.00000
 Structure written by MMmdl.
 44 45  0  0  0  0  0  0  0  0  1 V2000
  151.5911  137.3678  156.3064 C   0  0  0  0  0  0  0  0  0  0  0  0
  150.2897  137.5037  155.4740 C   0  0  1  0  0  0  0  0  0  0  0  0
  149.2409  136.4738  155.9846 C   0  0  0  0  0  0  0  0  0  0  0  0
  148.6049  136.8740  157.2377 N   0  0  0  0  0  0  0  0  0  0  0  0
  148.8905  136.3785  158.4519 C   0  0  0  0  0  0  0  0  0  0  0  0
  149.7624  135.5309  158.6479 O   0  0  0  0  0  0  0  0  0  0  0  0
  148.0537  136.9308  159.6143 C   0  0  0  0  0  0  0  0  0  0  0  0
  147.7218  135.9048  160.6162 N   0  0  0  0  0  0  0  0  0  0  0  0
  147.6508  134.5752  160.1569 C   0  0  0  0  0  0  0  0  0  0  0  0
  147.3674  133.5344  160.9626 C   0  0  0  0  0  0  0  0  0  0  0  0
  147.3681  132.1043  160.4458 C   0  0  0  0  0  0  0  0  0  0  0  0
  147.1369  131.2361  161.4308 F   0  0  0  0  0  0  0  0  0  0  0  0
  146.4153  131.9542  159.5269 F   0  0  0  0  0  0  0  0  0  0  0  0
  148.5379  131.7982  159.8834 F   0  0  0  0  0  0  0  0  0  0  0  0
  147.1596  133.8423  162.3640 C   0  0  0  0  0  0  0  0  0  0  0  0
  147.2378  135.1070  162.8226 C   0  0  0  0  0  0  0  0  0  0  0  0
  147.5343  136.2302  161.9303 C   0  0  0  0  0  0  0  0  0  0  0  0
  147.6121  137.3885  162.3400 O   0  0  0  0  0  0  0  0  0  0  0  0
  149.7723  138.8926  155.4447 N   0  0  0  0  0  0  0  0  0  0  0  0
  150.8431  139.8964  155.4737 C   0  0  0  0  0  0  0  0  0  0  0  0
  150.3132  141.3396  155.4170 C   0  0  0  0  0  0  0  0  0  0  0  0
  149.5157  141.5115  154.2541 O   0  0  0  0  0  0  0  0  0  0  0  0
  148.4164  140.6121  154.2268 C   0  0  0  0  0  0  0  0  0  0  0  0
  148.9307  139.1628  154.2731 C   0  0  0  0  0  0  0  0  0  0  0  0
  151.9662  136.3456  156.3272 H   0  0  0  0  0  0  0  0  0  0  0  0
  151.4331  137.6810  157.3388 H   0  0  0  0  0  0  0  0  0  0  0  0
  152.4125  137.9537  155.8973 H   0  0  0  0  0  0  0  0  0  0  0  0
  150.5400  137.2183  154.4509 H   0  0  0  0  0  0  0  0  0  0  0  0
  148.5018  136.2749  155.2068 H   0  0  0  0  0  0  0  0  0  0  0  0
  149.7097  135.5178  156.2109 H   0  0  0  0  0  0  0  0  0  0  0  0
  147.8772  137.5710  157.1726 H   0  0  0  0  0  0  0  0  0  0  0  0
  148.5906  137.7686  160.0616 H   0  0  0  0  0  0  0  0  0  0  0  0
  147.1320  137.3624  159.2195 H   0  0  0  0  0  0  0  0  0  0  0  0
  147.8581  134.4550  159.1031 H   0  0  0  0  0  0  0  0  0  0  0  0
  146.9353  133.0464  163.0586 H   0  0  0  0  0  0  0  0  0  0  0  0
  147.0778  135.2995  163.8734 H   0  0  0  0  0  0  0  0  0  0  0  0
  151.4262  139.8113  156.3887 H   0  0  0  0  0  0  0  0  0  0  0  0
  151.5297  139.7297  154.6423 H   0  0  0  0  0  0  0  0  0  0  0  0
  149.7276  141.5715  156.3080 H   0  0  0  0  0  0  0  0  0  0  0  0
  151.1424  142.0466  155.3867 H   0  0  0  0  0  0  0  0  0  0  0  0
  147.7503  140.8133  155.0673 H   0  0  0  0  0  0  0  0  0  0  0  0
  147.8418  140.7808  153.3161 H   0  0  0  0  0  0  0  0  0  0  0  0
  149.4868  138.9464  153.3598 H   0  0  0  0  0  0  0  0  0  0  0  0
  148.0537  138.5185  154.2721 H   0  0  0  0  0  0  0  0  0  0  0  0
  1  2  1  0  0  0  0
  1 25  1  0  0  0  0
  1 26  1  0  0  0  0
  1 27  1  0  0  0  0
  2  3  1  0  0  0  0
  2 19  1  0  0  0  0
  2 28  1  0  0  0  0
  3  4  1  0  0  0  0
  3 29  1  0  0  0  0
  3 30  1  0  0  0  0
  4  5  1  0  0  0  0
  4 31  1  0  0  0  0
  5  6  2  0  0  0  0
  5  7  1  0  0  0  0
  7  8  1  0  0  0  0
  7 32  1  0  0  0  0
  7 33  1  0  0  0  0
  8 17  1  0  0  0  0
  8  9  1  0  0  0  0
  9 10  2  0  0  0  0
  9 34  1  0  0  0  0
 10 11  1  0  0  0  0
 10 15  1  0  0  0  0
 11 12  1  0  0  0  0
 11 13  1  0  0  0  0
 11 14  1  0  0  0  0
 15 16  2  0  0  0  0
 15 35  1  0  0  0  0
 16 17  1  0  0  0  0
 16 36  1  0  0  0  0
 17 18  2  0  0  0  0
 19 24  1  0  0  0  0
 19 20  1  0  0  0  0
 20 21  1  0  0  0  0
 20 37  1  0  0  0  0
 20 38  1  0  0  0  0
 21 22  1  0  0  0  0
 21 39  1  0  0  0  0
 21 40  1  0  0  0  0
 22 23  1  0  0  0  0
 23 24  1  0  0  0  0
 23 41  1  0  0  0  0
 23 42  1  0  0  0  0
 24 43  1  0  0  0  0
 24 44  1  0  0  0  0
M  END
> <s_m_source_file>
AV-unprocessed.smi

> <i_m_source_file_index>
2146

> <i_lp_mmshare_version>
43012

> <i_f3d_flags>
0

> <s_epik_input>
W0NIMl0xW0NIMl1PW0NIMl1bQ0gyXU4xW0NASF0oW0NIM10pW0NIMl1bTkhdQyg9TylbQ0gyXW4yW2NIXWMoQyhGKShGKUYpW2NIXVtjSF1jMj1P

> <s_epik_cmdline>
J2VwaWtfcHl0aG9uJywgJy1waCcsICc3LjAnLCAnLXRuJywgJzgnLCAnLW1hJywgJzIwMCcsICctbWV0YWxfYmluZGluZycsICctaW1hZScsICc8aW5maWxlLm1hZT4nLCAnLW9tYWUnLCAnPG91dGZpbGUubWFlPic=

> <r_lp_tautomer_probability>
1

> <r_epik_Ionization_Penalty>
0.237382

> <r_epik_Ionization_Penalty_Charging>
1.80451e-08

> <r_epik_Ionization_Penalty_Neutral>
0.237382

> <r_epik_State_Penalty>
0.228245

> <r_epik_Charging_Adjusted_Penalty>
0.228245

> <i_epik_Tot_Q>
0

> <i_epik_Tot_abs_Q>
0

> <r_epik_Metal_State_Penalty>
0.22822

> <b_epik_Metal_Only>
0

> <s_lp_Force_Field>
OPLS_2005

> <r_lp_Energy>
40.9895

> <b_lp_Chiralities_Consistent>
1

> <s_lp_Variant>
AV-unprocessed.smi:2146-2

> <Gold.Version>
5.8.1

> <Gold.Id.Protein>
6NUR|6NUR_protein|mol2

> <Gold.PLP.Fitness>
45.4534

> <Gold.PLP.PLP>
-39.4973

> <Gold.PLP.part.hbond>
-5.0000

> <Gold.PLP.part.metal>
0.0000

> <Gold.PLP.part.buried>
-0.6717

> <Gold.PLP.part.nonpolar>
-31.9882

> <Gold.PLP.part.repulsive>
0.2588

> <Gold.PLP.ligand.clash>
0.0000

> <Gold.PLP.ligand.torsion>
1.4047

> <Gold.PLP.Chemscore.Hbond>
2.8885

> <Gold.PLP.Chemscore.CHOScore>
0.0000

> <Gold.PLP.Chemscore.Metal>
0.0000

> <Gold.Chemscore.Hbonds>
donor molecule, donor type, donor heavy atom, donor atom, acceptor molecule, acceptor atom, score
      P1  H  6896  6907       L1     6  1.00
      P1  H  6931  6943       L1    18  0.80
      P1  H  6934  6947       L1    18  0.30
      P1  H  8011  8017       L1    22  0.44

> <Gold.PLP.Chemscore.Internal.Correction>
0.1000

> <Gold.Rescore>
     Score         DG    S(hbond)    S(metal)    S(lipo)     H(rot)  DE(clash)    DE(int)     intcor
     15.52     -18.32       2.86        0.00      74.19       2.10       0.16       2.64       ----

> <Gold.Chemscore.Fitness>
15.5220

> <Gold.Chemscore.DG>
-18.3204

> <Gold.Chemscore.ZeroCoef>
-5.4800

> <Gold.Chemscore.Hbond>
2.8582

> <Gold.Chemscore.Metal>
0.0000

> <Gold.Chemscore.Lipo>
74.1874

> <Gold.Chemscore.Internal_Hbond>
0.0000

> <Gold.Chemscore.DEClash>
0.1554

> <Gold.Chemscore.DEInternal>
2.6430

> <Gold.Chemscore.Rot>
2.1039

> <Gold.Chemscore.Internal.Correction>
   9.000000E+99

> <Gold.Chemscore.Hbonds>
donor molecule, donor type, donor heavy atom, donor atom, acceptor molecule, acceptor atom, score
      P1  H  6896  6907       L1     6  0.98
      P1  H  6931  6943       L1    18  0.75
      P1  H  6934  6947       L1    18  0.29
      P1  H  8011  8017       L1    22  0.34

> <Gold.Chemscore.Hbond.Weighted>
-9.5465

> <Gold.Chemscore.Metal.Weighted>
-0.0000

> <Gold.Chemscore.Lipo.Weighted>
-8.6799

> <Gold.Chemscore.Internal_Hbond.Weighted>
0.0000

> <Gold.Chemscore.DEClash.Weighted>
0.1554

> <Gold.Chemscore.DEInternal.Weighted>
2.6430

> <Gold.Chemscore.Rot.Weighted>
5.3860

> <Gold.Chemscore.Internal.Correction.Weighted>
   9.000000E+99

> <Gold.Protein.RotatedTorsions>
[ 6907 6896 6895 6894 ] final  -54.28 input  -60.11 | X-H torsion
[ 7974 7965 7964 7962 ] final  121.95 input  175.53 | X-H torsion
[ 8008 7997 7996 7995 ] final   -3.91 input   59.86 | X-H torsion
[ 10167 10162 10161 10158 ] final   71.78 input  -65.29 | X-H torsion
[ 10718 10713 10712 10709 ] final -137.87 input   66.30 | X-H torsion
[ 10763 10752 10751 10750 ] final -101.99 input  -60.55 | X-H torsion
[ 11005 11000 10999 10996 ] final   10.27 input  -57.11 | X-H torsion

> <Gold.Protein.ActiveResidues>
 VAL166  LYS551  ARG553  GLY616  TRP617  ASP618  TYR619  PRO620  LYS621  CYS622 
 ASP623  PHE694  ASN695  SER759  ASP760  ASP761  ALA762  ILE779  LEU786  VAL792 
 PHE793  MET794  SER795  GLU796  ALA797  LYS798  CYS799  TRP800  GLU811  SER814 

> <Gold.Protein.RotatedAtoms>
  150.8352  134.7622  159.6886 H   0  0  0  0  0  0  0  0  0  0  0  0  # atno 6907 bound_to 6896
  152.4450  134.5510  159.9876 H   0  0  0  0  0  0  0  0  0  0  0  0  # atno 6908 bound_to 6896
  151.5662  133.3358  159.3016 H   0  0  0  0  0  0  0  0  0  0  0  0  # atno 6909 bound_to 6896
  145.1133  139.3438  143.4752 H   0  0  0  0  0  0  0  0  0  0  0  0  # atno 7974 bound_to 7965
  154.6198  140.2497  155.7563 H   0  0  0  0  0  0  0  0  0  0  0  0  # atno 8008 bound_to 7997
  156.2420  140.2929  156.0420 H   0  0  0  0  0  0  0  0  0  0  0  0  # atno 8009 bound_to 7997
  155.1915  140.0391  157.2891 H   0  0  0  0  0  0  0  0  0  0  0  0  # atno 8010 bound_to 7997
  140.0424  144.5378  150.7424 H   0  0  0  0  0  0  0  0  0  0  0  0  # atno 10167 bound_to 10162
  156.2930  130.7385  151.1416 H   0  0  0  0  0  0  0  0  0  0  0  0  # atno 10718 bound_to 10713
  154.7700  135.4877  153.9629 H   0  0  0  0  0  0  0  0  0  0  0  0  # atno 10763 bound_to 10752
  153.1355  135.6762  153.9117 H   0  0  0  0  0  0  0  0  0  0  0  0  # atno 10764 bound_to 10752
  153.8807  135.3132  155.3423 H   0  0  0  0  0  0  0  0  0  0  0  0  # atno 10765 bound_to 10752
  140.5164  134.0602  155.7832 H   0  0  0  0  0  0  0  0  0  0  0  0  # atno 11005 bound_to 11000
  146.3525  140.1061  142.8606 LP  0  0  0  0  0  0  0  0  0  0  0  0  # atno 17320 bound_to 7965
  145.0822  140.9229  143.4818 LP  0  0  0  0  0  0  0  0  0  0  0  0  # atno 17321 bound_to 7965
  140.7254  143.2631  151.4138 LP  0  0  0  0  0  0  0  0  0  0  0  0  # atno 17342 bound_to 10162
  139.6005  144.1306  152.2192 LP  0  0  0  0  0  0  0  0  0  0  0  0  # atno 17343 bound_to 10162
  157.7347  131.0579  150.5507 LP  0  0  0  0  0  0  0  0  0  0  0  0  # atno 17370 bound_to 10713
  156.5626  130.4259  149.6056 LP  0  0  0  0  0  0  0  0  0  0  0  0  # atno 17371 bound_to 10713
  141.1358  133.9224  157.2437 LP  0  0  0  0  0  0  0  0  0  0  0  0  # atno 17394 bound_to 11000
  139.9630  135.0149  156.9312 LP  0  0  0  0  0  0  0  0  0  0  0  0  # atno 17395 bound_to 11000

$$$$
