#       Name:                AV-unprocessed.smi:37
#       Creating user name   scv26
#       Creation time:       Thu Mar 26 16:15:32 2020


#       File generated by GOLD software.
#

@<TRIPOS>MOLECULE
AV-unprocessed.smi:37
    54    55     1
SMALL
NO_CHARGES


@<TRIPOS>ATOM
      1 ****        -3.5159   2.8762  -1.9579 C.3            1 S1                 0.0000
      2 ****        -3.7962   2.9490  -0.4508 C.3            1 S1                 0.0000
      3 ****        -3.3437   1.6887   0.2837 C.2            1 S1                 0.0000
      4 ****        -4.1523   0.9469   0.8424 O.2            1 S1                 0.0000
      5 ****        -2.0130   1.5167   0.2466 O.3            1 S1                 0.0000
      6 ****        -1.4336   0.3893   0.8813 C.3            1 S1                 0.0000
      7 ****         0.0779   0.3822   0.6182 C.3            1 S1                 0.0000
      8 ****         0.3700  -0.0286  -0.7127 O.3            1 S1                 0.0000
      9 ****         1.6424  -0.6089  -0.7652 C.3            1 S1                 0.0000
     10 ****         2.5460   0.2127  -1.6568 N.am           1 S1                 0.0000
     11 ****         2.2459   1.5280  -1.9717 C.2            1 S1                 0.0000
     12 ****         3.0543   2.2560  -2.7689 C.2            1 S1                 0.0000
     13 ****         2.7401   3.5314  -3.0540 F              1 S1                 0.0000
     14 ****         4.2683   1.6512  -3.3148 C.2            1 S1                 0.0000
     15 ****         4.9993   2.3190  -4.0449 O.2            1 S1                 0.0000
     16 ****         4.5393   0.3549  -2.9850 N.pl3          1 S1                -1.0000
     17 ****         3.7265  -0.3848  -2.1752 C.2            1 S1                 0.0000
     18 ****         3.9663  -1.5511  -1.8613 O.2            1 S1                 0.0000
     19 ****         2.1627  -0.7245   0.6840 C.3            1 S1                 0.0000
     20 ****         3.3742   0.7729   1.2217 Br             1 S1                 0.0000
     21 ****         0.8766  -0.5976   1.4816 C.3            1 S1                 0.0000
     22 ****         0.2009  -1.8495   1.5510 O.3            1 S1                 0.0000
     23 ****         0.4459  -2.7023   2.5620 C.2            1 S1                 0.0000
     24 ****         1.2492  -2.5253   3.4779 O.2            1 S1                 0.0000
     25 ****        -0.3821  -3.9819   2.4661 C.3            1 S1                 0.0000
     26 ****        -1.8906  -3.7064   2.5350 C.3            1 S1                 0.0000
     27 ****        -3.8948   3.7659  -2.4608 H              1 S1                 0.0000
     28 ****        -3.9997   2.0098  -2.4102 H              1 S1                 0.0000
     29 ****        -2.4468   2.8117  -2.1641 H              1 S1                 0.0000
     30 ****        -3.2898   3.8116  -0.0172 H              1 S1                 0.0000
     31 ****        -4.8637   3.0908  -0.2802 H              1 S1                 0.0000
     32 ****        -1.6216   0.4549   1.9538 H              1 S1                 0.0000
     33 ****        -1.8910  -0.5338   0.5219 H              1 S1                 0.0000
     34 ****         0.4810   1.3855   0.7666 H              1 S1                 0.0000
     35 ****         1.5318  -1.5756  -1.2596 H              1 S1                 0.0000
     36 ****         1.3572   1.9940  -1.5735 H              1 S1                 0.0000
     37 ****         2.6969  -1.6628   0.8375 H              1 S1                 0.0000
     38 ****         1.0442  -0.1987   2.4832 H              1 S1                 0.0000
     39 ****        -0.1368  -4.4906   1.5335 H              1 S1                 0.0000
     40 ****        -0.0916  -4.6504   3.2770 H              1 S1                 0.0000
     41 ****        -2.4522  -4.6403   2.5078 H              1 S1                 0.0000
     42 ****        -2.2259  -3.0972   1.6946 H              1 S1                 0.0000
     43 ****        -2.1576  -3.1869   3.4560 H              1 S1                 0.0000
     44 ****        -5.1280   1.1645   0.8211 LP             1 S1                 0.0000
     45 ****        -3.8331   0.1268   1.3175 LP             1 S1                 0.0000
     46 ****         0.3434   0.7667  -1.3183 LP             1 S1                 0.0000
     47 ****        -0.3115  -0.6972  -1.0102 LP             1 S1                 0.0000
     48 ****         4.7609   3.2660  -4.2598 LP             1 S1                 0.0000
     49 ****         5.8320   1.9147  -4.4234 LP             1 S1                 0.0000
     50 ****         5.3669  -0.0704  -3.3514 LP             1 S1                 0.0000
     51 ****         3.3392  -2.0462  -1.2599 LP             1 S1                 0.0000
     52 ****         4.7883  -2.0033  -2.2077 LP             1 S1                 0.0000
     53 ****         1.7903  -1.6851   3.5131 LP             1 S1                 0.0000
     54 ****         1.3607  -3.2218   4.1868 LP             1 S1                 0.0000
@<TRIPOS>BOND
    1    1    2 1     
    2    1   27 1     
    3    1   28 1     
    4    1   29 1     
    5    2    3 1     
    6    2   30 1     
    7    2   31 1     
    8    3    4 2     
    9    3    5 1     
   10    5    6 1     
   11    6    7 1     
   12    6   32 1     
   13    6   33 1     
   14    7   21 1     
   15    7    8 1     
   16    7   34 1     
   17    8    9 1     
   18    9   10 1     
   19    9   19 1     
   20    9   35 1     
   21   10   17 am    
   22   10   11 1     
   23   11   12 2     
   24   11   36 1     
   25   12   13 1     
   26   12   14 1     
   27   14   15 2     
   28   14   16 1     
   29   16   17 1     
   30   17   18 2     
   31   19   20 1     
   32   19   21 1     
   33   19   37 1     
   34   21   22 1     
   35   21   38 1     
   36   22   23 1     
   37   23   24 2     
   38   23   25 1     
   39   25   26 1     
   40   25   39 1     
   41   25   40 1     
   42   26   41 1     
   43   26   42 1     
   44   26   43 1     
   45    4   44 1     
   46    4   45 1     
   47    8   46 1     
   48    8   47 1     
   49   15   48 1     
   50   15   49 1     
   51   16   50 1     
   52   18   51 1     
   53   18   52 1     
   54   24   53 1     
   55   24   54 1     
@<TRIPOS>SUBSTRUCTURE
      1 S1             1
@<TRIPOS>SET
LONE_PAIRS      STATIC     ATOMS    <user>   **** ""
11 44 45 46 47 48 49 50 51 52 53 54
ATOM$BLUE        STATIC     ATOMS    COLORGROUP SYSTEM
11 44 45 46 47 48 49 50 51 52 53 54
