AV-unprocessed.smi:37|AV-procd|sdf|324|dock10
  -GOLD-   2262016153D 1   1.00000     0.00000
 Structure written by MMmdl.
 43 44  0  0  0  0  0  0  0  0  2 V2000
  152.3819  144.6670  158.7696 C   0  0  0  0  0  0  0  0  0  0  0  0
  151.6799  143.6813  159.7155 C   0  0  0  0  0  0  0  0  0  0  0  0
  150.7961  142.6615  158.9937 C   0  0  0  0  0  0  0  0  0  0  0  0
  149.5697  142.6457  159.1155 O   0  0  0  0  0  0  0  0  0  0  0  0
  151.5176  141.8190  158.2400 O   0  0  0  0  0  0  0  0  0  0  0  0
  150.9131  141.1787  157.1289 C   0  0  0  0  0  0  0  0  0  0  0  0
  151.9220  140.2173  156.4842 C   0  0  1  0  0  0  0  0  0  0  0  0
  152.1391  139.0605  157.2925 O   0  0  0  0  0  0  0  0  0  0  0  0
  152.3102  137.9218  156.4960 C   0  0  1  0  0  0  0  0  0  0  0  0
  151.1617  136.9596  156.7384 N   0  0  0  0  0  0  0  0  0  0  0  0
  150.4704  136.3742  155.6889 C   0  0  0  0  0  0  0  0  0  0  0  0
  149.4664  135.5021  155.9109 C   0  0  0  0  0  0  0  0  0  0  0  0
  148.8236  134.9432  154.8710 F   0  0  0  0  0  0  0  0  0  0  0  0
  149.0883  135.1686  157.2824 C   0  0  0  0  0  0  0  0  0  0  0  0
  148.1743  134.3693  157.4789 O   0  0  0  0  0  0  0  0  0  0  0  0
  149.7761  135.7680  158.2967 N   0  5  0  0  0  0  0  0  0  0  0  0
  150.7952  136.6494  158.0768 C   0  0  0  0  0  0  0  0  0  0  0  0
  151.4237  137.1916  158.9861 O   0  0  0  0  0  0  0  0  0  0  0  0
  152.3141  138.3922  155.0333 C   0  0  2  0  0  0  0  0  0  0  0  0
  154.1821  138.7973  154.4713 Br  0  0  0  0  0  0  0  0  0  0  0  0
  151.5171  139.6834  155.1059 C   0  0  1  0  0  0  0  0  0  0  0  0
  150.1212  139.4051  155.0775 O   0  0  0  0  0  0  0  0  0  0  0  0
  149.2555  140.2646  154.5157 C   0  0  0  0  0  0  0  0  0  0  0  0
  149.4707  141.4521  154.2738 O   0  0  0  0  0  0  0  0  0  0  0  0
  147.9286  139.6030  154.1477 C   0  0  0  0  0  0  0  0  0  0  0  0
  147.0290  140.5132  153.2995 C   0  0  0  0  0  0  0  0  0  0  0  0
  152.9923  145.3711  159.3351 H   0  0  0  0  0  0  0  0  0  0  0  0
  151.6618  145.2464  158.1906 H   0  0  0  0  0  0  0  0  0  0  0  0
  153.0391  144.1481  158.0708 H   0  0  0  0  0  0  0  0  0  0  0  0
  152.4245  143.1412  160.3007 H   0  0  0  0  0  0  0  0  0  0  0  0
  151.0611  144.2320  160.4242 H   0  0  0  0  0  0  0  0  0  0  0  0
  150.0121  140.6477  157.4380 H   0  0  0  0  0  0  0  0  0  0  0  0
  150.6146  141.9370  156.4037 H   0  0  0  0  0  0  0  0  0  0  0  0
  152.8824  140.7236  156.3779 H   0  0  0  0  0  0  0  0  0  0  0  0
  153.2066  137.3761  156.7946 H   0  0  0  0  0  0  0  0  0  0  0  0
  150.7324  136.5997  154.6671 H   0  0  0  0  0  0  0  0  0  0  0  0
  151.9114  137.6493  154.3443 H   0  0  0  0  0  0  0  0  0  0  0  0
  151.7807  140.3841  154.3122 H   0  0  0  0  0  0  0  0  0  0  0  0
  148.1365  138.6813  153.6038 H   0  0  0  0  0  0  0  0  0  0  0  0
  147.4124  139.3191  155.0655 H   0  0  0  0  0  0  0  0  0  0  0  0
  146.1282  139.9818  152.9930 H   0  0  0  0  0  0  0  0  0  0  0  0
  147.5397  140.8475  152.3958 H   0  0  0  0  0  0  0  0  0  0  0  0
  146.7141  141.3964  153.8571 H   0  0  0  0  0  0  0  0  0  0  0  0
  1  2  1  0  0  0  0
  1 27  1  0  0  0  0
  1 28  1  0  0  0  0
  1 29  1  0  0  0  0
  2  3  1  0  0  0  0
  2 30  1  0  0  0  0
  2 31  1  0  0  0  0
  3  4  2  0  0  0  0
  3  5  1  0  0  0  0
  5  6  1  0  0  0  0
  6  7  1  0  0  0  0
  6 32  1  0  0  0  0
  6 33  1  0  0  0  0
  7 21  1  0  0  0  0
  7  8  1  0  0  0  0
  7 34  1  0  0  0  0
  8  9  1  0  0  0  0
  9 10  1  0  0  0  0
  9 19  1  0  0  0  0
  9 35  1  0  0  0  0
 10 17  1  0  0  0  0
 10 11  1  0  0  0  0
 11 12  2  0  0  0  0
 11 36  1  0  0  0  0
 12 13  1  0  0  0  0
 12 14  1  0  0  0  0
 14 15  2  0  0  0  0
 14 16  1  0  0  0  0
 16 17  1  0  0  0  0
 17 18  2  0  0  0  0
 19 20  1  0  0  0  0
 19 21  1  0  0  0  0
 19 37  1  0  0  0  0
 21 22  1  0  0  0  0
 21 38  1  0  0  0  0
 22 23  1  0  0  0  0
 23 24  2  0  0  0  0
 23 25  1  0  0  0  0
 25 26  1  0  0  0  0
 25 39  1  0  0  0  0
 25 40  1  0  0  0  0
 26 41  1  0  0  0  0
 26 42  1  0  0  0  0
 26 43  1  0  0  0  0
M  CHG  1  16  -1
M  END
> <s_m_source_file>
AV-unprocessed.smi

> <i_m_source_file_index>
37

> <i_lp_mmshare_version>
43012

> <i_f3d_flags>
0

> <s_epik_input>
W0NIM11bQ0gyXUMoPU8pT1tDSDJdW0NAQEhdMU9bQ0BASF0objJbY0hdYyhGKWMoPU8pW25IXWMyPU8pW0NAQEhdKEJyKVtDQEhdMU9DKD1PKVtDSDJdW0NIM10=

> <s_epik_cmdline>
J2VwaWtfcHl0aG9uJywgJy1waCcsICc3LjAnLCAnLXRuJywgJzgnLCAnLW1hJywgJzIwMCcsICctbWV0YWxfYmluZGluZycsICctaW1hZScsICc8aW5maWxlLm1hZT4nLCAnLW9tYWUnLCAnPG91dGZpbGUubWFlPic=

> <r_epik_Ionization_Penalty>
1.08158

> <r_epik_Ionization_Penalty_Charging>
9.05154e-09

> <r_epik_Ionization_Penalty_Neutral>
1.08158

> <r_epik_State_Penalty>
1.13706

> <r_epik_Charging_Adjusted_Penalty>
1.13706

> <i_epik_Tot_Q>
-1

> <i_epik_Tot_abs_Q>
1

> <r_epik_Metal_State_Penalty>
0.00343535

> <b_epik_Metal_Only>
0

> <s_epik_Chemistry_Notes>
This compound has an ester and may undergo hydrolysis at high or low pH. This compound contains an acetal/aminal-like group ( X-CH(R)-Y where X, Y are N, S, or O) that may be acid/base labile, releasing an aldehyde.

> <s_lp_Force_Field>
OPLS_2005

> <r_lp_Energy>
30.833

> <b_lp_Chiralities_Consistent>
1

> <s_lp_Variant>
AV-unprocessed.smi:37-22

> <Gold.Version>
5.8.1

> <Gold.Id.Protein>
6NUR|6NUR_protein|mol2

> <Gold.PLP.Fitness>
43.4599

> <Gold.PLP.PLP>
-38.3535

> <Gold.PLP.part.hbond>
-3.7292

> <Gold.PLP.part.metal>
0.0000

> <Gold.PLP.part.buried>
-0.5681

> <Gold.PLP.part.nonpolar>
-33.7394

> <Gold.PLP.part.repulsive>
0.4062

> <Gold.PLP.ligand.clash>
0.0000

> <Gold.PLP.ligand.torsion>
1.6051

> <Gold.PLP.Chemscore.Hbond>
2.7336

> <Gold.PLP.Chemscore.CHOScore>
0.0000

> <Gold.PLP.Chemscore.Metal>
0.0000

> <Gold.Chemscore.Hbonds>
donor molecule, donor type, donor heavy atom, donor atom, acceptor molecule, acceptor atom, score
      P1  H  6896  6909       L1    16  1.90
      P1  H  7989  7998       L1    24  0.04
      P1  H  8011  8017       L1    24  0.38

> <Gold.PLP.Chemscore.Internal.Correction>
0.1157

> <Gold.Rescore>
     Score         DG    S(hbond)    S(metal)    S(lipo)     H(rot)  DE(clash)    DE(int)     intcor
      5.84     -10.21       0.94        0.00      84.99       3.27       1.12       3.25       ----

> <Gold.Chemscore.Fitness>
5.8439

> <Gold.Chemscore.DG>
-10.2105

> <Gold.Chemscore.ZeroCoef>
-5.4800

> <Gold.Chemscore.Hbond>
0.9430

> <Gold.Chemscore.Metal>
0.0000

> <Gold.Chemscore.Lipo>
84.9925

> <Gold.Chemscore.Internal_Hbond>
0.0000

> <Gold.Chemscore.DEClash>
1.1160

> <Gold.Chemscore.DEInternal>
3.2506

> <Gold.Chemscore.Rot>
3.2669

> <Gold.Chemscore.Internal.Correction>
   9.000000E+99

> <Gold.Chemscore.Hbonds>
donor molecule, donor type, donor heavy atom, donor atom, acceptor molecule, acceptor atom, score
      P1  H  6896  6909       L1    16  0.19
      P1  H  8011  8017       L1    24  0.37

> <Gold.Chemscore.Hbond.Weighted>
-3.1497

> <Gold.Chemscore.Metal.Weighted>
-0.0000

> <Gold.Chemscore.Lipo.Weighted>
-9.9441

> <Gold.Chemscore.Internal_Hbond.Weighted>
0.0000

> <Gold.Chemscore.DEClash.Weighted>
1.1160

> <Gold.Chemscore.DEInternal.Weighted>
3.2506

> <Gold.Chemscore.Rot.Weighted>
8.3634

> <Gold.Chemscore.Internal.Correction.Weighted>
   9.000000E+99

> <Gold.Protein.RotatedTorsions>
[ 6907 6896 6895 6894 ] final   46.65 input  -60.11 | X-H torsion
[ 7974 7965 7964 7962 ] final  137.22 input  175.53 | X-H torsion
[ 8008 7997 7996 7995 ] final   95.49 input   59.86 | X-H torsion
[ 10167 10162 10161 10158 ] final -171.68 input  -65.29 | X-H torsion
[ 10718 10713 10712 10709 ] final   -2.66 input   66.30 | X-H torsion
[ 10763 10752 10751 10750 ] final -129.71 input  -60.55 | X-H torsion
[ 11005 11000 10999 10996 ] final -107.34 input  -57.11 | X-H torsion

> <Gold.Protein.ActiveResidues>
 VAL166  LYS551  ARG553  GLY616  TRP617  ASP618  TYR619  PRO620  LYS621  CYS622 
 ASP623  PHE694  ASN695  SER759  ASP760  ASP761  ALA762  ILE779  LEU786  VAL792 
 PHE793  MET794  SER795  GLU796  ALA797  LYS798  CYS799  TRP800  GLU811  SER814 

> <Gold.Protein.RotatedAtoms>
  152.2589  134.8055  160.0433 H   0  0  0  0  0  0  0  0  0  0  0  0  # atno 6907 bound_to 6896
  151.8709  133.3470  159.3742 H   0  0  0  0  0  0  0  0  0  0  0  0  # atno 6908 bound_to 6896
  150.7109  134.5041  159.5620 H   0  0  0  0  0  0  0  0  0  0  0  0  # atno 6909 bound_to 6896
  144.9489  139.4842  143.5535 H   0  0  0  0  0  0  0  0  0  0  0  0  # atno 7974 bound_to 7965
  156.0694  140.3286  155.7557 H   0  0  0  0  0  0  0  0  0  0  0  0  # atno 8008 bound_to 7997
  155.5329  140.0595  157.2902 H   0  0  0  0  0  0  0  0  0  0  0  0  # atno 8009 bound_to 7997
  154.4522  140.1924  156.0503 H   0  0  0  0  0  0  0  0  0  0  0  0  # atno 8010 bound_to 7997
  139.5788  144.1470  152.1487 H   0  0  0  0  0  0  0  0  0  0  0  0  # atno 10167 bound_to 10162
  156.7876  130.5351  149.5741 H   0  0  0  0  0  0  0  0  0  0  0  0  # atno 10718 bound_to 10713
  154.8757  135.3886  154.3965 H   0  0  0  0  0  0  0  0  0  0  0  0  # atno 10763 bound_to 10752
  153.4694  135.7030  153.6007 H   0  0  0  0  0  0  0  0  0  0  0  0  # atno 10764 bound_to 10752
  153.4471  135.3842  155.2230 H   0  0  0  0  0  0  0  0  0  0  0  0  # atno 10765 bound_to 10752
  141.0959  133.8972  157.1964 H   0  0  0  0  0  0  0  0  0  0  0  0  # atno 11005 bound_to 11000
  146.3314  139.8560  142.8864 LP  0  0  0  0  0  0  0  0  0  0  0  0  # atno 17320 bound_to 7965
  145.2875  141.0157  143.3682 LP  0  0  0  0  0  0  0  0  0  0  0  0  # atno 17321 bound_to 7965
  140.1019  144.5532  150.6983 LP  0  0  0  0  0  0  0  0  0  0  0  0  # atno 17342 bound_to 10162
  140.7069  143.2474  151.4700 LP  0  0  0  0  0  0  0  0  0  0  0  0  # atno 17343 bound_to 10162
  156.1179  130.6088  151.0148 LP  0  0  0  0  0  0  0  0  0  0  0  0  # atno 17370 bound_to 10713
  157.6616  131.0879  150.7825 LP  0  0  0  0  0  0  0  0  0  0  0  0  # atno 17371 bound_to 10713
  139.9796  135.0103  156.9716 LP  0  0  0  0  0  0  0  0  0  0  0  0  # atno 17394 bound_to 11000
  140.5141  134.0972  155.7277 LP  0  0  0  0  0  0  0  0  0  0  0  0  # atno 17395 bound_to 11000

$$$$
