AV-unprocessed.smi:99|AV-procd|sdf|872|dock7
  -GOLD-   2262017333D 1   1.00000     0.00000
 Structure written by MMmdl.
 53 56  0  0  0  0  0  0  0  0  1 V2000
  149.2493  136.4165  161.3817 O   0  0  0  0  0  0  0  0  0  0  0  0
  148.1938  136.1480  160.8041 C   0  0  0  0  0  0  0  0  0  0  0  0
  147.9065  136.5512  159.5509 O   0  0  0  0  0  0  0  0  0  0  0  0
  148.8782  137.2499  158.7911 C   0  0  0  0  0  0  0  0  0  0  0  0
  150.1346  136.3694  158.6410 C   0  0  1  0  0  0  0  0  0  0  0  0
  149.7426  135.1198  158.0881 O   0  0  0  0  0  0  0  0  0  0  0  0
  149.7579  135.1923  156.6952 C   0  0  2  0  0  0  0  0  0  0  0  0
  150.2861  133.8739  156.1702 N   0  0  0  0  0  0  0  0  0  0  0  0
  151.4679  133.3424  156.6683 C   0  0  0  0  0  0  0  0  0  0  0  0
  151.9844  132.1640  156.2466 C   0  0  0  0  0  0  0  0  0  0  0  0
  151.3004  131.3811  155.2225 C   0  0  0  0  0  0  0  0  0  0  0  0
  151.6872  130.3021  154.7789 O   0  0  0  0  0  0  0  0  0  0  0  0
  150.1178  131.9553  154.7464 N   0  0  0  0  0  0  0  0  0  0  0  0
  149.5770  133.1705  155.1711 C   0  0  0  0  0  0  0  0  0  0  0  0
  148.5326  133.5849  154.6698 O   0  0  0  0  0  0  0  0  0  0  0  0
  150.6226  136.4071  156.2864 C   0  0  2  0  0  0  0  0  0  0  0  0
  151.6818  136.1062  155.3952 O   0  0  0  0  0  0  0  0  0  0  0  0
  151.1635  136.8904  157.6283 C   0  0  1  0  0  0  0  0  0  0  0  0
  151.2568  138.3097  157.6861 O   0  0  0  0  0  0  0  0  0  0  0  0
  152.0419  138.9194  158.5989 C   0  0  0  0  0  0  0  0  0  0  0  0
  152.7195  138.3142  159.4316 O   0  0  0  0  0  0  0  0  0  0  0  0
  152.0088  140.4060  158.4884 C   0  0  0  0  0  0  0  0  0  0  0  0
  152.7517  141.1857  159.4053 C   0  0  0  0  0  0  0  0  0  0  0  0
  152.7412  142.5917  159.3249 C   0  0  0  0  0  0  0  0  0  0  0  0
  151.9871  143.2354  158.3269 C   0  0  0  0  0  0  0  0  0  0  0  0
  151.2430  142.4713  157.4092 C   0  0  0  0  0  0  0  0  0  0  0  0
  151.2526  141.0650  157.4874 C   0  0  0  0  0  0  0  0  0  0  0  0
  147.1002  135.3423  161.4199 C   0  0  0  0  0  0  0  0  0  0  0  0
  145.8665  135.9649  161.7223 C   0  0  0  0  0  0  0  0  0  0  0  0
  144.8150  135.2291  162.3025 C   0  0  0  0  0  0  0  0  0  0  0  0
  144.9842  133.8618  162.5882 C   0  0  0  0  0  0  0  0  0  0  0  0
  146.2066  133.2308  162.2924 C   0  0  0  0  0  0  0  0  0  0  0  0
  147.2592  133.9648  161.7114 C   0  0  0  0  0  0  0  0  0  0  0  0
  149.6142  131.4495  154.0321 H   0  0  0  0  0  0  0  0  0  0  0  0
  148.4734  137.5275  157.8170 H   0  0  0  0  0  0  0  0  0  0  0  0
  149.1254  138.1725  159.3178 H   0  0  0  0  0  0  0  0  0  0  0  0
  150.5999  136.2255  159.6169 H   0  0  0  0  0  0  0  0  0  0  0  0
  148.7245  135.2915  156.3606 H   0  0  0  0  0  0  0  0  0  0  0  0
  152.0109  133.8923  157.4237 H   0  0  0  0  0  0  0  0  0  0  0  0
  152.9096  131.7991  156.6685 H   0  0  0  0  0  0  0  0  0  0  0  0
  149.9649  137.1543  155.8397 H   0  0  0  0  0  0  0  0  0  0  0  0
  151.3868  136.2662  154.5116 H   0  0  0  0  0  0  0  0  0  0  0  0
  152.1217  136.4133  157.8427 H   0  0  0  0  0  0  0  0  0  0  0  0
  153.3386  140.7141  160.1804 H   0  0  0  0  0  0  0  0  0  0  0  0
  153.3127  143.1764  160.0306 H   0  0  0  0  0  0  0  0  0  0  0  0
  151.9793  144.3137  158.2653 H   0  0  0  0  0  0  0  0  0  0  0  0
  150.6636  142.9650  156.6430 H   0  0  0  0  0  0  0  0  0  0  0  0
  150.6702  140.5092  156.7672 H   0  0  0  0  0  0  0  0  0  0  0  0
  145.7127  137.0134  161.5117 H   0  0  0  0  0  0  0  0  0  0  0  0
  143.8769  135.7148  162.5276 H   0  0  0  0  0  0  0  0  0  0  0  0
  144.1774  133.2978  163.0327 H   0  0  0  0  0  0  0  0  0  0  0  0
  146.3377  132.1812  162.5109 H   0  0  0  0  0  0  0  0  0  0  0  0
  148.1838  133.4492  161.4961 H   0  0  0  0  0  0  0  0  0  0  0  0
  1  2  2  0  0  0  0
  2  3  1  0  0  0  0
  2 28  1  0  0  0  0
  3  4  1  0  0  0  0
  4  5  1  0  0  0  0
  4 35  1  0  0  0  0
  4 36  1  0  0  0  0
  5 18  1  0  0  0  0
  5  6  1  0  0  0  0
  5 37  1  0  0  0  0
  6  7  1  0  0  0  0
  7  8  1  0  0  0  0
  7 16  1  0  0  0  0
  7 38  1  0  0  0  0
  8 14  1  0  0  0  0
  8  9  1  0  0  0  0
  9 10  2  0  0  0  0
  9 39  1  0  0  0  0
 10 11  1  0  0  0  0
 10 40  1  0  0  0  0
 11 12  2  0  0  0  0
 11 13  1  0  0  0  0
 13 34  1  0  0  0  0
 13 14  1  0  0  0  0
 14 15  2  0  0  0  0
 16 17  1  0  0  0  0
 16 18  1  0  0  0  0
 16 41  1  0  0  0  0
 17 42  1  0  0  0  0
 18 19  1  0  0  0  0
 18 43  1  0  0  0  0
 19 20  1  0  0  0  0
 20 21  2  0  0  0  0
 20 22  1  0  0  0  0
 22 27  1  0  0  0  0
 22 23  2  0  0  0  0
 23 24  1  0  0  0  0
 23 44  1  0  0  0  0
 24 25  2  0  0  0  0
 24 45  1  0  0  0  0
 25 26  1  0  0  0  0
 25 46  1  0  0  0  0
 26 27  2  0  0  0  0
 26 47  1  0  0  0  0
 27 48  1  0  0  0  0
 28 33  1  0  0  0  0
 28 29  2  0  0  0  0
 29 30  1  0  0  0  0
 29 49  1  0  0  0  0
 30 31  2  0  0  0  0
 30 50  1  0  0  0  0
 31 32  1  0  0  0  0
 31 51  1  0  0  0  0
 32 33  2  0  0  0  0
 32 52  1  0  0  0  0
 33 53  1  0  0  0  0
M  END
> <s_m_source_file>
AV-unprocessed.smi

> <i_m_source_file_index>
99

> <i_lp_mmshare_version>
43012

> <i_f3d_flags>
0

> <s_epik_input>
W2NIXTFbY0hdW2NIXVtjSF1bY0hdYzFDKD1PKU9bQ0gyXVtDQEBIXTJPW0NAQEhdKG4zW2NIXVtjSF1jKD1PKVtuSF1jMz1PKVtDQEBIXShbT0hdKVtDQEhdMk9DKD1PKWM0W2NIXVtjSF1bY0hdW2NIXVtjSF00

> <s_epik_cmdline>
J2VwaWtfcHl0aG9uJywgJy1waCcsICc3LjAnLCAnLXRuJywgJzgnLCAnLW1hJywgJzIwMCcsICctbWV0YWxfYmluZGluZycsICctaW1hZScsICc8aW5maWxlLm1hZT4nLCAnLW9tYWUnLCAnPG91dGZpbGUubWFlPic=

> <r_lp_tautomer_probability>
1

> <r_epik_Ionization_Penalty>
0.00454555

> <r_epik_Ionization_Penalty_Charging>
0.0045191

> <r_epik_Ionization_Penalty_Neutral>
2.64449e-05

> <r_epik_State_Penalty>
-0

> <r_epik_Charging_Adjusted_Penalty>
0.0045191

> <i_epik_Tot_Q>
0

> <i_epik_Tot_abs_Q>
0

> <r_epik_Metal_State_Penalty>
1.27877

> <b_epik_Metal_Only>
0

> <s_epik_Chemistry_Notes>
This compound has an ester and may undergo hydrolysis at high or low pH. This compound contains an acetal/aminal-like group ( X-CH(R)-Y where X, Y are N, S, or O) that may be acid/base labile, releasing an aldehyde.

> <s_lp_Force_Field>
OPLS_2005

> <r_lp_Energy>
42.9918

> <b_lp_Chiralities_Consistent>
1

> <s_lp_Variant>
AV-unprocessed.smi:99-8

> <Gold.Version>
5.8.1

> <Gold.Id.Protein>
6NUR|6NUR_protein|mol2

> <Gold.PLP.Fitness>
51.9859

> <Gold.PLP.PLP>
-47.2484

> <Gold.PLP.part.hbond>
-3.0000

> <Gold.PLP.part.metal>
0.0000

> <Gold.PLP.part.buried>
-3.5968

> <Gold.PLP.part.nonpolar>
-41.2572

> <Gold.PLP.part.repulsive>
0.0938

> <Gold.PLP.ligand.clash>
0.0000

> <Gold.PLP.ligand.torsion>
1.7088

> <Gold.PLP.Chemscore.Hbond>
2.5552

> <Gold.PLP.Chemscore.CHOScore>
0.0000

> <Gold.PLP.Chemscore.Metal>
0.0000

> <Gold.Chemscore.Hbonds>
donor molecule, donor type, donor heavy atom, donor atom, acceptor molecule, acceptor atom, score
      P1  H  6896  6909       L1     6  0.60
      P1  H  6931  6943       L1     1  1.00
      P1  H 10752 10763       L1    17  0.90

> <Gold.PLP.Chemscore.Internal.Correction>
0.4895

> <Gold.Rescore>
     Score         DG    S(hbond)    S(metal)    S(lipo)     H(rot)  DE(clash)    DE(int)     intcor
     12.26     -15.35       1.52        0.00     110.83       3.19       0.28       2.81       ----

> <Gold.Chemscore.Fitness>
12.2558

> <Gold.Chemscore.DG>
-15.3479

> <Gold.Chemscore.ZeroCoef>
-5.4800

> <Gold.Chemscore.Hbond>
1.5173

> <Gold.Chemscore.Metal>
0.0000

> <Gold.Chemscore.Lipo>
110.8304

> <Gold.Chemscore.Internal_Hbond>
0.0000

> <Gold.Chemscore.DEClash>
0.2779

> <Gold.Chemscore.DEInternal>
2.8142

> <Gold.Chemscore.Rot>
3.1903

> <Gold.Chemscore.Internal.Correction>
   9.000000E+99

> <Gold.Chemscore.Hbonds>
donor molecule, donor type, donor heavy atom, donor atom, acceptor molecule, acceptor atom, score
      P1  H  6896  6909       L1     6  0.06
      P1  H  6931  6943       L1     1  0.48
      P1  H 10752 10763       L1    17  0.17

> <Gold.Chemscore.Hbond.Weighted>
-5.0679

> <Gold.Chemscore.Metal.Weighted>
-0.0000

> <Gold.Chemscore.Lipo.Weighted>
-12.9672

> <Gold.Chemscore.Internal_Hbond.Weighted>
0.0000

> <Gold.Chemscore.DEClash.Weighted>
0.2779

> <Gold.Chemscore.DEInternal.Weighted>
2.8142

> <Gold.Chemscore.Rot.Weighted>
8.1671

> <Gold.Chemscore.Internal.Correction.Weighted>
   9.000000E+99

> <Gold.Protein.RotatedTorsions>
[ 6907 6896 6895 6894 ] final   19.97 input  -60.11 | X-H torsion
[ 7974 7965 7964 7962 ] final -166.76 input  175.53 | X-H torsion
[ 8008 7997 7996 7995 ] final  127.46 input   59.86 | X-H torsion
[ 10167 10162 10161 10158 ] final   22.80 input  -65.29 | X-H torsion
[ 10718 10713 10712 10709 ] final   47.15 input   66.30 | X-H torsion
[ 10763 10752 10751 10750 ] final   90.25 input  -60.55 | X-H torsion
[ 11005 11000 10999 10996 ] final   48.80 input  -57.11 | X-H torsion

> <Gold.Protein.ActiveResidues>
 VAL166  LYS551  ARG553  GLY616  TRP617  ASP618  TYR619  PRO620  LYS621  CYS622 
 ASP623  PHE694  ASN695  SER759  ASP760  ASP761  ALA762  ILE779  LEU786  VAL792 
 PHE793  MET794  SER795  GLU796  ALA797  LYS798  CYS799  TRP800  GLU811  SER814 

> <Gold.Protein.RotatedAtoms>
  151.8891  135.0423  160.0495 H   0  0  0  0  0  0  0  0  0  0  0  0  # atno 6907 bound_to 6896
  152.2450  133.5163  159.5300 H   0  0  0  0  0  0  0  0  0  0  0  0  # atno 6908 bound_to 6896
  150.7065  134.0953  159.3989 H   0  0  0  0  0  0  0  0  0  0  0  0  # atno 6909 bound_to 6896
  144.7238  140.2618  143.6263 H   0  0  0  0  0  0  0  0  0  0  0  0  # atno 7974 bound_to 7965
  156.2891  140.2668  156.2277 H   0  0  0  0  0  0  0  0  0  0  0  0  # atno 8008 bound_to 7997
  155.0104  140.0387  157.2415 H   0  0  0  0  0  0  0  0  0  0  0  0  # atno 8009 bound_to 7997
  154.7523  140.2745  155.6287 H   0  0  0  0  0  0  0  0  0  0  0  0  # atno 8010 bound_to 7997
  140.5320  143.9825  150.6471 H   0  0  0  0  0  0  0  0  0  0  0  0  # atno 10167 bound_to 10162
  157.4556  130.8165  149.7833 H   0  0  0  0  0  0  0  0  0  0  0  0  # atno 10718 bound_to 10713
  153.1956  135.4440  155.0204 H   0  0  0  0  0  0  0  0  0  0  0  0  # atno 10763 bound_to 10752
  154.8117  135.3297  154.7290 H   0  0  0  0  0  0  0  0  0  0  0  0  # atno 10764 bound_to 10752
  153.7740  135.6982  153.4956 H   0  0  0  0  0  0  0  0  0  0  0  0  # atno 10765 bound_to 10752
  140.1159  134.4893  155.8638 H   0  0  0  0  0  0  0  0  0  0  0  0  # atno 11005 bound_to 11000
  145.8128  139.2010  143.1983 LP  0  0  0  0  0  0  0  0  0  0  0  0  # atno 17320 bound_to 7965
  146.0581  140.7999  142.9748 LP  0  0  0  0  0  0  0  0  0  0  0  0  # atno 17321 bound_to 7965
  140.3203  143.3141  152.0791 LP  0  0  0  0  0  0  0  0  0  0  0  0  # atno 17342 bound_to 10162
  139.4957  144.6578  151.6533 LP  0  0  0  0  0  0  0  0  0  0  0  0  # atno 17343 bound_to 10162
  156.0005  130.3882  150.2623 LP  0  0  0  0  0  0  0  0  0  0  0  0  # atno 17370 bound_to 10713
  157.0797  131.0140  151.3161 LP  0  0  0  0  0  0  0  0  0  0  0  0  # atno 17371 bound_to 10713
  141.2141  133.6743  156.6795 LP  0  0  0  0  0  0  0  0  0  0  0  0  # atno 17394 bound_to 11000
  140.3029  134.8149  157.4113 LP  0  0  0  0  0  0  0  0  0  0  0  0  # atno 17395 bound_to 11000

$$$$
