AV-unprocessed.smi:698|AV-procd|sdf|3397|dock1
  -GOLD-   22720 0373D 1   1.00000     0.00000
 Structure written by MMmdl.
 33 34  0  0  0  0  0  0  0  0  1 V2000
  152.5606  142.6662  162.0552 C   0  0  0  0  0  0  0  0  0  0  0  0
  153.6873  141.9523  161.3046 C   0  0  0  0  0  0  0  0  0  0  0  0
  153.1861  141.4951  160.0518 O   0  0  0  0  0  0  0  0  0  0  0  0
  152.6874  142.4266  159.1642 C   0  0  0  0  0  0  0  0  0  0  0  0
  153.1014  143.7666  159.2860 C   0  0  0  0  0  0  0  0  0  0  0  0
  152.5903  144.7119  158.3791 C   0  0  0  0  0  0  0  0  0  0  0  0
  151.6865  144.2838  157.3881 C   0  0  0  0  0  0  0  0  0  0  0  0
  151.3167  142.9221  157.3286 C   0  0  0  0  0  0  0  0  0  0  0  0
  150.3999  142.5887  156.2973 N   0  0  0  0  0  0  0  0  0  0  0  0
  150.2366  141.4058  155.6735 C   0  0  0  0  0  0  0  0  0  0  0  0
  150.8806  140.3883  155.9314 O   0  0  0  0  0  0  0  0  0  0  0  0
  149.1534  141.3530  154.5876 C   0  0  2  0  0  0  0  0  0  0  0  0
  147.7541  141.7164  155.0856 C   0  0  0  0  0  0  0  0  0  0  0  0
  146.8824  141.0571  154.0395 C   0  0  0  0  0  0  0  0  0  0  0  0
  147.6583  139.7819  153.7120 C   0  0  0  0  0  0  0  0  0  0  0  0
  149.0136  140.0267  154.0812 O   0  0  0  0  0  0  0  0  0  0  0  0
  151.8171  142.0199  158.2080 N   0  0  0  0  0  0  0  0  0  0  0  0
  152.9062  143.0266  163.0242 H   0  0  0  0  0  0  0  0  0  0  0  0
  151.7196  141.9944  162.2287 H   0  0  0  0  0  0  0  0  0  0  0  0
  152.1953  143.5237  161.4898 H   0  0  0  0  0  0  0  0  0  0  0  0
  154.5198  142.6412  161.1531 H   0  0  0  0  0  0  0  0  0  0  0  0
  154.0480  141.1127  161.9010 H   0  0  0  0  0  0  0  0  0  0  0  0
  153.7962  144.0619  160.0582 H   0  0  0  0  0  0  0  0  0  0  0  0
  152.8860  145.7487  158.4419 H   0  0  0  0  0  0  0  0  0  0  0  0
  151.2842  144.9970  156.6832 H   0  0  0  0  0  0  0  0  0  0  0  0
  149.8017  143.3394  155.9842 H   0  0  0  0  0  0  0  0  0  0  0  0
  149.4364  142.0089  153.7627 H   0  0  0  0  0  0  0  0  0  0  0  0
  147.5598  141.2813  156.0676 H   0  0  0  0  0  0  0  0  0  0  0  0
  147.5916  142.7930  155.1477 H   0  0  0  0  0  0  0  0  0  0  0  0
  145.8678  140.8616  154.3875 H   0  0  0  0  0  0  0  0  0  0  0  0
  146.8214  141.6935  153.1555 H   0  0  0  0  0  0  0  0  0  0  0  0
  147.2872  138.9421  154.3001 H   0  0  0  0  0  0  0  0  0  0  0  0
  147.5791  139.5170  152.6574 H   0  0  0  0  0  0  0  0  0  0  0  0
  1  2  1  0  0  0  0
  1 18  1  0  0  0  0
  1 19  1  0  0  0  0
  1 20  1  0  0  0  0
  2  3  1  0  0  0  0
  2 21  1  0  0  0  0
  2 22  1  0  0  0  0
  3  4  1  0  0  0  0
  4 17  1  0  0  0  0
  4  5  2  0  0  0  0
  5  6  1  0  0  0  0
  5 23  1  0  0  0  0
  6  7  2  0  0  0  0
  6 24  1  0  0  0  0
  7  8  1  0  0  0  0
  7 25  1  0  0  0  0
  8  9  1  0  0  0  0
  8 17  2  0  0  0  0
  9 10  1  0  0  0  0
  9 26  1  0  0  0  0
 10 11  2  0  0  0  0
 10 12  1  0  0  0  0
 12 16  1  0  0  0  0
 12 13  1  0  0  0  0
 12 27  1  0  0  0  0
 13 14  1  0  0  0  0
 13 28  1  0  0  0  0
 13 29  1  0  0  0  0
 14 15  1  0  0  0  0
 14 30  1  0  0  0  0
 14 31  1  0  0  0  0
 15 16  1  0  0  0  0
 15 32  1  0  0  0  0
 15 33  1  0  0  0  0
M  END
> <s_m_source_file>
AV-unprocessed.smi

> <i_m_source_file_index>
698

> <i_lp_mmshare_version>
43012

> <i_f3d_flags>
0

> <s_epik_input>
W0NIM11bQ0gyXU9jMVtjSF1bY0hdW2NIXWMobjEpW05IXUMoPU8pW0NAQEhdMltDSDJdW0NIMl1bQ0gyXU8y

> <s_epik_cmdline>
J2VwaWtfcHl0aG9uJywgJy1waCcsICc3LjAnLCAnLXRuJywgJzgnLCAnLW1hJywgJzIwMCcsICctbWV0YWxfYmluZGluZycsICctaW1hZScsICc8aW5maWxlLm1hZT4nLCAnLW9tYWUnLCAnPG91dGZpbGUubWFlPic=

> <r_lp_tautomer_probability>
1

> <r_epik_Ionization_Penalty>
3.42089e-05

> <r_epik_Ionization_Penalty_Charging>
0

> <r_epik_Ionization_Penalty_Neutral>
3.42089e-05

> <r_epik_State_Penalty>
-0

> <r_epik_Charging_Adjusted_Penalty>
0

> <i_epik_Tot_Q>
0

> <i_epik_Tot_abs_Q>
0

> <r_epik_Metal_State_Penalty>
-0

> <b_epik_Metal_Only>
0

> <s_lp_Force_Field>
OPLS_2005

> <r_lp_Energy>
21.1038

> <b_lp_Chiralities_Consistent>
1

> <s_lp_Variant>
AV-unprocessed.smi:698-1

> <Gold.Version>
5.8.1

> <Gold.Id.Protein>
6NUR|6NUR_protein|mol2

> <Gold.PLP.Fitness>
44.4863

> <Gold.PLP.PLP>
-42.4055

> <Gold.PLP.part.hbond>
-1.0000

> <Gold.PLP.part.metal>
0.0000

> <Gold.PLP.part.buried>
-6.1388

> <Gold.PLP.part.nonpolar>
-36.5088

> <Gold.PLP.part.repulsive>
1.0437

> <Gold.PLP.ligand.clash>
0.0000

> <Gold.PLP.ligand.torsion>
0.4871

> <Gold.PLP.Chemscore.Hbond>
1.0000

> <Gold.PLP.Chemscore.CHOScore>
0.0000

> <Gold.PLP.Chemscore.Metal>
0.0000

> <Gold.Chemscore.Hbonds>
donor molecule, donor type, donor heavy atom, donor atom, acceptor molecule, acceptor atom, score
      L1  H     9    26       P1  8028  1.00

> <Gold.PLP.Chemscore.Internal.Correction>
0.0551

> <Gold.Rescore>
     Score         DG    S(hbond)    S(metal)    S(lipo)     H(rot)  DE(clash)    DE(int)     intcor
     13.91     -15.60       1.00        0.00      88.96       1.42       0.00       1.68       ----

> <Gold.Chemscore.Fitness>
13.9085

> <Gold.Chemscore.DG>
-15.5951

> <Gold.Chemscore.ZeroCoef>
-5.4800

> <Gold.Chemscore.Hbond>
0.9995

> <Gold.Chemscore.Metal>
0.0000

> <Gold.Chemscore.Lipo>
88.9574

> <Gold.Chemscore.Internal_Hbond>
0.0000

> <Gold.Chemscore.DEClash>
0.0042

> <Gold.Chemscore.DEInternal>
1.6824

> <Gold.Chemscore.Rot>
1.4185

> <Gold.Chemscore.Internal.Correction>
   9.000000E+99

> <Gold.Chemscore.Hbonds>
donor molecule, donor type, donor heavy atom, donor atom, acceptor molecule, acceptor atom, score
      L1  H     9    26       P1  8028  1.00

> <Gold.Chemscore.Hbond.Weighted>
-3.3384

> <Gold.Chemscore.Metal.Weighted>
-0.0000

> <Gold.Chemscore.Lipo.Weighted>
-10.4080

> <Gold.Chemscore.Internal_Hbond.Weighted>
0.0000

> <Gold.Chemscore.DEClash.Weighted>
0.0042

> <Gold.Chemscore.DEInternal.Weighted>
1.6824

> <Gold.Chemscore.Rot.Weighted>
3.6313

> <Gold.Chemscore.Internal.Correction.Weighted>
   9.000000E+99

> <Gold.Protein.RotatedTorsions>
[ 6907 6896 6895 6894 ] final  -97.09 input  -60.11 | X-H torsion
[ 7974 7965 7964 7962 ] final -175.63 input  175.53 | X-H torsion
[ 8008 7997 7996 7995 ] final   42.09 input   59.86 | X-H torsion
[ 10167 10162 10161 10158 ] final  166.93 input  -65.29 | X-H torsion
[ 10718 10713 10712 10709 ] final  160.64 input   66.30 | X-H torsion
[ 10763 10752 10751 10750 ] final -170.24 input  -60.55 | X-H torsion
[ 11005 11000 10999 10996 ] final   97.67 input  -57.11 | X-H torsion

> <Gold.Protein.ActiveResidues>
 VAL166  LYS551  ARG553  GLY616  TRP617  ASP618  TYR619  PRO620  LYS621  CYS622 
 ASP623  PHE694  ASN695  SER759  ASP760  ASP761  ALA762  ILE779  LEU786  VAL792 
 PHE793  MET794  SER795  GLU796  ALA797  LYS798  CYS799  TRP800  GLU811  SER814 

> <Gold.Protein.RotatedAtoms>
  150.7006  134.1402  159.4101 H   0  0  0  0  0  0  0  0  0  0  0  0  # atno 6907 bound_to 6896
  151.9387  135.0221  160.0543 H   0  0  0  0  0  0  0  0  0  0  0  0  # atno 6908 bound_to 6896
  152.2113  133.4878  159.5148 H   0  0  0  0  0  0  0  0  0  0  0  0  # atno 6909 bound_to 6896
  144.7128  140.1292  143.6400 H   0  0  0  0  0  0  0  0  0  0  0  0  # atno 7974 bound_to 7965
  155.2804  140.3372  155.4258 H   0  0  0  0  0  0  0  0  0  0  0  0  # atno 8008 bound_to 7997
  156.2092  140.1763  156.7773 H   0  0  0  0  0  0  0  0  0  0  0  0  # atno 8009 bound_to 7997
  154.5663  140.0678  156.8880 H   0  0  0  0  0  0  0  0  0  0  0  0  # atno 8010 bound_to 7997
  139.4935  144.3975  151.9447 H   0  0  0  0  0  0  0  0  0  0  0  0  # atno 10167 bound_to 10162
  157.1476  131.0556  151.2296 H   0  0  0  0  0  0  0  0  0  0  0  0  # atno 10718 bound_to 10713
  154.6436  135.2902  155.0073 H   0  0  0  0  0  0  0  0  0  0  0  0  # atno 10763 bound_to 10752
  154.1191  135.6551  153.4903 H   0  0  0  0  0  0  0  0  0  0  0  0  # atno 10764 bound_to 10752
  153.0339  135.5283  154.7313 H   0  0  0  0  0  0  0  0  0  0  0  0  # atno 10765 bound_to 10752
  139.8775  134.9012  156.4342 H   0  0  0  0  0  0  0  0  0  0  0  0  # atno 11005 bound_to 11000
  145.9302  139.2601  143.1330 LP  0  0  0  0  0  0  0  0  0  0  0  0  # atno 17320 bound_to 7965
  145.9531  140.8894  143.0249 LP  0  0  0  0  0  0  0  0  0  0  0  0  # atno 17321 bound_to 7965
  140.3414  144.3199  150.5966 LP  0  0  0  0  0  0  0  0  0  0  0  0  # atno 17342 bound_to 10162
  140.5563  143.2198  151.7842 LP  0  0  0  0  0  0  0  0  0  0  0  0  # atno 17343 bound_to 10162
  157.4250  130.7458  149.6944 LP  0  0  0  0  0  0  0  0  0  0  0  0  # atno 17370 bound_to 10713
  155.9776  130.4060  150.3699 LP  0  0  0  0  0  0  0  0  0  0  0  0  # atno 17371 bound_to 10713
  140.9045  133.7756  155.9719 LP  0  0  0  0  0  0  0  0  0  0  0  0  # atno 17394 bound_to 11000
  140.8615  134.2835  157.5232 LP  0  0  0  0  0  0  0  0  0  0  0  0  # atno 17395 bound_to 11000

$$$$
