AV-unprocessed.smi:3046|AV-procd|sdf|11613|dock3
  -GOLD-   2272016593D 1   1.00000     0.00000
 Structure written by MMmdl.
 38 38  0  0  0  0  0  0  0  0  2 V2000
  152.0884  139.0223  154.7394 C   0  0  0  0  0  0  0  0  0  0  0  0
  150.9274  138.5793  154.2341 C   0  0  0  0  0  0  0  0  0  0  0  0
  149.6606  139.4028  154.1466 C   0  0  0  0  0  0  0  0  0  0  0  0
  148.6336  138.6818  153.4093 N   0  0  0  0  0  0  0  0  0  0  0  0
  147.4231  139.1783  153.1144 C   0  0  0  0  0  0  0  0  0  0  0  0
  147.0631  140.3106  153.4393 O   0  0  0  0  0  0  0  0  0  0  0  0
  146.4829  138.2600  152.3243 C   0  0  2  0  0  0  0  0  0  0  0  0
  146.2262  138.8455  150.9241 C   0  0  0  0  0  0  0  0  0  0  0  0
  145.2102  138.0691  153.0599 N   0  3  0  0  0  0  0  0  0  0  0  0
  144.3220  136.9937  152.5632 C   0  0  2  0  0  0  0  0  0  0  0  0
  142.9013  137.2189  153.1066 C   0  0  0  0  0  0  0  0  0  0  0  0
  144.8834  135.6031  152.9418 C   0  0  0  0  0  0  0  0  0  0  0  0
  144.4178  134.5422  152.0667 N   0  0  0  0  0  0  0  0  0  0  0  0
  143.6189  133.4615  152.3768 C   0  0  0  0  0  0  0  0  0  0  0  0
  143.4637  132.7304  151.2340 C   0  0  0  0  0  0  0  0  0  0  0  0
  144.2217  133.4485  150.2673 C   0  0  0  0  0  0  0  0  0  0  0  0
  144.7956  134.5300  150.7701 N   0  0  0  0  0  0  0  0  0  0  0  0
  152.1883  140.0277  155.1221 H   0  0  0  0  0  0  0  0  0  0  0  0
  152.9571  138.3815  154.7767 H   0  0  0  0  0  0  0  0  0  0  0  0
  150.8675  137.5656  153.8651 H   0  0  0  0  0  0  0  0  0  0  0  0
  149.3096  139.6120  155.1579 H   0  0  0  0  0  0  0  0  0  0  0  0
  149.8636  140.3601  153.6636 H   0  0  0  0  0  0  0  0  0  0  0  0
  148.8606  137.7471  153.1013 H   0  0  0  0  0  0  0  0  0  0  0  0
  146.9818  137.2962  152.2187 H   0  0  0  0  0  0  0  0  0  0  0  0
  147.1604  139.0067  150.3846 H   0  0  0  0  0  0  0  0  0  0  0  0
  145.7076  139.8036  150.9806 H   0  0  0  0  0  0  0  0  0  0  0  0
  145.6182  138.1773  150.3145 H   0  0  0  0  0  0  0  0  0  0  0  0
  145.4280  137.8680  154.0256 H   0  0  0  0  0  0  0  0  0  0  0  0
  144.2653  137.0686  151.4770 H   0  0  0  0  0  0  0  0  0  0  0  0
  142.1950  136.4954  152.6986 H   0  0  0  0  0  0  0  0  0  0  0  0
  142.5337  138.2105  152.8405 H   0  0  0  0  0  0  0  0  0  0  0  0
  142.8737  137.1343  154.1936 H   0  0  0  0  0  0  0  0  0  0  0  0
  145.9730  135.5984  152.9156 H   0  0  0  0  0  0  0  0  0  0  0  0
  144.5988  135.3518  153.9645 H   0  0  0  0  0  0  0  0  0  0  0  0
  143.2303  133.3045  153.3724 H   0  0  0  0  0  0  0  0  0  0  0  0
  142.8976  131.8193  151.1084 H   0  0  0  0  0  0  0  0  0  0  0  0
  144.3727  133.2165  149.2233 H   0  0  0  0  0  0  0  0  0  0  0  0
  144.7095  138.9458  153.0285 H   0  0  0  0  0  0  0  0  0  0  0  0
  1  2  2  0  0  0  0
  1 18  1  0  0  0  0
  1 19  1  0  0  0  0
  2  3  1  0  0  0  0
  2 20  1  0  0  0  0
  3  4  1  0  0  0  0
  3 21  1  0  0  0  0
  3 22  1  0  0  0  0
  4  5  1  0  0  0  0
  4 23  1  0  0  0  0
  5  6  2  0  0  0  0
  5  7  1  0  0  0  0
  7  8  1  0  0  0  0
  7  9  1  0  0  0  0
  7 24  1  0  0  0  0
  8 25  1  0  0  0  0
  8 26  1  0  0  0  0
  8 27  1  0  0  0  0
  9 10  1  0  0  0  0
  9 28  1  0  0  0  0
  9 38  1  0  0  0  0
 10 11  1  0  0  0  0
 10 12  1  0  0  0  0
 10 29  1  0  0  0  0
 11 30  1  0  0  0  0
 11 31  1  0  0  0  0
 11 32  1  0  0  0  0
 12 13  1  0  0  0  0
 12 33  1  0  0  0  0
 12 34  1  0  0  0  0
 13 17  1  0  0  0  0
 13 14  1  0  0  0  0
 14 15  2  0  0  0  0
 14 35  1  0  0  0  0
 15 16  1  0  0  0  0
 15 36  1  0  0  0  0
 16 17  2  0  0  0  0
 16 37  1  0  0  0  0
M  CHG  1   9   1
M  END
> <s_m_source_file>
AV-unprocessed.smi

> <i_m_source_file_index>
3046

> <i_lp_mmshare_version>
43012

> <i_f3d_flags>
0

> <s_epik_input>
W0NIMl09W0NIXVtDSDJdW05IXUMoPU8pW0NASF0oW0NIM10pW05IXVtDQEhdKFtDSDNdKVtDSDJdbjFbY0hdW2NIXVtjSF1uMQ==

> <s_epik_cmdline>
J2VwaWtfcHl0aG9uJywgJy1waCcsICc3LjAnLCAnLXRuJywgJzgnLCAnLW1hJywgJzIwMCcsICctbWV0YWxfYmluZGluZycsICctaW1hZScsICc8aW5maWxlLm1hZT4nLCAnLW9tYWUnLCAnPG91dGZpbGUubWFlPic=

> <r_lp_tautomer_probability>
1

> <r_epik_Ionization_Penalty>
0.132961

> <r_epik_Ionization_Penalty_Charging>
0.132956

> <r_epik_Ionization_Penalty_Neutral>
5.00268e-06

> <r_epik_State_Penalty>
0.122332

> <r_epik_Charging_Adjusted_Penalty>
0.255288

> <i_epik_Tot_Q>
1

> <i_epik_Tot_abs_Q>
1

> <r_epik_Metal_State_Penalty>
0.122338

> <b_epik_Metal_Only>
0

> <s_lp_Force_Field>
OPLS_2005

> <r_lp_Energy>
6.28532

> <b_lp_Chiralities_Consistent>
1

> <s_lp_Variant>
AV-unprocessed.smi:3046-1

> <Gold.Version>
5.8.1

> <Gold.Id.Protein>
6NUR|6NUR_protein|mol2

> <Gold.PLP.Fitness>
45.7035

> <Gold.PLP.PLP>
-32.1868

> <Gold.PLP.part.hbond>
-3.0000

> <Gold.PLP.part.metal>
0.0000

> <Gold.PLP.part.buried>
2.6549

> <Gold.PLP.part.nonpolar>
-32.1308

> <Gold.PLP.part.repulsive>
0.5640

> <Gold.PLP.ligand.clash>
0.0000

> <Gold.PLP.ligand.torsion>
0.5287

> <Gold.PLP.Chemscore.Hbond>
3.0000

> <Gold.PLP.Chemscore.CHOScore>
1.8411

> <Gold.PLP.Chemscore.Metal>
0.0000

> <Gold.Chemscore.Hbonds>
donor molecule, donor type, donor heavy atom, donor atom, acceptor molecule, acceptor atom, score
      L1  H     4    23       P1  7948  1.00
      L1  H     9    38       P1 10175  2.00
      L1  C    14    35       P1 10957  1.00
      L1  C    16    37       P1  7921  0.16

> <Gold.PLP.Chemscore.Internal.Correction>
0.0507

> <Gold.Rescore>
     Score         DG    S(hbond)    S(metal)    S(lipo)     H(rot)  DE(clash)    DE(int)     intcor
     12.93     -15.24       1.97        0.00      76.67       2.26       1.61       0.70       ----

> <Gold.Chemscore.Fitness>
12.9273

> <Gold.Chemscore.DG>
-15.2379

> <Gold.Chemscore.ZeroCoef>
-5.4800

> <Gold.Chemscore.Hbond>
1.9701

> <Gold.Chemscore.Metal>
0.0000

> <Gold.Chemscore.Lipo>
76.6670

> <Gold.Chemscore.Internal_Hbond>
0.0000

> <Gold.Chemscore.DEClash>
1.6084

> <Gold.Chemscore.DEInternal>
0.7021

> <Gold.Chemscore.Rot>
2.2626

> <Gold.Chemscore.Internal.Correction>
   9.000000E+99

> <Gold.Chemscore.Hbonds>
donor molecule, donor type, donor heavy atom, donor atom, acceptor molecule, acceptor atom, score
      L1  H     4    23       P1  7948  0.98
      L1  H     9    38       P1 10175  1.00

> <Gold.Chemscore.Hbond.Weighted>
-6.5800

> <Gold.Chemscore.Metal.Weighted>
-0.0000

> <Gold.Chemscore.Lipo.Weighted>
-8.9700

> <Gold.Chemscore.Internal_Hbond.Weighted>
0.0000

> <Gold.Chemscore.DEClash.Weighted>
1.6084

> <Gold.Chemscore.DEInternal.Weighted>
0.7021

> <Gold.Chemscore.Rot.Weighted>
5.7922

> <Gold.Chemscore.Internal.Correction.Weighted>
   9.000000E+99

> <Gold.Protein.RotatedTorsions>
[ 6907 6896 6895 6894 ] final  -86.81 input  -60.11 | X-H torsion
[ 7974 7965 7964 7962 ] final  156.97 input  175.53 | X-H torsion
[ 8008 7997 7996 7995 ] final   -0.90 input   59.86 | X-H torsion
[ 10167 10162 10161 10158 ] final  122.89 input  -65.29 | X-H torsion
[ 10718 10713 10712 10709 ] final  133.94 input   66.30 | X-H torsion
[ 10763 10752 10751 10750 ] final -116.47 input  -60.55 | X-H torsion
[ 11005 11000 10999 10996 ] final   -5.85 input  -57.11 | X-H torsion

> <Gold.Protein.ActiveResidues>
 VAL166  LYS551  ARG553  GLY616  TRP617  ASP618  TYR619  PRO620  LYS621  CYS622 
 ASP623  PHE694  ASN695  SER759  ASP760  ASP761  ALA762  ILE779  LEU786  VAL792 
 PHE793  MET794  SER795  GLU796  ALA797  LYS798  CYS799  TRP800  GLU811  SER814 

> <Gold.Protein.RotatedAtoms>
  150.6866  134.2993  159.4699 H   0  0  0  0  0  0  0  0  0  0  0  0  # atno 6907 bound_to 6896
  152.0890  134.9417  160.0581 H   0  0  0  0  0  0  0  0  0  0  0  0  # atno 6908 bound_to 6896
  152.0741  133.4086  159.4509 H   0  0  0  0  0  0  0  0  0  0  0  0  # atno 6909 bound_to 6896
  144.7931  139.7276  143.6213 H   0  0  0  0  0  0  0  0  0  0  0  0  # atno 7974 bound_to 7965
  154.6529  140.2573  155.7194 H   0  0  0  0  0  0  0  0  0  0  0  0  # atno 8008 bound_to 7997
  156.2583  140.2864  156.0891 H   0  0  0  0  0  0  0  0  0  0  0  0  # atno 8009 bound_to 7997
  155.1424  140.0380  157.2792 H   0  0  0  0  0  0  0  0  0  0  0  0  # atno 8010 bound_to 7997
  139.5831  144.6995  151.3477 H   0  0  0  0  0  0  0  0  0  0  0  0  # atno 10167 bound_to 10162
  157.4723  131.1081  150.9787 H   0  0  0  0  0  0  0  0  0  0  0  0  # atno 10718 bound_to 10713
  154.8520  135.4344  154.1827 H   0  0  0  0  0  0  0  0  0  0  0  0  # atno 10763 bound_to 10752
  153.2913  135.6961  153.7296 H   0  0  0  0  0  0  0  0  0  0  0  0  # atno 10764 bound_to 10752
  153.6462  135.3459  155.3061 H   0  0  0  0  0  0  0  0  0  0  0  0  # atno 10765 bound_to 10752
  140.6956  133.9033  155.8648 H   0  0  0  0  0  0  0  0  0  0  0  0  # atno 11005 bound_to 11000
  146.2190  139.5601  142.9631 LP  0  0  0  0  0  0  0  0  0  0  0  0  # atno 17320 bound_to 7965
  145.5743  141.0390  143.2157 LP  0  0  0  0  0  0  0  0  0  0  0  0  # atno 17321 bound_to 7965
  140.7107  143.7398  150.7562 LP  0  0  0  0  0  0  0  0  0  0  0  0  # atno 17342 bound_to 10162
  140.0935  143.4855  152.2465 LP  0  0  0  0  0  0  0  0  0  0  0  0  # atno 17343 bound_to 10162
  157.0548  130.5801  149.5376 LP  0  0  0  0  0  0  0  0  0  0  0  0  # atno 17370 bound_to 10713
  156.0079  130.5168  150.7893 LP  0  0  0  0  0  0  0  0  0  0  0  0  # atno 17371 bound_to 10713
  141.0206  134.0895  157.4125 LP  0  0  0  0  0  0  0  0  0  0  0  0  # atno 17394 bound_to 11000
  139.8911  135.0116  156.6773 LP  0  0  0  0  0  0  0  0  0  0  0  0  # atno 17395 bound_to 11000

$$$$
