AV-unprocessed.smi:2747|AV-procd|sdf|10577|dock2
  -GOLD-   2272015 33D 1   1.00000     0.00000
 Structure written by MMmdl.
 24 25  0  0  0  0  0  0  0  0  1 V2000
  153.1166  137.0091  160.6378 O   0  0  0  0  0  0  0  0  0  0  0  0
  153.7180  138.0725  161.3534 C   0  0  2  0  0  0  0  0  0  0  0  0
  154.5802  138.9185  160.3948 C   0  0  0  0  0  0  0  0  0  0  0  0
  153.7948  139.8872  159.6510 N   0  0  0  0  0  0  0  0  0  0  0  0
  153.4859  139.6372  158.3472 N   0  0  0  0  0  0  0  0  0  0  0  0
  152.7899  140.6331  157.8862 N   0  0  0  0  0  0  0  0  0  0  0  0
  152.6375  141.5579  158.9057 C   0  0  0  0  0  0  0  0  0  0  0  0
  151.9796  142.8071  158.9543 C   0  0  0  0  0  0  0  0  0  0  0  0
  151.9786  143.5681  160.1439 C   0  0  0  0  0  0  0  0  0  0  0  0
  151.1646  145.0920  160.1631 Cl  0  0  0  0  0  0  0  0  0  0  0  0
  152.6372  143.0859  161.3009 C   0  0  0  0  0  0  0  0  0  0  0  0
  152.6483  144.0051  162.7638 Cl  0  0  0  0  0  0  0  0  0  0  0  0
  153.2961  141.8407  161.2674 C   0  0  0  0  0  0  0  0  0  0  0  0
  153.2846  141.0994  160.0736 C   0  0  0  0  0  0  0  0  0  0  0  0
  154.5241  137.4986  162.5339 C   0  0  0  0  0  0  0  0  0  0  0  0
  155.3727  138.4153  162.9998 F   0  0  0  0  0  0  0  0  0  0  0  0
  153.7157  137.0976  163.5158 F   0  0  0  0  0  0  0  0  0  0  0  0
  155.2374  136.4530  162.1157 F   0  0  0  0  0  0  0  0  0  0  0  0
  153.0151  137.2729  159.7361 H   0  0  0  0  0  0  0  0  0  0  0  0
  152.9146  138.6941  161.7510 H   0  0  0  0  0  0  0  0  0  0  0  0
  155.3515  139.4540  160.9498 H   0  0  0  0  0  0  0  0  0  0  0  0
  155.1009  138.2766  159.6833 H   0  0  0  0  0  0  0  0  0  0  0  0
  151.4760  143.1810  158.0749 H   0  0  0  0  0  0  0  0  0  0  0  0
  153.8031  141.4621  162.1427 H   0  0  0  0  0  0  0  0  0  0  0  0
  1  2  1  0  0  0  0
  1 19  1  0  0  0  0
  2  3  1  0  0  0  0
  2 15  1  0  0  0  0
  2 20  1  0  0  0  0
  3  4  1  0  0  0  0
  3 21  1  0  0  0  0
  3 22  1  0  0  0  0
  4 14  1  0  0  0  0
  4  5  1  0  0  0  0
  5  6  2  0  0  0  0
  6  7  1  0  0  0  0
  7 14  2  0  0  0  0
  7  8  1  0  0  0  0
  8  9  2  0  0  0  0
  8 23  1  0  0  0  0
  9 10  1  0  0  0  0
  9 11  1  0  0  0  0
 11 12  1  0  0  0  0
 11 13  2  0  0  0  0
 13 14  1  0  0  0  0
 13 24  1  0  0  0  0
 15 16  1  0  0  0  0
 15 17  1  0  0  0  0
 15 18  1  0  0  0  0
M  END
> <s_m_source_file>
AV-unprocessed.smi

> <i_m_source_file_index>
2747

> <i_lp_mmshare_version>
43012

> <i_f3d_flags>
0

> <s_epik_input>
RkMoRikoRilbQ0BIXShbT0hdKVtDSDJdbihubjEpYyhjMTIpW2NIXWMoQ2wpYyhDbClbY0hdMg==

> <s_epik_cmdline>
J2VwaWtfcHl0aG9uJywgJy1waCcsICc3LjAnLCAnLXRuJywgJzgnLCAnLW1hJywgJzIwMCcsICctbWV0YWxfYmluZGluZycsICctaW1hZScsICc8aW5maWxlLm1hZT4nLCAnLW9tYWUnLCAnPG91dGZpbGUubWFlPic=

> <r_lp_tautomer_probability>
1

> <r_epik_Ionization_Penalty>
0.0735676

> <r_epik_Ionization_Penalty_Charging>
0

> <r_epik_Ionization_Penalty_Neutral>
0.0735676

> <r_epik_State_Penalty>
0.0647209

> <r_epik_Charging_Adjusted_Penalty>
0.0647209

> <i_epik_Tot_Q>
0

> <i_epik_Tot_abs_Q>
0

> <r_epik_Metal_State_Penalty>
0.0647209

> <b_epik_Metal_Only>
0

> <s_lp_Force_Field>
OPLS_2005

> <r_lp_Energy>
9.1287

> <b_lp_Chiralities_Consistent>
1

> <s_lp_Variant>
AV-unprocessed.smi:2747-1

> <Gold.Version>
5.8.1

> <Gold.Id.Protein>
6NUR|6NUR_protein|mol2

> <Gold.PLP.Fitness>
42.3163

> <Gold.PLP.PLP>
-38.4429

> <Gold.PLP.part.hbond>
-2.6972

> <Gold.PLP.part.metal>
0.0000

> <Gold.PLP.part.buried>
-3.0117

> <Gold.PLP.part.nonpolar>
-33.5771

> <Gold.PLP.part.repulsive>
0.0000

> <Gold.PLP.ligand.clash>
0.0000

> <Gold.PLP.ligand.torsion>
0.8820

> <Gold.PLP.Chemscore.Hbond>
1.8763

> <Gold.PLP.Chemscore.CHOScore>
0.0000

> <Gold.PLP.Chemscore.Metal>
0.0000

> <Gold.Chemscore.Hbonds>
donor molecule, donor type, donor heavy atom, donor atom, acceptor molecule, acceptor atom, score
      P1  H  6896  6909       L1     1  0.07
      P1  H  7997  8009       L1     5  0.40

> <Gold.PLP.Chemscore.Internal.Correction>
0.0086

> <Gold.Rescore>
     Score         DG    S(hbond)    S(metal)    S(lipo)     H(rot)  DE(clash)    DE(int)     intcor
     14.69     -16.44       1.06        0.00     105.37       1.92       1.20       0.55       ----

> <Gold.Chemscore.Fitness>
14.6925

> <Gold.Chemscore.DG>
-16.4395

> <Gold.Chemscore.ZeroCoef>
-5.4800

> <Gold.Chemscore.Hbond>
1.0643

> <Gold.Chemscore.Metal>
0.0000

> <Gold.Chemscore.Lipo>
105.3741

> <Gold.Chemscore.Internal_Hbond>
0.0000

> <Gold.Chemscore.DEClash>
1.1970

> <Gold.Chemscore.DEInternal>
0.5500

> <Gold.Chemscore.Rot>
1.9235

> <Gold.Chemscore.Internal.Correction>
   9.000000E+99

> <Gold.Chemscore.Hbonds>
donor molecule, donor type, donor heavy atom, donor atom, acceptor molecule, acceptor atom, score
      P1  H  7997  8009       L1     5  0.01

> <Gold.Chemscore.Hbond.Weighted>
-3.5549

> <Gold.Chemscore.Metal.Weighted>
-0.0000

> <Gold.Chemscore.Lipo.Weighted>
-12.3288

> <Gold.Chemscore.Internal_Hbond.Weighted>
0.0000

> <Gold.Chemscore.DEClash.Weighted>
1.1970

> <Gold.Chemscore.DEInternal.Weighted>
0.5500

> <Gold.Chemscore.Rot.Weighted>
4.9242

> <Gold.Chemscore.Internal.Correction.Weighted>
   9.000000E+99

> <Gold.Protein.RotatedTorsions>
[ 6907 6896 6895 6894 ] final  137.06 input  -60.11 | X-H torsion
[ 7974 7965 7964 7962 ] final    9.24 input  175.53 | X-H torsion
[ 8008 7997 7996 7995 ] final  143.83 input   59.86 | X-H torsion
[ 10167 10162 10161 10158 ] final  113.92 input  -65.29 | X-H torsion
[ 10718 10713 10712 10709 ] final   61.11 input   66.30 | X-H torsion
[ 10763 10752 10751 10750 ] final   80.03 input  -60.55 | X-H torsion
[ 11005 11000 10999 10996 ] final  -34.45 input  -57.11 | X-H torsion

> <Gold.Protein.ActiveResidues>
 VAL166  LYS551  ARG553  GLY616  TRP617  ASP618  TYR619  PRO620  LYS621  CYS622 
 ASP623  PHE694  ASN695  SER759  ASP760  ASP761  ALA762  ILE779  LEU786  VAL792 
 PHE793  MET794  SER795  GLU796  ALA797  LYS798  CYS799  TRP800  GLU811  SER814 

> <Gold.Protein.RotatedAtoms>
  152.2824  133.5483  159.5505 H   0  0  0  0  0  0  0  0  0  0  0  0  # atno 6907 bound_to 6896
  150.7201  134.0545  159.3819 H   0  0  0  0  0  0  0  0  0  0  0  0  # atno 6908 bound_to 6896
  151.8455  135.0576  160.0504 H   0  0  0  0  0  0  0  0  0  0  0  0  # atno 6909 bound_to 6896
  146.2406  139.9813  142.8436 H   0  0  0  0  0  0  0  0  0  0  0  0  # atno 7974 bound_to 7965
  156.2922  140.2252  156.4954 H   0  0  0  0  0  0  0  0  0  0  0  0  # atno 8008 bound_to 7997
  154.7735  140.0465  157.1092 H   0  0  0  0  0  0  0  0  0  0  0  0  # atno 8009 bound_to 7997
  154.9845  140.3082  155.4935 H   0  0  0  0  0  0  0  0  0  0  0  0  # atno 8010 bound_to 7997
  139.6426  144.7125  151.2206 H   0  0  0  0  0  0  0  0  0  0  0  0  # atno 10167 bound_to 10162
  157.5803  130.8976  149.9420 H   0  0  0  0  0  0  0  0  0  0  0  0  # atno 10718 bound_to 10713
  153.1000  135.4818  154.8850 H   0  0  0  0  0  0  0  0  0  0  0  0  # atno 10763 bound_to 10752
  154.7368  135.3073  154.8799 H   0  0  0  0  0  0  0  0  0  0  0  0  # atno 10764 bound_to 10752
  153.9419  135.6833  153.4797 H   0  0  0  0  0  0  0  0  0  0  0  0  # atno 10765 bound_to 10752
  140.9717  133.7106  156.1534 H   0  0  0  0  0  0  0  0  0  0  0  0  # atno 11005 bound_to 11000
  145.1589  140.9662  143.4389 LP  0  0  0  0  0  0  0  0  0  0  0  0  # atno 17320 bound_to 7965
  145.0135  139.3489  143.6108 LP  0  0  0  0  0  0  0  0  0  0  0  0  # atno 17321 bound_to 7965
  140.7498  143.6285  150.8445 LP  0  0  0  0  0  0  0  0  0  0  0  0  # atno 17342 bound_to 10162
  139.9925  143.5832  152.2905 LP  0  0  0  0  0  0  0  0  0  0  0  0  # atno 17343 bound_to 10162
  156.0849  130.3669  150.0507 LP  0  0  0  0  0  0  0  0  0  0  0  0  # atno 17370 bound_to 10713
  156.8647  130.9504  151.3615 LP  0  0  0  0  0  0  0  0  0  0  0  0  # atno 17371 bound_to 10713
  140.7319  134.4245  157.5565 LP  0  0  0  0  0  0  0  0  0  0  0  0  # atno 17394 bound_to 11000
  139.8915  134.8779  156.2318 LP  0  0  0  0  0  0  0  0  0  0  0  0  # atno 17395 bound_to 11000

$$$$
