AV-unprocessed.smi:2066|AV-procd|sdf|8420|dock10
  -GOLD-   2272011113D 1   1.00000     0.00000
 Structure written by MMmdl.
 40 41  0  0  0  0  0  0  0  0  2 V2000
  146.4107  140.6119  155.8428 C   0  0  0  0  0  0  0  0  0  0  0  0
  147.1593  140.8714  154.5121 C   0  0  0  0  0  0  0  0  0  0  0  0
  146.9756  142.3692  154.1500 C   0  0  0  0  0  0  0  0  0  0  0  0
  148.6891  140.6095  154.6729 C   0  0  0  0  0  0  0  0  0  0  0  0
  149.3362  141.4282  155.6989 N   0  0  0  0  0  0  0  0  0  0  0  0
  150.2890  141.0096  156.5448 C   0  0  0  0  0  0  0  0  0  0  0  0
  150.7242  139.8578  156.5599 O   0  0  0  0  0  0  0  0  0  0  0  0
  150.6882  142.0029  157.3579 N   0  0  0  0  0  0  0  0  0  0  0  0
  151.6590  141.9527  158.3922 C   0  0  0  0  0  0  0  0  0  0  0  0
  151.9985  140.8411  159.0552 N   0  0  0  0  0  0  0  0  0  0  0  0
  152.9792  141.0849  160.0199 C   0  0  0  0  0  0  0  0  0  0  0  0
  153.3772  142.3972  160.0787 C   0  0  0  0  0  0  0  0  0  0  0  0
  152.5297  143.3856  158.9190 S   0  0  0  0  0  0  0  0  0  0  0  0
  146.6362  139.9771  153.4129 N   0  3  0  0  0  0  0  0  0  0  0  0
  147.3867  140.0442  152.1252 C   0  0  0  0  0  0  0  0  0  0  0  0
  146.6571  139.2552  151.0275 C   0  0  0  0  0  0  0  0  0  0  0  0
  146.5220  137.9021  151.4356 O   0  0  0  0  0  0  0  0  0  0  0  0
  145.7377  137.7889  152.6138 C   0  0  0  0  0  0  0  0  0  0  0  0
  146.4067  138.5480  153.7739 C   0  0  0  0  0  0  0  0  0  0  0  0
  146.6842  141.3427  156.6042 H   0  0  0  0  0  0  0  0  0  0  0  0
  146.6386  139.6293  156.2564 H   0  0  0  0  0  0  0  0  0  0  0  0
  145.3299  140.6788  155.7187 H   0  0  0  0  0  0  0  0  0  0  0  0
  147.4331  143.0285  154.8878 H   0  0  0  0  0  0  0  0  0  0  0  0
  145.9256  142.6601  154.1177 H   0  0  0  0  0  0  0  0  0  0  0  0
  147.4243  142.6050  153.1843 H   0  0  0  0  0  0  0  0  0  0  0  0
  148.9019  139.5626  154.8839 H   0  0  0  0  0  0  0  0  0  0  0  0
  149.1936  140.8220  153.7297 H   0  0  0  0  0  0  0  0  0  0  0  0
  149.0412  142.3918  155.7611 H   0  0  0  0  0  0  0  0  0  0  0  0
  150.2456  142.9001  157.2236 H   0  0  0  0  0  0  0  0  0  0  0  0
  153.3382  140.2637  160.6222 H   0  0  0  0  0  0  0  0  0  0  0  0
  154.1142  142.8405  160.7317 H   0  0  0  0  0  0  0  0  0  0  0  0
  147.5123  141.0685  151.7821 H   0  0  0  0  0  0  0  0  0  0  0  0
  148.3866  139.6265  152.2502 H   0  0  0  0  0  0  0  0  0  0  0  0
  145.6790  139.6897  150.8144 H   0  0  0  0  0  0  0  0  0  0  0  0
  147.2295  139.2868  150.1001 H   0  0  0  0  0  0  0  0  0  0  0  0
  144.7316  138.1696  152.4312 H   0  0  0  0  0  0  0  0  0  0  0  0
  145.6346  136.7335  152.8669 H   0  0  0  0  0  0  0  0  0  0  0  0
  147.3527  138.0722  154.0350 H   0  0  0  0  0  0  0  0  0  0  0  0
  145.7449  138.4510  154.6329 H   0  0  0  0  0  0  0  0  0  0  0  0
  145.7156  140.3388  153.2086 H   0  0  0  0  0  0  0  0  0  0  0  0
  1  2  1  0  0  0  0
  1 20  1  0  0  0  0
  1 21  1  0  0  0  0
  1 22  1  0  0  0  0
  2  3  1  0  0  0  0
  2  4  1  0  0  0  0
  2 14  1  0  0  0  0
  3 23  1  0  0  0  0
  3 24  1  0  0  0  0
  3 25  1  0  0  0  0
  4  5  1  0  0  0  0
  4 26  1  0  0  0  0
  4 27  1  0  0  0  0
  5  6  1  0  0  0  0
  5 28  1  0  0  0  0
  6  7  2  0  0  0  0
  6  8  1  0  0  0  0
  8  9  1  0  0  0  0
  8 29  1  0  0  0  0
  9 13  1  0  0  0  0
  9 10  2  0  0  0  0
 10 11  1  0  0  0  0
 11 12  2  0  0  0  0
 11 30  1  0  0  0  0
 12 13  1  0  0  0  0
 12 31  1  0  0  0  0
 14 19  1  0  0  0  0
 14 15  1  0  0  0  0
 14 40  1  0  0  0  0
 15 16  1  0  0  0  0
 15 32  1  0  0  0  0
 15 33  1  0  0  0  0
 16 17  1  0  0  0  0
 16 34  1  0  0  0  0
 16 35  1  0  0  0  0
 17 18  1  0  0  0  0
 18 19  1  0  0  0  0
 18 36  1  0  0  0  0
 18 37  1  0  0  0  0
 19 38  1  0  0  0  0
 19 39  1  0  0  0  0
M  CHG  1  14   1
M  END
> <s_m_source_file>
AV-unprocessed.smi

> <i_m_source_file_index>
2066

> <i_lp_mmshare_version>
43012

> <i_f3d_flags>
0

> <s_epik_input>
W0NIMl0xW0NIMl1PW0NIMl1bQ0gyXU4xQyhbQ0gzXSkoW0NIM10pW0NIMl1bTkhdQyg9TylbTkhdYzJuW2NIXVtjSF1zMg==

> <s_epik_cmdline>
J2VwaWtfcHl0aG9uJywgJy1waCcsICc3LjAnLCAnLXRuJywgJzgnLCAnLW1hJywgJzIwMCcsICctbWV0YWxfYmluZGluZycsICctaW1hZScsICc8aW5maWxlLm1hZT4nLCAnLW9tYWUnLCAnPG91dGZpbGUubWFlPic=

> <r_lp_tautomer_probability>
0.999

> <r_epik_Ionization_Penalty>
0.695839

> <r_epik_Ionization_Penalty_Charging>
0.695697

> <r_epik_Ionization_Penalty_Neutral>
0.000141498

> <r_epik_State_Penalty>
0.717972

> <r_epik_Charging_Adjusted_Penalty>
1.41367

> <i_epik_Tot_Q>
1

> <i_epik_Tot_abs_Q>
1

> <r_epik_Metal_State_Penalty>
0.756569

> <b_epik_Metal_Only>
0

> <s_lp_Force_Field>
OPLS_2005

> <r_lp_Energy>
24.1099

> <b_lp_Chiralities_Consistent>
1

> <s_lp_Variant>
AV-unprocessed.smi:2066-2

> <Gold.Version>
5.8.1

> <Gold.Id.Protein>
6NUR|6NUR_protein|mol2

> <Gold.PLP.Fitness>
45.6565

> <Gold.PLP.PLP>
-34.6134

> <Gold.PLP.part.hbond>
-3.0000

> <Gold.PLP.part.metal>
0.0000

> <Gold.PLP.part.buried>
-0.4845

> <Gold.PLP.part.nonpolar>
-32.6598

> <Gold.PLP.part.repulsive>
1.4498

> <Gold.PLP.ligand.clash>
0.0000

> <Gold.PLP.ligand.torsion>
0.5231

> <Gold.PLP.Chemscore.Hbond>
4.0000

> <Gold.PLP.Chemscore.CHOScore>
0.0000

> <Gold.PLP.Chemscore.Metal>
0.0000

> <Gold.Chemscore.Hbonds>
donor molecule, donor type, donor heavy atom, donor atom, acceptor molecule, acceptor atom, score
      L1  H     5    28       P1  8028  0.24
      L1  H    14    40       P1 10175  1.33

> <Gold.PLP.Chemscore.Internal.Correction>
0.0893

> <Gold.Rescore>
     Score         DG    S(hbond)    S(metal)    S(lipo)     H(rot)  DE(clash)    DE(int)     intcor
     18.68     -21.48       2.96        0.00      87.90       1.62       2.17       0.64       ----

> <Gold.Chemscore.Fitness>
18.6772

> <Gold.Chemscore.DG>
-21.4845

> <Gold.Chemscore.ZeroCoef>
-5.4800

> <Gold.Chemscore.Hbond>
2.9573

> <Gold.Chemscore.Metal>
0.0000

> <Gold.Chemscore.Lipo>
87.8970

> <Gold.Chemscore.Internal_Hbond>
0.0000

> <Gold.Chemscore.DEClash>
2.1696

> <Gold.Chemscore.DEInternal>
0.6377

> <Gold.Chemscore.Rot>
1.6238

> <Gold.Chemscore.Internal.Correction>
   9.000000E+99

> <Gold.Chemscore.Hbonds>
donor molecule, donor type, donor heavy atom, donor atom, acceptor molecule, acceptor atom, score
      L1  H     5    28       P1  8028  0.25
      L1  H    14    40       P1 10175  0.64

> <Gold.Chemscore.Hbond.Weighted>
-9.8775

> <Gold.Chemscore.Metal.Weighted>
-0.0000

> <Gold.Chemscore.Lipo.Weighted>
-10.2839

> <Gold.Chemscore.Internal_Hbond.Weighted>
0.0000

> <Gold.Chemscore.DEClash.Weighted>
2.1696

> <Gold.Chemscore.DEInternal.Weighted>
0.6377

> <Gold.Chemscore.Rot.Weighted>
4.1570

> <Gold.Chemscore.Internal.Correction.Weighted>
   9.000000E+99

> <Gold.Protein.RotatedTorsions>
[ 6907 6896 6895 6894 ] final  130.72 input  -60.11 | X-H torsion
[ 7974 7965 7964 7962 ] final   15.73 input  175.53 | X-H torsion
[ 8008 7997 7996 7995 ] final   77.04 input   59.86 | X-H torsion
[ 10167 10162 10161 10158 ] final  -63.33 input  -65.29 | X-H torsion
[ 10718 10713 10712 10709 ] final  -93.00 input   66.30 | X-H torsion
[ 10763 10752 10751 10750 ] final -170.43 input  -60.55 | X-H torsion
[ 11005 11000 10999 10996 ] final -173.78 input  -57.11 | X-H torsion

> <Gold.Protein.ActiveResidues>
 VAL166  LYS551  ARG553  GLY616  TRP617  ASP618  TYR619  PRO620  LYS621  CYS622 
 ASP623  PHE694  ASN695  SER759  ASP760  ASP761  ALA762  ILE779  LEU786  VAL792 
 PHE793  MET794  SER795  GLU796  ALA797  LYS798  CYS799  TRP800  GLU811  SER814 

> <Gold.Protein.RotatedAtoms>
  152.3498  133.6166  159.5936 H   0  0  0  0  0  0  0  0  0  0  0  0  # atno 6907 bound_to 6896
  150.7531  133.9591  159.3519 H   0  0  0  0  0  0  0  0  0  0  0  0  # atno 6908 bound_to 6896
  151.7445  135.0848  160.0372 H   0  0  0  0  0  0  0  0  0  0  0  0  # atno 6909 bound_to 6896
  146.2270  139.8852  142.8564 H   0  0  0  0  0  0  0  0  0  0  0  0  # atno 7974 bound_to 7965
  155.8360  140.3464  155.5602 H   0  0  0  0  0  0  0  0  0  0  0  0  # atno 8008 bound_to 7997
  155.8192  140.0910  157.1879 H   0  0  0  0  0  0  0  0  0  0  0  0  # atno 8009 bound_to 7997
  154.4004  140.1433  156.3466 H   0  0  0  0  0  0  0  0  0  0  0  0  # atno 8010 bound_to 7997
  140.5878  143.2336  151.6205 H   0  0  0  0  0  0  0  0  0  0  0  0  # atno 10167 bound_to 10162
  156.0008  130.5009  150.5710 H   0  0  0  0  0  0  0  0  0  0  0  0  # atno 10718 bound_to 10713
  154.6415  135.2899  155.0097 H   0  0  0  0  0  0  0  0  0  0  0  0  # atno 10763 bound_to 10752
  154.1222  135.6546  153.4909 H   0  0  0  0  0  0  0  0  0  0  0  0  # atno 10764 bound_to 10752
  153.0329  135.5290  154.7285 H   0  0  0  0  0  0  0  0  0  0  0  0  # atno 10765 bound_to 10752
  140.4819  134.6067  157.4922 H   0  0  0  0  0  0  0  0  0  0  0  0  # atno 11005 bound_to 11000
  145.2473  141.0031  143.3901 LP  0  0  0  0  0  0  0  0  0  0  0  0  # atno 17320 bound_to 7965
  144.9403  139.4196  143.6452 LP  0  0  0  0  0  0  0  0  0  0  0  0  # atno 17321 bound_to 7965
  139.5208  144.3211  152.0909 LP  0  0  0  0  0  0  0  0  0  0  0  0  # atno 17342 bound_to 10162
  140.2371  144.4308  150.6275 LP  0  0  0  0  0  0  0  0  0  0  0  0  # atno 17343 bound_to 10162
  157.3605  131.0749  151.1640 LP  0  0  0  0  0  0  0  0  0  0  0  0  # atno 17370 bound_to 10713
  157.2427  130.6577  149.5896 LP  0  0  0  0  0  0  0  0  0  0  0  0  # atno 17371 bound_to 10713
  139.9821  134.7120  155.9840 LP  0  0  0  0  0  0  0  0  0  0  0  0  # atno 17394 bound_to 11000
  141.1527  133.6546  156.4064 LP  0  0  0  0  0  0  0  0  0  0  0  0  # atno 17395 bound_to 11000

$$$$
