AV-unprocessed.smi:229|AV-procd|sdf|1755|dock4
  -GOLD-   2262020283D 1   1.00000     0.00000
 Structure written by MMmdl.
 58 62  0  0  0  0  0  0  0  0  1 V2000
  144.9521  133.9047  162.2136 C   0  0  0  0  0  0  0  0  0  0  0  0
  146.1742  134.8252  162.0957 C   0  0  0  0  0  0  0  0  0  0  0  0
  146.5976  135.1086  160.6452 C   0  0  2  0  0  0  0  0  0  0  0  0
  147.6041  136.2674  160.5285 C   0  0  0  0  0  0  0  0  0  0  0  0
  147.8701  136.5553  159.1251 N   0  0  0  0  0  0  0  0  0  0  0  0
  148.9729  137.3104  158.8881 C   0  0  0  0  0  0  0  0  0  0  0  0
  150.1788  136.9270  159.3877 N   0  0  0  0  0  0  0  0  0  0  0  0
  151.2717  137.6598  159.1541 C   0  0  0  0  0  0  0  0  0  0  0  0
  151.3833  138.7946  158.4613 N   0  0  0  0  0  0  0  0  0  0  0  0
  150.1760  139.1896  157.9658 C   0  0  0  0  0  0  0  0  0  0  0  0
  148.9333  138.5147  158.1292 C   0  0  0  0  0  0  0  0  0  0  0  0
  147.9232  139.2272  157.4921 N   0  0  0  0  0  0  0  0  0  0  0  0
  148.5351  140.2577  156.9748 C   0  0  0  0  0  0  0  0  0  0  0  0
  149.8892  140.3137  157.2134 N   0  0  0  0  0  0  0  0  0  0  0  0
  150.8135  141.3416  156.7688 C   0  0  0  0  0  0  0  0  0  0  0  0
  150.5611  142.6976  157.4619 C   0  0  2  0  0  0  0  0  0  0  0  0
  151.1790  143.7073  156.6874 O   0  0  0  0  0  0  0  0  0  0  0  0
  151.1512  142.7690  158.8840 C   0  0  2  0  0  0  0  0  0  0  0  0
  151.1461  144.1660  159.5091 C   0  0  0  0  0  0  0  0  0  0  0  0
  152.2725  144.1090  160.5277 C   0  0  0  0  0  0  0  0  0  0  0  0
  153.1040  142.9021  160.0872 C   0  0  0  0  0  0  0  0  0  0  0  0
  152.5451  142.4997  158.8445 O   0  0  0  0  0  0  0  0  0  0  0  0
  146.6590  136.8426  158.3623 C   0  0  0  0  0  0  0  0  0  0  0  0
  145.6237  135.7066  158.5217 C   0  0  2  0  0  0  0  0  0  0  0  0
  145.9904  134.4282  157.7582 C   0  0  0  0  0  0  0  0  0  0  0  0
  145.0716  134.4500  156.5446 C   0  0  0  0  0  0  0  0  0  0  0  0
  143.8845  135.0064  157.0767 O   0  0  0  0  0  0  0  0  0  0  0  0
  144.2701  136.0985  157.8988 C   0  0  0  0  0  0  0  0  0  0  0  0
  145.4174  135.4440  159.9134 O   0  0  0  0  0  0  0  0  0  0  0  0
  144.6571  133.7882  163.2565 H   0  0  0  0  0  0  0  0  0  0  0  0
  145.1588  132.9099  161.8191 H   0  0  0  0  0  0  0  0  0  0  0  0
  144.0985  134.3117  161.6710 H   0  0  0  0  0  0  0  0  0  0  0  0
  145.9390  135.7716  162.5838 H   0  0  0  0  0  0  0  0  0  0  0  0
  147.0109  134.3984  162.6498 H   0  0  0  0  0  0  0  0  0  0  0  0
  147.0380  134.2012  160.2298 H   0  0  0  0  0  0  0  0  0  0  0  0
  147.2027  137.1642  161.0024 H   0  0  0  0  0  0  0  0  0  0  0  0
  148.5204  136.0146  161.0590 H   0  0  0  0  0  0  0  0  0  0  0  0
  152.1874  137.2834  159.5854 H   0  0  0  0  0  0  0  0  0  0  0  0
  148.0113  141.0134  156.4075 H   0  0  0  0  0  0  0  0  0  0  0  0
  151.8241  140.9861  156.9709 H   0  0  0  0  0  0  0  0  0  0  0  0
  150.7300  141.4439  155.6858 H   0  0  0  0  0  0  0  0  0  0  0  0
  149.4881  142.8909  157.5009 H   0  0  0  0  0  0  0  0  0  0  0  0
  150.5422  144.0413  156.0737 H   0  0  0  0  0  0  0  0  0  0  0  0
  150.6553  142.0627  159.5532 H   0  0  0  0  0  0  0  0  0  0  0  0
  151.3790  144.9164  158.7520 H   0  0  0  0  0  0  0  0  0  0  0  0
  150.1866  144.4262  159.9571 H   0  0  0  0  0  0  0  0  0  0  0  0
  152.8551  145.0308  160.5223 H   0  0  0  0  0  0  0  0  0  0  0  0
  151.8870  143.9589  161.5367 H   0  0  0  0  0  0  0  0  0  0  0  0
  154.1625  143.1399  159.9791 H   0  0  0  0  0  0  0  0  0  0  0  0
  153.0091  142.0873  160.8063 H   0  0  0  0  0  0  0  0  0  0  0  0
  146.2344  137.7814  158.7219 H   0  0  0  0  0  0  0  0  0  0  0  0
  146.8992  136.9808  157.3070 H   0  0  0  0  0  0  0  0  0  0  0  0
  147.0444  134.3669  157.4853 H   0  0  0  0  0  0  0  0  0  0  0  0
  145.7515  133.5489  158.3576 H   0  0  0  0  0  0  0  0  0  0  0  0
  145.4679  135.0976  155.7609 H   0  0  0  0  0  0  0  0  0  0  0  0
  144.9019  133.4583  156.1253 H   0  0  0  0  0  0  0  0  0  0  0  0
  143.5049  136.3124  158.6454 H   0  0  0  0  0  0  0  0  0  0  0  0
  144.3678  136.9824  157.2665 H   0  0  0  0  0  0  0  0  0  0  0  0
  1  2  1  0  0  0  0
  1 30  1  0  0  0  0
  1 31  1  0  0  0  0
  1 32  1  0  0  0  0
  2  3  1  0  0  0  0
  2 33  1  0  0  0  0
  2 34  1  0  0  0  0
  3 29  1  0  0  0  0
  3  4  1  0  0  0  0
  3 35  1  0  0  0  0
  4  5  1  0  0  0  0
  4 36  1  0  0  0  0
  4 37  1  0  0  0  0
  5  6  1  0  0  0  0
  5 23  1  0  0  0  0
  6 11  1  0  0  0  0
  6  7  2  0  0  0  0
  7  8  1  0  0  0  0
  8  9  2  0  0  0  0
  8 38  1  0  0  0  0
  9 10  1  0  0  0  0
 10 14  1  0  0  0  0
 10 11  2  0  0  0  0
 11 12  1  0  0  0  0
 12 13  2  0  0  0  0
 13 14  1  0  0  0  0
 13 39  1  0  0  0  0
 14 15  1  0  0  0  0
 15 16  1  0  0  0  0
 15 40  1  0  0  0  0
 15 41  1  0  0  0  0
 16 17  1  0  0  0  0
 16 18  1  0  0  0  0
 16 42  1  0  0  0  0
 17 43  1  0  0  0  0
 18 22  1  0  0  0  0
 18 19  1  0  0  0  0
 18 44  1  0  0  0  0
 19 20  1  0  0  0  0
 19 45  1  0  0  0  0
 19 46  1  0  0  0  0
 20 21  1  0  0  0  0
 20 47  1  0  0  0  0
 20 48  1  0  0  0  0
 21 22  1  0  0  0  0
 21 49  1  0  0  0  0
 21 50  1  0  0  0  0
 23 24  1  0  0  0  0
 23 51  1  0  0  0  0
 23 52  1  0  0  0  0
 24 28  1  0  0  0  0
 24 25  1  0  0  0  0
 24 29  1  0  0  0  0
 25 26  1  0  0  0  0
 25 53  1  0  0  0  0
 25 54  1  0  0  0  0
 26 27  1  0  0  0  0
 26 55  1  0  0  0  0
 26 56  1  0  0  0  0
 27 28  1  0  0  0  0
 28 57  1  0  0  0  0
 28 58  1  0  0  0  0
M  END
> <s_m_source_file>
AV-unprocessed.smi

> <i_m_source_file_index>
229

> <i_lp_mmshare_version>
43012

> <i_f3d_flags>
0

> <s_epik_input>
W0NIMl0xT1tDSDJdW0NIMl1bQ0BdMTJbQ0gyXU4oW0NIMl1bQ0BIXShPMilbQ0gyXVtDSDNdKWMobltjSF1uMyljKGMzNCluW2NIXW40W0NIMl1bQ0BIXShbT0hdKVtDQEBIXTVbQ0gyXVtDSDJdW0NIMl1PNQ==

> <s_epik_cmdline>
J2VwaWtfcHl0aG9uJywgJy1waCcsICc3LjAnLCAnLXRuJywgJzgnLCAnLW1hJywgJzIwMCcsICctbWV0YWxfYmluZGluZycsICctaW1hZScsICc8aW5maWxlLm1hZT4nLCAnLW9tYWUnLCAnPG91dGZpbGUubWFlPic=

> <r_lp_tautomer_probability>
1

> <r_epik_Ionization_Penalty>
0.00318402

> <r_epik_Ionization_Penalty_Charging>
0

> <r_epik_Ionization_Penalty_Neutral>
0.00318402

> <r_epik_State_Penalty>
0.00215642

> <r_epik_Charging_Adjusted_Penalty>
0.00215642

> <i_epik_Tot_Q>
0

> <i_epik_Tot_abs_Q>
0

> <r_epik_Metal_State_Penalty>
-0

> <b_epik_Metal_Only>
0

> <s_lp_Force_Field>
OPLS_2005

> <r_lp_Energy>
54.5162

> <b_lp_Chiralities_Consistent>
1

> <s_lp_Variant>
AV-unprocessed.smi:229-9

> <Gold.Version>
5.8.1

> <Gold.Id.Protein>
6NUR|6NUR_protein|mol2

> <Gold.PLP.Fitness>
45.0580

> <Gold.PLP.PLP>
-39.7186

> <Gold.PLP.part.hbond>
-2.0000

> <Gold.PLP.part.metal>
0.0000

> <Gold.PLP.part.buried>
-7.7551

> <Gold.PLP.part.nonpolar>
-31.2291

> <Gold.PLP.part.repulsive>
0.0438

> <Gold.PLP.ligand.clash>
0.0000

> <Gold.PLP.ligand.torsion>
0.5425

> <Gold.PLP.Chemscore.Hbond>
2.0000

> <Gold.PLP.Chemscore.CHOScore>
0.0000

> <Gold.PLP.Chemscore.Metal>
0.0000

> <Gold.Chemscore.Hbonds>
donor molecule, donor type, donor heavy atom, donor atom, acceptor molecule, acceptor atom, score
      L1  H    17    43       P1  8028  1.00
      P1  H  6896  6907       L1     7  0.78

> <Gold.PLP.Chemscore.Internal.Correction>
0.4243

> <Gold.Rescore>
     Score         DG    S(hbond)    S(metal)    S(lipo)     H(rot)  DE(clash)    DE(int)     intcor
     14.97     -16.90       1.93        0.00      96.15       2.46       0.03       1.90       ----

> <Gold.Chemscore.Fitness>
14.9651

> <Gold.Chemscore.DG>
-16.8956

> <Gold.Chemscore.ZeroCoef>
-5.4800

> <Gold.Chemscore.Hbond>
1.9344

> <Gold.Chemscore.Metal>
0.0000

> <Gold.Chemscore.Lipo>
96.1547

> <Gold.Chemscore.Internal_Hbond>
0.0000

> <Gold.Chemscore.DEClash>
0.0291

> <Gold.Chemscore.DEInternal>
1.9014

> <Gold.Chemscore.Rot>
2.4591

> <Gold.Chemscore.Internal.Correction>
   9.000000E+99

> <Gold.Chemscore.Hbonds>
donor molecule, donor type, donor heavy atom, donor atom, acceptor molecule, acceptor atom, score
      L1  H    17    43       P1  8028  0.97
      P1  H  6896  6907       L1     7  0.23

> <Gold.Chemscore.Hbond.Weighted>
-6.4608

> <Gold.Chemscore.Metal.Weighted>
-0.0000

> <Gold.Chemscore.Lipo.Weighted>
-11.2501

> <Gold.Chemscore.Internal_Hbond.Weighted>
0.0000

> <Gold.Chemscore.DEClash.Weighted>
0.0291

> <Gold.Chemscore.DEInternal.Weighted>
1.9014

> <Gold.Chemscore.Rot.Weighted>
6.2953

> <Gold.Chemscore.Internal.Correction.Weighted>
   9.000000E+99

> <Gold.Protein.RotatedTorsions>
[ 6907 6896 6895 6894 ] final  -33.86 input  -60.11 | X-H torsion
[ 7974 7965 7964 7962 ] final -146.87 input  175.53 | X-H torsion
[ 8008 7997 7996 7995 ] final  123.74 input   59.86 | X-H torsion
[ 10167 10162 10161 10158 ] final -179.95 input  -65.29 | X-H torsion
[ 10718 10713 10712 10709 ] final  -37.61 input   66.30 | X-H torsion
[ 10763 10752 10751 10750 ] final  -27.21 input  -60.55 | X-H torsion
[ 11005 11000 10999 10996 ] final  -98.10 input  -57.11 | X-H torsion

> <Gold.Protein.ActiveResidues>
 VAL166  LYS551  ARG553  GLY616  TRP617  ASP618  TYR619  PRO620  LYS621  CYS622 
 ASP623  PHE694  ASN695  SER759  ASP760  ASP761  ALA762  ILE779  LEU786  VAL792 
 PHE793  MET794  SER795  GLU796  ALA797  LYS798  CYS799  TRP800  GLU811  SER814 

> <Gold.Protein.RotatedAtoms>
  151.0601  134.9731  159.8255 H   0  0  0  0  0  0  0  0  0  0  0  0  # atno 6907 bound_to 6896
  152.5394  134.2429  159.8879 H   0  0  0  0  0  0  0  0  0  0  0  0  # atno 6908 bound_to 6896
  151.2448  133.4337  159.2642 H   0  0  0  0  0  0  0  0  0  0  0  0  # atno 6909 bound_to 6896
  144.8131  140.5401  143.5629 H   0  0  0  0  0  0  0  0  0  0  0  0  # atno 7974 bound_to 7965
  156.2777  140.2756  156.1677 H   0  0  0  0  0  0  0  0  0  0  0  0  # atno 8008 bound_to 7997
  155.0688  140.0387  157.2619 H   0  0  0  0  0  0  0  0  0  0  0  0  # atno 8009 bound_to 7997
  154.7057  140.2658  155.6682 H   0  0  0  0  0  0  0  0  0  0  0  0  # atno 8010 bound_to 7997
  139.5363  144.2488  152.0801 H   0  0  0  0  0  0  0  0  0  0  0  0  # atno 10167 bound_to 10162
  156.3133  130.4255  149.8030 H   0  0  0  0  0  0  0  0  0  0  0  0  # atno 10718 bound_to 10713
  153.7284  135.6940  153.4995 H   0  0  0  0  0  0  0  0  0  0  0  0  # atno 10763 bound_to 10752
  153.2153  135.4388  155.0426 H   0  0  0  0  0  0  0  0  0  0  0  0  # atno 10764 bound_to 10752
  154.8261  135.3447  154.6815 H   0  0  0  0  0  0  0  0  0  0  0  0  # atno 10765 bound_to 10752
  141.1356  133.8220  157.0795 H   0  0  0  0  0  0  0  0  0  0  0  0  # atno 11005 bound_to 11000
  145.5278  139.1475  143.3516 LP  0  0  0  0  0  0  0  0  0  0  0  0  # atno 17320 bound_to 7965
  146.2431  140.5418  142.8925 LP  0  0  0  0  0  0  0  0  0  0  0  0  # atno 17321 bound_to 7965
  140.1959  144.4706  150.6455 LP  0  0  0  0  0  0  0  0  0  0  0  0  # atno 17342 bound_to 10162
  140.6571  143.2241  151.5943 LP  0  0  0  0  0  0  0  0  0  0  0  0  # atno 17343 bound_to 10162
  156.5365  130.8281  151.3255 LP  0  0  0  0  0  0  0  0  0  0  0  0  # atno 17370 bound_to 10713
  157.7396  130.9834  150.2322 LP  0  0  0  0  0  0  0  0  0  0  0  0  # atno 17371 bound_to 10713
  140.0460  134.9830  157.1050 LP  0  0  0  0  0  0  0  0  0  0  0  0  # atno 17394 bound_to 11000
  140.4061  134.2030  155.7163 LP  0  0  0  0  0  0  0  0  0  0  0  0  # atno 17395 bound_to 11000

$$$$
