AV-unprocessed.smi:3348|AV-procd|sdf|12920|dock7
  -GOLD-   2272019343D 1   1.00000     0.00000
 Structure written by MMmdl.
 47 48  0  0  0  0  0  0  0  0  2 V2000
  142.9837  137.1936  153.2298 C   0  0  0  0  0  0  0  0  0  0  0  0
  144.2513  136.6147  152.5877 C   0  0  1  0  0  0  0  0  0  0  0  0
  143.9009  135.5696  151.5095 C   0  0  0  0  0  0  0  0  0  0  0  0
  144.8183  134.4435  151.5055 N   0  0  0  0  0  0  0  0  0  0  0  0
  146.1760  134.4429  151.7473 C   0  0  0  0  0  0  0  0  0  0  0  0
  146.6094  133.1541  151.6223 C   0  0  0  0  0  0  0  0  0  0  0  0
  145.4284  132.4288  151.3004 C   0  0  0  0  0  0  0  0  0  0  0  0
  144.3579  133.2035  151.2296 N   0  0  0  0  0  0  0  0  0  0  0  0
  145.0582  137.7128  152.0103 N   0  3  0  0  0  0  0  0  0  0  0  0
  146.3471  137.9590  152.6886 C   0  0  0  0  0  0  0  0  0  0  0  0
  146.9286  139.3140  152.2776 C   0  0  0  0  0  0  0  0  0  0  0  0
  146.7768  140.2195  153.3597 O   0  0  0  0  0  0  0  0  0  0  0  0
  147.6842  141.3162  153.3392 C   0  0  2  0  0  0  0  0  0  0  0  0
  148.9664  140.8782  154.0711 C   0  0  0  0  0  0  0  0  0  0  0  0
  148.7179  140.6313  155.5687 C   0  0  0  0  0  0  0  0  0  0  0  0
  148.0912  141.8625  156.2394 C   0  0  0  0  0  0  0  0  0  0  0  0
  146.8017  142.2927  155.5222 C   0  0  0  0  0  0  0  0  0  0  0  0
  147.0468  142.5498  154.0219 C   0  0  2  0  0  0  0  0  0  0  0  0
  145.7705  143.0267  153.3117 C   0  0  0  0  0  0  0  0  0  0  0  0
  142.3836  136.4087  153.6911 H   0  0  0  0  0  0  0  0  0  0  0  0
  142.3588  137.6993  152.4925 H   0  0  0  0  0  0  0  0  0  0  0  0
  143.2327  137.9161  154.0077 H   0  0  0  0  0  0  0  0  0  0  0  0
  144.8211  136.1202  153.3768 H   0  0  0  0  0  0  0  0  0  0  0  0
  142.8956  135.1812  151.6787 H   0  0  0  0  0  0  0  0  0  0  0  0
  143.8931  136.0245  150.5175 H   0  0  0  0  0  0  0  0  0  0  0  0
  146.7147  135.3488  151.9842 H   0  0  0  0  0  0  0  0  0  0  0  0
  147.6169  132.7849  151.7440 H   0  0  0  0  0  0  0  0  0  0  0  0
  145.3183  131.3702  151.1167 H   0  0  0  0  0  0  0  0  0  0  0  0
  145.2428  137.4906  151.0421 H   0  0  0  0  0  0  0  0  0  0  0  0
  146.2097  137.9162  153.7697 H   0  0  0  0  0  0  0  0  0  0  0  0
  147.0488  137.1687  152.4191 H   0  0  0  0  0  0  0  0  0  0  0  0
  147.9880  139.2054  152.0414 H   0  0  0  0  0  0  0  0  0  0  0  0
  146.4290  139.6842  151.3814 H   0  0  0  0  0  0  0  0  0  0  0  0
  147.9564  141.5760  152.3141 H   0  0  0  0  0  0  0  0  0  0  0  0
  149.3714  139.9781  153.6076 H   0  0  0  0  0  0  0  0  0  0  0  0
  149.7283  141.6502  153.9566 H   0  0  0  0  0  0  0  0  0  0  0  0
  148.0594  139.7710  155.6958 H   0  0  0  0  0  0  0  0  0  0  0  0
  149.6555  140.3766  156.0632 H   0  0  0  0  0  0  0  0  0  0  0  0
  147.8792  141.6474  157.2870 H   0  0  0  0  0  0  0  0  0  0  0  0
  148.8062  142.6861  156.2315 H   0  0  0  0  0  0  0  0  0  0  0  0
  146.0395  141.5223  155.6476 H   0  0  0  0  0  0  0  0  0  0  0  0
  146.4084  143.1935  155.9944 H   0  0  0  0  0  0  0  0  0  0  0  0
  147.7684  143.3650  153.9480 H   0  0  0  0  0  0  0  0  0  0  0  0
  144.9779  142.2805  153.3691 H   0  0  0  0  0  0  0  0  0  0  0  0
  145.9611  143.2352  152.2588 H   0  0  0  0  0  0  0  0  0  0  0  0
  145.3920  143.9436  153.7640 H   0  0  0  0  0  0  0  0  0  0  0  0
  144.5164  138.5648  152.0456 H   0  0  0  0  0  0  0  0  0  0  0  0
  1  2  1  0  0  0  0
  1 20  1  0  0  0  0
  1 21  1  0  0  0  0
  1 22  1  0  0  0  0
  2  3  1  0  0  0  0
  2  9  1  0  0  0  0
  2 23  1  0  0  0  0
  3  4  1  0  0  0  0
  3 24  1  0  0  0  0
  3 25  1  0  0  0  0
  4  8  1  0  0  0  0
  4  5  1  0  0  0  0
  5  6  2  0  0  0  0
  5 26  1  0  0  0  0
  6  7  1  0  0  0  0
  6 27  1  0  0  0  0
  7  8  2  0  0  0  0
  7 28  1  0  0  0  0
  9 10  1  0  0  0  0
  9 29  1  0  0  0  0
  9 47  1  0  0  0  0
 10 11  1  0  0  0  0
 10 30  1  0  0  0  0
 10 31  1  0  0  0  0
 11 12  1  0  0  0  0
 11 32  1  0  0  0  0
 11 33  1  0  0  0  0
 12 13  1  0  0  0  0
 13 18  1  0  0  0  0
 13 14  1  0  0  0  0
 13 34  1  0  0  0  0
 14 15  1  0  0  0  0
 14 35  1  0  0  0  0
 14 36  1  0  0  0  0
 15 16  1  0  0  0  0
 15 37  1  0  0  0  0
 15 38  1  0  0  0  0
 16 17  1  0  0  0  0
 16 39  1  0  0  0  0
 16 40  1  0  0  0  0
 17 18  1  0  0  0  0
 17 41  1  0  0  0  0
 17 42  1  0  0  0  0
 18 19  1  0  0  0  0
 18 43  1  0  0  0  0
 19 44  1  0  0  0  0
 19 45  1  0  0  0  0
 19 46  1  0  0  0  0
M  CHG  1   9   1
M  END
> <s_m_source_file>
AV-unprocessed.smi

> <i_m_source_file_index>
3348

> <i_lp_mmshare_version>
43012

> <i_f3d_flags>
0

> <s_epik_input>
bjFbY0hdW2NIXVtjSF1uMVtDSDJdW0NAQEhdKFtDSDNdKVtOSF1bQ0gyXVtDSDJdT1tDQEBIXTJbQ0gyXVtDSDJdW0NIMl1bQ0gyXVtDQEhdMltDSDNd

> <s_epik_cmdline>
J2VwaWtfcHl0aG9uJywgJy1waCcsICc3LjAnLCAnLXRuJywgJzgnLCAnLW1hJywgJzIwMCcsICctbWV0YWxfYmluZGluZycsICctaW1hZScsICc8aW5maWxlLm1hZT4nLCAnLW9tYWUnLCAnPG91dGZpbGUubWFlPic=

> <r_lp_tautomer_probability>
1

> <r_epik_Ionization_Penalty>
0.00925088

> <r_epik_Ionization_Penalty_Charging>
0.00924645

> <r_epik_Ionization_Penalty_Neutral>
4.42413e-06

> <r_epik_State_Penalty>
0.0070118

> <r_epik_Charging_Adjusted_Penalty>
0.0162583

> <i_epik_Tot_Q>
1

> <i_epik_Tot_abs_Q>
1

> <r_epik_Metal_State_Penalty>
0.00701222

> <b_epik_Metal_Only>
0

> <s_lp_Force_Field>
OPLS_2005

> <r_lp_Energy>
18.0188

> <b_lp_Chiralities_Consistent>
1

> <s_lp_Variant>
AV-unprocessed.smi:3348-6

> <Gold.Version>
5.8.1

> <Gold.Id.Protein>
6NUR|6NUR_protein|mol2

> <Gold.PLP.Fitness>
42.3177

> <Gold.PLP.PLP>
-36.6027

> <Gold.PLP.part.hbond>
-2.0000

> <Gold.PLP.part.metal>
0.0000

> <Gold.PLP.part.buried>
-2.8392

> <Gold.PLP.part.nonpolar>
-32.5030

> <Gold.PLP.part.repulsive>
0.3539

> <Gold.PLP.ligand.clash>
0.0000

> <Gold.PLP.ligand.torsion>
2.4300

> <Gold.PLP.Chemscore.Hbond>
2.4960

> <Gold.PLP.Chemscore.CHOScore>
1.0000

> <Gold.PLP.Chemscore.Metal>
0.0000

> <Gold.Chemscore.Hbonds>
donor molecule, donor type, donor heavy atom, donor atom, acceptor molecule, acceptor atom, score
      L1  H     9    29       P1 10171  0.13
      L1  H     9    47       P1 10175  1.66
      L1  C     5    26       P1  7948  1.00

> <Gold.PLP.Chemscore.Internal.Correction>
0.0870

> <Gold.Rescore>
     Score         DG    S(hbond)    S(metal)    S(lipo)     H(rot)  DE(clash)    DE(int)     intcor
     13.93     -16.72       1.79        0.00      84.58       1.82       0.49       2.30       ----

> <Gold.Chemscore.Fitness>
13.9325

> <Gold.Chemscore.DG>
-16.7199

> <Gold.Chemscore.ZeroCoef>
-5.4800

> <Gold.Chemscore.Hbond>
1.7944

> <Gold.Chemscore.Metal>
0.0000

> <Gold.Chemscore.Lipo>
84.5840

> <Gold.Chemscore.Internal_Hbond>
0.0000

> <Gold.Chemscore.DEClash>
0.4899

> <Gold.Chemscore.DEInternal>
2.2975

> <Gold.Chemscore.Rot>
1.8163

> <Gold.Chemscore.Internal.Correction>
   9.000000E+99

> <Gold.Chemscore.Hbonds>
donor molecule, donor type, donor heavy atom, donor atom, acceptor molecule, acceptor atom, score
      L1  H     9    29       P1 10171  0.13
      L1  H     9    47       P1 10175  0.82

> <Gold.Chemscore.Hbond.Weighted>
-5.9933

> <Gold.Chemscore.Metal.Weighted>
-0.0000

> <Gold.Chemscore.Lipo.Weighted>
-9.8963

> <Gold.Chemscore.Internal_Hbond.Weighted>
0.0000

> <Gold.Chemscore.DEClash.Weighted>
0.4899

> <Gold.Chemscore.DEInternal.Weighted>
2.2975

> <Gold.Chemscore.Rot.Weighted>
4.6497

> <Gold.Chemscore.Internal.Correction.Weighted>
   9.000000E+99

> <Gold.Protein.RotatedTorsions>
[ 6907 6896 6895 6894 ] final -179.58 input  -60.11 | X-H torsion
[ 7974 7965 7964 7962 ] final   82.16 input  175.53 | X-H torsion
[ 8008 7997 7996 7995 ] final   52.89 input   59.86 | X-H torsion
[ 10167 10162 10161 10158 ] final    6.22 input  -65.29 | X-H torsion
[ 10718 10713 10712 10709 ] final  -18.15 input   66.30 | X-H torsion
[ 10763 10752 10751 10750 ] final  -50.08 input  -60.55 | X-H torsion
[ 11005 11000 10999 10996 ] final -149.88 input  -57.11 | X-H torsion

> <Gold.Protein.ActiveResidues>
 VAL166  LYS551  ARG553  GLY616  TRP617  ASP618  TYR619  PRO620  LYS621  CYS622 
 ASP623  PHE694  ASN695  SER759  ASP760  ASP761  ALA762  ILE779  LEU786  VAL792 
 PHE793  MET794  SER795  GLU796  ALA797  LYS798  CYS799  TRP800  GLU811  SER814 

> <Gold.Protein.RotatedAtoms>
  151.6557  133.3319  159.3161 H   0  0  0  0  0  0  0  0  0  0  0  0  # atno 6907 bound_to 6896
  150.7938  134.6986  159.6547 H   0  0  0  0  0  0  0  0  0  0  0  0  # atno 6908 bound_to 6896
  152.4022  134.6271  160.0117 H   0  0  0  0  0  0  0  0  0  0  0  0  # atno 6909 bound_to 6896
  145.6287  139.2400  143.2097 H   0  0  0  0  0  0  0  0  0  0  0  0  # atno 7974 bound_to 7965
  155.4592  140.3461  155.4310 H   0  0  0  0  0  0  0  0  0  0  0  0  # atno 8008 bound_to 7997
  156.1171  140.1477  156.9286 H   0  0  0  0  0  0  0  0  0  0  0  0  # atno 8009 bound_to 7997
  154.4797  140.0874  156.7326 H   0  0  0  0  0  0  0  0  0  0  0  0  # atno 8010 bound_to 7997
  140.6440  143.7707  150.7470 H   0  0  0  0  0  0  0  0  0  0  0  0  # atno 10167 bound_to 10162
  156.5636  130.4731  149.6395 H   0  0  0  0  0  0  0  0  0  0  0  0  # atno 10718 bound_to 10713
  154.1046  135.6558  153.4874 H   0  0  0  0  0  0  0  0  0  0  0  0  # atno 10763 bound_to 10752
  153.0277  135.5233  154.7252 H   0  0  0  0  0  0  0  0  0  0  0  0  # atno 10764 bound_to 10752
  154.6414  135.2989  155.0067 H   0  0  0  0  0  0  0  0  0  0  0  0  # atno 10765 bound_to 10752
  140.7461  134.3459  157.5137 H   0  0  0  0  0  0  0  0  0  0  0  0  # atno 11005 bound_to 11000
  146.1374  140.7104  142.9383 LP  0  0  0  0  0  0  0  0  0  0  0  0  # atno 17320 bound_to 7965
  144.7202  140.4347  143.7014 LP  0  0  0  0  0  0  0  0  0  0  0  0  # atno 17321 bound_to 7965
  140.1345  143.4496  152.2233 LP  0  0  0  0  0  0  0  0  0  0  0  0  # atno 17342 bound_to 10162
  139.5649  144.7429  151.4049 LP  0  0  0  0  0  0  0  0  0  0  0  0  # atno 17343 bound_to 10162
  156.2777  130.7053  151.1869 LP  0  0  0  0  0  0  0  0  0  0  0  0  # atno 17370 bound_to 10713
  157.7363  131.0563  150.5419 LP  0  0  0  0  0  0  0  0  0  0  0  0  # atno 17371 bound_to 10713
  139.8796  134.9112  156.3031 LP  0  0  0  0  0  0  0  0  0  0  0  0  # atno 17394 bound_to 11000
  140.9793  133.7277  156.0648 LP  0  0  0  0  0  0  0  0  0  0  0  0  # atno 17395 bound_to 11000

$$$$
