AV-unprocessed.smi:3056|AV-procd|sdf|11648|dock2
  -GOLD-   2272017 43D 1   1.00000     0.00000
 Structure written by MMmdl.
 48 49  0  0  0  0  0  0  0  0  2 V2000
  151.2429  143.3670  157.5611 C   0  0  0  0  0  0  0  0  0  0  0  0
  151.1313  142.0259  156.8949 C   0  0  0  0  0  0  0  0  0  0  0  0
  151.5437  140.7616  157.4009 C   0  0  0  0  0  0  0  0  0  0  0  0
  151.2963  139.7702  156.5615 N   0  0  0  0  0  0  0  0  0  0  0  0
  150.7268  140.3598  155.4856 N   0  0  0  0  0  0  0  0  0  0  0  0
  150.2827  139.5732  154.3373 C   0  0  1  0  0  0  0  0  0  0  0  0
  151.0891  138.2669  154.1577 C   0  0  0  0  0  0  0  0  0  0  0  0
  148.7417  139.3694  154.3335 C   0  0  1  0  0  0  0  0  0  0  0  0
  147.9866  140.6656  154.6695 C   0  0  0  0  0  0  0  0  0  0  0  0
  148.2337  138.8253  153.0513 N   0  3  0  0  0  0  0  0  0  0  0  0
  146.7626  138.7447  152.9259 C   0  0  0  0  0  0  0  0  0  0  0  0
  146.3439  137.7243  151.8624 C   0  0  0  0  0  0  0  0  0  0  0  0
  146.7348  137.9085  150.7101 O   0  0  0  0  0  0  0  0  0  0  0  0
  145.5635  136.6709  152.2050 N   0  0  0  0  0  0  0  0  0  0  0  0
  145.1913  136.3660  153.5884 C   0  0  0  0  0  0  0  0  0  0  0  0
  145.8474  135.0273  153.9735 C   0  0  0  0  0  0  0  0  0  0  0  0
  145.4346  134.0075  153.0652 O   0  0  0  0  0  0  0  0  0  0  0  0
  145.7470  134.2935  151.7023 C   0  0  1  0  0  0  0  0  0  0  0  0
  145.2619  133.1208  150.8432 C   0  0  0  0  0  0  0  0  0  0  0  0
  145.0742  135.6221  151.3069 C   0  0  0  0  0  0  0  0  0  0  0  0
  150.6121  141.7229  155.6684 C   0  0  0  0  0  0  0  0  0  0  0  0
  151.8651  143.3255  158.4554 H   0  0  0  0  0  0  0  0  0  0  0  0
  150.2675  143.7465  157.8655 H   0  0  0  0  0  0  0  0  0  0  0  0
  151.6858  144.1102  156.8978 H   0  0  0  0  0  0  0  0  0  0  0  0
  152.0085  140.5355  158.3492 H   0  0  0  0  0  0  0  0  0  0  0  0
  150.5175  140.1907  153.4689 H   0  0  0  0  0  0  0  0  0  0  0  0
  150.8466  137.7717  153.2181 H   0  0  0  0  0  0  0  0  0  0  0  0
  150.9031  137.5557  154.9630 H   0  0  0  0  0  0  0  0  0  0  0  0
  152.1602  138.4711  154.1388 H   0  0  0  0  0  0  0  0  0  0  0  0
  148.4872  138.6662  155.1282 H   0  0  0  0  0  0  0  0  0  0  0  0
  148.3227  141.0831  155.6191 H   0  0  0  0  0  0  0  0  0  0  0  0
  146.9156  140.4799  154.7578 H   0  0  0  0  0  0  0  0  0  0  0  0
  148.1215  141.4283  153.9025 H   0  0  0  0  0  0  0  0  0  0  0  0
  148.5497  139.4441  152.3182 H   0  0  0  0  0  0  0  0  0  0  0  0
  146.2873  138.5070  153.8755 H   0  0  0  0  0  0  0  0  0  0  0  0
  146.3799  139.7232  152.6320 H   0  0  0  0  0  0  0  0  0  0  0  0
  145.4953  137.1409  154.2931 H   0  0  0  0  0  0  0  0  0  0  0  0
  144.1058  136.2919  153.6678 H   0  0  0  0  0  0  0  0  0  0  0  0
  146.9353  135.1121  153.9663 H   0  0  0  0  0  0  0  0  0  0  0  0
  145.5560  134.7396  154.9837 H   0  0  0  0  0  0  0  0  0  0  0  0
  146.8295  134.3824  151.5943 H   0  0  0  0  0  0  0  0  0  0  0  0
  145.4804  133.2875  149.7887 H   0  0  0  0  0  0  0  0  0  0  0  0
  144.1857  132.9776  150.9427 H   0  0  0  0  0  0  0  0  0  0  0  0
  145.7502  132.1924  151.1405 H   0  0  0  0  0  0  0  0  0  0  0  0
  143.9911  135.5399  151.4105 H   0  0  0  0  0  0  0  0  0  0  0  0
  145.2493  135.8341  150.2557 H   0  0  0  0  0  0  0  0  0  0  0  0
  150.1721  142.3612  154.9162 H   0  0  0  0  0  0  0  0  0  0  0  0
  148.6389  137.9136  152.8938 H   0  0  0  0  0  0  0  0  0  0  0  0
  1  2  1  0  0  0  0
  1 22  1  0  0  0  0
  1 23  1  0  0  0  0
  1 24  1  0  0  0  0
  2 21  2  0  0  0  0
  2  3  1  0  0  0  0
  3  4  2  0  0  0  0
  3 25  1  0  0  0  0
  4  5  1  0  0  0  0
  5  6  1  0  0  0  0
  5 21  1  0  0  0  0
  6  7  1  0  0  0  0
  6  8  1  0  0  0  0
  6 26  1  0  0  0  0
  7 27  1  0  0  0  0
  7 28  1  0  0  0  0
  7 29  1  0  0  0  0
  8  9  1  0  0  0  0
  8 10  1  0  0  0  0
  8 30  1  0  0  0  0
  9 31  1  0  0  0  0
  9 32  1  0  0  0  0
  9 33  1  0  0  0  0
 10 11  1  0  0  0  0
 10 34  1  0  0  0  0
 10 48  1  0  0  0  0
 11 12  1  0  0  0  0
 11 35  1  0  0  0  0
 11 36  1  0  0  0  0
 12 13  2  0  0  0  0
 12 14  1  0  0  0  0
 14 20  1  0  0  0  0
 14 15  1  0  0  0  0
 15 16  1  0  0  0  0
 15 37  1  0  0  0  0
 15 38  1  0  0  0  0
 16 17  1  0  0  0  0
 16 39  1  0  0  0  0
 16 40  1  0  0  0  0
 17 18  1  0  0  0  0
 18 19  1  0  0  0  0
 18 20  1  0  0  0  0
 18 41  1  0  0  0  0
 19 42  1  0  0  0  0
 19 43  1  0  0  0  0
 19 44  1  0  0  0  0
 20 45  1  0  0  0  0
 20 46  1  0  0  0  0
 21 47  1  0  0  0  0
M  CHG  1  10   1
M  END
> <s_m_source_file>
AV-unprocessed.smi

> <i_m_source_file_index>
3056

> <i_lp_mmshare_version>
43012

> <i_f3d_flags>
0

> <s_epik_input>
W0NIM11jMVtjSF1ubihbY0hdMSlbQ0BIXShbQ0gzXSlbQ0BIXShbQ0gzXSlbTkhdW0NIMl1DKD1PKU4yW0NIMl1bQ0gyXU9bQ0BASF0oW0NIM10pW0NIMl0y

> <s_epik_cmdline>
J2VwaWtfcHl0aG9uJywgJy1waCcsICc3LjAnLCAnLXRuJywgJzgnLCAnLW1hJywgJzIwMCcsICctbWV0YWxfYmluZGluZycsICctaW1hZScsICc8aW5maWxlLm1hZT4nLCAnLW9tYWUnLCAnPG91dGZpbGUubWFlPic=

> <r_lp_tautomer_probability>
1

> <r_epik_Ionization_Penalty>
0.233715

> <r_epik_Ionization_Penalty_Charging>
0.233698

> <r_epik_Ionization_Penalty_Neutral>
1.68157e-05

> <r_epik_State_Penalty>
0.225221

> <r_epik_Charging_Adjusted_Penalty>
0.458919

> <i_epik_Tot_Q>
1

> <i_epik_Tot_abs_Q>
1

> <r_epik_Metal_State_Penalty>
0.225535

> <b_epik_Metal_Only>
0

> <s_lp_Force_Field>
OPLS_2005

> <r_lp_Energy>
30.0079

> <b_lp_Chiralities_Consistent>
1

> <s_lp_Variant>
AV-unprocessed.smi:3056-4

> <Gold.Version>
5.8.1

> <Gold.Id.Protein>
6NUR|6NUR_protein|mol2

> <Gold.PLP.Fitness>
51.0664

> <Gold.PLP.PLP>
-38.5232

> <Gold.PLP.part.hbond>
-2.7738

> <Gold.PLP.part.metal>
0.0000

> <Gold.PLP.part.buried>
-3.7257

> <Gold.PLP.part.nonpolar>
-34.4168

> <Gold.PLP.part.repulsive>
1.3831

> <Gold.PLP.ligand.clash>
0.0000

> <Gold.PLP.ligand.torsion>
0.8529

> <Gold.PLP.Chemscore.Hbond>
4.0000

> <Gold.PLP.Chemscore.CHOScore>
0.6508

> <Gold.PLP.Chemscore.Metal>
0.0000

> <Gold.Chemscore.Hbonds>
donor molecule, donor type, donor heavy atom, donor atom, acceptor molecule, acceptor atom, score
      L1  H    10    34       P1  7957  1.00
      L1  H    10    48       P1  7948  2.00
      P1  H  7954  7966       L1    13  1.00
      L1  C    21    47       P1  8028  0.31

> <Gold.PLP.Chemscore.Internal.Correction>
0.2965

> <Gold.Rescore>
     Score         DG    S(hbond)    S(metal)    S(lipo)     H(rot)  DE(clash)    DE(int)     intcor
     18.95     -20.93       2.91        0.00      86.86       1.74       1.07       0.91       ----

> <Gold.Chemscore.Fitness>
18.9468

> <Gold.Chemscore.DG>
-20.9257

> <Gold.Chemscore.ZeroCoef>
-5.4800

> <Gold.Chemscore.Hbond>
2.9117

> <Gold.Chemscore.Metal>
0.0000

> <Gold.Chemscore.Lipo>
86.8639

> <Gold.Chemscore.Internal_Hbond>
0.0000

> <Gold.Chemscore.DEClash>
1.0655

> <Gold.Chemscore.DEInternal>
0.9134

> <Gold.Chemscore.Rot>
1.7354

> <Gold.Chemscore.Internal.Correction>
   9.000000E+99

> <Gold.Chemscore.Hbonds>
donor molecule, donor type, donor heavy atom, donor atom, acceptor molecule, acceptor atom, score
      L1  H    10    34       P1  7957  0.98
      L1  H    10    48       P1  7948  0.95
      P1  H  7954  7966       L1    13  0.98

> <Gold.Chemscore.Hbond.Weighted>
-9.7252

> <Gold.Chemscore.Metal.Weighted>
-0.0000

> <Gold.Chemscore.Lipo.Weighted>
-10.1631

> <Gold.Chemscore.Internal_Hbond.Weighted>
0.0000

> <Gold.Chemscore.DEClash.Weighted>
1.0655

> <Gold.Chemscore.DEInternal.Weighted>
0.9134

> <Gold.Chemscore.Rot.Weighted>
4.4426

> <Gold.Chemscore.Internal.Correction.Weighted>
   9.000000E+99

> <Gold.Protein.RotatedTorsions>
[ 6907 6896 6895 6894 ] final   -7.32 input  -60.11 | X-H torsion
[ 7974 7965 7964 7962 ] final  -96.49 input  175.53 | X-H torsion
[ 8008 7997 7996 7995 ] final   66.61 input   59.86 | X-H torsion
[ 10167 10162 10161 10158 ] final  -89.75 input  -65.29 | X-H torsion
[ 10718 10713 10712 10709 ] final  131.61 input   66.30 | X-H torsion
[ 10763 10752 10751 10750 ] final   78.93 input  -60.55 | X-H torsion
[ 11005 11000 10999 10996 ] final  142.53 input  -57.11 | X-H torsion

> <Gold.Protein.ActiveResidues>
 VAL166  LYS551  ARG553  GLY616  TRP617  ASP618  TYR619  PRO620  LYS621  CYS622 
 ASP623  PHE694  ASN695  SER759  ASP760  ASP761  ALA762  ILE779  LEU786  VAL792 
 PHE793  MET794  SER795  GLU796  ALA797  LYS798  CYS799  TRP800  GLU811  SER814 

> <Gold.Protein.RotatedAtoms>
  151.4515  135.1030  159.9698 H   0  0  0  0  0  0  0  0  0  0  0  0  # atno 6907 bound_to 6896
  152.4886  133.8436  159.7176 H   0  0  0  0  0  0  0  0  0  0  0  0  # atno 6908 bound_to 6896
  150.9019  133.7048  159.2904 H   0  0  0  0  0  0  0  0  0  0  0  0  # atno 6909 bound_to 6896
  145.3461  140.9468  143.2580 H   0  0  0  0  0  0  0  0  0  0  0  0  # atno 7974 bound_to 7965
  155.6800  140.3496  155.4851 H   0  0  0  0  0  0  0  0  0  0  0  0  # atno 8008 bound_to 7997
  155.9615  140.1138  157.0914 H   0  0  0  0  0  0  0  0  0  0  0  0  # atno 8009 bound_to 7997
  154.4144  140.1175  156.5171 H   0  0  0  0  0  0  0  0  0  0  0  0  # atno 8010 bound_to 7997
  140.3618  143.2838  151.9606 H   0  0  0  0  0  0  0  0  0  0  0  0  # atno 10167 bound_to 10162
  157.4951  131.1092  150.9503 H   0  0  0  0  0  0  0  0  0  0  0  0  # atno 10718 bound_to 10713
  153.0912  135.4859  154.8694 H   0  0  0  0  0  0  0  0  0  0  0  0  # atno 10763 bound_to 10752
  154.7272  135.3052  154.8954 H   0  0  0  0  0  0  0  0  0  0  0  0  # atno 10764 bound_to 10752
  153.9601  135.6813  153.4798 H   0  0  0  0  0  0  0  0  0  0  0  0  # atno 10765 bound_to 10752
  140.0484  134.9269  157.0971 H   0  0  0  0  0  0  0  0  0  0  0  0  # atno 11005 bound_to 11000
  144.8753  139.4980  143.6748 LP  0  0  0  0  0  0  0  0  0  0  0  0  # atno 17320 bound_to 7965
  146.2987  139.7359  142.9107 LP  0  0  0  0  0  0  0  0  0  0  0  0  # atno 17321 bound_to 7965
  139.4813  144.5986  151.7646 LP  0  0  0  0  0  0  0  0  0  0  0  0  # atno 17342 bound_to 10162
  140.5120  144.1011  150.5998 LP  0  0  0  0  0  0  0  0  0  0  0  0  # atno 17343 bound_to 10162
  157.0192  130.5667  149.5329 LP  0  0  0  0  0  0  0  0  0  0  0  0  # atno 17370 bound_to 10713
  156.0196  130.5291  150.8236 LP  0  0  0  0  0  0  0  0  0  0  0  0  # atno 17371 bound_to 10713
  140.3957  134.2136  155.7164 LP  0  0  0  0  0  0  0  0  0  0  0  0  # atno 17394 bound_to 11000
  141.1918  133.8187  157.0864 LP  0  0  0  0  0  0  0  0  0  0  0  0  # atno 17395 bound_to 11000

$$$$
