#       Name:                AV-unprocessed.smi:781
#       Creating user name   scv26
#       Creation time:       Fri Mar 27 01:13:38 2020


#       File generated by GOLD software.
#

@<TRIPOS>MOLECULE
AV-unprocessed.smi:781
    45    47     1
SMALL
NO_CHARGES


@<TRIPOS>ATOM
      1 ****        -6.4520   2.6859  -0.9668 C.3            1 S1                 0.0000
      2 ****        -4.9972   2.3713  -0.8888 C.2            1 S1                 0.0000
      3 ****        -4.3053   1.2003  -0.7568 C.2            1 S1                 0.0000
      4 ****        -2.9508   1.6279  -0.7515 C.2            1 S1                 0.0000
      5 ****        -1.8930   0.6915  -0.6288 N.am           1 S1                 0.0000
      6 ****        -0.5733   0.9442  -0.6072 C.2            1 S1                 0.0000
      7 ****        -0.0625   2.0602  -0.7053 O.2            1 S1                 0.0000
      8 ****         0.1347  -0.1844  -0.4542 N.am           1 S1                 0.0000
      9 ****         1.5949  -0.2666  -0.3926 C.3            1 S1                 0.0000
     10 ****         2.0758  -1.6333  -0.9270 C.3            1 S1                 0.0000
     11 ****         3.5844  -1.5545  -1.2235 C.3            1 S1                 0.0000
     12 ****         4.1993  -1.5068   0.1883 C.3            1 S1                 0.0000
     13 ****         2.9616  -1.5719   1.1055 C.3            1 S1                 0.0000
     14 ****         2.0523  -2.5085   0.3203 C.3            1 S1                 0.0000
     15 ****         2.2027  -0.2231   1.0430 C.3            1 S1                 0.0000
     16 ****         1.1998  -0.0319   2.2040 C.3            1 S1                 0.0000
     17 ****         1.8822   0.0711   3.4356 O.3            1 S1                 0.0000
     18 ****        -2.8271   2.9413  -0.8679 N.2            1 S1                 0.0000
     19 ****        -4.1381   3.4244  -0.9565 O.3            1 S1                 0.0000
     20 ****        -7.0276   1.7996  -1.2340 H              1 S1                 0.0000
     21 ****        -6.6446   3.4519  -1.7181 H              1 S1                 0.0000
     22 ****        -6.8194   3.0516  -0.0079 H              1 S1                 0.0000
     23 ****        -4.7064   0.2009  -0.6772 H              1 S1                 0.0000
     24 ****        -2.1717  -0.2743  -0.5408 H              1 S1                 0.0000
     25 ****        -0.3698  -1.0556  -0.3792 H              1 S1                 0.0000
     26 ****         2.0177   0.5318  -1.0059 H              1 S1                 0.0000
     27 ****         1.4936  -2.0122  -1.7681 H              1 S1                 0.0000
     28 ****         3.9218  -2.4436  -1.7580 H              1 S1                 0.0000
     29 ****         3.8479  -0.6838  -1.8249 H              1 S1                 0.0000
     30 ****         4.8481  -2.3684   0.3511 H              1 S1                 0.0000
     31 ****         4.7937  -0.6075   0.3539 H              1 S1                 0.0000
     32 ****         3.1985  -1.9060   2.1160 H              1 S1                 0.0000
     33 ****         1.0579  -2.6218   0.7542 H              1 S1                 0.0000
     34 ****         2.4846  -3.4983   0.1621 H              1 S1                 0.0000
     35 ****         2.9171   0.6002   1.0955 H              1 S1                 0.0000
     36 ****         0.6291   0.8869   2.0689 H              1 S1                 0.0000
     37 ****         0.4864  -0.8542   2.2595 H              1 S1                 0.0000
     38 ****         2.3561  -0.7326   3.5848 H              1 S1                 0.0000
     39 ****        -0.6425   2.8680  -0.8109 LP             1 S1                 0.0000
     40 ****         0.9322   2.1587  -0.6795 LP             1 S1                 0.0000
     41 ****         1.2242   0.2166   4.1744 LP             1 S1                 0.0000
     42 ****         2.5221   0.8388   3.4032 LP             1 S1                 0.0000
     43 ****        -1.9804   3.4729  -0.8882 LP             1 S1                 0.0000
     44 ****        -4.3167   4.0534  -0.1999 LP             1 S1                 0.0000
     45 ****        -4.2619   3.9041  -1.8252 LP             1 S1                 0.0000
@<TRIPOS>BOND
    1    1    2 1     
    2    1   20 1     
    3    1   21 1     
    4    1   22 1     
    5    2   19 1     
    6    2    3 2     
    7    3    4 1     
    8    3   23 1     
    9    4    5 1     
   10    4   18 2     
   11    5    6 am    
   12    5   24 1     
   13    6    7 2     
   14    6    8 am    
   15    8    9 1     
   16    8   25 1     
   17    9   15 1     
   18    9   10 1     
   19    9   26 1     
   20   10   14 1     
   21   10   11 1     
   22   10   27 1     
   23   11   12 1     
   24   11   28 1     
   25   11   29 1     
   26   12   13 1     
   27   12   30 1     
   28   12   31 1     
   29   13   14 1     
   30   13   15 1     
   31   13   32 1     
   32   14   33 1     
   33   14   34 1     
   34   15   16 1     
   35   15   35 1     
   36   16   17 1     
   37   16   36 1     
   38   16   37 1     
   39   17   38 1     
   40   18   19 1     
   41    7   39 1     
   42    7   40 1     
   43   17   41 1     
   44   17   42 1     
   45   18   43 1     
   46   19   44 1     
   47   19   45 1     
@<TRIPOS>SUBSTRUCTURE
      1 S1             1
@<TRIPOS>SET
LONE_PAIRS      STATIC     ATOMS    <user>   **** ""
7 39 40 41 42 43 44 45
DONOR_HYDROGENS      STATIC     ATOMS    <user>   **** ""
3 24 25 38
ATOM$BLUE        STATIC     ATOMS    COLORGROUP SYSTEM
7 39 40 41 42 43 44 45
ATOM$RED        STATIC     ATOMS    COLORGROUP SYSTEM
3 24 25 38
