AV-unprocessed.smi:1818|AV-procd|sdf|7380|dock4
  -GOLD-   22720 9 43D 1   1.00000     0.00000
 Structure written by MMmdl.
 36 37  0  0  0  0  0  0  0  0  1 V2000
  151.1062  139.7574  154.4854 N   0  0  0  0  0  0  0  0  0  0  0  0
  150.3101  140.3861  155.0422 C   0  0  0  0  0  0  0  0  0  0  0  0
  149.2942  141.1874  155.7535 C   0  0  0  0  0  0  0  0  0  0  0  0
  149.9205  142.3494  156.3922 N   0  0  0  0  0  0  0  0  0  0  0  0
  150.9575  142.3473  157.2469 C   0  0  0  0  0  0  0  0  0  0  0  0
  151.5186  141.3252  157.6394 O   0  0  0  0  0  0  0  0  0  0  0  0
  151.4445  143.7141  157.7262 C   0  0  0  0  0  0  0  0  0  0  0  0
  151.8200  143.6649  159.1264 N   0  0  0  0  0  0  0  0  0  0  0  0
  151.4124  144.5273  160.1365 C   0  0  0  0  0  0  0  0  0  0  0  0
  152.0271  144.0982  161.2912 C   0  0  0  0  0  0  0  0  0  0  0  0
  152.8132  142.9817  161.0167 N   0  0  0  0  0  0  0  0  0  0  0  0
  152.6423  142.7855  159.7158 C   0  0  0  0  0  0  0  0  0  0  0  0
  148.3067  141.7230  154.6872 C   0  0  0  0  0  0  0  0  0  0  0  0
  146.9172  142.1424  155.2001 C   0  0  0  0  0  0  0  0  0  0  0  0
  145.9143  140.9744  155.2053 C   0  0  0  0  0  0  0  0  0  0  0  0
  146.1468  139.9247  156.3032 C   0  0  0  0  0  0  0  0  0  0  0  0
  147.5603  139.3174  156.3305 C   0  0  0  0  0  0  0  0  0  0  0  0
  148.6141  140.3145  156.8408 C   0  0  0  0  0  0  0  0  0  0  0  0
  149.5357  143.2483  156.1411 H   0  0  0  0  0  0  0  0  0  0  0  0
  152.3014  144.0461  157.1383 H   0  0  0  0  0  0  0  0  0  0  0  0
  150.6554  144.4558  157.5945 H   0  0  0  0  0  0  0  0  0  0  0  0
  150.7398  145.3529  159.9558 H   0  0  0  0  0  0  0  0  0  0  0  0
  151.9662  144.5048  162.2900 H   0  0  0  0  0  0  0  0  0  0  0  0
  153.1283  141.9843  159.1780 H   0  0  0  0  0  0  0  0  0  0  0  0
  148.7655  142.5734  154.1798 H   0  0  0  0  0  0  0  0  0  0  0  0
  148.1764  140.9787  153.9000 H   0  0  0  0  0  0  0  0  0  0  0  0
  146.9816  142.6154  156.1805 H   0  0  0  0  0  0  0  0  0  0  0  0
  146.5270  142.9067  154.5273 H   0  0  0  0  0  0  0  0  0  0  0  0
  144.9091  141.3783  155.3291 H   0  0  0  0  0  0  0  0  0  0  0  0
  145.9145  140.4870  154.2296 H   0  0  0  0  0  0  0  0  0  0  0  0
  145.9172  140.3599  157.2767 H   0  0  0  0  0  0  0  0  0  0  0  0
  145.4233  139.1204  156.1654 H   0  0  0  0  0  0  0  0  0  0  0  0
  147.5406  138.4674  157.0133 H   0  0  0  0  0  0  0  0  0  0  0  0
  147.8374  138.9111  155.3572 H   0  0  0  0  0  0  0  0  0  0  0  0
  149.3881  139.7480  157.3602 H   0  0  0  0  0  0  0  0  0  0  0  0
  148.1661  140.9451  157.6104 H   0  0  0  0  0  0  0  0  0  0  0  0
  1  2  3  0  0  0  0
  2  3  1  0  0  0  0
  3 18  1  0  0  0  0
  3  4  1  0  0  0  0
  3 13  1  0  0  0  0
  4  5  1  0  0  0  0
  4 19  1  0  0  0  0
  5  6  2  0  0  0  0
  5  7  1  0  0  0  0
  7  8  1  0  0  0  0
  7 20  1  0  0  0  0
  7 21  1  0  0  0  0
  8 12  1  0  0  0  0
  8  9  1  0  0  0  0
  9 10  2  0  0  0  0
  9 22  1  0  0  0  0
 10 11  1  0  0  0  0
 10 23  1  0  0  0  0
 11 12  2  0  0  0  0
 12 24  1  0  0  0  0
 13 14  1  0  0  0  0
 13 25  1  0  0  0  0
 13 26  1  0  0  0  0
 14 15  1  0  0  0  0
 14 27  1  0  0  0  0
 14 28  1  0  0  0  0
 15 16  1  0  0  0  0
 15 29  1  0  0  0  0
 15 30  1  0  0  0  0
 16 17  1  0  0  0  0
 16 31  1  0  0  0  0
 16 32  1  0  0  0  0
 17 18  1  0  0  0  0
 17 33  1  0  0  0  0
 17 34  1  0  0  0  0
 18 35  1  0  0  0  0
 18 36  1  0  0  0  0
M  END
> <s_m_source_file>
AV-unprocessed.smi

> <i_m_source_file_index>
1818

> <i_lp_mmshare_version>
43012

> <i_f3d_flags>
0

> <s_epik_input>
W0NIMl0xW0NIMl1bQ0gyXVtDSDJdW0NIMl1bQ0gyXUMxKEMjTilbTkhdQyg9TylbQ0gyXW4yW2NIXVtjSF1uW2NIXTI=

> <s_epik_cmdline>
J2VwaWtfcHl0aG9uJywgJy1waCcsICc3LjAnLCAnLXRuJywgJzgnLCAnLW1hJywgJzIwMCcsICctbWV0YWxfYmluZGluZycsICctaW1hZScsICc8aW5maWxlLm1hZT4nLCAnLW9tYWUnLCAnPG91dGZpbGUubWFlPic=

> <r_lp_tautomer_probability>
1

> <r_epik_Ionization_Penalty>
0.21493

> <r_epik_Ionization_Penalty_Charging>
0.214927

> <r_epik_Ionization_Penalty_Neutral>
2.56273e-06

> <r_epik_State_Penalty>
0.205117

> <r_epik_Charging_Adjusted_Penalty>
0.420044

> <i_epik_Tot_Q>
0

> <i_epik_Tot_abs_Q>
0

> <r_epik_Metal_State_Penalty>
0.148888

> <b_epik_Metal_Only>
0

> <s_lp_Force_Field>
OPLS_2005

> <r_lp_Energy>
17.7076

> <b_lp_Chiralities_Consistent>
1

> <s_lp_Variant>
AV-unprocessed.smi:1818-1

> <Gold.Version>
5.8.1

> <Gold.Id.Protein>
6NUR|6NUR_protein|mol2

> <Gold.PLP.Fitness>
39.8604

> <Gold.PLP.PLP>
-34.7637

> <Gold.PLP.part.hbond>
-2.0000

> <Gold.PLP.part.metal>
0.0000

> <Gold.PLP.part.buried>
-3.5473

> <Gold.PLP.part.nonpolar>
-29.1130

> <Gold.PLP.part.repulsive>
0.2169

> <Gold.PLP.ligand.clash>
0.0000

> <Gold.PLP.ligand.torsion>
0.4575

> <Gold.PLP.Chemscore.Hbond>
2.0000

> <Gold.PLP.Chemscore.CHOScore>
0.0000

> <Gold.PLP.Chemscore.Metal>
0.0000

> <Gold.Chemscore.Hbonds>
donor molecule, donor type, donor heavy atom, donor atom, acceptor molecule, acceptor atom, score
      L1  H     4    19       P1  8028  1.00
      P1  H  7989  7998       L1     1  0.95

> <Gold.PLP.Chemscore.Internal.Correction>
0.0118

> <Gold.Rescore>
     Score         DG    S(hbond)    S(metal)    S(lipo)     H(rot)  DE(clash)    DE(int)     intcor
     12.71     -13.43       1.93        0.00      48.92       1.65       0.04       0.68       ----

> <Gold.Chemscore.Fitness>
12.7129

> <Gold.Chemscore.DG>
-13.4321

> <Gold.Chemscore.ZeroCoef>
-5.4800

> <Gold.Chemscore.Hbond>
1.9310

> <Gold.Chemscore.Metal>
0.0000

> <Gold.Chemscore.Lipo>
48.9186

> <Gold.Chemscore.Internal_Hbond>
0.0000

> <Gold.Chemscore.DEClash>
0.0354

> <Gold.Chemscore.DEInternal>
0.6838

> <Gold.Chemscore.Rot>
1.6488

> <Gold.Chemscore.Internal.Correction>
   9.000000E+99

> <Gold.Chemscore.Hbonds>
donor molecule, donor type, donor heavy atom, donor atom, acceptor molecule, acceptor atom, score
      L1  H     4    19       P1  8028  1.00
      P1  H  7989  7998       L1     1  0.21

> <Gold.Chemscore.Hbond.Weighted>
-6.4497

> <Gold.Chemscore.Metal.Weighted>
-0.0000

> <Gold.Chemscore.Lipo.Weighted>
-5.7235

> <Gold.Chemscore.Internal_Hbond.Weighted>
0.0000

> <Gold.Chemscore.DEClash.Weighted>
0.0354

> <Gold.Chemscore.DEInternal.Weighted>
0.6838

> <Gold.Chemscore.Rot.Weighted>
4.2210

> <Gold.Chemscore.Internal.Correction.Weighted>
   9.000000E+99

> <Gold.Protein.RotatedTorsions>
[ 6907 6896 6895 6894 ] final  -80.88 input  -60.11 | X-H torsion
[ 7974 7965 7964 7962 ] final   64.30 input  175.53 | X-H torsion
[ 8008 7997 7996 7995 ] final  -27.67 input   59.86 | X-H torsion
[ 10167 10162 10161 10158 ] final  174.62 input  -65.29 | X-H torsion
[ 10718 10713 10712 10709 ] final -178.96 input   66.30 | X-H torsion
[ 10763 10752 10751 10750 ] final   36.78 input  -60.55 | X-H torsion
[ 11005 11000 10999 10996 ] final   24.56 input  -57.11 | X-H torsion

> <Gold.Protein.ActiveResidues>
 VAL166  LYS551  ARG553  GLY616  TRP617  ASP618  TYR619  PRO620  LYS621  CYS622 
 ASP623  PHE694  ASN695  SER759  ASP760  ASP761  ALA762  ILE779  LEU786  VAL792 
 PHE793  MET794  SER795  GLU796  ALA797  LYS798  CYS799  TRP800  GLU811  SER814 

> <Gold.Protein.RotatedAtoms>
  150.6921  134.3902  159.5072 H   0  0  0  0  0  0  0  0  0  0  0  0  # atno 6907 bound_to 6896
  152.1692  134.8846  160.0545 H   0  0  0  0  0  0  0  0  0  0  0  0  # atno 6908 bound_to 6896
  151.9878  133.3745  159.4169 H   0  0  0  0  0  0  0  0  0  0  0  0  # atno 6909 bound_to 6896
  145.8518  139.3259  143.0871 H   0  0  0  0  0  0  0  0  0  0  0  0  # atno 7974 bound_to 7965
  154.4366  140.1866  156.0969 H   0  0  0  0  0  0  0  0  0  0  0  0  # atno 8008 bound_to 7997
  156.0322  140.3329  155.7126 H   0  0  0  0  0  0  0  0  0  0  0  0  # atno 8009 bound_to 7997
  155.5822  140.0623  157.2771 H   0  0  0  0  0  0  0  0  0  0  0  0  # atno 8010 bound_to 7997
  139.5148  144.3125  152.0278 H   0  0  0  0  0  0  0  0  0  0  0  0  # atno 10167 bound_to 10162
  156.8520  130.9722  151.3091 H   0  0  0  0  0  0  0  0  0  0  0  0  # atno 10718 bound_to 10713
  153.0063  135.6296  154.2039 H   0  0  0  0  0  0  0  0  0  0  0  0  # atno 10763 bound_to 10752
  154.1782  135.2815  155.3062 H   0  0  0  0  0  0  0  0  0  0  0  0  # atno 10764 bound_to 10752
  154.5855  135.5634  153.7287 H   0  0  0  0  0  0  0  0  0  0  0  0  # atno 10765 bound_to 10752
  140.3574  134.2162  155.7675 H   0  0  0  0  0  0  0  0  0  0  0  0  # atno 11005 bound_to 11000
  145.9349  140.9022  143.0337 LP  0  0  0  0  0  0  0  0  0  0  0  0  # atno 17320 bound_to 7965
  144.6729  140.1468  143.7433 LP  0  0  0  0  0  0  0  0  0  0  0  0  # atno 17321 bound_to 7965
  140.2569  144.4109  150.6200 LP  0  0  0  0  0  0  0  0  0  0  0  0  # atno 17342 bound_to 10162
  140.6185  143.2174  151.6743 LP  0  0  0  0  0  0  0  0  0  0  0  0  # atno 17343 bound_to 10162
  157.6298  130.8720  149.9253 LP  0  0  0  0  0  0  0  0  0  0  0  0  # atno 17370 bound_to 10713
  156.0823  130.3672  150.0557 LP  0  0  0  0  0  0  0  0  0  0  0  0  # atno 17371 bound_to 10713
  141.1994  133.8012  157.0537 LP  0  0  0  0  0  0  0  0  0  0  0  0  # atno 17394 bound_to 11000
  140.0654  134.9732  157.1377 LP  0  0  0  0  0  0  0  0  0  0  0  0  # atno 17395 bound_to 11000

$$$$
