AV-unprocessed.smi:1005|AV-procd|sdf|4383|dock9
  -GOLD-   22720 2303D 1   1.00000     0.00000
 Structure written by MMmdl.
 58 60  0  0  0  0  0  0  0  0  4 V2000
  152.3773  142.8711  160.4737 C   0  0  0  0  0  0  0  0  0  0  0  0
  151.9727  142.1234  159.2145 C   0  0  0  0  0  0  0  0  0  0  0  0
  150.9540  142.6709  158.4026 C   0  0  0  0  0  0  0  0  0  0  0  0
  150.6073  141.9648  157.2571 C   0  0  0  0  0  0  0  0  0  0  0  0
  149.6608  142.2379  156.2678 N   0  3  0  0  0  0  0  0  0  0  0  0
  149.6836  141.2497  155.3316 C   0  0  0  0  0  0  0  0  0  0  0  0
  150.6317  140.3481  155.7068 N   0  0  0  0  0  0  0  0  0  0  0  0
  151.0559  139.1041  155.0466 C   0  0  0  0  0  0  0  0  0  0  0  0
  149.8836  138.1393  154.7757 C   0  0  1  0  0  0  0  0  0  0  0  0
  149.4074  138.3280  153.4570 O   0  0  0  0  0  0  0  0  0  0  0  0
  150.2988  136.6636  154.9455 C   0  0  0  0  0  0  0  0  0  0  0  0
  149.2632  135.7222  154.4388 N   0  3  1  0  0  0  0  0  0  0  0  0
  149.7668  134.3475  154.2022 C   0  0  0  0  0  0  0  0  0  0  0  0
  149.8709  133.5598  155.5188 C   0  0  0  0  0  0  0  0  0  0  0  0
  148.5974  133.5366  156.1518 O   0  0  0  0  0  0  0  0  0  0  0  0
  148.1400  134.8372  156.5092 C   0  0  2  0  0  0  0  0  0  0  0  0
  146.7852  134.6837  157.2277 C   0  0  0  0  0  0  0  0  0  0  0  0
  145.7788  133.9405  156.4255 N   0  3  0  0  0  0  0  0  0  0  0  0
  144.3981  134.2022  156.8898 C   0  0  0  0  0  0  0  0  0  0  0  0
  146.0509  132.4874  156.3302 C   0  0  0  0  0  0  0  0  0  0  0  0
  148.0033  135.6903  155.2265 C   0  0  0  0  0  0  0  0  0  0  0  0
  151.2329  140.7522  156.9061 C   0  0  0  0  0  0  0  0  0  0  0  0
  152.2371  140.1982  157.6975 C   0  0  0  0  0  0  0  0  0  0  0  0
  152.6063  140.9029  158.8657 C   0  0  0  0  0  0  0  0  0  0  0  0
  153.7020  140.3243  159.7449 C   0  0  0  0  0  0  0  0  0  0  0  0
  151.8036  143.7906  160.5939 H   0  0  0  0  0  0  0  0  0  0  0  0
  153.4332  143.1405  160.4380 H   0  0  0  0  0  0  0  0  0  0  0  0
  152.2065  142.2543  161.3564 H   0  0  0  0  0  0  0  0  0  0  0  0
  150.4671  143.6000  158.6615 H   0  0  0  0  0  0  0  0  0  0  0  0
  149.0614  141.1940  154.4500 H   0  0  0  0  0  0  0  0  0  0  0  0
  151.5943  139.3471  154.1303 H   0  0  0  0  0  0  0  0  0  0  0  0
  151.7812  138.6266  155.7066 H   0  0  0  0  0  0  0  0  0  0  0  0
  149.0734  138.3838  155.4620 H   0  0  0  0  0  0  0  0  0  0  0  0
  149.6089  139.2098  153.1829 H   0  0  0  0  0  0  0  0  0  0  0  0
  151.2333  136.5079  154.4040 H   0  0  0  0  0  0  0  0  0  0  0  0
  150.5199  136.4489  155.9910 H   0  0  0  0  0  0  0  0  0  0  0  0
  149.0710  133.8384  153.5337 H   0  0  0  0  0  0  0  0  0  0  0  0
  150.7257  134.3686  153.6832 H   0  0  0  0  0  0  0  0  0  0  0  0
  150.1817  132.5345  155.3172 H   0  0  0  0  0  0  0  0  0  0  0  0
  150.6196  133.9933  156.1837 H   0  0  0  0  0  0  0  0  0  0  0  0
  148.8606  135.3053  157.1791 H   0  0  0  0  0  0  0  0  0  0  0  0
  146.9163  134.1887  158.1911 H   0  0  0  0  0  0  0  0  0  0  0  0
  146.4010  135.6814  157.4462 H   0  0  0  0  0  0  0  0  0  0  0  0
  144.2524  133.8386  157.9077 H   0  0  0  0  0  0  0  0  0  0  0  0
  143.6722  133.7080  156.2433 H   0  0  0  0  0  0  0  0  0  0  0  0
  144.1777  135.2700  156.8723 H   0  0  0  0  0  0  0  0  0  0  0  0
  146.0554  132.0235  157.3172 H   0  0  0  0  0  0  0  0  0  0  0  0
  147.0093  132.2885  155.8529 H   0  0  0  0  0  0  0  0  0  0  0  0
  145.2864  131.9939  155.7291 H   0  0  0  0  0  0  0  0  0  0  0  0
  147.6691  136.6981  155.4705 H   0  0  0  0  0  0  0  0  0  0  0  0
  147.2278  135.2619  154.5898 H   0  0  0  0  0  0  0  0  0  0  0  0
  152.7231  139.2708  157.4352 H   0  0  0  0  0  0  0  0  0  0  0  0
  154.0889  139.3896  159.3382 H   0  0  0  0  0  0  0  0  0  0  0  0
  153.3214  140.1196  160.7458 H   0  0  0  0  0  0  0  0  0  0  0  0
  154.5361  141.0214  159.8268 H   0  0  0  0  0  0  0  0  0  0  0  0
  145.8281  134.3104  155.4867 H   0  0  0  0  0  0  0  0  0  0  0  0
  149.0208  136.0820  153.5259 H   0  0  0  0  0  0  0  0  0  0  0  0
  149.0439  143.0397  156.2324 H   0  0  0  0  0  0  0  0  0  0  0  0
  1  2  1  0  0  0  0
  1 26  1  0  0  0  0
  1 27  1  0  0  0  0
  1 28  1  0  0  0  0
  2 24  1  0  0  0  0
  2  3  2  0  0  0  0
  3  4  1  0  0  0  0
  3 29  1  0  0  0  0
  4 22  2  0  0  0  0
  4  5  1  0  0  0  0
  5  6  2  0  0  0  0
  5 58  1  0  0  0  0
  6  7  1  0  0  0  0
  6 30  1  0  0  0  0
  7  8  1  0  0  0  0
  7 22  1  0  0  0  0
  8  9  1  0  0  0  0
  8 31  1  0  0  0  0
  8 32  1  0  0  0  0
  9 10  1  0  0  0  0
  9 11  1  0  0  0  0
  9 33  1  0  0  0  0
 10 34  1  0  0  0  0
 11 12  1  0  0  0  0
 11 35  1  0  0  0  0
 11 36  1  0  0  0  0
 12 21  1  0  0  0  0
 12 13  1  0  0  0  0
 12 57  1  0  0  0  0
 13 14  1  0  0  0  0
 13 37  1  0  0  0  0
 13 38  1  0  0  0  0
 14 15  1  0  0  0  0
 14 39  1  0  0  0  0
 14 40  1  0  0  0  0
 15 16  1  0  0  0  0
 16 17  1  0  0  0  0
 16 21  1  0  0  0  0
 16 41  1  0  0  0  0
 17 18  1  0  0  0  0
 17 42  1  0  0  0  0
 17 43  1  0  0  0  0
 18 19  1  0  0  0  0
 18 20  1  0  0  0  0
 18 56  1  0  0  0  0
 19 44  1  0  0  0  0
 19 45  1  0  0  0  0
 19 46  1  0  0  0  0
 20 47  1  0  0  0  0
 20 48  1  0  0  0  0
 20 49  1  0  0  0  0
 21 50  1  0  0  0  0
 21 51  1  0  0  0  0
 22 23  1  0  0  0  0
 23 24  2  0  0  0  0
 23 52  1  0  0  0  0
 24 25  1  0  0  0  0
 25 53  1  0  0  0  0
 25 54  1  0  0  0  0
 25 55  1  0  0  0  0
M  CHG  1   5   1
M  CHG  1  12   1
M  CHG  1  18   1
M  END
> <s_m_source_file>
AV-unprocessed.smi

> <i_m_source_file_index>
1005

> <i_lp_mmshare_version>
43012

> <i_f3d_flags>
0

> <s_epik_input>
W0NIM11jKFtjSF0xKWMoW0NIM10pW2NIXWMoYzEyKW4oW2NIXW4yKVtDSDJdW0NASF0oW09IXSlbQ0gyXU4zW0NIMl1bQ0gyXU9bQ0BIXShbQ0gyXTMpW0NIMl1OKFtDSDNdKVtDSDNd

> <s_epik_cmdline>
J2VwaWtfcHl0aG9uJywgJy1waCcsICc3LjAnLCAnLXRuJywgJzgnLCAnLW1hJywgJzIwMCcsICctbWV0YWxfYmluZGluZycsICctaW1hZScsICc8aW5maWxlLm1hZT4nLCAnLW9tYWUnLCAnPG91dGZpbGUubWFlPic=

> <r_epik_Ionization_Penalty>
2.30802

> <r_epik_Ionization_Penalty_Charging>
2.30798

> <r_epik_Ionization_Penalty_Neutral>
3.4851e-05

> <r_epik_State_Penalty>
2.52618

> <r_epik_Charging_Adjusted_Penalty>
4.83416

> <i_epik_Tot_Q>
3

> <i_epik_Tot_abs_Q>
3

> <r_epik_Metal_State_Penalty>
6.53149

> <b_epik_Metal_Only>
0

> <s_lp_Force_Field>
OPLS_2005

> <r_lp_Energy>
46.6994

> <b_lp_Chiralities_Consistent>
1

> <s_lp_Variant>
AV-unprocessed.smi:1005-22

> <Gold.Version>
5.8.1

> <Gold.Id.Protein>
6NUR|6NUR_protein|mol2

> <Gold.PLP.Fitness>
52.8547

> <Gold.PLP.PLP>
-40.6908

> <Gold.PLP.part.hbond>
-3.8553

> <Gold.PLP.part.metal>
0.0000

> <Gold.PLP.part.buried>
-4.0934

> <Gold.PLP.part.nonpolar>
-32.9310

> <Gold.PLP.part.repulsive>
0.1532

> <Gold.PLP.ligand.clash>
0.0000

> <Gold.PLP.ligand.torsion>
0.8137

> <Gold.PLP.Chemscore.Hbond>
4.5374

> <Gold.PLP.Chemscore.CHOScore>
0.0000

> <Gold.PLP.Chemscore.Metal>
0.0000

> <Gold.Chemscore.Hbonds>
donor molecule, donor type, donor heavy atom, donor atom, acceptor molecule, acceptor atom, score
      L1  H     5    58       P1  8028  1.79
      L1  H    10    34       P1  7957  0.35
      L1  H    12    57       P1  7948  2.00

> <Gold.PLP.Chemscore.Internal.Correction>
0.1790

> <Gold.Rescore>
     Score         DG    S(hbond)    S(metal)    S(lipo)     H(rot)  DE(clash)    DE(int)     intcor
     17.46     -19.74       2.72        0.00     100.16       2.56       0.09       2.19       ----

> <Gold.Chemscore.Fitness>
17.4561

> <Gold.Chemscore.DG>
-19.7368

> <Gold.Chemscore.ZeroCoef>
-5.4800

> <Gold.Chemscore.Hbond>
2.7195

> <Gold.Chemscore.Metal>
0.0000

> <Gold.Chemscore.Lipo>
100.1599

> <Gold.Chemscore.Internal_Hbond>
0.0000

> <Gold.Chemscore.DEClash>
0.0859

> <Gold.Chemscore.DEInternal>
2.1949

> <Gold.Chemscore.Rot>
2.5566

> <Gold.Chemscore.Internal.Correction>
   9.000000E+99

> <Gold.Chemscore.Hbonds>
donor molecule, donor type, donor heavy atom, donor atom, acceptor molecule, acceptor atom, score
      L1  H     5    58       P1  8028  0.88
      L1  H    10    34       P1  7957  0.35
      L1  H    12    57       P1  7948  0.96

> <Gold.Chemscore.Hbond.Weighted>
-9.0831

> <Gold.Chemscore.Metal.Weighted>
-0.0000

> <Gold.Chemscore.Lipo.Weighted>
-11.7187

> <Gold.Chemscore.Internal_Hbond.Weighted>
0.0000

> <Gold.Chemscore.DEClash.Weighted>
0.0859

> <Gold.Chemscore.DEInternal.Weighted>
2.1949

> <Gold.Chemscore.Rot.Weighted>
6.5450

> <Gold.Chemscore.Internal.Correction.Weighted>
   9.000000E+99

> <Gold.Protein.RotatedTorsions>
[ 6907 6896 6895 6894 ] final   57.89 input  -60.11 | X-H torsion
[ 7974 7965 7964 7962 ] final   54.14 input  175.53 | X-H torsion
[ 8008 7997 7996 7995 ] final   31.32 input   59.86 | X-H torsion
[ 10167 10162 10161 10158 ] final   31.03 input  -65.29 | X-H torsion
[ 10718 10713 10712 10709 ] final -113.21 input   66.30 | X-H torsion
[ 10763 10752 10751 10750 ] final   69.96 input  -60.55 | X-H torsion
[ 11005 11000 10999 10996 ] final  147.31 input  -57.11 | X-H torsion

> <Gold.Protein.ActiveResidues>
 VAL166  LYS551  ARG553  GLY616  TRP617  ASP618  TYR619  PRO620  LYS621  CYS622 
 ASP623  PHE694  ASN695  SER759  ASP760  ASP761  ALA762  ILE779  LEU786  VAL792 
 PHE793  MET794  SER795  GLU796  ALA797  LYS798  CYS799  TRP800  GLU811  SER814 

> <Gold.Protein.RotatedAtoms>
  152.3773  134.6644  160.0155 H   0  0  0  0  0  0  0  0  0  0  0  0  # atno 6907 bound_to 6896
  151.6918  133.3305  159.3252 H   0  0  0  0  0  0  0  0  0  0  0  0  # atno 6908 bound_to 6896
  150.7720  134.6627  159.6393 H   0  0  0  0  0  0  0  0  0  0  0  0  # atno 6909 bound_to 6896
  145.9639  139.4085  143.0231 H   0  0  0  0  0  0  0  0  0  0  0  0  # atno 7974 bound_to 7965
  155.1045  140.3233  155.4538 H   0  0  0  0  0  0  0  0  0  0  0  0  # atno 8008 bound_to 7997
  156.2708  140.2055  156.6118 H   0  0  0  0  0  0  0  0  0  0  0  0  # atno 8009 bound_to 7997
  154.6803  140.0527  157.0246 H   0  0  0  0  0  0  0  0  0  0  0  0  # atno 8010 bound_to 7997
  140.4625  144.0886  150.6216 H   0  0  0  0  0  0  0  0  0  0  0  0  # atno 10167 bound_to 10162
  156.0752  130.5961  150.8612 H   0  0  0  0  0  0  0  0  0  0  0  0  # atno 10718 bound_to 10713
  153.0315  135.5191  154.7368 H   0  0  0  0  0  0  0  0  0  0  0  0  # atno 10763 bound_to 10752
  154.6379  135.2908  155.0141 H   0  0  0  0  0  0  0  0  0  0  0  0  # atno 10764 bound_to 10752
  154.1069  135.6628  153.4930 H   0  0  0  0  0  0  0  0  0  0  0  0  # atno 10765 bound_to 10752
  140.0866  134.9066  157.1584 H   0  0  0  0  0  0  0  0  0  0  0  0  # atno 11005 bound_to 11000
  145.8001  140.9775  143.1003 LP  0  0  0  0  0  0  0  0  0  0  0  0  # atno 17320 bound_to 7965
  144.6821  139.9791  143.7483 LP  0  0  0  0  0  0  0  0  0  0  0  0  # atno 17321 bound_to 7965
  140.4076  143.2672  151.9871 LP  0  0  0  0  0  0  0  0  0  0  0  0  # atno 17342 bound_to 10162
  139.4808  144.5943  151.7717 LP  0  0  0  0  0  0  0  0  0  0  0  0  # atno 17343 bound_to 10162
  157.5844  131.0946  150.9219 LP  0  0  0  0  0  0  0  0  0  0  0  0  # atno 17370 bound_to 10713
  156.9408  130.5384  149.5280 LP  0  0  0  0  0  0  0  0  0  0  0  0  # atno 17371 bound_to 10713
  140.3412  134.2702  155.7212 LP  0  0  0  0  0  0  0  0  0  0  0  0  # atno 17394 bound_to 11000
  141.2064  133.7833  157.0177 LP  0  0  0  0  0  0  0  0  0  0  0  0  # atno 17395 bound_to 11000

$$$$
