AV-unprocessed.smi:283|AV-procd|sdf|2154|dock9
  -GOLD-   2262021503D 1   1.00000     0.00000
 Structure written by MMmdl.
 48 51  0  0  0  0  0  0  0  0  1 V2000
  149.4412  141.7222  157.0856 C   0  0  0  0  0  0  0  0  0  0  0  0
  150.8148  141.5042  157.7343 C   0  0  1  0  0  0  0  0  0  0  0  0
  151.7903  141.1371  156.7099 N   0  0  0  0  0  0  0  0  0  0  0  0
  151.7853  139.9093  156.1448 C   0  0  0  0  0  0  0  0  0  0  0  0
  152.5969  139.7590  155.0714 N   0  0  0  0  0  0  0  0  0  0  0  0
  152.6792  138.5783  154.4529 C   0  0  0  0  0  0  0  0  0  0  0  0
  152.0440  137.4416  154.7402 N   0  0  0  0  0  0  0  0  0  0  0  0
  151.2119  137.5846  155.8119 C   0  0  0  0  0  0  0  0  0  0  0  0
  151.0198  138.7803  156.5631 C   0  0  0  0  0  0  0  0  0  0  0  0
  150.0837  138.5462  157.5634 N   0  0  0  0  0  0  0  0  0  0  0  0
  149.7604  137.2909  157.4204 C   0  0  0  0  0  0  0  0  0  0  0  0
  150.3907  136.6344  156.3888 N   0  0  0  0  0  0  0  0  0  0  0  0
  150.2159  135.1987  155.9918 C   0  0  2  0  0  0  0  0  0  0  0  0
  149.1076  134.6638  156.6549 O   0  0  0  0  0  0  0  0  0  0  0  0
  149.4894  133.5316  157.4345 C   0  0  1  0  0  0  0  0  0  0  0  0
  148.3195  132.5360  157.4810 C   0  0  0  0  0  0  0  0  0  0  0  0
  147.1982  133.1120  158.1164 O   0  0  0  0  0  0  0  0  0  0  0  0
  150.7500  133.0213  156.7304 C   0  0  2  0  0  0  0  0  0  0  0  0
  151.5684  132.2034  157.5446 O   0  0  0  0  0  0  0  0  0  0  0  0
  151.4359  134.3177  156.3231 C   0  0  2  0  0  0  0  0  0  0  0  0
  152.2589  134.8480  157.3515 O   0  0  0  0  0  0  0  0  0  0  0  0
  151.2017  142.7204  158.5812 C   0  0  0  0  0  0  0  0  0  0  0  0
  150.3487  143.8481  158.6279 C   0  0  0  0  0  0  0  0  0  0  0  0
  150.6903  144.9765  159.3964 C   0  0  0  0  0  0  0  0  0  0  0  0
  151.8867  144.9874  160.1351 C   0  0  0  0  0  0  0  0  0  0  0  0
  152.7356  143.8656  160.1093 C   0  0  0  0  0  0  0  0  0  0  0  0
  152.3981  142.7324  159.3423 C   0  0  0  0  0  0  0  0  0  0  0  0
  153.4718  141.3769  159.3626 Cl  0  0  0  0  0  0  0  0  0  0  0  0
  150.0000  135.2325  154.9232 H   0  0  0  0  0  0  0  0  0  0  0  0
  149.7322  133.8810  158.4394 H   0  0  0  0  0  0  0  0  0  0  0  0
  150.4708  132.4648  155.8343 H   0  0  0  0  0  0  0  0  0  0  0  0
  152.0468  134.1891  155.4292 H   0  0  0  0  0  0  0  0  0  0  0  0
  148.6769  141.9116  157.8399 H   0  0  0  0  0  0  0  0  0  0  0  0
  149.1303  140.8446  156.5180 H   0  0  0  0  0  0  0  0  0  0  0  0
  149.4540  142.5732  156.4039 H   0  0  0  0  0  0  0  0  0  0  0  0
  150.7198  140.6353  158.3831 H   0  0  0  0  0  0  0  0  0  0  0  0
  152.6033  141.7347  156.6721 H   0  0  0  0  0  0  0  0  0  0  0  0
  153.3513  138.5373  153.6085 H   0  0  0  0  0  0  0  0  0  0  0  0
  149.0446  136.8069  158.0686 H   0  0  0  0  0  0  0  0  0  0  0  0
  148.0266  132.2598  156.4676 H   0  0  0  0  0  0  0  0  0  0  0  0
  148.6040  131.6175  157.9951 H   0  0  0  0  0  0  0  0  0  0  0  0
  147.1275  134.0137  157.8428 H   0  0  0  0  0  0  0  0  0  0  0  0
  152.3082  131.9202  157.0288 H   0  0  0  0  0  0  0  0  0  0  0  0
  151.8779  134.6216  158.1861 H   0  0  0  0  0  0  0  0  0  0  0  0
  149.4242  143.8563  158.0693 H   0  0  0  0  0  0  0  0  0  0  0  0
  150.0332  145.8335  159.4187 H   0  0  0  0  0  0  0  0  0  0  0  0
  152.1512  145.8526  160.7250 H   0  0  0  0  0  0  0  0  0  0  0  0
  153.6503  143.8747  160.6838 H   0  0  0  0  0  0  0  0  0  0  0  0
  1  2  1  0  0  0  0
  1 33  1  0  0  0  0
  1 34  1  0  0  0  0
  1 35  1  0  0  0  0
  2  3  1  0  0  0  0
  2 22  1  0  0  0  0
  2 36  1  0  0  0  0
  3  4  1  0  0  0  0
  3 37  1  0  0  0  0
  4  9  1  0  0  0  0
  4  5  2  0  0  0  0
  5  6  1  0  0  0  0
  6  7  2  0  0  0  0
  6 38  1  0  0  0  0
  7  8  1  0  0  0  0
  8 12  1  0  0  0  0
  8  9  2  0  0  0  0
  9 10  1  0  0  0  0
 10 11  2  0  0  0  0
 11 12  1  0  0  0  0
 11 39  1  0  0  0  0
 12 13  1  0  0  0  0
 13 29  1  0  0  0  0
 13 20  1  0  0  0  0
 13 14  1  0  0  0  0
 14 15  1  0  0  0  0
 15 30  1  0  0  0  0
 15 16  1  0  0  0  0
 15 18  1  0  0  0  0
 16 17  1  0  0  0  0
 16 40  1  0  0  0  0
 16 41  1  0  0  0  0
 17 42  1  0  0  0  0
 18 31  1  0  0  0  0
 18 19  1  0  0  0  0
 18 20  1  0  0  0  0
 19 43  1  0  0  0  0
 20 32  1  0  0  0  0
 20 21  1  0  0  0  0
 21 44  1  0  0  0  0
 22 27  1  0  0  0  0
 22 23  2  0  0  0  0
 23 24  1  0  0  0  0
 23 45  1  0  0  0  0
 24 25  2  0  0  0  0
 24 46  1  0  0  0  0
 25 26  1  0  0  0  0
 25 47  1  0  0  0  0
 26 27  2  0  0  0  0
 26 48  1  0  0  0  0
 27 28  1  0  0  0  0
M  END
> <s_m_source_file>
AV-unprocessed.smi

> <i_m_source_file_index>
283

> <i_lp_mmshare_version>
43012

> <i_f3d_flags>
0

> <s_epik_input>
Q2xjMVtjSF1bY0hdW2NIXVtjSF1jMVtDQEhdKFtDSDNdKVtOSF1jKG5bY0hdbjIpYyhjMjMpbltjSF1uM1tDQEBIXTRPW0NASF0oW0NIMl1bT0hdKVtDQEBIXShbT0hdKVtDQEhdNFtPSF0=

> <s_epik_cmdline>
J2VwaWtfcHl0aG9uJywgJy1waCcsICc3LjAnLCAnLXRuJywgJzgnLCAnLW1hJywgJzIwMCcsICctbWV0YWxfYmluZGluZycsICctaW1hZScsICc8aW5maWxlLm1hZT4nLCAnLW9tYWUnLCAnPG91dGZpbGUubWFlPic=

> <r_lp_tautomer_probability>
1

> <r_epik_Ionization_Penalty>
0.000266407

> <r_epik_Ionization_Penalty_Charging>
0

> <r_epik_Ionization_Penalty_Neutral>
0.000266407

> <r_epik_State_Penalty>
-0

> <r_epik_Charging_Adjusted_Penalty>
0

> <i_epik_Tot_Q>
0

> <i_epik_Tot_abs_Q>
0

> <r_epik_Metal_State_Penalty>
-0

> <b_epik_Metal_Only>
0

> <s_epik_Chemistry_Notes>
This compound contains an acetal/aminal-like group ( X-CH(R)-Y where X, Y are N, S, or O) that may be acid/base labile, releasing an aldehyde.

> <s_lp_Force_Field>
OPLS_2005

> <r_lp_Energy>
52.4072

> <b_lp_Chiralities_Consistent>
1

> <s_lp_Variant>
AV-unprocessed.smi:283-30

> <Gold.Version>
5.8.1

> <Gold.Id.Protein>
6NUR|6NUR_protein|mol2

> <Gold.PLP.Fitness>
50.5393

> <Gold.PLP.PLP>
-41.8763

> <Gold.PLP.part.hbond>
-4.9577

> <Gold.PLP.part.metal>
0.0000

> <Gold.PLP.part.buried>
-6.4988

> <Gold.PLP.part.nonpolar>
-31.7185

> <Gold.PLP.part.repulsive>
0.2450

> <Gold.PLP.ligand.clash>
0.0000

> <Gold.PLP.ligand.torsion>
0.4830

> <Gold.PLP.Chemscore.Hbond>
3.1750

> <Gold.PLP.Chemscore.CHOScore>
0.0000

> <Gold.PLP.Chemscore.Metal>
0.0000

> <Gold.Chemscore.Hbonds>
donor molecule, donor type, donor heavy atom, donor atom, acceptor molecule, acceptor atom, score
      P1  H  6896  6909       L1    19  0.99
      P1  H  7989  7998       L1     5  0.41
      P1  H  7997  8008       L1     5  0.86
      P1  H 10752 10765       L1     7  0.85

> <Gold.PLP.Chemscore.Internal.Correction>
0.1039

> <Gold.Rescore>
     Score         DG    S(hbond)    S(metal)    S(lipo)     H(rot)  DE(clash)    DE(int)     intcor
     10.52     -12.70       1.75        0.00     101.45       4.10       1.02       1.16       ----

> <Gold.Chemscore.Fitness>
10.5208

> <Gold.Chemscore.DG>
-12.6971

> <Gold.Chemscore.ZeroCoef>
-5.4800

> <Gold.Chemscore.Hbond>
1.7470

> <Gold.Chemscore.Metal>
0.0000

> <Gold.Chemscore.Lipo>
101.4538

> <Gold.Chemscore.Internal_Hbond>
0.0000

> <Gold.Chemscore.DEClash>
1.0187

> <Gold.Chemscore.DEInternal>
1.1576

> <Gold.Chemscore.Rot>
4.0968

> <Gold.Chemscore.Internal.Correction>
   9.000000E+99

> <Gold.Chemscore.Hbonds>
donor molecule, donor type, donor heavy atom, donor atom, acceptor molecule, acceptor atom, score
      P1  H  6896  6909       L1    19  0.32
      P1  H  7989  7998       L1     5  0.04
      P1  H  7997  8008       L1     5  0.13
      P1  H 10752 10765       L1     7  0.74

> <Gold.Chemscore.Hbond.Weighted>
-5.8349

> <Gold.Chemscore.Metal.Weighted>
-0.0000

> <Gold.Chemscore.Lipo.Weighted>
-11.8701

> <Gold.Chemscore.Internal_Hbond.Weighted>
0.0000

> <Gold.Chemscore.DEClash.Weighted>
1.0187

> <Gold.Chemscore.DEInternal.Weighted>
1.1576

> <Gold.Chemscore.Rot.Weighted>
10.4879

> <Gold.Chemscore.Internal.Correction.Weighted>
   9.000000E+99

> <Gold.Protein.RotatedTorsions>
[ 6907 6896 6895 6894 ] final  -60.52 input  -60.11 | X-H torsion
[ 7974 7965 7964 7962 ] final -127.05 input  175.53 | X-H torsion
[ 8008 7997 7996 7995 ] final  -21.78 input   59.86 | X-H torsion
[ 10167 10162 10161 10158 ] final   40.52 input  -65.29 | X-H torsion
[ 10718 10713 10712 10709 ] final -105.24 input   66.30 | X-H torsion
[ 10763 10752 10751 10750 ] final  165.23 input  -60.55 | X-H torsion
[ 11005 11000 10999 10996 ] final  173.46 input  -57.11 | X-H torsion

> <Gold.Protein.ActiveResidues>
 VAL166  LYS551  ARG553  GLY616  TRP617  ASP618  TYR619  PRO620  LYS621  CYS622 
 ASP623  PHE694  ASN695  SER759  ASP760  ASP761  ALA762  ILE779  LEU786  VAL792 
 PHE793  MET794  SER795  GLU796  ALA797  LYS798  CYS799  TRP800  GLU811  SER814 

> <Gold.Protein.RotatedAtoms>
  150.7851  134.6827  159.6452 H   0  0  0  0  0  0  0  0  0  0  0  0  # atno 6907 bound_to 6896
  152.3944  134.6385  160.0103 H   0  0  0  0  0  0  0  0  0  0  0  0  # atno 6908 bound_to 6896
  151.6675  133.3278  159.3225 H   0  0  0  0  0  0  0  0  0  0  0  0  # atno 6909 bound_to 6896
  144.9810  140.7640  143.4612 H   0  0  0  0  0  0  0  0  0  0  0  0  # atno 7974 bound_to 7965
  154.4684  140.2025  156.0057 H   0  0  0  0  0  0  0  0  0  0  0  0  # atno 8008 bound_to 7997
  156.0969  140.3250  155.7860 H   0  0  0  0  0  0  0  0  0  0  0  0  # atno 8009 bound_to 7997
  155.4864  140.0542  157.2951 H   0  0  0  0  0  0  0  0  0  0  0  0  # atno 8010 bound_to 7997
  140.3734  144.2075  150.6132 H   0  0  0  0  0  0  0  0  0  0  0  0  # atno 10167 bound_to 10162
  156.0337  130.5554  150.7510 H   0  0  0  0  0  0  0  0  0  0  0  0  # atno 10718 bound_to 10713
  154.3208  135.2756  155.2520 H   0  0  0  0  0  0  0  0  0  0  0  0  # atno 10763 bound_to 10752
  154.4874  135.5842  153.6437 H   0  0  0  0  0  0  0  0  0  0  0  0  # atno 10764 bound_to 10752
  152.9877  135.6126  154.3393 H   0  0  0  0  0  0  0  0  0  0  0  0  # atno 10765 bound_to 10752
  140.3408  134.7278  157.4200 H   0  0  0  0  0  0  0  0  0  0  0  0  # atno 11005 bound_to 11000
  145.2421  139.2068  143.4987 LP  0  0  0  0  0  0  0  0  0  0  0  0  # atno 17320 bound_to 7965
  146.3408  140.2318  142.8593 LP  0  0  0  0  0  0  0  0  0  0  0  0  # atno 17321 bound_to 7965
  140.5011  143.2318  151.8678 LP  0  0  0  0  0  0  0  0  0  0  0  0  # atno 17342 bound_to 10162
  139.4801  144.5059  151.8999 LP  0  0  0  0  0  0  0  0  0  0  0  0  # atno 17343 bound_to 10162
  157.5055  131.0922  151.0263 LP  0  0  0  0  0  0  0  0  0  0  0  0  # atno 17370 bound_to 10713
  157.0632  130.5834  149.5389 LP  0  0  0  0  0  0  0  0  0  0  0  0  # atno 17371 bound_to 10713
  140.0783  134.5766  155.8567 LP  0  0  0  0  0  0  0  0  0  0  0  0  # atno 17394 bound_to 11000
  141.2039  133.6635  156.6090 LP  0  0  0  0  0  0  0  0  0  0  0  0  # atno 17395 bound_to 11000

$$$$
