AV-unprocessed.smi:1679|AV-procd|sdf|6730|dock9
  -GOLD-   22720 7473D 1   1.00000     0.00000
 Structure written by MMmdl.
 45 46  0  0  0  0  0  0  0  0  1 V2000
  152.1833  143.0018  162.3396 C   0  0  0  0  0  0  0  0  0  0  0  0
  152.4806  143.6759  160.9910 C   0  0  1  0  0  0  0  0  0  0  0  0
  152.5020  142.6534  159.8348 C   0  0  0  0  0  0  0  0  0  0  0  0
  152.8409  143.3237  158.4932 C   0  0  0  0  0  0  0  0  0  0  0  0
  151.8905  144.4925  158.1910 C   0  0  0  0  0  0  0  0  0  0  0  0
  151.8694  145.5048  159.3464 C   0  0  0  0  0  0  0  0  0  0  0  0
  151.4978  144.8293  160.6850 C   0  0  1  0  0  0  0  0  0  0  0  0
  150.1905  144.2680  160.6626 O   0  0  0  0  0  0  0  0  0  0  0  0
  149.1098  145.1699  160.4808 C   0  0  0  0  0  0  0  0  0  0  0  0
  147.7949  144.3738  160.4923 C   0  0  0  0  0  0  0  0  0  0  0  0
  147.3333  144.0752  159.1392 N   0  0  0  0  0  0  0  0  0  0  0  0
  146.7349  142.9316  158.7682 C   0  0  0  0  0  0  0  0  0  0  0  0
  146.4645  142.0255  159.5577 O   0  0  0  0  0  0  0  0  0  0  0  0
  146.3675  142.7902  157.2859 C   0  0  0  0  0  0  0  0  0  0  0  0
  147.4649  142.1862  156.5174 N   0  0  0  0  0  0  0  0  0  0  0  0
  148.6476  141.8257  157.1478 C   0  0  0  0  0  0  0  0  0  0  0  0
  149.7165  141.3148  156.4920 C   0  0  0  0  0  0  0  0  0  0  0  0
  149.6705  141.1158  155.0475 C   0  0  0  0  0  0  0  0  0  0  0  0
  150.5870  140.6657  154.3636 O   0  0  0  0  0  0  0  0  0  0  0  0
  148.4624  141.4855  154.4508 N   0  0  0  0  0  0  0  0  0  0  0  0
  147.3567  142.0104  155.1210 C   0  0  0  0  0  0  0  0  0  0  0  0
  146.3396  142.3064  154.4957 O   0  0  0  0  0  0  0  0  0  0  0  0
  148.3843  141.3656  153.4513 H   0  0  0  0  0  0  0  0  0  0  0  0
  151.2073  142.5153  162.3372 H   0  0  0  0  0  0  0  0  0  0  0  0
  152.1917  143.7283  163.1523 H   0  0  0  0  0  0  0  0  0  0  0  0
  152.9296  142.2413  162.5697 H   0  0  0  0  0  0  0  0  0  0  0  0
  153.4797  144.1072  161.0666 H   0  0  0  0  0  0  0  0  0  0  0  0
  153.2292  141.8681  160.0421 H   0  0  0  0  0  0  0  0  0  0  0  0
  151.5330  142.1583  159.7599 H   0  0  0  0  0  0  0  0  0  0  0  0
  153.8683  143.6885  158.5191 H   0  0  0  0  0  0  0  0  0  0  0  0
  152.7949  142.5899  157.6885 H   0  0  0  0  0  0  0  0  0  0  0  0
  152.1917  144.9869  157.2673 H   0  0  0  0  0  0  0  0  0  0  0  0
  150.8820  144.1147  158.0241 H   0  0  0  0  0  0  0  0  0  0  0  0
  152.8568  145.9586  159.4391 H   0  0  0  0  0  0  0  0  0  0  0  0
  151.1916  146.3263  159.1170 H   0  0  0  0  0  0  0  0  0  0  0  0
  151.5504  145.5659  161.4882 H   0  0  0  0  0  0  0  0  0  0  0  0
  149.0989  145.9094  161.2824 H   0  0  0  0  0  0  0  0  0  0  0  0
  149.2087  145.7055  159.5366 H   0  0  0  0  0  0  0  0  0  0  0  0
  147.9113  143.4562  161.0716 H   0  0  0  0  0  0  0  0  0  0  0  0
  147.0205  144.9558  160.9924 H   0  0  0  0  0  0  0  0  0  0  0  0
  147.5124  144.7710  158.4298 H   0  0  0  0  0  0  0  0  0  0  0  0
  145.4747  142.1673  157.2141 H   0  0  0  0  0  0  0  0  0  0  0  0
  146.0775  143.7557  156.8660 H   0  0  0  0  0  0  0  0  0  0  0  0
  148.7291  141.9659  158.2164 H   0  0  0  0  0  0  0  0  0  0  0  0
  150.6120  141.0571  157.0389 H   0  0  0  0  0  0  0  0  0  0  0  0
  1  2  1  0  0  0  0
  1 24  1  0  0  0  0
  1 25  1  0  0  0  0
  1 26  1  0  0  0  0
  2  7  1  0  0  0  0
  2  3  1  0  0  0  0
  2 27  1  0  0  0  0
  3  4  1  0  0  0  0
  3 28  1  0  0  0  0
  3 29  1  0  0  0  0
  4  5  1  0  0  0  0
  4 30  1  0  0  0  0
  4 31  1  0  0  0  0
  5  6  1  0  0  0  0
  5 32  1  0  0  0  0
  5 33  1  0  0  0  0
  6  7  1  0  0  0  0
  6 34  1  0  0  0  0
  6 35  1  0  0  0  0
  7  8  1  0  0  0  0
  7 36  1  0  0  0  0
  8  9  1  0  0  0  0
  9 10  1  0  0  0  0
  9 37  1  0  0  0  0
  9 38  1  0  0  0  0
 10 11  1  0  0  0  0
 10 39  1  0  0  0  0
 10 40  1  0  0  0  0
 11 12  1  0  0  0  0
 11 41  1  0  0  0  0
 12 13  2  0  0  0  0
 12 14  1  0  0  0  0
 14 15  1  0  0  0  0
 14 42  1  0  0  0  0
 14 43  1  0  0  0  0
 15 21  1  0  0  0  0
 15 16  1  0  0  0  0
 16 17  2  0  0  0  0
 16 44  1  0  0  0  0
 17 18  1  0  0  0  0
 17 45  1  0  0  0  0
 18 19  2  0  0  0  0
 18 20  1  0  0  0  0
 20 23  1  0  0  0  0
 20 21  1  0  0  0  0
 21 22  2  0  0  0  0
M  END
> <s_m_source_file>
AV-unprocessed.smi

> <i_m_source_file_index>
1679

> <i_lp_mmshare_version>
43012

> <i_f3d_flags>
0

> <s_epik_input>
W0NIM11bQ0BASF0xW0NIMl1bQ0gyXVtDSDJdW0NIMl1bQ0BIXTFPW0NIMl1bQ0gyXVtOSF1DKD1PKVtDSDJdbjJbY0hdW2NIXWMoPU8pW25IXWMyPU8=

> <s_epik_cmdline>
J2VwaWtfcHl0aG9uJywgJy1waCcsICc3LjAnLCAnLXRuJywgJzgnLCAnLW1hJywgJzIwMCcsICctbWV0YWxfYmluZGluZycsICctaW1hZScsICc8aW5maWxlLm1hZT4nLCAnLW9tYWUnLCAnPG91dGZpbGUubWFlPic=

> <r_lp_tautomer_probability>
0.999537

> <r_epik_Ionization_Penalty>
0.0033132

> <r_epik_Ionization_Penalty_Charging>
0.00331317

> <r_epik_Ionization_Penalty_Neutral>
2.78599e-08

> <r_epik_State_Penalty>
0.002342

> <r_epik_Charging_Adjusted_Penalty>
0.00565517

> <i_epik_Tot_Q>
0

> <i_epik_Tot_abs_Q>
0

> <r_epik_Metal_State_Penalty>
0.365595

> <b_epik_Metal_Only>
0

> <s_lp_Force_Field>
OPLS_2005

> <r_lp_Energy>
9.24545

> <b_lp_Chiralities_Consistent>
1

> <s_lp_Variant>
AV-unprocessed.smi:1679-2

> <Gold.Version>
5.8.1

> <Gold.Id.Protein>
6NUR|6NUR_protein|mol2

> <Gold.PLP.Fitness>
50.6022

> <Gold.PLP.PLP>
-43.4719

> <Gold.PLP.part.hbond>
-3.6617

> <Gold.PLP.part.metal>
0.0000

> <Gold.PLP.part.buried>
-4.7805

> <Gold.PLP.part.nonpolar>
-36.4543

> <Gold.PLP.part.repulsive>
0.6798

> <Gold.PLP.ligand.clash>
0.3682

> <Gold.PLP.ligand.torsion>
0.8024

> <Gold.PLP.Chemscore.Hbond>
3.0000

> <Gold.PLP.Chemscore.CHOScore>
0.0000

> <Gold.PLP.Chemscore.Metal>
0.0000

> <Gold.Chemscore.Hbonds>
donor molecule, donor type, donor heavy atom, donor atom, acceptor molecule, acceptor atom, score
      L1  H    11    41       P1  8029  1.00
      P1  H  6934  6946       L1    13  1.00
      P1  H  7989  7998       L1    19  0.52

> <Gold.PLP.Chemscore.Internal.Correction>
0.1032

> <Gold.Rescore>
     Score         DG    S(hbond)    S(metal)    S(lipo)     H(rot)  DE(clash)    DE(int)     intcor
     20.51     -21.64       2.96        0.00     108.81       2.52       0.32       0.81       ----

> <Gold.Chemscore.Fitness>
20.5094

> <Gold.Chemscore.DG>
-21.6424

> <Gold.Chemscore.ZeroCoef>
-5.4800

> <Gold.Chemscore.Hbond>
2.9578

> <Gold.Chemscore.Metal>
0.0000

> <Gold.Chemscore.Lipo>
108.8098

> <Gold.Chemscore.Internal_Hbond>
0.0000

> <Gold.Chemscore.DEClash>
0.3207

> <Gold.Chemscore.DEInternal>
0.8124

> <Gold.Chemscore.Rot>
2.5185

> <Gold.Chemscore.Internal.Correction>
   9.000000E+99

> <Gold.Chemscore.Hbonds>
donor molecule, donor type, donor heavy atom, donor atom, acceptor molecule, acceptor atom, score
      L1  H    11    41       P1  8029  0.98
      P1  H  6934  6946       L1    13  0.97
      P1  H  7989  7998       L1    19  0.51

> <Gold.Chemscore.Hbond.Weighted>
-9.8789

> <Gold.Chemscore.Metal.Weighted>
-0.0000

> <Gold.Chemscore.Lipo.Weighted>
-12.7307

> <Gold.Chemscore.Internal_Hbond.Weighted>
0.0000

> <Gold.Chemscore.DEClash.Weighted>
0.3207

> <Gold.Chemscore.DEInternal.Weighted>
0.8124

> <Gold.Chemscore.Rot.Weighted>
6.4472

> <Gold.Chemscore.Internal.Correction.Weighted>
   9.000000E+99

> <Gold.Protein.RotatedTorsions>
[ 6907 6896 6895 6894 ] final  105.32 input  -60.11 | X-H torsion
[ 7974 7965 7964 7962 ] final   71.83 input  175.53 | X-H torsion
[ 8008 7997 7996 7995 ] final -167.00 input   59.86 | X-H torsion
[ 10167 10162 10161 10158 ] final -174.64 input  -65.29 | X-H torsion
[ 10718 10713 10712 10709 ] final   78.14 input   66.30 | X-H torsion
[ 10763 10752 10751 10750 ] final  -42.66 input  -60.55 | X-H torsion
[ 11005 11000 10999 10996 ] final  -34.58 input  -57.11 | X-H torsion

> <Gold.Protein.ActiveResidues>
 VAL166  LYS551  ARG553  GLY616  TRP617  ASP618  TYR619  PRO620  LYS621  CYS622 
 ASP623  PHE694  ASN695  SER759  ASP760  ASP761  ALA762  ILE779  LEU786  VAL792 
 PHE793  MET794  SER795  GLU796  ALA797  LYS798  CYS799  TRP800  GLU811  SER814 

> <Gold.Protein.RotatedAtoms>
  152.5234  133.9546  159.7687 H   0  0  0  0  0  0  0  0  0  0  0  0  # atno 6907 bound_to 6896
  150.9849  133.6199  159.2724 H   0  0  0  0  0  0  0  0  0  0  0  0  # atno 6908 bound_to 6896
  151.3364  135.0859  159.9409 H   0  0  0  0  0  0  0  0  0  0  0  0  # atno 6909 bound_to 6896
  145.7609  139.2800  143.1377 H   0  0  0  0  0  0  0  0  0  0  0  0  # atno 7974 bound_to 7965
  155.8716  140.0994  157.1546 H   0  0  0  0  0  0  0  0  0  0  0  0  # atno 8008 bound_to 7997
  154.3997  140.1346  156.4148 H   0  0  0  0  0  0  0  0  0  0  0  0  # atno 8009 bound_to 7997
  155.7744  140.3460  155.5266 H   0  0  0  0  0  0  0  0  0  0  0  0  # atno 8010 bound_to 7997
  139.5623  144.1840  152.1258 H   0  0  0  0  0  0  0  0  0  0  0  0  # atno 10167 bound_to 10162
  157.6735  130.9854  150.1743 H   0  0  0  0  0  0  0  0  0  0  0  0  # atno 10718 bound_to 10713
  153.9827  135.6715  153.4751 H   0  0  0  0  0  0  0  0  0  0  0  0  # atno 10763 bound_to 10752
  153.0741  135.4958  154.8363 H   0  0  0  0  0  0  0  0  0  0  0  0  # atno 10764 bound_to 10752
  154.7155  135.3106  154.9092 H   0  0  0  0  0  0  0  0  0  0  0  0  # atno 10765 bound_to 10752
  140.9728  133.7100  156.1552 H   0  0  0  0  0  0  0  0  0  0  0  0  # atno 11005 bound_to 11000
  146.0265  140.8299  142.9897 LP  0  0  0  0  0  0  0  0  0  0  0  0  # atno 17320 bound_to 7965
  144.6830  140.2705  143.7306 LP  0  0  0  0  0  0  0  0  0  0  0  0  # atno 17321 bound_to 7965
  140.1356  144.5249  150.6775 LP  0  0  0  0  0  0  0  0  0  0  0  0  # atno 17342 bound_to 10162
  140.6904  143.2373  151.5147 LP  0  0  0  0  0  0  0  0  0  0  0  0  # atno 17343 bound_to 10162
  156.2490  130.3698  149.8253 LP  0  0  0  0  0  0  0  0  0  0  0  0  # atno 17370 bound_to 10713
  156.6031  130.8555  151.3436 LP  0  0  0  0  0  0  0  0  0  0  0  0  # atno 17371 bound_to 10713
  140.7304  134.4261  157.5566 LP  0  0  0  0  0  0  0  0  0  0  0  0  # atno 17394 bound_to 11000
  139.8919  134.8769  156.2299 LP  0  0  0  0  0  0  0  0  0  0  0  0  # atno 17395 bound_to 11000

$$$$
