#       Name:                AV-unprocessed.smi:667
#       Creating user name   scv26
#       Creation time:       Fri Mar 27 00:21:04 2020


#       File generated by GOLD software.
#

@<TRIPOS>MOLECULE
AV-unprocessed.smi:667
    53    54     1
SMALL
NO_CHARGES


@<TRIPOS>ATOM
      1 ****        -2.6213   0.1420   1.2836 C.3            1 S1                 0.0000
      2 ****        -2.4735   1.4643   0.5859 C.2            1 S1                 0.0000
      3 ****        -2.8253   2.5744   1.2130 N.2            1 S1                 0.0000
      4 ****        -2.5682   3.5631   0.3331 N.pl3          1 S1                 0.0000
      5 ****        -2.8420   4.9371   0.7068 C.3            1 S1                 0.0000
      6 ****        -2.0506   3.0768  -0.8516 C.2            1 S1                 0.0000
      7 ****        -1.6763   3.9739  -1.9870 C.3            1 S1                 0.0000
      8 ****        -1.9750   1.7154  -0.7263 C.2            1 S1                 0.0000
      9 ****        -1.4793   0.7000  -1.7281 C.3            1 S1                 0.0000
     10 ****         0.0474   0.5698  -1.6879 C.2            1 S1                 0.0000
     11 ****         0.6779   0.4667  -2.7395 O.2            1 S1                 0.0000
     12 ****         0.6290   0.5383  -0.4778 N.am           1 S1                 0.0000
     13 ****         2.0491   0.3234  -0.2289 C.3            1 S1                 0.0000
     14 ****         2.4156  -1.1750  -0.2578 C.3            1 S1                 0.0000
     15 ****         3.8934  -1.4259   0.0346 C.3            1 S1                 0.0000
     16 ****         3.8935  -2.1622   1.3695 C.3            1 S1                 0.0000
     17 ****         2.6777  -2.8868   1.3378 O.3            1 S1                 0.0000
     18 ****         1.6856  -2.0129   0.8167 C.3            1 S1                 0.0000
     19 ****         0.4482  -2.8083   0.3387 C.3            1 S1                 0.0000
     20 ****        -0.3389  -3.3674   1.5340 C.3            1 S1                 0.0000
     21 ****         0.7911  -3.9324  -0.6563 C.3            1 S1                 0.0000
     22 ****        -1.6957  -0.4311   1.2313 H              1 S1                 0.0000
     23 ****        -3.4072  -0.4555   0.8219 H              1 S1                 0.0000
     24 ****        -2.8725   0.2648   2.3376 H              1 S1                 0.0000
     25 ****        -3.4686   5.4069  -0.0514 H              1 S1                 0.0000
     26 ****        -1.9046   5.4880   0.7863 H              1 S1                 0.0000
     27 ****        -3.3602   4.9793   1.6658 H              1 S1                 0.0000
     28 ****        -1.2086   3.4127  -2.7959 H              1 S1                 0.0000
     29 ****        -0.9705   4.7385  -1.6618 H              1 S1                 0.0000
     30 ****        -2.5567   4.4738  -2.3913 H              1 S1                 0.0000
     31 ****        -1.9068  -0.2848  -1.5379 H              1 S1                 0.0000
     32 ****        -1.7858   0.9678  -2.7399 H              1 S1                 0.0000
     33 ****         0.0348   0.6385   0.3326 H              1 S1                 0.0000
     34 ****         2.6428   0.8747  -0.9600 H              1 S1                 0.0000
     35 ****         2.2901   0.7502   0.7453 H              1 S1                 0.0000
     36 ****         2.2069  -1.5594  -1.2556 H              1 S1                 0.0000
     37 ****         4.3132  -2.0710  -0.7384 H              1 S1                 0.0000
     38 ****         4.4949  -0.5167   0.0662 H              1 S1                 0.0000
     39 ****         4.7540  -2.8209   1.4884 H              1 S1                 0.0000
     40 ****         3.8789  -1.4586   2.2036 H              1 S1                 0.0000
     41 ****         1.3891  -1.3499   1.6320 H              1 S1                 0.0000
     42 ****        -0.2166  -2.1132  -0.1740 H              1 S1                 0.0000
     43 ****         0.2572  -4.0833   2.1007 H              1 S1                 0.0000
     44 ****        -1.2458  -3.8755   1.2052 H              1 S1                 0.0000
     45 ****        -0.6398  -2.5718   2.2162 H              1 S1                 0.0000
     46 ****         1.4605  -4.6689  -0.2109 H              1 S1                 0.0000
     47 ****         1.2693  -3.5512  -1.5576 H              1 S1                 0.0000
     48 ****        -0.1101  -4.4583  -0.9725 H              1 S1                 0.0000
     49 ****        -3.1995   2.6613   2.1363 LP             1 S1                 0.0000
     50 ****         0.1942   0.4681  -3.6147 LP             1 S1                 0.0000
     51 ****         1.6740   0.3815  -2.7189 LP             1 S1                 0.0000
     52 ****         2.4276  -3.1783   2.2611 LP             1 S1                 0.0000
     53 ****         2.7717  -3.6895   0.7489 LP             1 S1                 0.0000
@<TRIPOS>BOND
    1    1    2 1     
    2    1   22 1     
    3    1   23 1     
    4    1   24 1     
    5    2    8 1     
    6    2    3 2     
    7    3    4 1     
    8    4    5 1     
    9    4    6 1     
   10    5   25 1     
   11    5   26 1     
   12    5   27 1     
   13    6    7 1     
   14    6    8 2     
   15    7   28 1     
   16    7   29 1     
   17    7   30 1     
   18    8    9 1     
   19    9   10 1     
   20    9   31 1     
   21    9   32 1     
   22   10   11 2     
   23   10   12 am    
   24   12   13 1     
   25   12   33 1     
   26   13   14 1     
   27   13   34 1     
   28   13   35 1     
   29   14   18 1     
   30   14   15 1     
   31   14   36 1     
   32   15   16 1     
   33   15   37 1     
   34   15   38 1     
   35   16   17 1     
   36   16   39 1     
   37   16   40 1     
   38   17   18 1     
   39   18   19 1     
   40   18   41 1     
   41   19   20 1     
   42   19   21 1     
   43   19   42 1     
   44   20   43 1     
   45   20   44 1     
   46   20   45 1     
   47   21   46 1     
   48   21   47 1     
   49   21   48 1     
   50    3   49 1     
   51   11   50 1     
   52   11   51 1     
   53   17   52 1     
   54   17   53 1     
@<TRIPOS>SUBSTRUCTURE
      1 S1             1
@<TRIPOS>SET
LONE_PAIRS      STATIC     ATOMS    <user>   **** ""
5 49 50 51 52 53
DONOR_HYDROGENS      STATIC     ATOMS    <user>   **** ""
1 33
ATOM$BLUE        STATIC     ATOMS    COLORGROUP SYSTEM
5 49 50 51 52 53
ATOM$RED        STATIC     ATOMS    COLORGROUP SYSTEM
1 33
