AV-unprocessed.smi:2830|AV-procd|sdf|10906|dock2
  -GOLD-   2272015353D 1   1.00000     0.00000
 Structure written by MMmdl.
 28 28  0  0  0  0  0  0  0  0  1 V2000
  152.8002  142.1161  160.6852 C   0  0  0  0  0  0  0  0  0  0  0  0
  153.1970  143.2775  159.9774 O   0  0  0  0  0  0  0  0  0  0  0  0
  152.7251  143.2886  158.6384 C   0  0  0  0  0  0  0  0  0  0  0  0
  151.2040  143.5300  158.6180 C   0  0  2  0  0  0  0  0  0  0  0  0
  150.6807  143.2286  157.2865 N   0  0  0  0  0  0  0  0  0  0  0  0
  150.8489  141.9699  156.6885 C   0  0  0  0  0  0  0  0  0  0  0  0
  150.0336  141.6371  155.5861 C   0  0  0  0  0  0  0  0  0  0  0  0
  150.1965  140.3792  154.9736 C   0  0  0  0  0  0  0  0  0  0  0  0
  151.1705  139.4982  155.4830 C   0  0  0  0  0  0  0  0  0  0  0  0
  151.3780  138.1907  154.8851 C   0  0  0  0  0  0  0  0  0  0  0  0
  151.5434  137.1494  154.4086 N   0  0  0  0  0  0  0  0  0  0  0  0
  151.9393  139.9185  156.5871 C   0  0  0  0  0  0  0  0  0  0  0  0
  151.7873  141.1234  157.1774 N   0  0  0  0  0  0  0  0  0  0  0  0
  150.8884  144.9638  159.0762 C   0  0  0  0  0  0  0  0  0  0  0  0
  149.6006  145.2864  159.2199 N   0  0  0  0  0  0  0  0  0  0  0  0
  151.7924  145.7650  159.3093 O   0  0  0  0  0  0  0  0  0  0  0  0
  153.1817  142.1607  161.7051 H   0  0  0  0  0  0  0  0  0  0  0  0
  153.1967  141.2145  160.2168 H   0  0  0  0  0  0  0  0  0  0  0  0
  151.7135  142.0367  160.7362 H   0  0  0  0  0  0  0  0  0  0  0  0
  153.2461  144.0503  158.0547 H   0  0  0  0  0  0  0  0  0  0  0  0
  152.9511  142.3241  158.1801 H   0  0  0  0  0  0  0  0  0  0  0  0
  150.7579  142.8262  159.3229 H   0  0  0  0  0  0  0  0  0  0  0  0
  149.9710  143.8436  156.9159 H   0  0  0  0  0  0  0  0  0  0  0  0
  149.2934  142.3307  155.2140 H   0  0  0  0  0  0  0  0  0  0  0  0
  149.5827  140.1023  154.1287 H   0  0  0  0  0  0  0  0  0  0  0  0
  152.6980  139.2764  157.0112 H   0  0  0  0  0  0  0  0  0  0  0  0
  149.3450  146.2172  159.5161 H   0  0  0  0  0  0  0  0  0  0  0  0
  148.8870  144.5981  159.0289 H   0  0  0  0  0  0  0  0  0  0  0  0
  1  2  1  0  0  0  0
  1 17  1  0  0  0  0
  1 18  1  0  0  0  0
  1 19  1  0  0  0  0
  2  3  1  0  0  0  0
  3  4  1  0  0  0  0
  3 20  1  0  0  0  0
  3 21  1  0  0  0  0
  4  5  1  0  0  0  0
  4 14  1  0  0  0  0
  4 22  1  0  0  0  0
  5  6  1  0  0  0  0
  5 23  1  0  0  0  0
  6 13  1  0  0  0  0
  6  7  2  0  0  0  0
  7  8  1  0  0  0  0
  7 24  1  0  0  0  0
  8  9  2  0  0  0  0
  8 25  1  0  0  0  0
  9 10  1  0  0  0  0
  9 12  1  0  0  0  0
 10 11  3  0  0  0  0
 12 13  2  0  0  0  0
 12 26  1  0  0  0  0
 14 15  1  0  0  0  0
 14 16  2  0  0  0  0
 15 27  1  0  0  0  0
 15 28  1  0  0  0  0
M  END
> <s_m_source_file>
AV-unprocessed.smi

> <i_m_source_file_index>
2830

> <i_lp_mmshare_version>
43012

> <i_f3d_flags>
0

> <s_epik_input>
W0NIM11PW0NIMl1bQ0BASF0oQyg9TylbTkgyXSlbTkhdYzFbY0hdW2NIXWMoQyNOKVtjSF1uMQ==

> <s_epik_cmdline>
J2VwaWtfcHl0aG9uJywgJy1waCcsICc3LjAnLCAnLXRuJywgJzgnLCAnLW1hJywgJzIwMCcsICctbWV0YWxfYmluZGluZycsICctaW1hZScsICc8aW5maWxlLm1hZT4nLCAnLW9tYWUnLCAnPG91dGZpbGUubWFlPic=

> <r_lp_tautomer_probability>
1

> <r_epik_Ionization_Penalty>
4.37908e-06

> <r_epik_Ionization_Penalty_Charging>
0

> <r_epik_Ionization_Penalty_Neutral>
4.37908e-06

> <r_epik_State_Penalty>
-0

> <r_epik_Charging_Adjusted_Penalty>
0

> <i_epik_Tot_Q>
0

> <i_epik_Tot_abs_Q>
0

> <r_epik_Metal_State_Penalty>
-0

> <b_epik_Metal_Only>
0

> <s_lp_Force_Field>
OPLS_2005

> <r_lp_Energy>
0.179783

> <b_lp_Chiralities_Consistent>
1

> <s_lp_Variant>
AV-unprocessed.smi:2830-1

> <Gold.Version>
5.8.1

> <Gold.Id.Protein>
6NUR|6NUR_protein|mol2

> <Gold.PLP.Fitness>
39.7221

> <Gold.PLP.PLP>
-34.0024

> <Gold.PLP.part.hbond>
-4.0000

> <Gold.PLP.part.metal>
0.0000

> <Gold.PLP.part.buried>
-4.0037

> <Gold.PLP.part.nonpolar>
-27.0733

> <Gold.PLP.part.repulsive>
0.5749

> <Gold.PLP.ligand.clash>
0.0000

> <Gold.PLP.ligand.torsion>
0.1959

> <Gold.PLP.Chemscore.Hbond>
2.0000

> <Gold.PLP.Chemscore.CHOScore>
0.0000

> <Gold.PLP.Chemscore.Metal>
0.0000

> <Gold.Chemscore.Hbonds>
donor molecule, donor type, donor heavy atom, donor atom, acceptor molecule, acceptor atom, score
      L1  H     5    23       P1  8028  1.00
      P1  H 10752 10765       L1    11  0.93

> <Gold.PLP.Chemscore.Internal.Correction>
0.1115

> <Gold.Rescore>
     Score         DG    S(hbond)    S(metal)    S(lipo)     H(rot)  DE(clash)    DE(int)     intcor
     11.23     -13.10       1.98        0.00      59.39       2.32       0.21       1.66       ----

> <Gold.Chemscore.Fitness>
11.2307

> <Gold.Chemscore.DG>
-13.1022

> <Gold.Chemscore.ZeroCoef>
-5.4800

> <Gold.Chemscore.Hbond>
1.9797

> <Gold.Chemscore.Metal>
0.0000

> <Gold.Chemscore.Lipo>
59.3880

> <Gold.Chemscore.Internal_Hbond>
0.0000

> <Gold.Chemscore.DEClash>
0.2128

> <Gold.Chemscore.DEInternal>
1.6587

> <Gold.Chemscore.Rot>
2.3197

> <Gold.Chemscore.Internal.Correction>
   9.000000E+99

> <Gold.Chemscore.Hbonds>
donor molecule, donor type, donor heavy atom, donor atom, acceptor molecule, acceptor atom, score
      L1  H     5    23       P1  8028  0.97
      P1  H 10752 10765       L1    11  0.87

> <Gold.Chemscore.Hbond.Weighted>
-6.6122

> <Gold.Chemscore.Metal.Weighted>
-0.0000

> <Gold.Chemscore.Lipo.Weighted>
-6.9484

> <Gold.Chemscore.Internal_Hbond.Weighted>
0.0000

> <Gold.Chemscore.DEClash.Weighted>
0.2128

> <Gold.Chemscore.DEInternal.Weighted>
1.6587

> <Gold.Chemscore.Rot.Weighted>
5.9384

> <Gold.Chemscore.Internal.Correction.Weighted>
   9.000000E+99

> <Gold.Protein.RotatedTorsions>
[ 6907 6896 6895 6894 ] final  -50.20 input  -60.11 | X-H torsion
[ 7974 7965 7964 7962 ] final   66.18 input  175.53 | X-H torsion
[ 8008 7997 7996 7995 ] final  -26.16 input   59.86 | X-H torsion
[ 10167 10162 10161 10158 ] final -110.75 input  -65.29 | X-H torsion
[ 10718 10713 10712 10709 ] final  -62.57 input   66.30 | X-H torsion
[ 10763 10752 10751 10750 ] final  153.63 input  -60.55 | X-H torsion
[ 11005 11000 10999 10996 ] final  106.88 input  -57.11 | X-H torsion

> <Gold.Protein.ActiveResidues>
 VAL166  LYS551  ARG553  GLY616  TRP617  ASP618  TYR619  PRO620  LYS621  CYS622 
 ASP623  PHE694  ASN695  SER759  ASP760  ASP761  ALA762  ILE779  LEU786  VAL792 
 PHE793  MET794  SER795  GLU796  ALA797  LYS798  CYS799  TRP800  GLU811  SER814 

> <Gold.Protein.RotatedAtoms>
  150.8730  134.8108  159.7168 H   0  0  0  0  0  0  0  0  0  0  0  0  # atno 6907 bound_to 6896
  152.4728  134.4916  159.9707 H   0  0  0  0  0  0  0  0  0  0  0  0  # atno 6908 bound_to 6896
  151.5002  133.3467  159.2903 H   0  0  0  0  0  0  0  0  0  0  0  0  # atno 6909 bound_to 6896
  145.8297  139.3132  143.0995 H   0  0  0  0  0  0  0  0  0  0  0  0  # atno 7974 bound_to 7965
  154.4439  140.1907  156.0732 H   0  0  0  0  0  0  0  0  0  0  0  0  # atno 8008 bound_to 7997
  156.0495  140.3310  155.7308 H   0  0  0  0  0  0  0  0  0  0  0  0  # atno 8009 bound_to 7997
  155.5578  140.0601  157.2826 H   0  0  0  0  0  0  0  0  0  0  0  0  # atno 8010 bound_to 7997
  140.1411  143.4278  152.1561 H   0  0  0  0  0  0  0  0  0  0  0  0  # atno 10167 bound_to 10162
  156.0846  130.4210  150.1154 H   0  0  0  0  0  0  0  0  0  0  0  0  # atno 10718 bound_to 10713
  154.1393  135.2822  155.3165 H   0  0  0  0  0  0  0  0  0  0  0  0  # atno 10763 bound_to 10752
  154.6298  135.5439  153.7671 H   0  0  0  0  0  0  0  0  0  0  0  0  # atno 10764 bound_to 10752
  153.0255  135.6460  154.1541 H   0  0  0  0  0  0  0  0  0  0  0  0  # atno 10765 bound_to 10752
  139.8820  134.9383  156.5734 H   0  0  0  0  0  0  0  0  0  0  0  0  # atno 11005 bound_to 11000
  145.9585  140.8854  143.0223 LP  0  0  0  0  0  0  0  0  0  0  0  0  # atno 17320 bound_to 7965
  144.6741  140.1779  143.7408 LP  0  0  0  0  0  0  0  0  0  0  0  0  # atno 17321 bound_to 7965
  139.5472  144.7308  151.4548 LP  0  0  0  0  0  0  0  0  0  0  0  0  # atno 17342 bound_to 10162
  140.6760  143.8189  150.7059 LP  0  0  0  0  0  0  0  0  0  0  0  0  # atno 17343 bound_to 10162
  156.9178  130.9673  151.3553 LP  0  0  0  0  0  0  0  0  0  0  0  0  # atno 17370 bound_to 10713
  157.5976  130.8489  149.8753 LP  0  0  0  0  0  0  0  0  0  0  0  0  # atno 17371 bound_to 10713
  140.8081  133.8451  155.8786 LP  0  0  0  0  0  0  0  0  0  0  0  0  # atno 17394 bound_to 11000
  140.9531  134.1753  157.4712 LP  0  0  0  0  0  0  0  0  0  0  0  0  # atno 17395 bound_to 11000

$$$$
