#       Name:                AV-unprocessed.smi:3164
#       Creating user name   scv26
#       Creation time:       Fri Mar 27 17:51:26 2020


#       File generated by GOLD software.
#

@<TRIPOS>MOLECULE
AV-unprocessed.smi:3164
    43    44     1
SMALL
NO_CHARGES


@<TRIPOS>ATOM
      1 ****        -2.4698   2.7073   2.6693 C.3            1 S1                 0.0000
      2 ****        -2.4327   2.1667   1.3187 N.3            1 S1                 0.0000
      3 ****        -3.7659   2.0866   0.7363 C.3            1 S1                 0.0000
      4 ****        -3.7297   1.5024  -0.6858 C.3            1 S1                 0.0000
      5 ****        -3.0892   0.2298  -0.6620 O.3            1 S1                 0.0000
      6 ****        -1.7590   0.2795  -0.1514 C.3            1 S1                 0.0000
      7 ****        -1.1808  -1.1425  -0.2053 C.3            1 S1                 0.0000
      8 ****         0.2677  -1.1485   0.0805 N.4            1 S1                 1.0000
      9 ****         0.8877  -2.4877   0.0227 C.3            1 S1                 0.0000
     10 ****         2.3957  -2.4274   0.3139 C.3            1 S1                 0.0000
     11 ****         3.1615  -1.5878  -0.6937 C.ar           1 S1                 0.0000
     12 ****         3.6106  -0.2916  -0.3608 C.ar           1 S1                 0.0000
     13 ****         4.3114   0.4461  -1.3348 C.ar           1 S1                 0.0000
     14 ****         4.5323  -0.1365  -2.5976 C.ar           1 S1                 0.0000
     15 ****         4.0422  -1.4368  -2.8314 C.ar           1 S1                 0.0000
     16 ****         3.3687  -2.1522  -1.9044 N.ar           1 S1                 0.0000
     17 ****        -1.8024   0.8540   1.2809 C.3            1 S1                 0.0000
     18 ****        -2.9124   3.7040   2.6740 H              1 S1                 0.0000
     19 ****        -1.4634   2.7896   3.0809 H              1 S1                 0.0000
     20 ****        -3.0575   2.0716   3.3332 H              1 S1                 0.0000
     21 ****        -4.4070   1.4650   1.3635 H              1 S1                 0.0000
     22 ****        -4.2202   3.0778   0.7109 H              1 S1                 0.0000
     23 ****        -4.7416   1.3858  -1.0740 H              1 S1                 0.0000
     24 ****        -3.2001   2.1716  -1.3656 H              1 S1                 0.0000
     25 ****        -1.1660   0.9315  -0.7961 H              1 S1                 0.0000
     26 ****        -1.7027  -1.7930   0.4980 H              1 S1                 0.0000
     27 ****        -1.3361  -1.5595  -1.2013 H              1 S1                 0.0000
     28 ****         0.7291  -0.5554  -0.5950 H              1 S1                 0.0000
     29 ****         0.4002  -3.1362   0.7513 H              1 S1                 0.0000
     30 ****         0.7139  -2.9259  -0.9612 H              1 S1                 0.0000
     31 ****         2.5654  -2.0353   1.3177 H              1 S1                 0.0000
     32 ****         2.8086  -3.4371   0.3111 H              1 S1                 0.0000
     33 ****         3.4268   0.1298   0.6167 H              1 S1                 0.0000
     34 ****         4.6726   1.4405  -1.1174 H              1 S1                 0.0000
     35 ****         5.0663   0.3994  -3.3685 H              1 S1                 0.0000
     36 ****         4.1939  -1.9145  -3.7881 H              1 S1                 0.0000
     37 ****        -0.7895   0.9252   1.6788 H              1 S1                 0.0000
     38 ****        -2.3453   0.1667   1.9320 H              1 S1                 0.0000
     39 ****         0.4165  -0.7647   1.0028 H              1 S1                 0.0000
     40 ****        -1.8826   2.8001   0.7744 LP             1 S1                 0.0000
     41 ****        -3.0581  -0.1277  -1.5953 LP             1 S1                 0.0000
     42 ****        -3.6275  -0.3861  -0.0868 LP             1 S1                 0.0000
     43 ****         3.0333  -3.0720  -2.1077 LP             1 S1                 0.0000
@<TRIPOS>BOND
    1    1    2 1     
    2    1   18 1     
    3    1   19 1     
    4    1   20 1     
    5    2   17 1     
    6    2    3 1     
    7    3    4 1     
    8    3   21 1     
    9    3   22 1     
   10    4    5 1     
   11    4   23 1     
   12    4   24 1     
   13    5    6 1     
   14    6    7 1     
   15    6   17 1     
   16    6   25 1     
   17    7    8 1     
   18    7   26 1     
   19    7   27 1     
   20    8    9 1     
   21    8   28 1     
   22    8   39 1     
   23    9   10 1     
   24    9   29 1     
   25    9   30 1     
   26   10   11 1     
   27   10   31 1     
   28   10   32 1     
   29   11   16 ar    
   30   11   12 ar    
   31   12   13 ar    
   32   12   33 1     
   33   13   14 ar    
   34   13   34 1     
   35   14   15 ar    
   36   14   35 1     
   37   15   16 ar    
   38   15   36 1     
   39   17   37 1     
   40   17   38 1     
   41    2   40 1     
   42    5   41 1     
   43    5   42 1     
   44   16   43 1     
@<TRIPOS>SUBSTRUCTURE
      1 S1             1
@<TRIPOS>SET
LONE_PAIRS      STATIC     ATOMS    <user>   **** ""
4 40 41 42 43
DONOR_HYDROGENS      STATIC     ATOMS    <user>   **** ""
2 28 39
ATOM$BLUE        STATIC     ATOMS    COLORGROUP SYSTEM
4 40 41 42 43
ATOM$RED        STATIC     ATOMS    COLORGROUP SYSTEM
2 28 39
