AV-unprocessed.smi:65|AV-procd|sdf|615|dock10
  -GOLD-   2262016503D 1   1.00000     0.00000
 Structure written by MMmdl.
 26 27  0  0  0  0  0  0  0  0  2 V2000
  150.5057  145.4901  158.7280 N   0  0  0  0  0  0  0  0  0  0  0  0
  150.9803  144.2029  158.6613 C   0  0  0  0  0  0  0  0  0  0  0  0
  151.9743  143.8491  159.4808 N   0  0  0  0  0  0  0  0  0  0  0  0
  152.4464  142.5895  159.4191 C   0  0  0  0  0  0  0  0  0  0  0  0
  151.9168  141.6492  158.5199 C   0  0  0  0  0  0  0  0  0  0  0  0
  150.8632  142.0786  157.6816 C   0  0  0  0  0  0  0  0  0  0  0  0
  150.2546  141.2302  156.7373 N   0  0  0  0  0  0  0  0  0  0  0  0
  149.0206  141.6105  156.0613 C   0  0  0  0  0  0  0  0  0  0  0  0
  149.0555  140.8959  154.7044 C   0  0  0  0  0  0  0  0  0  0  0  0
  150.0299  139.7383  154.9294 C   0  0  1  0  0  0  0  0  0  0  0  0
  150.6402  139.3018  153.7338 O   0  0  0  0  0  0  0  0  0  0  0  0
  151.0419  140.3309  155.9085 C   0  0  0  0  0  0  0  0  0  0  0  0
  150.4243  143.3626  157.7775 N   0  3  0  0  0  0  0  0  0  0  0  0
  149.7552  145.7896  158.1222 H   0  0  0  0  0  0  0  0  0  0  0  0
  150.9086  146.1557  159.3715 H   0  0  0  0  0  0  0  0  0  0  0  0
  153.2522  142.3316  160.0903 H   0  0  0  0  0  0  0  0  0  0  0  0
  152.3162  140.6466  158.4805 H   0  0  0  0  0  0  0  0  0  0  0  0
  148.1738  141.2689  156.6571 H   0  0  0  0  0  0  0  0  0  0  0  0
  148.9351  142.6897  155.9296 H   0  0  0  0  0  0  0  0  0  0  0  0
  148.0706  140.5675  154.3713 H   0  0  0  0  0  0  0  0  0  0  0  0
  149.4539  141.5775  153.9508 H   0  0  0  0  0  0  0  0  0  0  0  0
  149.5073  138.9035  155.3987 H   0  0  0  0  0  0  0  0  0  0  0  0
  150.0168  139.3844  153.0281 H   0  0  0  0  0  0  0  0  0  0  0  0
  151.8063  140.9044  155.3816 H   0  0  0  0  0  0  0  0  0  0  0  0
  151.5334  139.5574  156.4998 H   0  0  0  0  0  0  0  0  0  0  0  0
  149.6671  143.6793  157.1721 H   0  0  0  0  0  0  0  0  0  0  0  0
  1  2  1  0  0  0  0
  1 14  1  0  0  0  0
  1 15  1  0  0  0  0
  2 13  1  0  0  0  0
  2  3  2  0  0  0  0
  3  4  1  0  0  0  0
  4  5  2  0  0  0  0
  4 16  1  0  0  0  0
  5  6  1  0  0  0  0
  5 17  1  0  0  0  0
  6  7  1  0  0  0  0
  6 13  2  0  0  0  0
  7 12  1  0  0  0  0
  7  8  1  0  0  0  0
  8  9  1  0  0  0  0
  8 18  1  0  0  0  0
  8 19  1  0  0  0  0
  9 10  1  0  0  0  0
  9 20  1  0  0  0  0
  9 21  1  0  0  0  0
 10 11  1  0  0  0  0
 10 12  1  0  0  0  0
 10 22  1  0  0  0  0
 11 23  1  0  0  0  0
 12 24  1  0  0  0  0
 12 25  1  0  0  0  0
 13 26  1  0  0  0  0
M  CHG  1  13   1
M  END
> <s_m_source_file>
AV-unprocessed.smi

> <i_m_source_file_index>
65

> <i_lp_mmshare_version>
43012

> <i_f3d_flags>
0

> <s_epik_input>
W05IMl1jMW5bY0hdW2NIXWMobjEpTjJbQ0gyXVtDSDJdW0NAQEhdKFtPSF0pW0NIMl0y

> <s_epik_cmdline>
J2VwaWtfcHl0aG9uJywgJy1waCcsICc3LjAnLCAnLXRuJywgJzgnLCAnLW1hJywgJzIwMCcsICctbWV0YWxfYmluZGluZycsICctaW1hZScsICc8aW5maWxlLm1hZT4nLCAnLW9tYWUnLCAnPG91dGZpbGUubWFlPic=

> <r_lp_tautomer_probability>
0.424989

> <r_epik_Ionization_Penalty>
0.57487

> <r_epik_Ionization_Penalty_Charging>
0.574865

> <r_epik_Ionization_Penalty_Neutral>
4.40886e-06

> <r_epik_State_Penalty>
0.845539

> <r_epik_Charging_Adjusted_Penalty>
1.4204

> <i_epik_Tot_Q>
1

> <i_epik_Tot_abs_Q>
1

> <r_epik_Metal_State_Penalty>
1.14248

> <b_epik_Metal_Only>
0

> <s_lp_Force_Field>
OPLS_2005

> <r_lp_Energy>
20.8145

> <b_lp_Chiralities_Consistent>
1

> <s_lp_Variant>
AV-unprocessed.smi:65-5

> <Gold.Version>
5.8.1

> <Gold.Id.Protein>
6NUR|6NUR_protein|mol2

> <Gold.PLP.Fitness>
40.0113

> <Gold.PLP.PLP>
-23.2855

> <Gold.PLP.part.hbond>
-4.0000

> <Gold.PLP.part.metal>
0.0000

> <Gold.PLP.part.buried>
-0.2448

> <Gold.PLP.part.nonpolar>
-19.9289

> <Gold.PLP.part.repulsive>
0.5270

> <Gold.PLP.ligand.clash>
0.0000

> <Gold.PLP.ligand.torsion>
0.3736

> <Gold.PLP.Chemscore.Hbond>
5.7536

> <Gold.PLP.Chemscore.CHOScore>
0.0000

> <Gold.PLP.Chemscore.Metal>
0.0000

> <Gold.Chemscore.Hbonds>
donor molecule, donor type, donor heavy atom, donor atom, acceptor molecule, acceptor atom, score
      L1  H     1    14       P1  8029  2.00
      L1  H    11    23       P1  7957  0.96
      L1  H    13    26       P1  8028  2.00
      P1  H  7989  7998       L1    11  0.79

> <Gold.PLP.Chemscore.Internal.Correction>
0.2122

> <Gold.Rescore>
     Score         DG    S(hbond)    S(metal)    S(lipo)     H(rot)  DE(clash)    DE(int)     intcor
     14.64     -16.49       2.48        0.00      45.28       1.00       1.50       0.36       ----

> <Gold.Chemscore.Fitness>
14.6382

> <Gold.Chemscore.DG>
-16.4944

> <Gold.Chemscore.ZeroCoef>
-5.4800

> <Gold.Chemscore.Hbond>
2.4781

> <Gold.Chemscore.Metal>
0.0000

> <Gold.Chemscore.Lipo>
45.2778

> <Gold.Chemscore.Internal_Hbond>
0.0000

> <Gold.Chemscore.DEClash>
1.4952

> <Gold.Chemscore.DEInternal>
0.3610

> <Gold.Chemscore.Rot>
1.0000

> <Gold.Chemscore.Internal.Correction>
   9.000000E+99

> <Gold.Chemscore.Hbonds>
donor molecule, donor type, donor heavy atom, donor atom, acceptor molecule, acceptor atom, score
      L1  H     1    14       P1  8029  0.47
      L1  H    11    23       P1  7957  0.86
      L1  H    13    26       P1  8028  0.81
      P1  H  7989  7998       L1    11  0.03

> <Gold.Chemscore.Hbond.Weighted>
-8.2769

> <Gold.Chemscore.Metal.Weighted>
-0.0000

> <Gold.Chemscore.Lipo.Weighted>
-5.2975

> <Gold.Chemscore.Internal_Hbond.Weighted>
0.0000

> <Gold.Chemscore.DEClash.Weighted>
1.4952

> <Gold.Chemscore.DEInternal.Weighted>
0.3610

> <Gold.Chemscore.Rot.Weighted>
2.5600

> <Gold.Chemscore.Internal.Correction.Weighted>
   9.000000E+99

> <Gold.Protein.RotatedTorsions>
[ 6907 6896 6895 6894 ] final -135.98 input  -60.11 | X-H torsion
[ 7974 7965 7964 7962 ] final   87.85 input  175.53 | X-H torsion
[ 8008 7997 7996 7995 ] final   74.01 input   59.86 | X-H torsion
[ 10167 10162 10161 10158 ] final   81.23 input  -65.29 | X-H torsion
[ 10718 10713 10712 10709 ] final -103.88 input   66.30 | X-H torsion
[ 10763 10752 10751 10750 ] final   40.16 input  -60.55 | X-H torsion
[ 11005 11000 10999 10996 ] final  140.01 input  -57.11 | X-H torsion

> <Gold.Protein.ActiveResidues>
 VAL166  LYS551  ARG553  GLY616  TRP617  ASP618  TYR619  PRO620  LYS621  CYS622 
 ASP623  PHE694  ASN695  SER759  ASP760  ASP761  ALA762  ILE779  LEU786  VAL792 
 PHE793  MET794  SER795  GLU796  ALA797  LYS798  CYS799  TRP800  GLU811  SER814 

> <Gold.Protein.RotatedAtoms>
  151.0045  133.6024  159.2690 H   0  0  0  0  0  0  0  0  0  0  0  0  # atno 6907 bound_to 6896
  151.3199  135.0815  159.9312 H   0  0  0  0  0  0  0  0  0  0  0  0  # atno 6908 bound_to 6896
  152.5283  133.9694  159.7809 H   0  0  0  0  0  0  0  0  0  0  0  0  # atno 6909 bound_to 6896
  145.5535  139.2297  143.2499 H   0  0  0  0  0  0  0  0  0  0  0  0  # atno 7974 bound_to 7965
  155.7920  140.3479  155.5355 H   0  0  0  0  0  0  0  0  0  0  0  0  # atno 8008 bound_to 7997
  155.8624  140.0973  157.1625 H   0  0  0  0  0  0  0  0  0  0  0  0  # atno 8009 bound_to 7997
  154.4012  140.1356  156.3965 H   0  0  0  0  0  0  0  0  0  0  0  0  # atno 8010 bound_to 7997
  139.9414  144.6087  150.8248 H   0  0  0  0  0  0  0  0  0  0  0  0  # atno 10167 bound_to 10162
  156.0282  130.5488  150.7316 H   0  0  0  0  0  0  0  0  0  0  0  0  # atno 10718 bound_to 10713
  152.9945  135.6199  154.2581 H   0  0  0  0  0  0  0  0  0  0  0  0  # atno 10763 bound_to 10752
  154.2318  135.2792  155.2889 H   0  0  0  0  0  0  0  0  0  0  0  0  # atno 10764 bound_to 10752
  154.5443  135.5752  153.6924 H   0  0  0  0  0  0  0  0  0  0  0  0  # atno 10765 bound_to 10752
  140.0296  134.9358  157.0636 H   0  0  0  0  0  0  0  0  0  0  0  0  # atno 11005 bound_to 11000
  146.1900  140.6359  142.9150 LP  0  0  0  0  0  0  0  0  0  0  0  0  # atno 17320 bound_to 7965
  144.7517  140.5208  143.6797 LP  0  0  0  0  0  0  0  0  0  0  0  0  # atno 17321 bound_to 7965
  140.7610  143.3163  151.2725 LP  0  0  0  0  0  0  0  0  0  0  0  0  # atno 17342 bound_to 10162
  139.6701  144.0035  152.2748 LP  0  0  0  0  0  0  0  0  0  0  0  0  # atno 17343 bound_to 10162
  157.4907  131.0910  151.0430 LP  0  0  0  0  0  0  0  0  0  0  0  0  # atno 17370 bound_to 10713
  157.0837  130.5913  149.5425 LP  0  0  0  0  0  0  0  0  0  0  0  0  # atno 17371 bound_to 10713
  140.4248  134.1842  155.7165 LP  0  0  0  0  0  0  0  0  0  0  0  0  # atno 17394 bound_to 11000
  141.1823  133.8388  157.1214 LP  0  0  0  0  0  0  0  0  0  0  0  0  # atno 17395 bound_to 11000

$$$$
