AV-unprocessed.smi:36|AV-procd|sdf|279|dock4
  -GOLD-   2262016 53D 1   1.00000     0.00000
 Structure written by MMmdl.
 64 67  0  0  0  0  0  0  0  0  1 V2000
  145.2756  130.8240  151.7927 C   0  0  0  0  0  0  0  0  0  0  0  0
  145.0772  132.1148  150.9811 C   0  0  0  0  0  0  0  0  0  0  0  0
  145.7703  131.9845  149.6140 C   0  0  0  0  0  0  0  0  0  0  0  0
  143.5761  132.3797  150.7768 C   0  0  0  0  0  0  0  0  0  0  0  0
  145.8442  133.5872  151.9265 Si  0  0  0  0  0  0  0  0  0  0  0  0
  147.6714  133.2736  152.3404 C   0  0  0  0  0  0  0  0  0  0  0  0
  145.6723  135.1983  150.9324 C   0  0  0  0  0  0  0  0  0  0  0  0
  144.9971  133.7544  153.3807 O   0  0  0  0  0  0  0  0  0  0  0  0
  144.5312  134.9861  153.8954 C   0  0  0  0  0  0  0  0  0  0  0  0
  145.1507  135.2302  155.2792 C   0  0  2  0  0  0  0  0  0  0  0  0
  145.8842  136.4552  155.2634 O   0  0  0  0  0  0  0  0  0  0  0  0
  147.2337  136.1562  155.4094 C   0  0  1  0  0  0  0  0  0  0  0  0
  147.9242  137.3188  156.0322 N   0  0  0  0  0  0  0  0  0  0  0  0
  147.7734  137.8469  157.2961 C   0  0  0  0  0  0  0  0  0  0  0  0
  148.5196  138.8877  157.5561 N   0  0  0  0  0  0  0  0  0  0  0  0
  149.2418  139.0860  156.3856 C   0  0  0  0  0  0  0  0  0  0  0  0
  150.2212  140.0292  155.9794 C   0  0  0  0  0  0  0  0  0  0  0  0
  150.6148  141.0090  156.8268 N   0  0  0  0  0  0  0  0  0  0  0  0
  151.7831  141.0333  157.6896 C   0  0  0  0  0  0  0  0  0  0  0  0
  152.6061  140.1174  157.7051 O   0  0  0  0  0  0  0  0  0  0  0  0
  151.9739  142.2778  158.5073 C   0  0  0  0  0  0  0  0  0  0  0  0
  151.5860  143.5320  157.9841 C   0  0  0  0  0  0  0  0  0  0  0  0
  151.7717  144.7075  158.7372 C   0  0  0  0  0  0  0  0  0  0  0  0
  152.3538  144.6402  160.0169 C   0  0  0  0  0  0  0  0  0  0  0  0
  152.7550  143.3969  160.5409 C   0  0  0  0  0  0  0  0  0  0  0  0
  152.5701  142.2202  159.7885 C   0  0  0  0  0  0  0  0  0  0  0  0
  150.7246  139.9052  154.7226 N   0  0  0  0  0  0  0  0  0  0  0  0
  150.2961  138.9276  153.9182 C   0  0  0  0  0  0  0  0  0  0  0  0
  149.3850  137.9836  154.1641 N   0  0  0  0  0  0  0  0  0  0  0  0
  148.8780  138.1029  155.4249 C   0  0  0  0  0  0  0  0  0  0  0  0
  147.2810  134.9412  156.3211 C   0  0  0  0  0  0  0  0  0  0  0  0
  146.1336  134.1371  155.7440 C   0  0  1  0  0  0  0  0  0  0  0  0
  145.5720  133.2807  156.7169 O   0  0  0  0  0  0  0  0  0  0  0  0
  144.8488  129.9629  151.2772 H   0  0  0  0  0  0  0  0  0  0  0  0
  144.7974  130.8917  152.7703 H   0  0  0  0  0  0  0  0  0  0  0  0
  146.3332  130.6164  151.9572 H   0  0  0  0  0  0  0  0  0  0  0  0
  146.8366  131.7873  149.7252 H   0  0  0  0  0  0  0  0  0  0  0  0
  145.6650  132.8976  149.0273 H   0  0  0  0  0  0  0  0  0  0  0  0
  145.3455  131.1672  149.0301 H   0  0  0  0  0  0  0  0  0  0  0  0
  143.1032  131.5719  150.2176 H   0  0  0  0  0  0  0  0  0  0  0  0
  143.4090  133.3050  150.2239 H   0  0  0  0  0  0  0  0  0  0  0  0
  143.0547  132.4675  151.7305 H   0  0  0  0  0  0  0  0  0  0  0  0
  148.2715  133.1510  151.4392 H   0  0  0  0  0  0  0  0  0  0  0  0
  147.7978  132.3732  152.9412 H   0  0  0  0  0  0  0  0  0  0  0  0
  148.1001  134.1010  152.9055 H   0  0  0  0  0  0  0  0  0  0  0  0
  146.2040  135.1404  149.9829 H   0  0  0  0  0  0  0  0  0  0  0  0
  146.0752  136.0520  151.4767 H   0  0  0  0  0  0  0  0  0  0  0  0
  144.6303  135.4221  150.7056 H   0  0  0  0  0  0  0  0  0  0  0  0
  144.8100  135.7843  153.2071 H   0  0  0  0  0  0  0  0  0  0  0  0
  143.4428  134.9857  153.9636 H   0  0  0  0  0  0  0  0  0  0  0  0
  144.3521  135.3551  156.0120 H   0  0  0  0  0  0  0  0  0  0  0  0
  147.7113  136.0035  154.4401 H   0  0  0  0  0  0  0  0  0  0  0  0
  147.0865  137.4377  158.0227 H   0  0  0  0  0  0  0  0  0  0  0  0
  150.0183  141.8223  156.8698 H   0  0  0  0  0  0  0  0  0  0  0  0
  151.1380  143.6006  157.0028 H   0  0  0  0  0  0  0  0  0  0  0  0
  151.4674  145.6612  158.3318 H   0  0  0  0  0  0  0  0  0  0  0  0
  152.4959  145.5421  160.5942 H   0  0  0  0  0  0  0  0  0  0  0  0
  153.2073  143.3455  161.5203 H   0  0  0  0  0  0  0  0  0  0  0  0
  152.8935  141.2779  160.2066 H   0  0  0  0  0  0  0  0  0  0  0  0
  150.7466  138.8994  152.9371 H   0  0  0  0  0  0  0  0  0  0  0  0
  148.2478  134.4391  156.2723 H   0  0  0  0  0  0  0  0  0  0  0  0
  147.0782  135.2523  157.3475 H   0  0  0  0  0  0  0  0  0  0  0  0
  146.4935  133.5454  154.9022 H   0  0  0  0  0  0  0  0  0  0  0  0
  144.8953  133.7521  157.1781 H   0  0  0  0  0  0  0  0  0  0  0  0
  1  2  1  0  0  0  0
  1 34  1  0  0  0  0
  1 35  1  0  0  0  0
  1 36  1  0  0  0  0
  2  3  1  0  0  0  0
  2  4  1  0  0  0  0
  2  5  1  0  0  0  0
  3 37  1  0  0  0  0
  3 38  1  0  0  0  0
  3 39  1  0  0  0  0
  4 40  1  0  0  0  0
  4 41  1  0  0  0  0
  4 42  1  0  0  0  0
  5  6  1  0  0  0  0
  5  7  1  0  0  0  0
  5  8  1  0  0  0  0
  6 43  1  0  0  0  0
  6 44  1  0  0  0  0
  6 45  1  0  0  0  0
  7 46  1  0  0  0  0
  7 47  1  0  0  0  0
  7 48  1  0  0  0  0
  8  9  1  0  0  0  0
  9 10  1  0  0  0  0
  9 49  1  0  0  0  0
  9 50  1  0  0  0  0
 10 32  1  0  0  0  0
 10 11  1  0  0  0  0
 10 51  1  0  0  0  0
 11 12  1  0  0  0  0
 12 13  1  0  0  0  0
 12 31  1  0  0  0  0
 12 52  1  0  0  0  0
 13 30  1  0  0  0  0
 13 14  1  0  0  0  0
 14 15  2  0  0  0  0
 14 53  1  0  0  0  0
 15 16  1  0  0  0  0
 16 30  2  0  0  0  0
 16 17  1  0  0  0  0
 17 18  1  0  0  0  0
 17 27  2  0  0  0  0
 18 19  1  0  0  0  0
 18 54  1  0  0  0  0
 19 20  2  0  0  0  0
 19 21  1  0  0  0  0
 21 26  1  0  0  0  0
 21 22  2  0  0  0  0
 22 23  1  0  0  0  0
 22 55  1  0  0  0  0
 23 24  2  0  0  0  0
 23 56  1  0  0  0  0
 24 25  1  0  0  0  0
 24 57  1  0  0  0  0
 25 26  2  0  0  0  0
 25 58  1  0  0  0  0
 26 59  1  0  0  0  0
 27 28  1  0  0  0  0
 28 29  2  0  0  0  0
 28 60  1  0  0  0  0
 29 30  1  0  0  0  0
 31 32  1  0  0  0  0
 31 61  1  0  0  0  0
 31 62  1  0  0  0  0
 32 33  1  0  0  0  0
 32 63  1  0  0  0  0
 33 64  1  0  0  0  0
M  END
> <s_m_source_file>
AV-unprocessed.smi

> <i_m_source_file_index>
36

> <i_lp_mmshare_version>
43012

> <i_f3d_flags>
0

> <s_epik_input>
W0NIM11DKFtDSDNdKShbQ0gzXSlbU2ldKFtDSDNdKShbQ0gzXSlPW0NIMl1bQ0BASF0xT1tDQEhdKFtDSDJdW0NASF0xW09IXSluKFtjSF1uMiljKGMyMyluW2NIXW5jM1tOSF1DKD1PKWM0W2NIXVtjSF1bY0hdW2NIXVtjSF00

> <s_epik_cmdline>
J2VwaWtfcHl0aG9uJywgJy1waCcsICc3LjAnLCAnLXRuJywgJzgnLCAnLW1hJywgJzIwMCcsICctbWV0YWxfYmluZGluZycsICctaW1hZScsICc8aW5maWxlLm1hZT4nLCAnLW9tYWUnLCAnPG91dGZpbGUubWFlPic=

> <r_lp_tautomer_probability>
1

> <r_epik_Ionization_Penalty>
0.00150433

> <r_epik_Ionization_Penalty_Charging>
0

> <r_epik_Ionization_Penalty_Neutral>
0.00150433

> <r_epik_State_Penalty>
0.00724046

> <r_epik_Charging_Adjusted_Penalty>
0.00724046

> <i_epik_Tot_Q>
0

> <i_epik_Tot_abs_Q>
0

> <r_epik_Metal_State_Penalty>
0.323355

> <b_epik_Metal_Only>
0

> <s_epik_Chemistry_Notes>
This compound contains an acetal/aminal-like group ( X-CH(R)-Y where X, Y are N, S, or O) that may be acid/base labile, releasing an aldehyde.

> <s_lp_Force_Field>
OPLS_2005

> <r_lp_Energy>
30.8875

> <b_lp_Chiralities_Consistent>
1

> <s_lp_Variant>
AV-unprocessed.smi:36-1

> <Gold.Version>
5.8.1

> <Gold.Id.Protein>
6NUR|6NUR_protein|mol2

> <Gold.PLP.Fitness>
50.4568

> <Gold.PLP.PLP>
-49.0886

> <Gold.PLP.part.hbond>
-2.0000

> <Gold.PLP.part.metal>
0.0000

> <Gold.PLP.part.buried>
-6.8772

> <Gold.PLP.part.nonpolar>
-40.5667

> <Gold.PLP.part.repulsive>
1.9135

> <Gold.PLP.ligand.clash>
0.0000

> <Gold.PLP.ligand.torsion>
3.4864

> <Gold.PLP.Chemscore.Hbond>
1.9000

> <Gold.PLP.Chemscore.CHOScore>
0.7858

> <Gold.PLP.Chemscore.Metal>
0.0000

> <Gold.Chemscore.Hbonds>
donor molecule, donor type, donor heavy atom, donor atom, acceptor molecule, acceptor atom, score
      P1  H  7989  7998       L1    27  0.90
      P1  H  7997  8009       L1    20  0.98
      L1  C    28    60       P1  7957  0.78

> <Gold.PLP.Chemscore.Internal.Correction>
0.2833

> <Gold.Rescore>
     Score         DG    S(hbond)    S(metal)    S(lipo)     H(rot)  DE(clash)    DE(int)     intcor
     14.61     -19.10       1.71        0.00     126.62       2.70       1.43       3.07       ----

> <Gold.Chemscore.Fitness>
14.6066

> <Gold.Chemscore.DG>
-19.1003

> <Gold.Chemscore.ZeroCoef>
-5.4800

> <Gold.Chemscore.Hbond>
1.7149

> <Gold.Chemscore.Metal>
0.0000

> <Gold.Chemscore.Lipo>
126.6236

> <Gold.Chemscore.Internal_Hbond>
0.0000

> <Gold.Chemscore.DEClash>
1.4258

> <Gold.Chemscore.DEInternal>
3.0679

> <Gold.Chemscore.Rot>
2.7041

> <Gold.Chemscore.Internal.Correction>
   9.000000E+99

> <Gold.Chemscore.Hbonds>
donor molecule, donor type, donor heavy atom, donor atom, acceptor molecule, acceptor atom, score
      P1  H  7989  7998       L1    27  0.18
      P1  H  7997  8009       L1    20  0.89

> <Gold.Chemscore.Hbond.Weighted>
-5.7278

> <Gold.Chemscore.Metal.Weighted>
-0.0000

> <Gold.Chemscore.Lipo.Weighted>
-14.8150

> <Gold.Chemscore.Internal_Hbond.Weighted>
0.0000

> <Gold.Chemscore.DEClash.Weighted>
1.4258

> <Gold.Chemscore.DEInternal.Weighted>
3.0679

> <Gold.Chemscore.Rot.Weighted>
6.9225

> <Gold.Chemscore.Internal.Correction.Weighted>
   9.000000E+99

> <Gold.Protein.RotatedTorsions>
[ 6907 6896 6895 6894 ] final   44.94 input  -60.11 | X-H torsion
[ 7974 7965 7964 7962 ] final   91.52 input  175.53 | X-H torsion
[ 8008 7997 7996 7995 ] final  169.92 input   59.86 | X-H torsion
[ 10167 10162 10161 10158 ] final  140.05 input  -65.29 | X-H torsion
[ 10718 10713 10712 10709 ] final   95.88 input   66.30 | X-H torsion
[ 10763 10752 10751 10750 ] final   14.81 input  -60.55 | X-H torsion
[ 11005 11000 10999 10996 ] final -153.53 input  -57.11 | X-H torsion

> <Gold.Protein.ActiveResidues>
 VAL166  LYS551  ARG553  GLY616  TRP617  ASP618  TYR619  PRO620  LYS621  CYS622 
 ASP623  PHE694  ASN695  SER759  ASP760  ASP761  ALA762  ILE779  LEU786  VAL792 
 PHE793  MET794  SER795  GLU796  ALA797  LYS798  CYS799  TRP800  GLU811  SER814 

> <Gold.Protein.RotatedAtoms>
  152.2386  134.8251  160.0463 H   0  0  0  0  0  0  0  0  0  0  0  0  # atno 6907 bound_to 6896
  151.8974  133.3525  159.3827 H   0  0  0  0  0  0  0  0  0  0  0  0  # atno 6908 bound_to 6896
  150.7047  134.4789  159.5505 H   0  0  0  0  0  0  0  0  0  0  0  0  # atno 6909 bound_to 6896
  145.5046  139.2276  143.2758 H   0  0  0  0  0  0  0  0  0  0  0  0  # atno 7974 bound_to 7965
  156.1413  140.1551  156.8915 H   0  0  0  0  0  0  0  0  0  0  0  0  # atno 8008 bound_to 7997
  154.4990  140.0830  156.7796 H   0  0  0  0  0  0  0  0  0  0  0  0  # atno 8009 bound_to 7997
  155.4072  140.3417  155.4263 H   0  0  0  0  0  0  0  0  0  0  0  0  # atno 8010 bound_to 7997
  139.5060  144.6258  151.5941 H   0  0  0  0  0  0  0  0  0  0  0  0  # atno 10167 bound_to 10162
  157.6934  131.0560  150.4406 H   0  0  0  0  0  0  0  0  0  0  0  0  # atno 10718 bound_to 10713
  153.1586  135.6792  153.8776 H   0  0  0  0  0  0  0  0  0  0  0  0  # atno 10763 bound_to 10752
  153.8179  135.3134  155.3408 H   0  0  0  0  0  0  0  0  0  0  0  0  # atno 10764 bound_to 10752
  154.7916  135.4831  154.0153 H   0  0  0  0  0  0  0  0  0  0  0  0  # atno 10765 bound_to 10752
  140.7071  134.3873  157.5202 H   0  0  0  0  0  0  0  0  0  0  0  0  # atno 11005 bound_to 11000
  146.2205  140.5849  142.9019 LP  0  0  0  0  0  0  0  0  0  0  0  0  # atno 17320 bound_to 7965
  144.7761  140.5742  143.6637 LP  0  0  0  0  0  0  0  0  0  0  0  0  # atno 17321 bound_to 7965
  140.5974  143.9671  150.6363 LP  0  0  0  0  0  0  0  0  0  0  0  0  # atno 17342 bound_to 10162
  140.2872  143.3349  152.1096 LP  0  0  0  0  0  0  0  0  0  0  0  0  # atno 17343 bound_to 10162
  156.4765  130.4064  149.6487 LP  0  0  0  0  0  0  0  0  0  0  0  0  # atno 17370 bound_to 10713
  156.3548  130.7451  151.2415 LP  0  0  0  0  0  0  0  0  0  0  0  0  # atno 17371 bound_to 10713
  139.8881  134.8864  156.2491 LP  0  0  0  0  0  0  0  0  0  0  0  0  # atno 17394 bound_to 11000
  141.0115  133.7093  156.1120 LP  0  0  0  0  0  0  0  0  0  0  0  0  # atno 17395 bound_to 11000

$$$$
