AV-unprocessed.smi:1430|AV-procd|sdf|5823|dock6
  -GOLD-   22720 5483D 1   1.00000     0.00000
 Structure written by MMmdl.
 46 47  0  0  0  0  0  0  0  0  1 V2000
  145.0324  132.4004  150.3207 C   0  0  0  0  0  0  0  0  0  0  0  0
  143.9689  133.0985  150.9589 O   0  0  0  0  0  0  0  0  0  0  0  0
  144.2200  134.3593  151.4600 C   0  0  0  0  0  0  0  0  0  0  0  0
  143.1599  135.0721  152.0542 C   0  0  0  0  0  0  0  0  0  0  0  0
  143.4076  136.3588  152.5700 C   0  0  0  0  0  0  0  0  0  0  0  0
  144.7160  136.8914  152.4806 C   0  0  0  0  0  0  0  0  0  0  0  0
  145.0929  138.1808  152.9452 N   0  0  0  0  0  0  0  0  0  0  0  0
  146.2202  138.5506  153.5772 C   0  0  0  0  0  0  0  0  0  0  0  0
  147.1630  137.8074  153.8493 O   0  0  0  0  0  0  0  0  0  0  0  0
  146.2054  139.8597  153.8653 N   0  0  0  0  0  0  0  0  0  0  0  0
  147.2841  140.5816  154.5293 C   0  0  0  0  0  0  0  0  0  0  0  0
  148.6581  140.1696  153.9690 C   0  0  0  0  0  0  0  0  0  0  0  0
  149.6613  139.8363  154.9781 N   0  0  0  0  0  0  0  0  0  0  0  0
  150.0506  141.0204  155.7335 C   0  0  0  0  0  0  0  0  0  0  0  0
  151.0797  140.6939  156.8304 C   0  0  2  0  0  0  0  0  0  0  0  0
  151.5533  141.9507  157.5678 C   0  0  0  0  0  0  0  0  0  0  0  0
  152.2192  140.0716  156.2399 O   0  0  0  0  0  0  0  0  0  0  0  0
  151.9395  138.9142  155.4506 C   0  0  1  0  0  0  0  0  0  0  0  0
  151.5996  137.6963  156.3264 C   0  0  0  0  0  0  0  0  0  0  0  0
  150.8582  139.2306  154.3974 C   0  0  0  0  0  0  0  0  0  0  0  0
  145.7031  136.1024  151.8546 C   0  0  0  0  0  0  0  0  0  0  0  0
  145.4728  134.8683  151.3591 N   0  0  0  0  0  0  0  0  0  0  0  0
  144.6740  131.4281  149.9828 H   0  0  0  0  0  0  0  0  0  0  0  0
  145.8634  132.2267  151.0059 H   0  0  0  0  0  0  0  0  0  0  0  0
  145.3966  132.9407  149.4457 H   0  0  0  0  0  0  0  0  0  0  0  0
  142.1715  134.6405  152.1106 H   0  0  0  0  0  0  0  0  0  0  0  0
  142.5899  136.9097  153.0072 H   0  0  0  0  0  0  0  0  0  0  0  0
  144.4460  138.9238  152.7245 H   0  0  0  0  0  0  0  0  0  0  0  0
  145.3928  140.3975  153.6016 H   0  0  0  0  0  0  0  0  0  0  0  0
  147.1245  141.6484  154.3716 H   0  0  0  0  0  0  0  0  0  0  0  0
  147.2220  140.4121  155.6048 H   0  0  0  0  0  0  0  0  0  0  0  0
  148.5401  139.3315  153.2803 H   0  0  0  0  0  0  0  0  0  0  0  0
  149.0297  141.0005  153.3672 H   0  0  0  0  0  0  0  0  0  0  0  0
  150.4643  141.7702  155.0566 H   0  0  0  0  0  0  0  0  0  0  0  0
  149.1695  141.4697  156.1934 H   0  0  0  0  0  0  0  0  0  0  0  0
  150.6335  140.0167  157.5591 H   0  0  0  0  0  0  0  0  0  0  0  0
  150.7189  142.4623  158.0481 H   0  0  0  0  0  0  0  0  0  0  0  0
  152.0289  142.6537  156.8833 H   0  0  0  0  0  0  0  0  0  0  0  0
  152.2784  141.6976  158.3416 H   0  0  0  0  0  0  0  0  0  0  0  0
  152.8621  138.6754  154.9209 H   0  0  0  0  0  0  0  0  0  0  0  0
  151.4980  136.7975  155.7177 H   0  0  0  0  0  0  0  0  0  0  0  0
  150.6633  137.8294  156.8677 H   0  0  0  0  0  0  0  0  0  0  0  0
  152.3863  137.5126  157.0583 H   0  0  0  0  0  0  0  0  0  0  0  0
  150.6058  138.3129  153.8671 H   0  0  0  0  0  0  0  0  0  0  0  0
  151.2807  139.9085  153.6539 H   0  0  0  0  0  0  0  0  0  0  0  0
  146.7137  136.4701  151.7509 H   0  0  0  0  0  0  0  0  0  0  0  0
  1  2  1  0  0  0  0
  1 23  1  0  0  0  0
  1 24  1  0  0  0  0
  1 25  1  0  0  0  0
  2  3  1  0  0  0  0
  3 22  1  0  0  0  0
  3  4  2  0  0  0  0
  4  5  1  0  0  0  0
  4 26  1  0  0  0  0
  5  6  2  0  0  0  0
  5 27  1  0  0  0  0
  6  7  1  0  0  0  0
  6 21  1  0  0  0  0
  7  8  1  0  0  0  0
  7 28  1  0  0  0  0
  8  9  2  0  0  0  0
  8 10  1  0  0  0  0
 10 11  1  0  0  0  0
 10 29  1  0  0  0  0
 11 12  1  0  0  0  0
 11 30  1  0  0  0  0
 11 31  1  0  0  0  0
 12 13  1  0  0  0  0
 12 32  1  0  0  0  0
 12 33  1  0  0  0  0
 13 20  1  0  0  0  0
 13 14  1  0  0  0  0
 14 15  1  0  0  0  0
 14 34  1  0  0  0  0
 14 35  1  0  0  0  0
 15 16  1  0  0  0  0
 15 17  1  0  0  0  0
 15 36  1  0  0  0  0
 16 37  1  0  0  0  0
 16 38  1  0  0  0  0
 16 39  1  0  0  0  0
 17 18  1  0  0  0  0
 18 19  1  0  0  0  0
 18 20  1  0  0  0  0
 18 40  1  0  0  0  0
 19 41  1  0  0  0  0
 19 42  1  0  0  0  0
 19 43  1  0  0  0  0
 20 44  1  0  0  0  0
 20 45  1  0  0  0  0
 21 22  2  0  0  0  0
 21 46  1  0  0  0  0
M  END
> <s_m_source_file>
AV-unprocessed.smi

> <i_m_source_file_index>
1430

> <i_lp_mmshare_version>
43012

> <i_f3d_flags>
0

> <s_epik_input>
W0NIM11PYzFbY0hdW2NIXWMoW2NIXW4xKVtOSF1DKD1PKVtOSF1bQ0gyXVtDSDJdTjJbQ0gyXVtDQEBIXShbQ0gzXSlPW0NAQEhdKFtDSDNdKVtDSDJdMg==

> <s_epik_cmdline>
J2VwaWtfcHl0aG9uJywgJy1waCcsICc3LjAnLCAnLXRuJywgJzgnLCAnLW1hJywgJzIwMCcsICctbWV0YWxfYmluZGluZycsICctaW1hZScsICc8aW5maWxlLm1hZT4nLCAnLW9tYWUnLCAnPG91dGZpbGUubWFlPic=

> <r_lp_tautomer_probability>
1

> <r_epik_Ionization_Penalty>
0.266083

> <r_epik_Ionization_Penalty_Charging>
0

> <r_epik_Ionization_Penalty_Neutral>
0.266083

> <r_epik_State_Penalty>
0.257924

> <r_epik_Charging_Adjusted_Penalty>
0.257924

> <i_epik_Tot_Q>
0

> <i_epik_Tot_abs_Q>
0

> <r_epik_Metal_State_Penalty>
0.257922

> <b_epik_Metal_Only>
0

> <s_lp_Force_Field>
OPLS_2005

> <r_lp_Energy>
25.3264

> <b_lp_Chiralities_Consistent>
1

> <s_lp_Variant>
AV-unprocessed.smi:1430-2

> <Gold.Version>
5.8.1

> <Gold.Id.Protein>
6NUR|6NUR_protein|mol2

> <Gold.PLP.Fitness>
40.6142

> <Gold.PLP.PLP>
-31.1149

> <Gold.PLP.part.hbond>
-2.8074

> <Gold.PLP.part.metal>
0.0000

> <Gold.PLP.part.buried>
-2.5357

> <Gold.PLP.part.nonpolar>
-25.9738

> <Gold.PLP.part.repulsive>
0.6173

> <Gold.PLP.ligand.clash>
0.0000

> <Gold.PLP.ligand.torsion>
0.8174

> <Gold.PLP.Chemscore.Hbond>
2.7075

> <Gold.PLP.Chemscore.CHOScore>
1.0000

> <Gold.PLP.Chemscore.Metal>
0.0000

> <Gold.Chemscore.Hbonds>
donor molecule, donor type, donor heavy atom, donor atom, acceptor molecule, acceptor atom, score
      L1  H     7    28       P1 10175  1.00
      L1  H    10    29       P1 10175  0.91
      P1  H  7997  8008       L1    17  0.80
      L1  C    21    46       P1  7948  1.00

> <Gold.PLP.Chemscore.Internal.Correction>
0.0116

> <Gold.Rescore>
     Score         DG    S(hbond)    S(metal)    S(lipo)     H(rot)  DE(clash)    DE(int)     intcor
     14.79     -18.51       2.50        0.00      77.59       1.71       0.58       3.14       ----

> <Gold.Chemscore.Fitness>
14.7933

> <Gold.Chemscore.DG>
-18.5138

> <Gold.Chemscore.ZeroCoef>
-5.4800

> <Gold.Chemscore.Hbond>
2.4957

> <Gold.Chemscore.Metal>
0.0000

> <Gold.Chemscore.Lipo>
77.5876

> <Gold.Chemscore.Internal_Hbond>
0.0000

> <Gold.Chemscore.DEClash>
0.5768

> <Gold.Chemscore.DEInternal>
3.1437

> <Gold.Chemscore.Rot>
1.7107

> <Gold.Chemscore.Internal.Correction>
   9.000000E+99

> <Gold.Chemscore.Hbonds>
donor molecule, donor type, donor heavy atom, donor atom, acceptor molecule, acceptor atom, score
      L1  H     7    28       P1 10175  1.00
      L1  H    10    29       P1 10175  0.83
      P1  H  7997  8008       L1    17  0.35

> <Gold.Chemscore.Hbond.Weighted>
-8.3355

> <Gold.Chemscore.Metal.Weighted>
-0.0000

> <Gold.Chemscore.Lipo.Weighted>
-9.0777

> <Gold.Chemscore.Internal_Hbond.Weighted>
0.0000

> <Gold.Chemscore.DEClash.Weighted>
0.5768

> <Gold.Chemscore.DEInternal.Weighted>
3.1437

> <Gold.Chemscore.Rot.Weighted>
4.3794

> <Gold.Chemscore.Internal.Correction.Weighted>
   9.000000E+99

> <Gold.Protein.RotatedTorsions>
[ 6907 6896 6895 6894 ] final  113.05 input  -60.11 | X-H torsion
[ 7974 7965 7964 7962 ] final  101.51 input  175.53 | X-H torsion
[ 8008 7997 7996 7995 ] final  -40.91 input   59.86 | X-H torsion
[ 10167 10162 10161 10158 ] final -164.75 input  -65.29 | X-H torsion
[ 10718 10713 10712 10709 ] final -166.23 input   66.30 | X-H torsion
[ 10763 10752 10751 10750 ] final  116.13 input  -60.55 | X-H torsion
[ 11005 11000 10999 10996 ] final  113.30 input  -57.11 | X-H torsion

> <Gold.Protein.ActiveResidues>
 VAL166  LYS551  ARG553  GLY616  TRP617  ASP618  TYR619  PRO620  LYS621  CYS622 
 ASP623  PHE694  ASN695  SER759  ASP760  ASP761  ALA762  ILE779  LEU786  VAL792 
 PHE793  MET794  SER795  GLU796  ALA797  LYS798  CYS799  TRP800  GLU811  SER814 

> <Gold.Protein.RotatedAtoms>
  152.4883  133.8431  159.7162 H   0  0  0  0  0  0  0  0  0  0  0  0  # atno 6907 bound_to 6896
  150.8988  133.7136  159.2891 H   0  0  0  0  0  0  0  0  0  0  0  0  # atno 6908 bound_to 6896
  151.4584  135.1040  159.9770 H   0  0  0  0  0  0  0  0  0  0  0  0  # atno 6909 bound_to 6896
  145.3714  139.2397  143.3453 H   0  0  0  0  0  0  0  0  0  0  0  0  # atno 7974 bound_to 7965
  154.4008  140.1513  156.3105 H   0  0  0  0  0  0  0  0  0  0  0  0  # atno 8008 bound_to 7997
  155.8620  140.3453  155.5741 H   0  0  0  0  0  0  0  0  0  0  0  0  # atno 8009 bound_to 7997
  155.7870  140.0851  157.2020 H   0  0  0  0  0  0  0  0  0  0  0  0  # atno 8010 bound_to 7997
  139.6229  144.0589  152.1948 H   0  0  0  0  0  0  0  0  0  0  0  0  # atno 10167 bound_to 10162
  156.6649  130.9061  151.3035 H   0  0  0  0  0  0  0  0  0  0  0  0  # atno 10718 bound_to 10713
  153.5326  135.3575  155.2682 H   0  0  0  0  0  0  0  0  0  0  0  0  # atno 10763 bound_to 10752
  154.8725  135.4072  154.3134 H   0  0  0  0  0  0  0  0  0  0  0  0  # atno 10764 bound_to 10752
  153.3826  135.7069  153.6622 H   0  0  0  0  0  0  0  0  0  0  0  0  # atno 10765 bound_to 10752
  139.8949  134.9547  156.6717 H   0  0  0  0  0  0  0  0  0  0  0  0  # atno 11005 bound_to 11000
  146.2884  140.4365  142.8749 LP  0  0  0  0  0  0  0  0  0  0  0  0  # atno 17320 bound_to 7965
  144.8574  140.7090  143.6129 LP  0  0  0  0  0  0  0  0  0  0  0  0  # atno 17321 bound_to 7965
  140.0236  144.6134  150.7546 LP  0  0  0  0  0  0  0  0  0  0  0  0  # atno 17342 bound_to 10162
  140.7393  143.2789  151.3657 LP  0  0  0  0  0  0  0  0  0  0  0  0  # atno 17343 bound_to 10162
  157.7097  130.9426  150.1048 LP  0  0  0  0  0  0  0  0  0  0  0  0  # atno 17370 bound_to 10713
  156.1983  130.3658  149.8821 LP  0  0  0  0  0  0  0  0  0  0  0  0  # atno 17371 bound_to 10713
  140.7368  133.9012  155.8250 LP  0  0  0  0  0  0  0  0  0  0  0  0  # atno 17394 bound_to 11000
  141.0109  134.1021  157.4222 LP  0  0  0  0  0  0  0  0  0  0  0  0  # atno 17395 bound_to 11000

$$$$
