AV-unprocessed.smi:867|AV-procd|sdf|3995|dock2
  -GOLD-   22720 1473D 1   1.00000     0.00000
 Structure written by MMmdl.
 53 56  0  0  0  0  0  0  0  0  2 V2000
  152.5516  139.8292  156.0546 O   0  0  0  0  0  0  0  0  0  0  0  0
  151.4407  139.9247  155.5318 C   0  0  0  0  0  0  0  0  0  0  0  0
  150.5795  140.9058  155.8503 N   0  0  0  0  0  0  0  0  0  0  0  0
  150.8392  141.9752  156.8068 C   0  0  0  0  0  0  0  0  0  0  0  0
  151.4531  141.4314  158.1065 C   0  0  0  0  0  0  0  0  0  0  0  0
  151.7157  142.5321  159.1150 C   0  0  0  0  0  0  0  0  0  0  0  0
  151.2764  143.8505  158.8773 C   0  0  0  0  0  0  0  0  0  0  0  0
  151.5478  144.8401  159.8418 C   0  0  0  0  0  0  0  0  0  0  0  0
  152.2496  144.4678  161.0057 C   0  0  0  0  0  0  0  0  0  0  0  0
  152.6766  143.2087  161.2431 N   0  0  0  0  0  0  0  0  0  0  0  0
  152.4119  142.2658  160.3132 C   0  0  0  0  0  0  0  0  0  0  0  0
  150.9559  139.0132  154.6526 N   0  0  0  0  0  0  0  0  0  0  0  0
  151.6279  137.7771  154.2344 C   0  0  0  0  0  0  0  0  0  0  0  0
  150.9514  136.5690  154.9125 C   0  0  0  0  0  0  0  0  0  0  0  0
  149.4808  136.5286  154.6579 N   0  3  0  0  0  0  0  0  0  0  0  0
  148.7622  135.4018  155.3299 C   0  0  1  0  0  0  0  0  0  0  0  0
  147.3019  135.2674  154.8206 C   0  0  0  0  0  0  0  0  0  0  0  0
  147.2037  133.7989  154.3759 C   0  0  2  0  0  0  0  0  0  0  0  0
  147.2397  132.8836  155.6104 C   0  0  0  0  0  0  0  0  0  0  0  0
  148.7065  132.9921  156.0606 C   0  0  0  0  0  0  0  0  0  0  0  0
  149.3126  133.9762  155.0393 C   0  0  1  0  0  0  0  0  0  0  0  0
  148.5801  133.5749  153.7641 C   0  0  0  0  0  0  0  0  0  0  0  0
  148.8313  137.8423  154.9427 C   0  0  0  0  0  0  0  0  0  0  0  0
  149.5525  139.0026  154.2382 C   0  0  0  0  0  0  0  0  0  0  0  0
  149.6727  140.9036  155.4068 H   0  0  0  0  0  0  0  0  0  0  0  0
  151.5236  142.6850  156.3411 H   0  0  0  0  0  0  0  0  0  0  0  0
  149.9194  142.5239  157.0169 H   0  0  0  0  0  0  0  0  0  0  0  0
  150.7916  140.6908  158.5579 H   0  0  0  0  0  0  0  0  0  0  0  0
  152.3904  140.9164  157.8909 H   0  0  0  0  0  0  0  0  0  0  0  0
  150.7429  144.1011  157.9720 H   0  0  0  0  0  0  0  0  0  0  0  0
  151.2271  145.8603  159.6928 H   0  0  0  0  0  0  0  0  0  0  0  0
  152.4749  145.2014  161.7656 H   0  0  0  0  0  0  0  0  0  0  0  0
  152.7691  141.2700  160.5311 H   0  0  0  0  0  0  0  0  0  0  0  0
  151.5519  137.6839  153.1499 H   0  0  0  0  0  0  0  0  0  0  0  0
  152.6958  137.7615  154.4522 H   0  0  0  0  0  0  0  0  0  0  0  0
  151.4344  135.6753  154.5234 H   0  0  0  0  0  0  0  0  0  0  0  0
  151.1322  136.5951  155.9883 H   0  0  0  0  0  0  0  0  0  0  0  0
  148.7808  135.5864  156.4055 H   0  0  0  0  0  0  0  0  0  0  0  0
  146.5697  135.5190  155.5889 H   0  0  0  0  0  0  0  0  0  0  0  0
  147.1094  135.9085  153.9593 H   0  0  0  0  0  0  0  0  0  0  0  0
  146.3649  133.5994  153.7083 H   0  0  0  0  0  0  0  0  0  0  0  0
  146.5400  133.2039  156.3833 H   0  0  0  0  0  0  0  0  0  0  0  0
  146.9956  131.8552  155.3412 H   0  0  0  0  0  0  0  0  0  0  0  0
  148.8028  133.3434  157.0887 H   0  0  0  0  0  0  0  0  0  0  0  0
  149.1961  132.0192  155.9969 H   0  0  0  0  0  0  0  0  0  0  0  0
  150.3945  133.8736  154.9991 H   0  0  0  0  0  0  0  0  0  0  0  0
  148.7581  132.5391  153.4689 H   0  0  0  0  0  0  0  0  0  0  0  0
  148.7923  134.2304  152.9176 H   0  0  0  0  0  0  0  0  0  0  0  0
  147.7885  137.8355  154.6272 H   0  0  0  0  0  0  0  0  0  0  0  0
  148.8283  138.0167  156.0200 H   0  0  0  0  0  0  0  0  0  0  0  0
  149.0460  139.9452  154.4526 H   0  0  0  0  0  0  0  0  0  0  0  0
  149.4960  138.8783  153.1557 H   0  0  0  0  0  0  0  0  0  0  0  0
  149.3820  136.3744  153.6647 H   0  0  0  0  0  0  0  0  0  0  0  0
  1  2  2  0  0  0  0
  2  3  1  0  0  0  0
  2 12  1  0  0  0  0
  3  4  1  0  0  0  0
  3 25  1  0  0  0  0
  4  5  1  0  0  0  0
  4 26  1  0  0  0  0
  4 27  1  0  0  0  0
  5  6  1  0  0  0  0
  5 28  1  0  0  0  0
  5 29  1  0  0  0  0
  6 11  1  0  0  0  0
  6  7  2  0  0  0  0
  7  8  1  0  0  0  0
  7 30  1  0  0  0  0
  8  9  2  0  0  0  0
  8 31  1  0  0  0  0
  9 10  1  0  0  0  0
  9 32  1  0  0  0  0
 10 11  2  0  0  0  0
 11 33  1  0  0  0  0
 12 24  1  0  0  0  0
 12 13  1  0  0  0  0
 13 14  1  0  0  0  0
 13 34  1  0  0  0  0
 13 35  1  0  0  0  0
 14 15  1  0  0  0  0
 14 36  1  0  0  0  0
 14 37  1  0  0  0  0
 15 16  1  0  0  0  0
 15 23  1  0  0  0  0
 15 53  1  0  0  0  0
 16 21  1  0  0  0  0
 16 17  1  0  0  0  0
 16 38  1  0  0  0  0
 17 18  1  0  0  0  0
 17 39  1  0  0  0  0
 17 40  1  0  0  0  0
 18 22  1  0  0  0  0
 18 19  1  0  0  0  0
 18 41  1  0  0  0  0
 19 20  1  0  0  0  0
 19 42  1  0  0  0  0
 19 43  1  0  0  0  0
 20 21  1  0  0  0  0
 20 44  1  0  0  0  0
 20 45  1  0  0  0  0
 21 22  1  0  0  0  0
 21 46  1  0  0  0  0
 22 47  1  0  0  0  0
 22 48  1  0  0  0  0
 23 24  1  0  0  0  0
 23 49  1  0  0  0  0
 23 50  1  0  0  0  0
 24 51  1  0  0  0  0
 24 52  1  0  0  0  0
M  CHG  1  15   1
M  END
> <s_m_source_file>
AV-unprocessed.smi

> <i_m_source_file_index>
867

> <i_lp_mmshare_version>
43012

> <i_f3d_flags>
0

> <s_epik_input>
W0NIMl0xW0NIMl1bQ0BASF0oW0NIMl0yKVtDQEBIXShbQ0gyXVtDQEhdMTIpTihbQ0gyXVtDSDJdMylbQ0gyXVtDSDJdTjNDKD1PKVtOSF1bQ0gyXVtDSDJdYzRbY0hdW2NIXVtjSF1uW2NIXTQ=

> <s_epik_cmdline>
J2VwaWtfcHl0aG9uJywgJy1waCcsICc3LjAnLCAnLXRuJywgJzgnLCAnLW1hJywgJzIwMCcsICctbWV0YWxfYmluZGluZycsICctaW1hZScsICc8aW5maWxlLm1hZT4nLCAnLW9tYWUnLCAnPG91dGZpbGUubWFlPic=

> <r_epik_Ionization_Penalty>
0.0161279

> <r_epik_Ionization_Penalty_Charging>
0.00262064

> <r_epik_Ionization_Penalty_Neutral>
0.0135072

> <r_epik_State_Penalty>
0.0104914

> <r_epik_Charging_Adjusted_Penalty>
0.013112

> <i_epik_Tot_Q>
1

> <i_epik_Tot_abs_Q>
1

> <r_epik_Metal_State_Penalty>
0.0102536

> <b_epik_Metal_Only>
0

> <s_lp_Force_Field>
OPLS_2005

> <r_lp_Energy>
96.0256

> <b_lp_Chiralities_Consistent>
1

> <s_lp_Variant>
AV-unprocessed.smi:867-2

> <Gold.Version>
5.8.1

> <Gold.Id.Protein>
6NUR|6NUR_protein|mol2

> <Gold.PLP.Fitness>
51.4344

> <Gold.PLP.PLP>
-44.5446

> <Gold.PLP.part.hbond>
-2.0000

> <Gold.PLP.part.metal>
0.0000

> <Gold.PLP.part.buried>
-4.3345

> <Gold.PLP.part.nonpolar>
-38.6490

> <Gold.PLP.part.repulsive>
0.2160

> <Gold.PLP.ligand.clash>
1.8979

> <Gold.PLP.ligand.torsion>
0.1938

> <Gold.PLP.Chemscore.Hbond>
3.0000

> <Gold.PLP.Chemscore.CHOScore>
0.0000

> <Gold.PLP.Chemscore.Metal>
0.0000

> <Gold.Chemscore.Hbonds>
donor molecule, donor type, donor heavy atom, donor atom, acceptor molecule, acceptor atom, score
      L1  H    15    53       P1  7948  2.00
      P1  H  7997  8008       L1     1  1.00

> <Gold.PLP.Chemscore.Internal.Correction>
0.1753

> <Gold.Rescore>
     Score         DG    S(hbond)    S(metal)    S(lipo)     H(rot)  DE(clash)    DE(int)     intcor
     20.39     -21.94       1.96        0.00     114.84       1.37       0.05       1.50       ----

> <Gold.Chemscore.Fitness>
20.3909

> <Gold.Chemscore.DG>
-21.9382

> <Gold.Chemscore.ZeroCoef>
-5.4800

> <Gold.Chemscore.Hbond>
1.9571

> <Gold.Chemscore.Metal>
0.0000

> <Gold.Chemscore.Lipo>
114.8430

> <Gold.Chemscore.Internal_Hbond>
0.0000

> <Gold.Chemscore.DEClash>
0.0483

> <Gold.Chemscore.DEInternal>
1.4989

> <Gold.Chemscore.Rot>
1.3731

> <Gold.Chemscore.Internal.Correction>
   9.000000E+99

> <Gold.Chemscore.Hbonds>
donor molecule, donor type, donor heavy atom, donor atom, acceptor molecule, acceptor atom, score
      L1  H    15    53       P1  7948  0.82
      P1  H  7997  8008       L1     1  1.00

> <Gold.Chemscore.Hbond.Weighted>
-6.5367

> <Gold.Chemscore.Metal.Weighted>
-0.0000

> <Gold.Chemscore.Lipo.Weighted>
-13.4366

> <Gold.Chemscore.Internal_Hbond.Weighted>
0.0000

> <Gold.Chemscore.DEClash.Weighted>
0.0483

> <Gold.Chemscore.DEInternal.Weighted>
1.4989

> <Gold.Chemscore.Rot.Weighted>
3.5152

> <Gold.Chemscore.Internal.Correction.Weighted>
   9.000000E+99

> <Gold.Protein.RotatedTorsions>
[ 6907 6896 6895 6894 ] final  144.74 input  -60.11 | X-H torsion
[ 7974 7965 7964 7962 ] final -116.99 input  175.53 | X-H torsion
[ 8008 7997 7996 7995 ] final  -31.86 input   59.86 | X-H torsion
[ 10167 10162 10161 10158 ] final   45.54 input  -65.29 | X-H torsion
[ 10718 10713 10712 10709 ] final  -12.87 input   66.30 | X-H torsion
[ 10763 10752 10751 10750 ] final   77.98 input  -60.55 | X-H torsion
[ 11005 11000 10999 10996 ] final -113.27 input  -57.11 | X-H torsion

> <Gold.Protein.ActiveResidues>
 VAL166  LYS551  ARG553  GLY616  TRP617  ASP618  TYR619  PRO620  LYS621  CYS622 
 ASP623  PHE694  ASN695  SER759  ASP760  ASP761  ALA762  ILE779  LEU786  VAL792 
 PHE793  MET794  SER795  GLU796  ALA797  LYS798  CYS799  TRP800  GLU811  SER814 

> <Gold.Protein.RotatedAtoms>
  152.1898  133.4765  159.5001 H   0  0  0  0  0  0  0  0  0  0  0  0  # atno 6907 bound_to 6896
  150.6949  134.1727  159.4227 H   0  0  0  0  0  0  0  0  0  0  0  0  # atno 6908 bound_to 6896
  151.9641  135.0109  160.0600 H   0  0  0  0  0  0  0  0  0  0  0  0  # atno 6909 bound_to 6896
  145.0903  140.8486  143.3986 H   0  0  0  0  0  0  0  0  0  0  0  0  # atno 7974 bound_to 7965
  154.4199  140.1753  156.1634 H   0  0  0  0  0  0  0  0  0  0  0  0  # atno 8008 bound_to 7997
  155.9820  140.3376  155.6647 H   0  0  0  0  0  0  0  0  0  0  0  0  # atno 8009 bound_to 7997
  155.6488  140.0688  157.2585 H   0  0  0  0  0  0  0  0  0  0  0  0  # atno 8010 bound_to 7997
  140.3230  144.2681  150.6179 H   0  0  0  0  0  0  0  0  0  0  0  0  # atno 10167 bound_to 10162
  156.6383  130.4921  149.6104 H   0  0  0  0  0  0  0  0  0  0  0  0  # atno 10718 bound_to 10713
  153.0839  135.4894  154.8559 H   0  0  0  0  0  0  0  0  0  0  0  0  # atno 10763 bound_to 10752
  154.7186  135.3035  154.9085 H   0  0  0  0  0  0  0  0  0  0  0  0  # atno 10764 bound_to 10752
  153.9757  135.6796  153.4801 H   0  0  0  0  0  0  0  0  0  0  0  0  # atno 10765 bound_to 10752
  141.0624  133.9513  157.2641 H   0  0  0  0  0  0  0  0  0  0  0  0  # atno 11005 bound_to 11000
  145.1073  139.2781  143.5655 LP  0  0  0  0  0  0  0  0  0  0  0  0  # atno 17320 bound_to 7965
  146.3531  140.0658  142.8626 LP  0  0  0  0  0  0  0  0  0  0  0  0  # atno 17321 bound_to 7965
  140.5466  143.2213  151.7997 LP  0  0  0  0  0  0  0  0  0  0  0  0  # atno 17342 bound_to 10162
  139.4870  144.4531  151.9630 LP  0  0  0  0  0  0  0  0  0  0  0  0  # atno 17343 bound_to 10162
  156.2179  130.6719  151.1338 LP  0  0  0  0  0  0  0  0  0  0  0  0  # atno 17370 bound_to 10713
  157.7179  131.0699  150.6256 LP  0  0  0  0  0  0  0  0  0  0  0  0  # atno 17371 bound_to 10713
  139.9445  135.0186  156.8811 LP  0  0  0  0  0  0  0  0  0  0  0  0  # atno 17394 bound_to 11000
  140.5841  134.0324  155.7475 LP  0  0  0  0  0  0  0  0  0  0  0  0  # atno 17395 bound_to 11000

$$$$
