#       Name:                AV-unprocessed.smi:1978
#       Creating user name   scv26
#       Creation time:       Fri Mar 27 10:19:57 2020


#       File generated by GOLD software.
#

@<TRIPOS>MOLECULE
AV-unprocessed.smi:1978
    50    51     1
SMALL
NO_CHARGES


@<TRIPOS>ATOM
      1 ****        -3.0215   6.7798   3.2339 C.3            1 S1                 0.0000
      2 ****        -2.5953   5.4772   2.6493 C.2            1 S1                 0.0000
      3 ****        -2.3416   5.0696   1.3699 C.2            1 S1                 0.0000
      4 ****        -1.9884   3.7035   1.5322 C.2            1 S1                 0.0000
      5 ****        -1.6500   2.9052   0.4078 N.am           1 S1                 0.0000
      6 ****        -1.3278   1.5997   0.3684 C.2            1 S1                 0.0000
      7 ****        -1.3059   0.9299   1.4078 O.2            1 S1                 0.0000
      8 ****        -1.0488   1.1748  -0.8950 N.pl3          1 S1                -1.0000
      9 ****        -0.6810  -0.1957  -1.2539 C.3            1 S1                 0.0000
     10 ****         0.8349  -0.4671  -0.9678 C.3            1 S1                 0.0000
     11 ****         1.7807   0.3894  -1.8454 C.3            1 S1                 0.0000
     12 ****         1.2521  -1.9178  -1.0019 N.4            1 S1                 1.0000
     13 ****         1.1350  -2.5885  -2.3359 C.3            1 S1                 0.0000
     14 ****         1.9125  -3.9109  -2.3692 C.3            1 S1                 0.0000
     15 ****         1.4152  -4.8510  -1.2700 C.3            1 S1                 0.0000
     16 ****         1.5228  -4.1540   0.0893 C.3            1 S1                 0.0000
     17 ****         0.7693  -2.8057   0.1149 C.3            1 S1                 0.0000
     18 ****         0.9250  -2.1847   1.5187 C.3            1 S1                 0.0000
     19 ****        -2.0168   3.3152   2.7987 N.2            1 S1                 0.0000
     20 ****        -2.4063   4.4495   3.5204 O.3            1 S1                 0.0000
     21 ****        -3.2634   7.4984   2.4508 H              1 S1                 0.0000
     22 ****        -2.2288   7.2041   3.8501 H              1 S1                 0.0000
     23 ****        -3.9053   6.6514   3.8590 H              1 S1                 0.0000
     24 ****        -2.4034   5.6542   0.4641 H              1 S1                 0.0000
     25 ****        -1.6552   3.3811  -0.4821 H              1 S1                 0.0000
     26 ****        -1.2833  -0.9224  -0.7076 H              1 S1                 0.0000
     27 ****        -0.8828  -0.3970  -2.3059 H              1 S1                 0.0000
     28 ****         1.0434  -0.1164   0.0408 H              1 S1                 0.0000
     29 ****         1.6705   1.4554  -1.6379 H              1 S1                 0.0000
     30 ****         1.6154   0.2548  -2.9152 H              1 S1                 0.0000
     31 ****         2.8231   0.1419  -1.6429 H              1 S1                 0.0000
     32 ****         0.0873  -2.7823  -2.5706 H              1 S1                 0.0000
     33 ****         1.5202  -1.9503  -3.1293 H              1 S1                 0.0000
     34 ****         1.7988  -4.3857  -3.3442 H              1 S1                 0.0000
     35 ****         2.9781  -3.7172  -2.2396 H              1 S1                 0.0000
     36 ****         0.3794  -5.1341  -1.4621 H              1 S1                 0.0000
     37 ****         1.9980  -5.7724  -1.2691 H              1 S1                 0.0000
     38 ****         1.1316  -4.8159   0.8629 H              1 S1                 0.0000
     39 ****         2.5748  -3.9912   0.3285 H              1 S1                 0.0000
     40 ****        -0.2897  -3.0150  -0.0431 H              1 S1                 0.0000
     41 ****         0.6948  -2.9148   2.2951 H              1 S1                 0.0000
     42 ****         0.2431  -1.3502   1.6777 H              1 S1                 0.0000
     43 ****         1.9430  -1.8329   1.6897 H              1 S1                 0.0000
     44 ****         2.2474  -1.8632  -0.8423 H              1 S1                 0.0000
     45 ****        -1.5284   1.3584   2.2835 LP             1 S1                 0.0000
     46 ****        -1.0657  -0.0401   1.3726 LP             1 S1                 0.0000
     47 ****        -1.0989   1.8489  -1.6319 LP             1 S1                 0.0000
     48 ****        -1.8055   2.4074   3.1609 LP             1 S1                 0.0000
     49 ****        -3.2584   4.2614   4.0088 LP             1 S1                 0.0000
     50 ****        -1.6923   4.6921   4.1772 LP             1 S1                 0.0000
@<TRIPOS>BOND
    1    1    2 1     
    2    1   21 1     
    3    1   22 1     
    4    1   23 1     
    5    2   20 1     
    6    2    3 2     
    7    3    4 1     
    8    3   24 1     
    9    4    5 1     
   10    4   19 2     
   11    5    6 am    
   12    5   25 1     
   13    6    7 2     
   14    6    8 1     
   15    8    9 1     
   16    9   10 1     
   17    9   26 1     
   18    9   27 1     
   19   10   11 1     
   20   10   12 1     
   21   10   28 1     
   22   11   29 1     
   23   11   30 1     
   24   11   31 1     
   25   12   17 1     
   26   12   13 1     
   27   12   44 1     
   28   13   14 1     
   29   13   32 1     
   30   13   33 1     
   31   14   15 1     
   32   14   34 1     
   33   14   35 1     
   34   15   16 1     
   35   15   36 1     
   36   15   37 1     
   37   16   17 1     
   38   16   38 1     
   39   16   39 1     
   40   17   18 1     
   41   17   40 1     
   42   18   41 1     
   43   18   42 1     
   44   18   43 1     
   45   19   20 1     
   46    7   45 1     
   47    7   46 1     
   48    8   47 1     
   49   19   48 1     
   50   20   49 1     
   51   20   50 1     
@<TRIPOS>SUBSTRUCTURE
      1 S1             1
@<TRIPOS>SET
LONE_PAIRS      STATIC     ATOMS    <user>   **** ""
6 45 46 47 48 49 50
DONOR_HYDROGENS      STATIC     ATOMS    <user>   **** ""
2 25 44
ATOM$BLUE        STATIC     ATOMS    COLORGROUP SYSTEM
6 45 46 47 48 49 50
ATOM$RED        STATIC     ATOMS    COLORGROUP SYSTEM
2 25 44
