AV-unprocessed.smi:287|AV-procd|sdf|2205|dock1
  -GOLD-   2262022 33D 1   1.00000     0.00000
 Structure written by MMmdl.
 55 58  0  0  0  0  0  0  0  0  1 V2000
  155.7156  140.7163  163.3795 C   0  0  0  0  0  0  0  0  0  0  0  0
  155.3678  139.4667  162.6462 C   0  0  0  0  0  0  0  0  0  0  0  0
  155.1448  139.1740  161.3327 C   0  0  0  0  0  0  0  0  0  0  0  0
  154.8367  137.7832  161.2519 C   0  0  0  0  0  0  0  0  0  0  0  0
  154.5039  137.0186  159.9773 C   0  0  1  0  0  0  0  0  0  0  0  0
  155.4445  135.8108  159.8301 C   0  0  0  0  0  0  0  0  0  0  0  0
  153.1984  136.4743  159.9850 O   0  0  0  0  0  0  0  0  0  0  0  0
  154.5871  137.9168  158.7217 C   0  0  0  0  0  0  0  0  0  0  0  0
  154.1864  137.2205  157.5033 N   0  0  0  0  0  0  0  0  0  0  0  0
  152.9523  137.4038  156.9900 C   0  0  0  0  0  0  0  0  0  0  0  0
  152.2891  136.3873  156.3799 N   0  0  0  0  0  0  0  0  0  0  0  0
  151.0702  136.5971  155.8740 C   0  0  0  0  0  0  0  0  0  0  0  0
  150.3508  137.7214  155.8703 N   0  0  0  0  0  0  0  0  0  0  0  0
  151.0112  138.7458  156.4840 C   0  0  0  0  0  0  0  0  0  0  0  0
  152.3076  138.6651  157.0654 C   0  0  0  0  0  0  0  0  0  0  0  0
  152.6660  139.8981  157.5933 N   0  0  0  0  0  0  0  0  0  0  0  0
  151.6386  140.6613  157.3356 C   0  0  0  0  0  0  0  0  0  0  0  0
  150.5991  140.0523  156.6677 N   0  0  0  0  0  0  0  0  0  0  0  0
  149.3088  140.6853  156.2379 C   0  0  2  0  0  0  0  0  0  0  0  0
  148.2381  139.8634  156.6024 O   0  0  0  0  0  0  0  0  0  0  0  0
  147.4974  139.4619  155.4494 C   0  0  1  0  0  0  0  0  0  0  0  0
  146.0154  139.2911  155.8164 C   0  0  0  0  0  0  0  0  0  0  0  0
  145.3165  138.6885  154.7485 O   0  0  0  0  0  0  0  0  0  0  0  0
  147.7562  140.6051  154.4665 C   0  0  2  0  0  0  0  0  0  0  0  0
  147.4882  140.2637  153.1200 O   0  0  0  0  0  0  0  0  0  0  0  0
  149.2230  140.9215  154.7179 C   0  0  2  0  0  0  0  0  0  0  0  0
  150.0965  140.0948  153.9625 O   0  0  0  0  0  0  0  0  0  0  0  0
  154.9088  137.3322  162.5483 C   0  0  0  0  0  0  0  0  0  0  0  0
  154.7112  136.0025  163.1984 C   0  0  0  0  0  0  0  0  0  0  0  0
  155.2287  138.3471  163.3993 O   0  0  0  0  0  0  0  0  0  0  0  0
  149.2510  141.6107  156.8125 H   0  0  0  0  0  0  0  0  0  0  0  0
  147.9124  138.5363  155.0471 H   0  0  0  0  0  0  0  0  0  0  0  0
  147.1485  141.4685  154.7418 H   0  0  0  0  0  0  0  0  0  0  0  0
  149.4581  141.9630  154.4956 H   0  0  0  0  0  0  0  0  0  0  0  0
  155.7920  141.5611  162.6947 H   0  0  0  0  0  0  0  0  0  0  0  0
  156.6710  140.6100  163.8933 H   0  0  0  0  0  0  0  0  0  0  0  0
  154.9546  140.9524  164.1233 H   0  0  0  0  0  0  0  0  0  0  0  0
  155.1886  139.8812  160.5176 H   0  0  0  0  0  0  0  0  0  0  0  0
  156.4875  136.1250  159.7756 H   0  0  0  0  0  0  0  0  0  0  0  0
  155.2276  135.2425  158.9247 H   0  0  0  0  0  0  0  0  0  0  0  0
  155.3518  135.1305  160.6777 H   0  0  0  0  0  0  0  0  0  0  0  0
  152.6680  136.9772  160.5839 H   0  0  0  0  0  0  0  0  0  0  0  0
  153.9016  138.7559  158.8519 H   0  0  0  0  0  0  0  0  0  0  0  0
  155.5847  138.3440  158.6082 H   0  0  0  0  0  0  0  0  0  0  0  0
  154.8380  136.5319  157.1541 H   0  0  0  0  0  0  0  0  0  0  0  0
  150.6049  135.7437  155.4034 H   0  0  0  0  0  0  0  0  0  0  0  0
  151.6129  141.7020  157.6246 H   0  0  0  0  0  0  0  0  0  0  0  0
  145.8970  138.7048  156.7281 H   0  0  0  0  0  0  0  0  0  0  0  0
  145.5587  140.2649  155.9959 H   0  0  0  0  0  0  0  0  0  0  0  0
  144.9508  139.3698  154.2053 H   0  0  0  0  0  0  0  0  0  0  0  0
  148.3117  140.0796  152.6931 H   0  0  0  0  0  0  0  0  0  0  0  0
  149.6546  139.8413  153.1666 H   0  0  0  0  0  0  0  0  0  0  0  0
  155.3759  135.2568  162.7625 H   0  0  0  0  0  0  0  0  0  0  0  0
  153.6845  135.6591  163.0708 H   0  0  0  0  0  0  0  0  0  0  0  0
  154.9179  136.0509  164.2679 H   0  0  0  0  0  0  0  0  0  0  0  0
  1  2  1  0  0  0  0
  1 35  1  0  0  0  0
  1 36  1  0  0  0  0
  1 37  1  0  0  0  0
  2 30  1  0  0  0  0
  2  3  2  0  0  0  0
  3  4  1  0  0  0  0
  3 38  1  0  0  0  0
  4  5  1  0  0  0  0
  4 28  2  0  0  0  0
  5  6  1  0  0  0  0
  5  7  1  0  0  0  0
  5  8  1  0  0  0  0
  6 39  1  0  0  0  0
  6 40  1  0  0  0  0
  6 41  1  0  0  0  0
  7 42  1  0  0  0  0
  8  9  1  0  0  0  0
  8 43  1  0  0  0  0
  8 44  1  0  0  0  0
  9 10  1  0  0  0  0
  9 45  1  0  0  0  0
 10 15  1  0  0  0  0
 10 11  2  0  0  0  0
 11 12  1  0  0  0  0
 12 13  2  0  0  0  0
 12 46  1  0  0  0  0
 13 14  1  0  0  0  0
 14 18  1  0  0  0  0
 14 15  2  0  0  0  0
 15 16  1  0  0  0  0
 16 17  2  0  0  0  0
 17 18  1  0  0  0  0
 17 47  1  0  0  0  0
 18 19  1  0  0  0  0
 19 31  1  0  0  0  0
 19 26  1  0  0  0  0
 19 20  1  0  0  0  0
 20 21  1  0  0  0  0
 21 32  1  0  0  0  0
 21 22  1  0  0  0  0
 21 24  1  0  0  0  0
 22 23  1  0  0  0  0
 22 48  1  0  0  0  0
 22 49  1  0  0  0  0
 23 50  1  0  0  0  0
 24 33  1  0  0  0  0
 24 25  1  0  0  0  0
 24 26  1  0  0  0  0
 25 51  1  0  0  0  0
 26 34  1  0  0  0  0
 26 27  1  0  0  0  0
 27 52  1  0  0  0  0
 28 29  1  0  0  0  0
 28 30  1  0  0  0  0
 29 53  1  0  0  0  0
 29 54  1  0  0  0  0
 29 55  1  0  0  0  0
M  END
> <s_m_source_file>
AV-unprocessed.smi

> <i_m_source_file_index>
287

> <i_lp_mmshare_version>
43012

> <i_f3d_flags>
0

> <s_epik_input>
W0NIM11jMVtjSF1jKGMobzEpW0NIM10pW0NAQF0oW0NIM10pKFtPSF0pW0NIMl1bTkhdYyhuW2NIXW4yKWMoYzIzKW5bY0hdbjNbQ0BASF00T1tDQEhdKFtDSDJdW09IXSlbQ0BASF0oW09IXSlbQ0BIXTRbT0hd

> <s_epik_cmdline>
J2VwaWtfcHl0aG9uJywgJy1waCcsICc3LjAnLCAnLXRuJywgJzgnLCAnLW1hJywgJzIwMCcsICctbWV0YWxfYmluZGluZycsICctaW1hZScsICc8aW5maWxlLm1hZT4nLCAnLW9tYWUnLCAnPG91dGZpbGUubWFlPic=

> <r_lp_tautomer_probability>
1

> <r_epik_Ionization_Penalty>
0.000992612

> <r_epik_Ionization_Penalty_Charging>
0

> <r_epik_Ionization_Penalty_Neutral>
0.000992612

> <r_epik_State_Penalty>
-0

> <r_epik_Charging_Adjusted_Penalty>
0

> <i_epik_Tot_Q>
0

> <i_epik_Tot_abs_Q>
0

> <r_epik_Metal_State_Penalty>
-0

> <b_epik_Metal_Only>
0

> <s_epik_Chemistry_Notes>
This compound contains an acetal/aminal-like group ( X-CH(R)-Y where X, Y are N, S, or O) that may be acid/base labile, releasing an aldehyde.

> <s_lp_Force_Field>
OPLS_2005

> <r_lp_Energy>
50.5208

> <b_lp_Chiralities_Consistent>
1

> <s_lp_Variant>
AV-unprocessed.smi:287-29

> <Gold.Version>
5.8.1

> <Gold.Id.Protein>
6NUR|6NUR_protein|mol2

> <Gold.PLP.Fitness>
53.2246

> <Gold.PLP.PLP>
-34.2699

> <Gold.PLP.part.hbond>
-6.7642

> <Gold.PLP.part.metal>
0.0000

> <Gold.PLP.part.buried>
-3.9089

> <Gold.PLP.part.nonpolar>
-24.1736

> <Gold.PLP.part.repulsive>
0.2269

> <Gold.PLP.ligand.clash>
0.0000

> <Gold.PLP.ligand.torsion>
0.8042

> <Gold.PLP.Chemscore.Hbond>
6.7680

> <Gold.PLP.Chemscore.CHOScore>
0.0000

> <Gold.PLP.Chemscore.Metal>
0.0000

> <Gold.Chemscore.Hbonds>
donor molecule, donor type, donor heavy atom, donor atom, acceptor molecule, acceptor atom, score
      L1  H    23    50       P1 10175  0.05
      L1  H    25    51       P1  7957  1.00
      L1  H    27    52       P1  7957  0.90
      P1  H  6896  6907       L1     7  0.85
      P1  H  7989  7998       L1    27  0.90
      P1  H  7997  8010       L1    16  0.95
      P1  H 10752 10764       L1    11  1.00

> <Gold.PLP.Chemscore.Internal.Correction>
0.2591

> <Gold.Rescore>
     Score         DG    S(hbond)    S(metal)    S(lipo)     H(rot)  DE(clash)    DE(int)     intcor
     12.74     -15.87       4.63        0.00      71.77       5.27       0.23       2.90       ----

> <Gold.Chemscore.Fitness>
12.7410

> <Gold.Chemscore.DG>
-15.8696

> <Gold.Chemscore.ZeroCoef>
-5.4800

> <Gold.Chemscore.Hbond>
4.6337

> <Gold.Chemscore.Metal>
0.0000

> <Gold.Chemscore.Lipo>
71.7678

> <Gold.Chemscore.Internal_Hbond>
0.0000

> <Gold.Chemscore.DEClash>
0.2261

> <Gold.Chemscore.DEInternal>
2.9025

> <Gold.Chemscore.Rot>
5.2672

> <Gold.Chemscore.Internal.Correction>
   9.000000E+99

> <Gold.Chemscore.Hbonds>
donor molecule, donor type, donor heavy atom, donor atom, acceptor molecule, acceptor atom, score
      L1  H    23    50       P1 10175  0.10
      L1  H    25    51       P1  7957  0.94
      L1  H    27    52       P1  7957  0.83
      P1  H  6896  6907       L1     7  0.15
      P1  H  7989  7998       L1    27  0.44
      P1  H  7997  8010       L1    16  0.21
      P1  H 10752 10764       L1    11  0.42

> <Gold.Chemscore.Hbond.Weighted>
-15.4767

> <Gold.Chemscore.Metal.Weighted>
-0.0000

> <Gold.Chemscore.Lipo.Weighted>
-8.3968

> <Gold.Chemscore.Internal_Hbond.Weighted>
0.0000

> <Gold.Chemscore.DEClash.Weighted>
0.2261

> <Gold.Chemscore.DEInternal.Weighted>
2.9025

> <Gold.Chemscore.Rot.Weighted>
13.4839

> <Gold.Chemscore.Internal.Correction.Weighted>
   9.000000E+99

> <Gold.Protein.RotatedTorsions>
[ 6907 6896 6895 6894 ] final   39.31 input  -60.11 | X-H torsion
[ 7974 7965 7964 7962 ] final  -76.79 input  175.53 | X-H torsion
[ 8008 7997 7996 7995 ] final   49.88 input   59.86 | X-H torsion
[ 10167 10162 10161 10158 ] final   87.34 input  -65.29 | X-H torsion
[ 10718 10713 10712 10709 ] final   82.83 input   66.30 | X-H torsion
[ 10763 10752 10751 10750 ] final  -28.48 input  -60.55 | X-H torsion
[ 11005 11000 10999 10996 ] final -132.53 input  -57.11 | X-H torsion

> <Gold.Protein.ActiveResidues>
 VAL166  LYS551  ARG553  GLY616  TRP617  ASP618  TYR619  PRO620  LYS621  CYS622 
 ASP623  PHE694  ASN695  SER759  ASP760  ASP761  ALA762  ILE779  LEU786  VAL792 
 PHE793  MET794  SER795  GLU796  ALA797  LYS798  CYS799  TRP800  GLU811  SER814 

> <Gold.Protein.RotatedAtoms>
  152.1679  134.8858  160.0536 H   0  0  0  0  0  0  0  0  0  0  0  0  # atno 6907 bound_to 6896
  151.9830  133.3759  159.4123 H   0  0  0  0  0  0  0  0  0  0  0  0  # atno 6908 bound_to 6896
  150.6897  134.3941  159.5133 H   0  0  0  0  0  0  0  0  0  0  0  0  # atno 6909 bound_to 6896
  145.6083  140.9393  143.1203 H   0  0  0  0  0  0  0  0  0  0  0  0  # atno 7974 bound_to 7965
  155.4095  140.3441  155.4262 H   0  0  0  0  0  0  0  0  0  0  0  0  # atno 8008 bound_to 7997
  156.1457  140.1555  156.8883 H   0  0  0  0  0  0  0  0  0  0  0  0  # atno 8009 bound_to 7997
  154.5008  140.0815  156.7775 H   0  0  0  0  0  0  0  0  0  0  0  0  # atno 8010 bound_to 7997
  139.8783  144.6454  150.8871 H   0  0  0  0  0  0  0  0  0  0  0  0  # atno 10167 bound_to 10162
  157.6866  131.0065  150.2433 H   0  0  0  0  0  0  0  0  0  0  0  0  # atno 10718 bound_to 10713
  153.7490  135.6927  153.4950 H   0  0  0  0  0  0  0  0  0  0  0  0  # atno 10763 bound_to 10752
  153.2016  135.4434  155.0272 H   0  0  0  0  0  0  0  0  0  0  0  0  # atno 10764 bound_to 10752
  154.8194  135.3414  154.7012 H   0  0  0  0  0  0  0  0  0  0  0  0  # atno 10765 bound_to 10752
  140.9162  134.1503  157.4350 H   0  0  0  0  0  0  0  0  0  0  0  0  # atno 11005 bound_to 11000
  144.7281  139.7812  143.7357 LP  0  0  0  0  0  0  0  0  0  0  0  0  # atno 17320 bound_to 7965
  146.1524  139.4611  143.0040 LP  0  0  0  0  0  0  0  0  0  0  0  0  # atno 17321 bound_to 7965
  140.7749  143.3606  151.1835 LP  0  0  0  0  0  0  0  0  0  0  0  0  # atno 17342 bound_to 10162
  139.7219  143.9209  152.2988 LP  0  0  0  0  0  0  0  0  0  0  0  0  # atno 17343 bound_to 10162
  156.3043  130.3763  149.7721 LP  0  0  0  0  0  0  0  0  0  0  0  0  # atno 17370 bound_to 10713
  156.5341  130.8271  151.3247 LP  0  0  0  0  0  0  0  0  0  0  0  0  # atno 17371 bound_to 10713
  139.8766  134.9954  156.5744 LP  0  0  0  0  0  0  0  0  0  0  0  0  # atno 17394 bound_to 11000
  140.8047  133.8477  155.8757 LP  0  0  0  0  0  0  0  0  0  0  0  0  # atno 17395 bound_to 11000

$$$$
