AV-unprocessed.smi:1362|AV-procd|sdf|5563|dock1
  -GOLD-   22720 5153D 1   1.00000     0.00000
 Structure written by MMmdl.
 38 38  0  0  0  0  0  0  0  0  2 V2000
  150.4468  135.1869  154.6579 C   0  0  0  0  0  0  0  0  0  0  0  0
  150.6456  136.6663  154.9090 C   0  0  0  0  0  0  0  0  0  0  0  0
  149.6593  137.4647  154.7527 N   0  0  0  0  0  0  0  0  0  0  0  0
  149.8392  138.8392  154.9837 C   0  0  0  0  0  0  0  0  0  0  0  0
  148.6160  139.7143  154.7699 C   0  0  0  0  0  0  0  0  0  0  0  0
  151.0475  139.3370  155.3746 C   0  0  0  0  0  0  0  0  0  0  0  0
  151.2931  140.8232  155.6335 C   0  0  0  0  0  0  0  0  0  0  0  0
  150.8125  141.3563  156.9853 C   0  0  0  0  0  0  0  0  0  0  0  0
  149.6649  141.1360  157.3735 O   0  0  0  0  0  0  0  0  0  0  0  0
  151.7075  142.0642  157.6916 N   0  0  0  0  0  0  0  0  0  0  0  0
  151.4633  142.6996  158.9857 C   0  0  1  0  0  0  0  0  0  0  0  0
  152.5039  142.1844  159.9984 C   0  0  0  0  0  0  0  0  0  0  0  0
  151.4688  144.2436  158.8297 C   0  0  0  0  0  0  0  0  0  0  0  0
  152.7130  144.7539  158.0801 C   0  0  0  0  0  0  0  0  0  0  0  0
  151.3554  144.9683  160.1858 C   0  0  0  0  0  0  0  0  0  0  0  0
  152.1569  138.3825  155.5489 C   0  0  0  0  0  0  0  0  0  0  0  0
  153.2640  138.7761  155.9142 O   0  0  0  0  0  0  0  0  0  0  0  0
  151.9049  137.0666  155.2952 N   0  5  0  0  0  0  0  0  0  0  0  0
  149.3868  134.9409  154.5818 H   0  0  0  0  0  0  0  0  0  0  0  0
  150.8737  134.6005  155.4723 H   0  0  0  0  0  0  0  0  0  0  0  0
  150.9354  134.8950  153.7280 H   0  0  0  0  0  0  0  0  0  0  0  0
  148.7889  140.4217  153.9588 H   0  0  0  0  0  0  0  0  0  0  0  0
  148.3794  140.2738  155.6753 H   0  0  0  0  0  0  0  0  0  0  0  0
  147.7426  139.1146  154.5110 H   0  0  0  0  0  0  0  0  0  0  0  0
  152.3505  141.0664  155.5283 H   0  0  0  0  0  0  0  0  0  0  0  0
  150.8007  141.3892  154.8421 H   0  0  0  0  0  0  0  0  0  0  0  0
  152.6256  142.1909  157.2913 H   0  0  0  0  0  0  0  0  0  0  0  0
  150.4724  142.4044  159.3365 H   0  0  0  0  0  0  0  0  0  0  0  0
  152.2933  142.5342  161.0085 H   0  0  0  0  0  0  0  0  0  0  0  0
  153.5109  142.5076  159.7329 H   0  0  0  0  0  0  0  0  0  0  0  0
  152.5069  141.0947  160.0397 H   0  0  0  0  0  0  0  0  0  0  0  0
  150.5956  144.5263  158.2397 H   0  0  0  0  0  0  0  0  0  0  0  0
  153.6314  144.4461  158.5811 H   0  0  0  0  0  0  0  0  0  0  0  0
  152.7169  145.8428  158.0231 H   0  0  0  0  0  0  0  0  0  0  0  0
  152.7497  144.3864  157.0551 H   0  0  0  0  0  0  0  0  0  0  0  0
  152.1796  144.6985  160.8469 H   0  0  0  0  0  0  0  0  0  0  0  0
  150.4248  144.7303  160.7011 H   0  0  0  0  0  0  0  0  0  0  0  0
  151.3764  146.0506  160.0550 H   0  0  0  0  0  0  0  0  0  0  0  0
  1  2  1  0  0  0  0
  1 19  1  0  0  0  0
  1 20  1  0  0  0  0
  1 21  1  0  0  0  0
  2 18  1  0  0  0  0
  2  3  2  0  0  0  0
  3  4  1  0  0  0  0
  4  5  1  0  0  0  0
  4  6  2  0  0  0  0
  5 22  1  0  0  0  0
  5 23  1  0  0  0  0
  5 24  1  0  0  0  0
  6  7  1  0  0  0  0
  6 16  1  0  0  0  0
  7  8  1  0  0  0  0
  7 25  1  0  0  0  0
  7 26  1  0  0  0  0
  8  9  2  0  0  0  0
  8 10  1  0  0  0  0
 10 11  1  0  0  0  0
 10 27  1  0  0  0  0
 11 12  1  0  0  0  0
 11 13  1  0  0  0  0
 11 28  1  0  0  0  0
 12 29  1  0  0  0  0
 12 30  1  0  0  0  0
 12 31  1  0  0  0  0
 13 14  1  0  0  0  0
 13 15  1  0  0  0  0
 13 32  1  0  0  0  0
 14 33  1  0  0  0  0
 14 34  1  0  0  0  0
 14 35  1  0  0  0  0
 15 36  1  0  0  0  0
 15 37  1  0  0  0  0
 15 38  1  0  0  0  0
 16 17  2  0  0  0  0
 16 18  1  0  0  0  0
M  CHG  1  18  -1
M  END
> <s_m_source_file>
AV-unprocessed.smi

> <i_m_source_file_index>
1362

> <i_lp_mmshare_version>
43012

> <i_f3d_flags>
0

> <s_epik_input>
W0NIM11jMW5jKFtDSDNdKWMoYyg9TylbbkhdMSlbQ0gyXUMoPU8pW05IXVtDQEhdKFtDSDNdKVtDSF0oW0NIM10pW0NIM10=

> <s_epik_cmdline>
J2VwaWtfcHl0aG9uJywgJy1waCcsICc3LjAnLCAnLXRuJywgJzgnLCAnLW1hJywgJzIwMCcsICctbWV0YWxfYmluZGluZycsICctaW1hZScsICc8aW5maWxlLm1hZT4nLCAnLW9tYWUnLCAnPG91dGZpbGUubWFlPic=

> <r_lp_tautomer_probability>
0.839158

> <r_epik_Ionization_Penalty>
6.62204

> <r_epik_Ionization_Penalty_Charging>
7.30593e-08

> <r_epik_Ionization_Penalty_Neutral>
6.62204

> <r_epik_State_Penalty>
4.44062

> <r_epik_Charging_Adjusted_Penalty>
4.44062

> <i_epik_Tot_Q>
-1

> <i_epik_Tot_abs_Q>
1

> <r_epik_Metal_State_Penalty>
0.802984

> <b_epik_Metal_Only>
1

> <s_lp_Force_Field>
OPLS_2005

> <r_lp_Energy>
10.9313

> <b_lp_Chiralities_Consistent>
1

> <s_lp_Variant>
AV-unprocessed.smi:1362-6

> <Gold.Version>
5.8.1

> <Gold.Id.Protein>
6NUR|6NUR_protein|mol2

> <Gold.PLP.Fitness>
44.0622

> <Gold.PLP.PLP>
-35.9594

> <Gold.PLP.part.hbond>
-2.0000

> <Gold.PLP.part.metal>
0.0000

> <Gold.PLP.part.buried>
-3.2869

> <Gold.PLP.part.nonpolar>
-31.0730

> <Gold.PLP.part.repulsive>
0.3584

> <Gold.PLP.ligand.clash>
0.0000

> <Gold.PLP.ligand.torsion>
0.4871

> <Gold.PLP.Chemscore.Hbond>
3.0000

> <Gold.PLP.Chemscore.CHOScore>
0.0000

> <Gold.PLP.Chemscore.Metal>
0.0000

> <Gold.Chemscore.Hbonds>
donor molecule, donor type, donor heavy atom, donor atom, acceptor molecule, acceptor atom, score
      P1  H  7997  8008       L1    17  1.00
      P1  H 10752 10765       L1    18  2.00

> <Gold.PLP.Chemscore.Internal.Correction>
0.0769

> <Gold.Rescore>
     Score         DG    S(hbond)    S(metal)    S(lipo)     H(rot)  DE(clash)    DE(int)     intcor
     16.61     -17.22       1.74        0.00      86.75       1.64       0.10       0.51       ----

> <Gold.Chemscore.Fitness>
16.6123

> <Gold.Chemscore.DG>
-17.2238

> <Gold.Chemscore.ZeroCoef>
-5.4800

> <Gold.Chemscore.Hbond>
1.7368

> <Gold.Chemscore.Metal>
0.0000

> <Gold.Chemscore.Lipo>
86.7497

> <Gold.Chemscore.Internal_Hbond>
0.0000

> <Gold.Chemscore.DEClash>
0.0980

> <Gold.Chemscore.DEInternal>
0.5134

> <Gold.Chemscore.Rot>
1.6433

> <Gold.Chemscore.Internal.Correction>
   9.000000E+99

> <Gold.Chemscore.Hbonds>
donor molecule, donor type, donor heavy atom, donor atom, acceptor molecule, acceptor atom, score
      P1  H  7997  8008       L1    17  0.95
      P1  H 10752 10765       L1    18  0.29

> <Gold.Chemscore.Hbond.Weighted>
-5.8010

> <Gold.Chemscore.Metal.Weighted>
-0.0000

> <Gold.Chemscore.Lipo.Weighted>
-10.1497

> <Gold.Chemscore.Internal_Hbond.Weighted>
0.0000

> <Gold.Chemscore.DEClash.Weighted>
0.0980

> <Gold.Chemscore.DEInternal.Weighted>
0.5134

> <Gold.Chemscore.Rot.Weighted>
4.2069

> <Gold.Chemscore.Internal.Correction.Weighted>
   9.000000E+99

> <Gold.Protein.RotatedTorsions>
[ 6907 6896 6895 6894 ] final  165.41 input  -60.11 | X-H torsion
[ 7974 7965 7964 7962 ] final  164.13 input  175.53 | X-H torsion
[ 8008 7997 7996 7995 ] final  -39.80 input   59.86 | X-H torsion
[ 10167 10162 10161 10158 ] final  -32.66 input  -65.29 | X-H torsion
[ 10718 10713 10712 10709 ] final  -42.48 input   66.30 | X-H torsion
[ 10763 10752 10751 10750 ] final -174.47 input  -60.55 | X-H torsion
[ 11005 11000 10999 10996 ] final   -5.44 input  -57.11 | X-H torsion

> <Gold.Protein.ActiveResidues>
 VAL166  LYS551  ARG553  GLY616  TRP617  ASP618  TYR619  PRO620  LYS621  CYS622 
 ASP623  PHE694  ASN695  SER759  ASP760  ASP761  ALA762  ILE779  LEU786  VAL792 
 PHE793  MET794  SER795  GLU796  ALA797  LYS798  CYS799  TRP800  GLU811  SER814 

> <Gold.Protein.RotatedAtoms>
  151.8948  133.3524  159.3810 H   0  0  0  0  0  0  0  0  0  0  0  0  # atno 6907 bound_to 6896
  150.7094  134.4887  159.5514 H   0  0  0  0  0  0  0  0  0  0  0  0  # atno 6908 bound_to 6896
  152.2464  134.8177  160.0503 H   0  0  0  0  0  0  0  0  0  0  0  0  # atno 6909 bound_to 6896
  144.7558  139.8282  143.6350 H   0  0  0  0  0  0  0  0  0  0  0  0  # atno 7974 bound_to 7965
  154.4019  140.1542  156.2922 H   0  0  0  0  0  0  0  0  0  0  0  0  # atno 8008 bound_to 7997
  155.8775  140.3445  155.5842 H   0  0  0  0  0  0  0  0  0  0  0  0  # atno 8009 bound_to 7997
  155.7705  140.0829  157.2101 H   0  0  0  0  0  0  0  0  0  0  0  0  # atno 8010 bound_to 7997
  140.7217  143.3678  151.1837 H   0  0  0  0  0  0  0  0  0  0  0  0  # atno 10167 bound_to 10162
  156.2591  130.4195  149.8562 H   0  0  0  0  0  0  0  0  0  0  0  0  # atno 10718 bound_to 10713
  154.5958  135.2849  155.0588 H   0  0  0  0  0  0  0  0  0  0  0  0  # atno 10763 bound_to 10752
  154.1871  135.6447  153.5053 H   0  0  0  0  0  0  0  0  0  0  0  0  # atno 10764 bound_to 10752
  153.0138  135.5437  154.6660 H   0  0  0  0  0  0  0  0  0  0  0  0  # atno 10765 bound_to 10752
  140.6912  133.9069  155.8619 H   0  0  0  0  0  0  0  0  0  0  0  0  # atno 11005 bound_to 11000
  146.1567  139.4667  143.0014 LP  0  0  0  0  0  0  0  0  0  0  0  0  # atno 17320 bound_to 7965
  145.6783  141.0198  143.1620 LP  0  0  0  0  0  0  0  0  0  0  0  0  # atno 17321 bound_to 7965
  139.7243  143.9173  152.2997 LP  0  0  0  0  0  0  0  0  0  0  0  0  # atno 17342 bound_to 10162
  139.8941  144.6949  150.8738 LP  0  0  0  0  0  0  0  0  0  0  0  0  # atno 17343 bound_to 10162
  156.6084  130.8576  151.3448 LP  0  0  0  0  0  0  0  0  0  0  0  0  # atno 17370 bound_to 10713
  157.7244  130.9602  150.1571 LP  0  0  0  0  0  0  0  0  0  0  0  0  # atno 17371 bound_to 10713
  141.0240  134.0850  157.4089 LP  0  0  0  0  0  0  0  0  0  0  0  0  # atno 17394 bound_to 11000
  139.8923  135.0124  156.6838 LP  0  0  0  0  0  0  0  0  0  0  0  0  # atno 17395 bound_to 11000

$$$$
