AV-unprocessed.smi:2001|AV-procd|sdf|8107|dock5
  -GOLD-   2272010333D 1   1.00000     0.00000
 Structure written by MMmdl.
 51 52  0  0  0  0  0  0  0  0  2 V2000
  151.3038  143.7478  159.0402 C   0  0  0  0  0  0  0  0  0  0  0  0
  150.6468  142.4928  159.0461 O   0  0  0  0  0  0  0  0  0  0  0  0
  150.5808  141.9053  157.7573 C   0  0  0  0  0  0  0  0  0  0  0  0
  150.9196  140.4081  157.8463 C   0  0  0  0  0  0  0  0  0  0  0  0
  150.8032  139.7450  156.5425 N   0  0  0  0  0  0  0  0  0  0  0  0
  149.5253  139.7787  156.0085 N   0  0  0  0  0  0  0  0  0  0  0  0
  149.2869  139.2394  154.8568 C   0  0  0  0  0  0  0  0  0  0  0  0
  147.9258  139.2509  154.2515 C   0  0  0  0  0  0  0  0  0  0  0  0
  147.0974  140.1210  154.5248 O   0  0  0  0  0  0  0  0  0  0  0  0
  147.6698  138.2533  153.3879 N   0  0  0  0  0  0  0  0  0  0  0  0
  146.4155  138.0892  152.6672 C   0  0  0  0  0  0  0  0  0  0  0  0
  145.6100  136.9183  153.2524 C   0  0  0  0  0  0  0  0  0  0  0  0
  146.1200  135.5977  152.8065 N   0  3  1  0  0  0  0  0  0  0  0  0
  146.4911  134.7258  153.9446 C   0  0  0  0  0  0  0  0  0  0  0  0
  147.1178  133.4149  153.4381 C   0  0  1  0  0  0  0  0  0  0  0  0
  147.4357  132.4520  154.5874 C   0  0  0  0  0  0  0  0  0  0  0  0
  146.2055  132.7641  152.5574 O   0  0  0  0  0  0  0  0  0  0  0  0
  145.8032  133.5405  151.4288 C   0  0  2  0  0  0  0  0  0  0  0  0
  146.9338  133.6998  150.3967 C   0  0  0  0  0  0  0  0  0  0  0  0
  145.1983  134.8814  151.8903 C   0  0  0  0  0  0  0  0  0  0  0  0
  150.3478  138.5920  154.1041 C   0  0  0  0  0  0  0  0  0  0  0  0
  151.5890  138.5677  154.6370 C   0  0  0  0  0  0  0  0  0  0  0  0
  151.8868  139.1710  155.9369 C   0  0  0  0  0  0  0  0  0  0  0  0
  153.0104  139.1634  156.4386 O   0  0  0  0  0  0  0  0  0  0  0  0
  151.3265  144.1531  160.0519 H   0  0  0  0  0  0  0  0  0  0  0  0
  150.7827  144.4630  158.4023 H   0  0  0  0  0  0  0  0  0  0  0  0
  152.3331  143.6524  158.6921 H   0  0  0  0  0  0  0  0  0  0  0  0
  149.5729  142.0253  157.3571 H   0  0  0  0  0  0  0  0  0  0  0  0
  151.2633  142.4100  157.0712 H   0  0  0  0  0  0  0  0  0  0  0  0
  151.9106  140.2707  158.2824 H   0  0  0  0  0  0  0  0  0  0  0  0
  150.2322  139.9306  158.5469 H   0  0  0  0  0  0  0  0  0  0  0  0
  148.3972  137.5735  153.2169 H   0  0  0  0  0  0  0  0  0  0  0  0
  145.8554  139.0223  152.7319 H   0  0  0  0  0  0  0  0  0  0  0  0
  146.6252  137.9091  151.6116 H   0  0  0  0  0  0  0  0  0  0  0  0
  145.6756  136.9736  154.3402 H   0  0  0  0  0  0  0  0  0  0  0  0
  144.5522  137.0106  153.0008 H   0  0  0  0  0  0  0  0  0  0  0  0
  147.2023  135.2428  154.5900 H   0  0  0  0  0  0  0  0  0  0  0  0
  145.6054  134.5167  154.5472 H   0  0  0  0  0  0  0  0  0  0  0  0
  148.0479  133.6316  152.9123 H   0  0  0  0  0  0  0  0  0  0  0  0
  148.1390  132.8986  155.2909 H   0  0  0  0  0  0  0  0  0  0  0  0
  147.8824  131.5308  154.2120 H   0  0  0  0  0  0  0  0  0  0  0  0
  146.5345  132.1840  155.1398 H   0  0  0  0  0  0  0  0  0  0  0  0
  145.0117  132.9713  150.9403 H   0  0  0  0  0  0  0  0  0  0  0  0
  146.5620  134.1726  149.4871 H   0  0  0  0  0  0  0  0  0  0  0  0
  147.3441  132.7292  150.1174 H   0  0  0  0  0  0  0  0  0  0  0  0
  147.7525  134.3151  150.7688 H   0  0  0  0  0  0  0  0  0  0  0  0
  144.2550  134.6976  152.4073 H   0  0  0  0  0  0  0  0  0  0  0  0
  144.9636  135.4919  151.0189 H   0  0  0  0  0  0  0  0  0  0  0  0
  150.1573  138.1388  153.1421 H   0  0  0  0  0  0  0  0  0  0  0  0
  152.3873  138.0895  154.0887 H   0  0  0  0  0  0  0  0  0  0  0  0
  146.9725  135.7739  152.2938 H   0  0  0  0  0  0  0  0  0  0  0  0
  1  2  1  0  0  0  0
  1 25  1  0  0  0  0
  1 26  1  0  0  0  0
  1 27  1  0  0  0  0
  2  3  1  0  0  0  0
  3  4  1  0  0  0  0
  3 28  1  0  0  0  0
  3 29  1  0  0  0  0
  4  5  1  0  0  0  0
  4 30  1  0  0  0  0
  4 31  1  0  0  0  0
  5 23  1  0  0  0  0
  5  6  1  0  0  0  0
  6  7  2  0  0  0  0
  7  8  1  0  0  0  0
  7 21  1  0  0  0  0
  8  9  2  0  0  0  0
  8 10  1  0  0  0  0
 10 11  1  0  0  0  0
 10 32  1  0  0  0  0
 11 12  1  0  0  0  0
 11 33  1  0  0  0  0
 11 34  1  0  0  0  0
 12 13  1  0  0  0  0
 12 35  1  0  0  0  0
 12 36  1  0  0  0  0
 13 20  1  0  0  0  0
 13 14  1  0  0  0  0
 13 51  1  0  0  0  0
 14 15  1  0  0  0  0
 14 37  1  0  0  0  0
 14 38  1  0  0  0  0
 15 16  1  0  0  0  0
 15 17  1  0  0  0  0
 15 39  1  0  0  0  0
 16 40  1  0  0  0  0
 16 41  1  0  0  0  0
 16 42  1  0  0  0  0
 17 18  1  0  0  0  0
 18 19  1  0  0  0  0
 18 20  1  0  0  0  0
 18 43  1  0  0  0  0
 19 44  1  0  0  0  0
 19 45  1  0  0  0  0
 19 46  1  0  0  0  0
 20 47  1  0  0  0  0
 20 48  1  0  0  0  0
 21 22  2  0  0  0  0
 21 49  1  0  0  0  0
 22 23  1  0  0  0  0
 22 50  1  0  0  0  0
 23 24  2  0  0  0  0
M  CHG  1  13   1
M  END
> <s_m_source_file>
AV-unprocessed.smi

> <i_m_source_file_index>
2001

> <i_lp_mmshare_version>
43012

> <i_f3d_flags>
0

> <s_epik_input>
W0NIM11PW0NIMl1bQ0gyXW4xbmMoW2NIXVtjSF1jMT1PKUMoPU8pW05IXVtDSDJdW0NIMl1OMltDSDJdW0NAQEhdKFtDSDNdKU9bQ0BASF0oW0NIM10pW0NIMl0y

> <s_epik_cmdline>
J2VwaWtfcHl0aG9uJywgJy1waCcsICc3LjAnLCAnLXRuJywgJzgnLCAnLW1hJywgJzIwMCcsICctbWV0YWxfYmluZGluZycsICctaW1hZScsICc8aW5maWxlLm1hZT4nLCAnLW9tYWUnLCAnPG91dGZpbGUubWFlPic=

> <r_lp_tautomer_probability>
1

> <r_epik_Ionization_Penalty>
0.724354

> <r_epik_Ionization_Penalty_Charging>
0.724348

> <r_epik_Ionization_Penalty_Neutral>
6.1656e-06

> <r_epik_State_Penalty>
0.749058

> <r_epik_Charging_Adjusted_Penalty>
1.47341

> <i_epik_Tot_Q>
1

> <i_epik_Tot_abs_Q>
1

> <r_epik_Metal_State_Penalty>
0.750779

> <b_epik_Metal_Only>
0

> <s_lp_Force_Field>
OPLS_2005

> <r_lp_Energy>
40.2428

> <b_lp_Chiralities_Consistent>
1

> <s_lp_Variant>
AV-unprocessed.smi:2001-6

> <Gold.Version>
5.8.1

> <Gold.Id.Protein>
6NUR|6NUR_protein|mol2

> <Gold.PLP.Fitness>
48.5788

> <Gold.PLP.PLP>
-40.2430

> <Gold.PLP.part.hbond>
-4.0000

> <Gold.PLP.part.metal>
0.0000

> <Gold.PLP.part.buried>
-4.0737

> <Gold.PLP.part.nonpolar>
-32.9205

> <Gold.PLP.part.repulsive>
0.4834

> <Gold.PLP.ligand.clash>
0.0000

> <Gold.PLP.ligand.torsion>
1.4856

> <Gold.PLP.Chemscore.Hbond>
3.6880

> <Gold.PLP.Chemscore.CHOScore>
0.0000

> <Gold.PLP.Chemscore.Metal>
0.0000

> <Gold.Chemscore.Hbonds>
donor molecule, donor type, donor heavy atom, donor atom, acceptor molecule, acceptor atom, score
      L1  H    10    32       P1  7948  0.82
      L1  H    13    51       P1  7948  1.85
      P1  H  7997  8010       L1    24  1.00

> <Gold.PLP.Chemscore.Internal.Correction>
0.2431

> <Gold.Rescore>
     Score         DG    S(hbond)    S(metal)    S(lipo)     H(rot)  DE(clash)    DE(int)     intcor
     16.67     -18.75       2.58        0.00      85.22       2.07       0.34       1.75       ----

> <Gold.Chemscore.Fitness>
16.6687

> <Gold.Chemscore.DG>
-18.7524

> <Gold.Chemscore.ZeroCoef>
-5.4800

> <Gold.Chemscore.Hbond>
2.5768

> <Gold.Chemscore.Metal>
0.0000

> <Gold.Chemscore.Lipo>
85.2179

> <Gold.Chemscore.Internal_Hbond>
0.0000

> <Gold.Chemscore.DEClash>
0.3353

> <Gold.Chemscore.DEInternal>
1.7483

> <Gold.Chemscore.Rot>
2.0721

> <Gold.Chemscore.Internal.Correction>
   9.000000E+99

> <Gold.Chemscore.Hbonds>
donor molecule, donor type, donor heavy atom, donor atom, acceptor molecule, acceptor atom, score
      L1  H    10    32       P1  7948  0.80
      L1  H    13    51       P1  7948  0.88
      P1  H  7997  8010       L1    24  1.00

> <Gold.Chemscore.Hbond.Weighted>
-8.6066

> <Gold.Chemscore.Metal.Weighted>
-0.0000

> <Gold.Chemscore.Lipo.Weighted>
-9.9705

> <Gold.Chemscore.Internal_Hbond.Weighted>
0.0000

> <Gold.Chemscore.DEClash.Weighted>
0.3353

> <Gold.Chemscore.DEInternal.Weighted>
1.7483

> <Gold.Chemscore.Rot.Weighted>
5.3047

> <Gold.Chemscore.Internal.Correction.Weighted>
   9.000000E+99

> <Gold.Protein.RotatedTorsions>
[ 6907 6896 6895 6894 ] final   75.82 input  -60.11 | X-H torsion
[ 7974 7965 7964 7962 ] final  123.20 input  175.53 | X-H torsion
[ 8008 7997 7996 7995 ] final   65.34 input   59.86 | X-H torsion
[ 10167 10162 10161 10158 ] final  -15.28 input  -65.29 | X-H torsion
[ 10718 10713 10712 10709 ] final  -41.37 input   66.30 | X-H torsion
[ 10763 10752 10751 10750 ] final -113.65 input  -60.55 | X-H torsion
[ 11005 11000 10999 10996 ] final   45.17 input  -57.11 | X-H torsion

> <Gold.Protein.ActiveResidues>
 VAL166  LYS551  ARG553  GLY616  TRP617  ASP618  TYR619  PRO620  LYS621  CYS622 
 ASP623  PHE694  ASN695  SER759  ASP760  ASP761  ALA762  ILE779  LEU786  VAL792 
 PHE793  MET794  SER795  GLU796  ALA797  LYS798  CYS799  TRP800  GLU811  SER814 

> <Gold.Protein.RotatedAtoms>
  152.5044  134.4062  159.9433 H   0  0  0  0  0  0  0  0  0  0  0  0  # atno 6907 bound_to 6896
  151.4028  133.3746  159.2742 H   0  0  0  0  0  0  0  0  0  0  0  0  # atno 6908 bound_to 6896
  150.9349  134.8783  159.7634 H   0  0  0  0  0  0  0  0  0  0  0  0  # atno 6909 bound_to 6896
  145.0987  139.3534  143.4823 H   0  0  0  0  0  0  0  0  0  0  0  0  # atno 7974 bound_to 7965
  155.6601  140.3497  155.4779 H   0  0  0  0  0  0  0  0  0  0  0  0  # atno 8008 bound_to 7997
  155.9775  140.1168  157.0779 H   0  0  0  0  0  0  0  0  0  0  0  0  # atno 8009 bound_to 7997
  154.4182  140.1145  156.5377 H   0  0  0  0  0  0  0  0  0  0  0  0  # atno 8010 bound_to 7997
  140.7216  143.5235  150.9605 H   0  0  0  0  0  0  0  0  0  0  0  0  # atno 10167 bound_to 10162
  156.2711  130.4207  149.8437 H   0  0  0  0  0  0  0  0  0  0  0  0  # atno 10718 bound_to 10713
  154.8406  135.4446  154.1383 H   0  0  0  0  0  0  0  0  0  0  0  0  # atno 10763 bound_to 10752
  153.2575  135.6933  153.7620 H   0  0  0  0  0  0  0  0  0  0  0  0  # atno 10764 bound_to 10752
  153.6909  135.3387  155.3177 H   0  0  0  0  0  0  0  0  0  0  0  0  # atno 10765 bound_to 10752
  140.1485  134.4492  155.8399 H   0  0  0  0  0  0  0  0  0  0  0  0  # atno 11005 bound_to 11000
  146.3530  140.0854  142.8615 LP  0  0  0  0  0  0  0  0  0  0  0  0  # atno 17320 bound_to 7965
  145.0981  140.9328  143.4729 LP  0  0  0  0  0  0  0  0  0  0  0  0  # atno 17321 bound_to 7965
  139.8953  143.6903  152.3139 LP  0  0  0  0  0  0  0  0  0  0  0  0  # atno 17342 bound_to 10162
  139.7233  144.7598  151.0920 LP  0  0  0  0  0  0  0  0  0  0  0  0  # atno 17343 bound_to 10162
  156.5918  130.8509  151.3410 LP  0  0  0  0  0  0  0  0  0  0  0  0  # atno 17370 bound_to 10713
  157.7284  130.9656  150.1741 LP  0  0  0  0  0  0  0  0  0  0  0  0  # atno 17371 bound_to 10713
  141.2196  133.6862  156.7377 LP  0  0  0  0  0  0  0  0  0  0  0  0  # atno 17394 bound_to 11000
  140.2634  134.8449  157.3780 LP  0  0  0  0  0  0  0  0  0  0  0  0  # atno 17395 bound_to 11000

$$$$
