AV-unprocessed.smi:2100|AV-procd|sdf|8575|dock7
  -GOLD-   2272011303D 1   1.00000     0.00000
 Structure written by MMmdl.
 41 42  0  0  0  0  0  0  0  0  1 V2000
  148.8988  141.0806  154.2524 C   0  0  0  0  0  0  0  0  0  0  0  0
  149.6079  139.8935  154.9131 C   0  0  1  0  0  0  0  0  0  0  0  0
  148.8799  138.5657  154.6419 C   0  0  0  0  0  0  0  0  0  0  0  0
  149.6472  137.4293  155.1701 N   0  0  0  0  0  0  0  0  0  0  0  0
  148.8244  135.9089  155.2779 S   0  0  0  0  0  0  0  0  0  0  0  0
  149.7462  134.8416  154.8589 O   0  0  0  0  0  0  0  0  0  0  0  0
  148.1299  135.8544  156.5731 O   0  0  0  0  0  0  0  0  0  0  0  0
  147.6506  136.1261  154.0336 N   0  0  0  0  0  0  0  0  0  0  0  0
  146.5337  135.1870  153.9155 C   0  0  0  0  0  0  0  0  0  0  0  0
  145.8689  135.2857  152.5324 C   0  0  0  0  0  0  0  0  0  0  0  0
  145.4362  133.9413  151.9691 C   0  0  0  0  0  0  0  0  0  0  0  0
  144.0802  133.6957  151.6638 C   0  0  0  0  0  0  0  0  0  0  0  0
  143.7259  132.4369  151.1407 C   0  0  0  0  0  0  0  0  0  0  0  0
  144.7349  131.4736  150.9499 C   0  0  0  0  0  0  0  0  0  0  0  0
  146.0597  131.8154  151.2861 C   0  0  0  0  0  0  0  0  0  0  0  0
  146.4104  133.0212  151.7827 N   0  0  0  0  0  0  0  0  0  0  0  0
  151.0476  137.4168  154.7126 C   0  0  0  0  0  0  0  0  0  0  0  0
  151.7287  138.7805  154.9347 C   0  0  2  0  0  0  0  0  0  0  0  0
  152.1161  139.0339  156.4016 C   0  0  0  0  0  0  0  0  0  0  0  0
  150.9328  139.8336  154.3979 O   0  0  0  0  0  0  0  0  0  0  0  0
  147.8778  141.1826  154.6211 H   0  0  0  0  0  0  0  0  0  0  0  0
  148.8540  140.9613  153.1695 H   0  0  0  0  0  0  0  0  0  0  0  0
  149.4226  142.0133  154.4633 H   0  0  0  0  0  0  0  0  0  0  0  0
  149.6381  140.0786  155.9868 H   0  0  0  0  0  0  0  0  0  0  0  0
  147.8921  138.5886  155.1026 H   0  0  0  0  0  0  0  0  0  0  0  0
  148.7302  138.4208  153.5710 H   0  0  0  0  0  0  0  0  0  0  0  0
  148.0646  136.3870  153.1384 H   0  0  0  0  0  0  0  0  0  0  0  0
  146.8847  134.1697  154.0916 H   0  0  0  0  0  0  0  0  0  0  0  0
  145.8081  135.4147  154.6968 H   0  0  0  0  0  0  0  0  0  0  0  0
  144.9930  135.9317  152.6026 H   0  0  0  0  0  0  0  0  0  0  0  0
  146.5425  135.7723  151.8254 H   0  0  0  0  0  0  0  0  0  0  0  0
  143.3267  134.4523  151.8261 H   0  0  0  0  0  0  0  0  0  0  0  0
  142.6983  132.2130  150.8956 H   0  0  0  0  0  0  0  0  0  0  0  0
  144.4996  130.4966  150.5546 H   0  0  0  0  0  0  0  0  0  0  0  0
  146.8592  131.1017  151.1525 H   0  0  0  0  0  0  0  0  0  0  0  0
  151.6073  136.6323  155.2208 H   0  0  0  0  0  0  0  0  0  0  0  0
  151.0596  137.1699  153.6503 H   0  0  0  0  0  0  0  0  0  0  0  0
  152.6563  138.7838  154.3615 H   0  0  0  0  0  0  0  0  0  0  0  0
  152.8561  138.3059  156.7306 H   0  0  0  0  0  0  0  0  0  0  0  0
  151.2637  138.9538  157.0756 H   0  0  0  0  0  0  0  0  0  0  0  0
  152.5528  140.0249  156.5247 H   0  0  0  0  0  0  0  0  0  0  0  0
  1  2  1  0  0  0  0
  1 21  1  0  0  0  0
  1 22  1  0  0  0  0
  1 23  1  0  0  0  0
  2 20  1  0  0  0  0
  2  3  1  0  0  0  0
  2 24  1  0  0  0  0
  3  4  1  0  0  0  0
  3 25  1  0  0  0  0
  3 26  1  0  0  0  0
  4  5  1  0  0  0  0
  4 17  1  0  0  0  0
  5  6  2  0  0  0  0
  5  7  2  0  0  0  0
  5  8  1  0  0  0  0
  8  9  1  0  0  0  0
  8 27  1  0  0  0  0
  9 10  1  0  0  0  0
  9 28  1  0  0  0  0
  9 29  1  0  0  0  0
 10 11  1  0  0  0  0
 10 30  1  0  0  0  0
 10 31  1  0  0  0  0
 11 16  1  0  0  0  0
 11 12  2  0  0  0  0
 12 13  1  0  0  0  0
 12 32  1  0  0  0  0
 13 14  2  0  0  0  0
 13 33  1  0  0  0  0
 14 15  1  0  0  0  0
 14 34  1  0  0  0  0
 15 16  2  0  0  0  0
 15 35  1  0  0  0  0
 17 18  1  0  0  0  0
 17 36  1  0  0  0  0
 17 37  1  0  0  0  0
 18 19  1  0  0  0  0
 18 20  1  0  0  0  0
 18 38  1  0  0  0  0
 19 39  1  0  0  0  0
 19 40  1  0  0  0  0
 19 41  1  0  0  0  0
M  END
> <s_m_source_file>
AV-unprocessed.smi

> <i_m_source_file_index>
2100

> <i_lp_mmshare_version>
43012

> <i_f3d_flags>
0

> <s_epik_input>
W0NIM11bQ0BASF0xW0NIMl1OKFtDSDJdW0NASF0oTzEpW0NIM10pUyg9TykoPU8pW05IXVtDSDJdW0NIMl1jMltjSF1bY0hdW2NIXVtjSF1uMg==

> <s_epik_cmdline>
J2VwaWtfcHl0aG9uJywgJy1waCcsICc3LjAnLCAnLXRuJywgJzgnLCAnLW1hJywgJzIwMCcsICctbWV0YWxfYmluZGluZycsICctaW1hZScsICc8aW5maWxlLm1hZT4nLCAnLW9tYWUnLCAnPG91dGZpbGUubWFlPic=

> <r_epik_Ionization_Penalty>
0.085378

> <r_epik_Ionization_Penalty_Charging>
0

> <r_epik_Ionization_Penalty_Neutral>
0.085378

> <r_epik_State_Penalty>
0.0441186

> <r_epik_Charging_Adjusted_Penalty>
0.0441186

> <i_epik_Tot_Q>
0

> <i_epik_Tot_abs_Q>
0

> <r_epik_Metal_State_Penalty>
0.24397

> <b_epik_Metal_Only>
0

> <s_lp_Force_Field>
OPLS_2005

> <r_lp_Energy>
8.75792

> <b_lp_Chiralities_Consistent>
1

> <s_lp_Variant>
AV-unprocessed.smi:2100-3

> <Gold.Version>
5.8.1

> <Gold.Id.Protein>
6NUR|6NUR_protein|mol2

> <Gold.PLP.Fitness>
39.8751

> <Gold.PLP.PLP>
-32.4439

> <Gold.PLP.part.hbond>
-1.9106

> <Gold.PLP.part.metal>
0.0000

> <Gold.PLP.part.buried>
-6.1639

> <Gold.PLP.part.nonpolar>
-26.1952

> <Gold.PLP.part.repulsive>
0.5606

> <Gold.PLP.ligand.clash>
0.0000

> <Gold.PLP.ligand.torsion>
1.1378

> <Gold.PLP.Chemscore.Hbond>
1.9913

> <Gold.PLP.Chemscore.CHOScore>
1.0000

> <Gold.PLP.Chemscore.Metal>
0.0000

> <Gold.Chemscore.Hbonds>
donor molecule, donor type, donor heavy atom, donor atom, acceptor molecule, acceptor atom, score
      L1  H     8    27       P1  7948  1.00
      P1  H  7989  7998       L1    20  1.00
      L1  C    15    35       P1 10747  1.00

> <Gold.PLP.Chemscore.Internal.Correction>
0.7330

> <Gold.Rescore>
     Score         DG    S(hbond)    S(metal)    S(lipo)     H(rot)  DE(clash)    DE(int)     intcor
     16.00     -17.10       1.96        0.00      80.79       1.71       0.00       1.10       ----

> <Gold.Chemscore.Fitness>
15.9971

> <Gold.Chemscore.DG>
-17.1015

> <Gold.Chemscore.ZeroCoef>
-5.4800

> <Gold.Chemscore.Hbond>
1.9569

> <Gold.Chemscore.Metal>
0.0000

> <Gold.Chemscore.Lipo>
80.7917

> <Gold.Chemscore.Internal_Hbond>
0.0000

> <Gold.Chemscore.DEClash>
0.0000

> <Gold.Chemscore.DEInternal>
1.1043

> <Gold.Chemscore.Rot>
1.7060

> <Gold.Chemscore.Internal.Correction>
   9.000000E+99

> <Gold.Chemscore.Hbonds>
donor molecule, donor type, donor heavy atom, donor atom, acceptor molecule, acceptor atom, score
      L1  H     8    27       P1  7948  0.95
      P1  H  7989  7998       L1    20  0.88

> <Gold.Chemscore.Hbond.Weighted>
-6.5362

> <Gold.Chemscore.Metal.Weighted>
-0.0000

> <Gold.Chemscore.Lipo.Weighted>
-9.4526

> <Gold.Chemscore.Internal_Hbond.Weighted>
0.0000

> <Gold.Chemscore.DEClash.Weighted>
0.0000

> <Gold.Chemscore.DEInternal.Weighted>
1.1043

> <Gold.Chemscore.Rot.Weighted>
4.3674

> <Gold.Chemscore.Internal.Correction.Weighted>
   9.000000E+99

> <Gold.Protein.RotatedTorsions>
[ 6907 6896 6895 6894 ] final  -57.80 input  -60.11 | X-H torsion
[ 7974 7965 7964 7962 ] final   36.79 input  175.53 | X-H torsion
[ 8008 7997 7996 7995 ] final   47.67 input   59.86 | X-H torsion
[ 10167 10162 10161 10158 ] final  -30.24 input  -65.29 | X-H torsion
[ 10718 10713 10712 10709 ] final -165.77 input   66.30 | X-H torsion
[ 10763 10752 10751 10750 ] final  -55.64 input  -60.55 | X-H torsion
[ 11005 11000 10999 10996 ] final  -28.63 input  -57.11 | X-H torsion

> <Gold.Protein.ActiveResidues>
 VAL166  LYS551  ARG553  GLY616  TRP617  ASP618  TYR619  PRO620  LYS621  CYS622 
 ASP623  PHE694  ASN695  SER759  ASP760  ASP761  ALA762  ILE779  LEU786  VAL792 
 PHE793  MET794  SER795  GLU796  ALA797  LYS798  CYS799  TRP800  GLU811  SER814 

> <Gold.Protein.RotatedAtoms>
  150.8057  134.7180  159.6641 H   0  0  0  0  0  0  0  0  0  0  0  0  # atno 6907 bound_to 6896
  152.4176  134.6010  160.0010 H   0  0  0  0  0  0  0  0  0  0  0  0  # atno 6908 bound_to 6896
  151.6235  133.3300  159.3129 H   0  0  0  0  0  0  0  0  0  0  0  0  # atno 6909 bound_to 6896
  146.1185  139.5974  142.9305 H   0  0  0  0  0  0  0  0  0  0  0  0  # atno 7974 bound_to 7965
  155.3729  140.3424  155.4244 H   0  0  0  0  0  0  0  0  0  0  0  0  # atno 8008 bound_to 7997
  156.1653  140.1614  156.8576 H   0  0  0  0  0  0  0  0  0  0  0  0  # atno 8009 bound_to 7997
  154.5179  140.0774  156.8098 H   0  0  0  0  0  0  0  0  0  0  0  0  # atno 8010 bound_to 7997
  140.7251  143.3864  151.1507 H   0  0  0  0  0  0  0  0  0  0  0  0  # atno 10167 bound_to 10162
  156.6583  130.9035  151.3025 H   0  0  0  0  0  0  0  0  0  0  0  0  # atno 10718 bound_to 10713
  154.1941  135.6422  153.5068 H   0  0  0  0  0  0  0  0  0  0  0  0  # atno 10763 bound_to 10752
  153.0028  135.5435  154.6385 H   0  0  0  0  0  0  0  0  0  0  0  0  # atno 10764 bound_to 10752
  154.5781  135.2922  155.0733 H   0  0  0  0  0  0  0  0  0  0  0  0  # atno 10765 bound_to 10752
  140.9225  133.7389  156.0821 H   0  0  0  0  0  0  0  0  0  0  0  0  # atno 11005 bound_to 11000
  145.5515  141.0413  143.2276 LP  0  0  0  0  0  0  0  0  0  0  0  0  # atno 17320 bound_to 7965
  144.7575  139.7037  143.7248 LP  0  0  0  0  0  0  0  0  0  0  0  0  # atno 17321 bound_to 7965
  139.7462  143.8848  152.3064 LP  0  0  0  0  0  0  0  0  0  0  0  0  # atno 17342 bound_to 10162
  139.8686  144.7080  150.9014 LP  0  0  0  0  0  0  0  0  0  0  0  0  # atno 17343 bound_to 10162
  157.7118  130.9449  150.1116 LP  0  0  0  0  0  0  0  0  0  0  0  0  # atno 17370 bound_to 10713
  156.2031  130.3661  149.8763 LP  0  0  0  0  0  0  0  0  0  0  0  0  # atno 17371 bound_to 10713
  140.7969  134.3553  157.5450 LP  0  0  0  0  0  0  0  0  0  0  0  0  # atno 17394 bound_to 11000
  139.8778  134.9174  156.3178 LP  0  0  0  0  0  0  0  0  0  0  0  0  # atno 17395 bound_to 11000

$$$$
