#       Name:                AV-unprocessed.smi:1703
#       Creating user name   scv26
#       Creation time:       Fri Mar 27 08:04:25 2020


#       File generated by GOLD software.
#

@<TRIPOS>MOLECULE
AV-unprocessed.smi:1703
    56    58     1
SMALL
NO_CHARGES


@<TRIPOS>ATOM
      1 ****        -3.6762   2.8798   2.1095 C.3            1 S1                 0.0000
      2 ****        -2.2282   2.8813   1.6086 C.3            1 S1                 0.0000
      3 ****        -1.6539   1.4578   1.4928 C.3            1 S1                 0.0000
      4 ****        -0.3057   1.4551   0.9387 N.3            1 S1                 0.0000
      5 ****         0.2288   0.0939   0.8798 C.3            1 S1                 0.0000
      6 ****         1.7388  -0.0141   0.5722 C.3            1 S1                 0.0000
      7 ****         2.4543   0.5612   1.6458 O.3            1 S1                 0.0000
      8 ****         2.2345  -1.4661   0.4126 C.3            1 S1                 0.0000
      9 ****         1.5803  -2.1782  -0.6774 N.pl3          1 S1                 0.0000
     10 ****         1.9183  -2.1915  -1.9917 C.2            1 S1                 0.0000
     11 ****         3.0950  -1.4325  -2.5243 C.3            1 S1                 0.0000
     12 ****         4.3219  -2.0827  -2.2704 O.3            1 S1                 0.0000
     13 ****         1.1429  -2.9335  -2.7832 N.2            1 S1                 0.0000
     14 ****         0.2206  -3.4588  -1.8994 C.ar           1 S1                 0.0000
     15 ****        -0.8697  -4.3303  -2.1204 C.ar           1 S1                 0.0000
     16 ****        -1.6872  -4.7382  -1.0460 C.ar           1 S1                 0.0000
     17 ****        -1.4268  -4.2816   0.2622 C.ar           1 S1                 0.0000
     18 ****        -0.3448  -3.4136   0.5046 C.ar           1 S1                 0.0000
     19 ****         0.4680  -3.0085  -0.5716 C.ar           1 S1                 0.0000
     20 ****        -0.3333   2.1061  -0.3703 C.3            1 S1                 0.0000
     21 ****        -0.9296   3.5272  -0.3167 C.3            1 S1                 0.0000
     22 ****         0.0154   4.5595   0.3219 C.3            1 S1                 0.0000
     23 ****        -2.2045   3.5070   0.3270 O.3            1 S1                 0.0000
     24 ****        -3.7507   2.4187   3.0946 H              1 S1                 0.0000
     25 ****        -4.3276   2.3286   1.4307 H              1 S1                 0.0000
     26 ****        -4.0615   3.8967   2.1887 H              1 S1                 0.0000
     27 ****        -1.6246   3.4623   2.3065 H              1 S1                 0.0000
     28 ****        -1.6468   0.9953   2.4807 H              1 S1                 0.0000
     29 ****        -2.3098   0.8481   0.8688 H              1 S1                 0.0000
     30 ****         0.0454  -0.4072   1.8317 H              1 S1                 0.0000
     31 ****        -0.3390  -0.4672   0.1373 H              1 S1                 0.0000
     32 ****         1.9869   0.5381  -0.3321 H              1 S1                 0.0000
     33 ****         2.1491   1.4481   1.7641 H              1 S1                 0.0000
     34 ****         3.3119  -1.4828   0.2454 H              1 S1                 0.0000
     35 ****         2.0675  -2.0232   1.3354 H              1 S1                 0.0000
     36 ****         2.9845  -1.3070  -3.6019 H              1 S1                 0.0000
     37 ****         3.1197  -0.4317  -2.0953 H              1 S1                 0.0000
     38 ****         5.0186  -1.5646  -2.6430 H              1 S1                 0.0000
     39 ****        -1.0771  -4.6860  -3.1188 H              1 S1                 0.0000
     40 ****        -2.5178  -5.4047  -1.2265 H              1 S1                 0.0000
     41 ****        -2.0580  -4.5981   1.0796 H              1 S1                 0.0000
     42 ****        -0.1445  -3.0612   1.5055 H              1 S1                 0.0000
     43 ****         0.6677   2.1644  -0.7949 H              1 S1                 0.0000
     44 ****        -0.9249   1.5027  -1.0608 H              1 S1                 0.0000
     45 ****        -1.1098   3.8530  -1.3414 H              1 S1                 0.0000
     46 ****         0.9357   4.6504  -0.2555 H              1 S1                 0.0000
     47 ****         0.2958   4.2854   1.3389 H              1 S1                 0.0000
     48 ****        -0.4507   5.5444   0.3571 H              1 S1                 0.0000
     49 ****         0.3124   1.9710   1.5319 LP             1 S1                 0.0000
     50 ****         3.4323   0.5650   1.4370 LP             1 S1                 0.0000
     51 ****         2.2937   0.0341   2.4803 LP             1 S1                 0.0000
     52 ****         4.3156  -2.9907  -2.6895 LP             1 S1                 0.0000
     53 ****         4.4585  -2.1720  -1.2838 LP             1 S1                 0.0000
     54 ****         1.2120  -3.0745  -3.7708 LP             1 S1                 0.0000
     55 ****        -2.5095   4.4527   0.4388 LP             1 S1                 0.0000
     56 ****        -2.8434   3.0187  -0.2674 LP             1 S1                 0.0000
@<TRIPOS>BOND
    1    1    2 1     
    2    1   24 1     
    3    1   25 1     
    4    1   26 1     
    5    2   23 1     
    6    2    3 1     
    7    2   27 1     
    8    3    4 1     
    9    3   28 1     
   10    3   29 1     
   11    4    5 1     
   12    4   20 1     
   13    5    6 1     
   14    5   30 1     
   15    5   31 1     
   16    6    7 1     
   17    6    8 1     
   18    6   32 1     
   19    7   33 1     
   20    8    9 1     
   21    8   34 1     
   22    8   35 1     
   23    9   19 1     
   24    9   10 1     
   25   10   11 1     
   26   10   13 2     
   27   11   12 1     
   28   11   36 1     
   29   11   37 1     
   30   12   38 1     
   31   13   14 1     
   32   14   19 ar    
   33   14   15 ar    
   34   15   16 ar    
   35   15   39 1     
   36   16   17 ar    
   37   16   40 1     
   38   17   18 ar    
   39   17   41 1     
   40   18   19 ar    
   41   18   42 1     
   42   20   21 1     
   43   20   43 1     
   44   20   44 1     
   45   21   22 1     
   46   21   23 1     
   47   21   45 1     
   48   22   46 1     
   49   22   47 1     
   50   22   48 1     
   51    4   49 1     
   52    7   50 1     
   53    7   51 1     
   54   12   52 1     
   55   12   53 1     
   56   13   54 1     
   57   23   55 1     
   58   23   56 1     
@<TRIPOS>SUBSTRUCTURE
      1 S1             1
@<TRIPOS>SET
LONE_PAIRS      STATIC     ATOMS    <user>   **** ""
8 49 50 51 52 53 54 55 56
DONOR_HYDROGENS      STATIC     ATOMS    <user>   **** ""
2 33 38
ATOM$BLUE        STATIC     ATOMS    COLORGROUP SYSTEM
8 49 50 51 52 53 54 55 56
ATOM$RED        STATIC     ATOMS    COLORGROUP SYSTEM
2 33 38
