#       Name:                AV-unprocessed.smi:2151
#       Creating user name   scv26
#       Creation time:       Fri Mar 27 11:54:00 2020


#       File generated by GOLD software.
#

@<TRIPOS>MOLECULE
AV-unprocessed.smi:2151
    45    46     1
SMALL
NO_CHARGES


@<TRIPOS>ATOM
      1 ****        -2.3297   0.7845   3.0770 C.3            1 S1                 0.0000
      2 ****        -1.9023   0.4844   1.6318 C.3            1 S1                 0.0000
      3 ****        -0.5022   0.0653   1.6385 N.am           1 S1                 0.0000
      4 ****         0.4191   0.4036   0.7231 C.2            1 S1                 0.0000
      5 ****         0.1783   1.1332  -0.2400 O.2            1 S1                 0.0000
      6 ****         1.8171  -0.1964   0.9310 C.3            1 S1                 0.0000
      7 ****         2.8246   0.3281  -0.0062 N.am           1 S1                 0.0000
      8 ****         3.0211  -0.3922  -1.2008 C.2            1 S1                 0.0000
      9 ****         3.9101  -0.0223  -2.1424 C.2            1 S1                 0.0000
     10 ****         4.0505  -0.7833  -3.4518 C.3            1 S1                 0.0000
     11 ****         4.4700   0.0183  -4.4312 F              1 S1                 0.0000
     12 ****         4.9383  -1.7665  -3.3105 F              1 S1                 0.0000
     13 ****         2.8887  -1.3238  -3.8216 F              1 S1                 0.0000
     14 ****         4.6556   1.1938  -1.8828 C.2            1 S1                 0.0000
     15 ****         4.4689   1.9028  -0.7523 C.2            1 S1                 0.0000
     16 ****         3.5069   1.4800   0.2682 C.2            1 S1                 0.0000
     17 ****         3.3252   2.1217   1.3032 O.2            1 S1                 0.0000
     18 ****        -2.7750  -0.6070   0.9761 C.3            1 S1                 0.0000
     19 ****        -4.2565  -0.2494   0.8519 C.3            1 S1                 0.0000
     20 ****        -4.7010  -1.1687  -0.2625 C.3            1 S1                 0.0000
     21 ****        -3.4893  -1.1524  -1.1901 C.3            1 S1                 0.0000
     22 ****        -2.3651  -0.8469  -0.3690 O.3            1 S1                 0.0000
     23 ****        -3.3501   1.1656   3.1192 H              1 S1                 0.0000
     24 ****        -1.6840   1.5395   3.5272 H              1 S1                 0.0000
     25 ****        -2.2816  -0.1094   3.6998 H              1 S1                 0.0000
     26 ****        -2.0057   1.4082   1.0596 H              1 S1                 0.0000
     27 ****        -0.2159  -0.5426   2.3920 H              1 S1                 0.0000
     28 ****         2.1275  -0.0258   1.9636 H              1 S1                 0.0000
     29 ****         1.7425  -1.2806   0.8325 H              1 S1                 0.0000
     30 ****         2.3882  -1.2613  -1.3088 H              1 S1                 0.0000
     31 ****         5.3784   1.5421  -2.6058 H              1 S1                 0.0000
     32 ****         5.0426   2.8039  -0.5919 H              1 S1                 0.0000
     33 ****        -2.6794  -1.5462   1.5239 H              1 S1                 0.0000
     34 ****        -4.8127  -0.4041   1.7768 H              1 S1                 0.0000
     35 ****        -4.3773   0.7914   0.5479 H              1 S1                 0.0000
     36 ****        -4.8619  -2.1750   0.1268 H              1 S1                 0.0000
     37 ****        -5.6183  -0.8407  -0.7522 H              1 S1                 0.0000
     38 ****        -3.3549  -2.1025  -1.7073 H              1 S1                 0.0000
     39 ****        -3.5901  -0.3692  -1.9420 H              1 S1                 0.0000
     40 ****        -0.7413   1.5045  -0.3684 LP             1 S1                 0.0000
     41 ****         0.9024   1.3541  -0.8934 LP             1 S1                 0.0000
     42 ****         2.6591   1.8040   1.9780 LP             1 S1                 0.0000
     43 ****         3.8437   2.9605   1.4690 LP             1 S1                 0.0000
     44 ****        -1.7273  -1.6169  -0.3857 LP             1 S1                 0.0000
     45 ****        -1.9109  -0.0301  -0.7246 LP             1 S1                 0.0000
@<TRIPOS>BOND
    1    1    2 1     
    2    1   23 1     
    3    1   24 1     
    4    1   25 1     
    5    2    3 1     
    6    2   18 1     
    7    2   26 1     
    8    3    4 am    
    9    3   27 1     
   10    4    5 2     
   11    4    6 1     
   12    6    7 1     
   13    6   28 1     
   14    6   29 1     
   15    7   16 am    
   16    7    8 1     
   17    8    9 2     
   18    8   30 1     
   19    9   10 1     
   20    9   14 1     
   21   10   11 1     
   22   10   12 1     
   23   10   13 1     
   24   14   15 2     
   25   14   31 1     
   26   15   16 1     
   27   15   32 1     
   28   16   17 2     
   29   18   22 1     
   30   18   19 1     
   31   18   33 1     
   32   19   20 1     
   33   19   34 1     
   34   19   35 1     
   35   20   21 1     
   36   20   36 1     
   37   20   37 1     
   38   21   22 1     
   39   21   38 1     
   40   21   39 1     
   41    5   40 1     
   42    5   41 1     
   43   17   42 1     
   44   17   43 1     
   45   22   44 1     
   46   22   45 1     
@<TRIPOS>SUBSTRUCTURE
      1 S1             1
@<TRIPOS>SET
LONE_PAIRS      STATIC     ATOMS    <user>   **** ""
6 40 41 42 43 44 45
DONOR_HYDROGENS      STATIC     ATOMS    <user>   **** ""
1 27
ATOM$BLUE        STATIC     ATOMS    COLORGROUP SYSTEM
6 40 41 42 43 44 45
ATOM$RED        STATIC     ATOMS    COLORGROUP SYSTEM
1 27
