AV-unprocessed.smi:2329|AV-procd|sdf|9306|dock2
  -GOLD-   2272012523D 1   1.00000     0.00000
 Structure written by MMmdl.
 45 48  0  0  0  0  0  0  0  0  1 V2000
  152.1494  132.2225  156.9604 C   0  0  0  0  0  0  0  0  0  0  0  0
  151.1440  132.4038  155.8426 C   0  0  0  0  0  0  0  0  0  0  0  0
  150.5832  131.2904  155.1869 C   0  0  0  0  0  0  0  0  0  0  0  0
  149.6528  131.5260  154.1589 C   0  0  0  0  0  0  0  0  0  0  0  0
  149.3229  132.8555  153.8325 C   0  0  0  0  0  0  0  0  0  0  0  0
  149.9304  133.9161  154.5412 C   0  0  0  0  0  0  0  0  0  0  0  0
  149.5250  135.2150  154.1389 N   0  0  0  0  0  0  0  0  0  0  0  0
  149.3701  136.3187  154.8966 C   0  0  0  0  0  0  0  0  0  0  0  0
  149.6221  136.3876  156.0982 O   0  0  0  0  0  0  0  0  0  0  0  0
  148.8965  137.3809  154.2211 N   0  0  0  0  0  0  0  0  0  0  0  0
  148.6179  138.7190  154.7467 C   0  0  2  0  0  0  0  0  0  0  0  0
  148.4479  139.7552  153.6234 C   0  0  1  0  0  0  0  0  0  0  0  0
  147.1114  140.4111  153.4066 C   0  0  0  0  0  0  0  0  0  0  0  0
  147.2415  141.7184  154.1931 C   0  0  0  0  0  0  0  0  0  0  0  0
  148.2834  141.4706  155.1344 O   0  0  0  0  0  0  0  0  0  0  0  0
  149.2839  140.6974  154.4755 C   0  0  1  0  0  0  0  0  0  0  0  0
  149.8580  139.4955  155.2555 C   0  0  0  0  0  0  0  0  0  0  0  0
  150.0533  139.6766  156.7590 C   0  0  0  0  0  0  0  0  0  0  0  0
  151.4756  140.2049  156.9681 C   0  0  0  0  0  0  0  0  0  0  0  0
  152.2509  139.8253  155.7024 C   0  0  0  0  0  0  0  0  0  0  0  0
  151.2603  139.0484  154.8324 C   0  0  0  0  0  0  0  0  0  0  0  0
  150.8268  133.6792  155.5309 N   0  0  0  0  0  0  0  0  0  0  0  0
  152.5675  131.2155  156.9525 H   0  0  0  0  0  0  0  0  0  0  0  0
  151.6719  132.3880  157.9264 H   0  0  0  0  0  0  0  0  0  0  0  0
  152.9721  132.9309  156.8574 H   0  0  0  0  0  0  0  0  0  0  0  0
  150.8563  130.2822  155.4625 H   0  0  0  0  0  0  0  0  0  0  0  0
  149.1986  130.7013  153.6297 H   0  0  0  0  0  0  0  0  0  0  0  0
  148.6090  133.0542  153.0463 H   0  0  0  0  0  0  0  0  0  0  0  0
  149.2912  135.3132  153.1619 H   0  0  0  0  0  0  0  0  0  0  0  0
  148.7002  137.2424  153.2404 H   0  0  0  0  0  0  0  0  0  0  0  0
  147.7877  138.7574  155.4557 H   0  0  0  0  0  0  0  0  0  0  0  0
  148.9732  139.4751  152.7083 H   0  0  0  0  0  0  0  0  0  0  0  0
  146.9001  140.5957  152.3530 H   0  0  0  0  0  0  0  0  0  0  0  0
  146.3056  139.7951  153.8070 H   0  0  0  0  0  0  0  0  0  0  0  0
  147.5445  142.5333  153.5341 H   0  0  0  0  0  0  0  0  0  0  0  0
  146.3137  142.0064  154.6880 H   0  0  0  0  0  0  0  0  0  0  0  0
  150.0000  141.2959  153.9106 H   0  0  0  0  0  0  0  0  0  0  0  0
  149.3133  140.3411  157.2051 H   0  0  0  0  0  0  0  0  0  0  0  0
  149.9521  138.7169  157.2655 H   0  0  0  0  0  0  0  0  0  0  0  0
  151.4642  141.2889  157.0847 H   0  0  0  0  0  0  0  0  0  0  0  0
  151.9268  139.7822  157.8661 H   0  0  0  0  0  0  0  0  0  0  0  0
  152.5770  140.7281  155.1850 H   0  0  0  0  0  0  0  0  0  0  0  0
  153.1397  139.2343  155.9255 H   0  0  0  0  0  0  0  0  0  0  0  0
  151.3969  137.9832  155.0215 H   0  0  0  0  0  0  0  0  0  0  0  0
  151.4499  139.2078  153.7703 H   0  0  0  0  0  0  0  0  0  0  0  0
  1  2  1  0  0  0  0
  1 23  1  0  0  0  0
  1 24  1  0  0  0  0
  1 25  1  0  0  0  0
  2 22  1  0  0  0  0
  2  3  2  0  0  0  0
  3  4  1  0  0  0  0
  3 26  1  0  0  0  0
  4  5  2  0  0  0  0
  4 27  1  0  0  0  0
  5  6  1  0  0  0  0
  5 28  1  0  0  0  0
  6  7  1  0  0  0  0
  6 22  2  0  0  0  0
  7  8  1  0  0  0  0
  7 29  1  0  0  0  0
  8  9  2  0  0  0  0
  8 10  1  0  0  0  0
 10 11  1  0  0  0  0
 10 30  1  0  0  0  0
 11 17  1  0  0  0  0
 11 12  1  0  0  0  0
 11 31  1  0  0  0  0
 12 16  1  0  0  0  0
 12 13  1  0  0  0  0
 12 32  1  0  0  0  0
 13 14  1  0  0  0  0
 13 33  1  0  0  0  0
 13 34  1  0  0  0  0
 14 15  1  0  0  0  0
 14 35  1  0  0  0  0
 14 36  1  0  0  0  0
 15 16  1  0  0  0  0
 16 17  1  0  0  0  0
 16 37  1  0  0  0  0
 17 21  1  0  0  0  0
 17 18  1  0  0  0  0
 18 19  1  0  0  0  0
 18 38  1  0  0  0  0
 18 39  1  0  0  0  0
 19 20  1  0  0  0  0
 19 40  1  0  0  0  0
 19 41  1  0  0  0  0
 20 21  1  0  0  0  0
 20 42  1  0  0  0  0
 20 43  1  0  0  0  0
 21 44  1  0  0  0  0
 21 45  1  0  0  0  0
M  END
> <s_m_source_file>
AV-unprocessed.smi

> <i_m_source_file_index>
2329

> <i_lp_mmshare_version>
43012

> <i_f3d_flags>
0

> <s_epik_input>
W0NIM11jMVtjSF1bY0hdW2NIXWMobjEpW05IXUMoPU8pW05IXVtDQEBIXTJbQ0BASF0oW0NIMl1bQ0gyXU8zKVtDQEhdM0MyNFtDSDJdW0NIMl1bQ0gyXVtDSDJdNA==

> <s_epik_cmdline>
J2VwaWtfcHl0aG9uJywgJy1waCcsICc3LjAnLCAnLXRuJywgJzgnLCAnLW1hJywgJzIwMCcsICctbWV0YWxfYmluZGluZycsICctaW1hZScsICc8aW5maWxlLm1hZT4nLCAnLW9tYWUnLCAnPG91dGZpbGUubWFlPic=

> <r_lp_tautomer_probability>
1

> <r_epik_Ionization_Penalty>
8.97002e-05

> <r_epik_Ionization_Penalty_Charging>
0

> <r_epik_Ionization_Penalty_Neutral>
8.97002e-05

> <r_epik_State_Penalty>
-0

> <r_epik_Charging_Adjusted_Penalty>
0

> <i_epik_Tot_Q>
0

> <i_epik_Tot_abs_Q>
0

> <r_epik_Metal_State_Penalty>
-0

> <b_epik_Metal_Only>
0

> <s_lp_Force_Field>
OPLS_2005

> <r_lp_Energy>
64.3151

> <b_lp_Chiralities_Consistent>
1

> <s_lp_Variant>
AV-unprocessed.smi:2329-5

> <Gold.Version>
5.8.1

> <Gold.Id.Protein>
6NUR|6NUR_protein|mol2

> <Gold.PLP.Fitness>
40.2680

> <Gold.PLP.PLP>
-35.0853

> <Gold.PLP.part.hbond>
-2.0859

> <Gold.PLP.part.metal>
0.0000

> <Gold.PLP.part.buried>
1.8368

> <Gold.PLP.part.nonpolar>
-35.1027

> <Gold.PLP.part.repulsive>
0.2047

> <Gold.PLP.ligand.clash>
0.0000

> <Gold.PLP.ligand.torsion>
0.3444

> <Gold.PLP.Chemscore.Hbond>
1.8960

> <Gold.PLP.Chemscore.CHOScore>
0.0000

> <Gold.PLP.Chemscore.Metal>
0.0000

> <Gold.Chemscore.Hbonds>
donor molecule, donor type, donor heavy atom, donor atom, acceptor molecule, acceptor atom, score
      L1  H     7    29       P1  7948  0.75
      L1  H    10    30       P1  7948  0.91

> <Gold.PLP.Chemscore.Internal.Correction>
0.1834

> <Gold.Rescore>
     Score         DG    S(hbond)    S(metal)    S(lipo)     H(rot)  DE(clash)    DE(int)     intcor
     16.32     -17.65       1.48        0.00      83.56       1.00       0.02       1.31       ----

> <Gold.Chemscore.Fitness>
16.3176

> <Gold.Chemscore.DG>
-17.6480

> <Gold.Chemscore.ZeroCoef>
-5.4800

> <Gold.Chemscore.Hbond>
1.4825

> <Gold.Chemscore.Metal>
0.0000

> <Gold.Chemscore.Lipo>
83.5584

> <Gold.Chemscore.Internal_Hbond>
0.0000

> <Gold.Chemscore.DEClash>
0.0237

> <Gold.Chemscore.DEInternal>
1.3067

> <Gold.Chemscore.Rot>
1.0000

> <Gold.Chemscore.Internal.Correction>
   9.000000E+99

> <Gold.Chemscore.Hbonds>
donor molecule, donor type, donor heavy atom, donor atom, acceptor molecule, acceptor atom, score
      L1  H     7    29       P1  7948  0.09
      L1  H    10    30       P1  7948  0.90

> <Gold.Chemscore.Hbond.Weighted>
-4.9517

> <Gold.Chemscore.Metal.Weighted>
-0.0000

> <Gold.Chemscore.Lipo.Weighted>
-9.7763

> <Gold.Chemscore.Internal_Hbond.Weighted>
0.0000

> <Gold.Chemscore.DEClash.Weighted>
0.0237

> <Gold.Chemscore.DEInternal.Weighted>
1.3067

> <Gold.Chemscore.Rot.Weighted>
2.5600

> <Gold.Chemscore.Internal.Correction.Weighted>
   9.000000E+99

> <Gold.Protein.RotatedTorsions>
[ 6907 6896 6895 6894 ] final   89.47 input  -60.11 | X-H torsion
[ 7974 7965 7964 7962 ] final  -97.92 input  175.53 | X-H torsion
[ 8008 7997 7996 7995 ] final  105.15 input   59.86 | X-H torsion
[ 10167 10162 10161 10158 ] final  -12.96 input  -65.29 | X-H torsion
[ 10718 10713 10712 10709 ] final  -47.32 input   66.30 | X-H torsion
[ 10763 10752 10751 10750 ] final   94.85 input  -60.55 | X-H torsion
[ 11005 11000 10999 10996 ] final   66.95 input  -57.11 | X-H torsion

> <Gold.Protein.ActiveResidues>
 VAL166  LYS551  ARG553  GLY616  TRP617  ASP618  TYR619  PRO620  LYS621  CYS622 
 ASP623  PHE694  ASN695  SER759  ASP760  ASP761  ALA762  ILE779  LEU786  VAL792 
 PHE793  MET794  SER795  GLU796  ALA797  LYS798  CYS799  TRP800  GLU811  SER814 

> <Gold.Protein.RotatedAtoms>
  152.5436  134.1962  159.8693 H   0  0  0  0  0  0  0  0  0  0  0  0  # atno 6907 bound_to 6896
  151.1954  133.4635  159.2603 H   0  0  0  0  0  0  0  0  0  0  0  0  # atno 6908 bound_to 6896
  151.1042  135.0002  159.8518 H   0  0  0  0  0  0  0  0  0  0  0  0  # atno 6909 bound_to 6896
  145.3273  140.9434  143.2681 H   0  0  0  0  0  0  0  0  0  0  0  0  # atno 7974 bound_to 7965
  156.1634  140.3135  155.8847 H   0  0  0  0  0  0  0  0  0  0  0  0  # atno 8008 bound_to 7997
  155.3735  140.0483  157.3062 H   0  0  0  0  0  0  0  0  0  0  0  0  # atno 8009 bound_to 7997
  154.5169  140.2184  155.9060 H   0  0  0  0  0  0  0  0  0  0  0  0  # atno 8010 bound_to 7997
  140.7172  143.5476  150.9337 H   0  0  0  0  0  0  0  0  0  0  0  0  # atno 10167 bound_to 10162
  156.2096  130.4160  149.9132 H   0  0  0  0  0  0  0  0  0  0  0  0  # atno 10718 bound_to 10713
  153.2464  135.4275  155.0752 H   0  0  0  0  0  0  0  0  0  0  0  0  # atno 10763 bound_to 10752
  154.8363  135.3415  154.6575 H   0  0  0  0  0  0  0  0  0  0  0  0  # atno 10764 bound_to 10752
  153.6997  135.7029  153.5123 H   0  0  0  0  0  0  0  0  0  0  0  0  # atno 10765 bound_to 10752
  139.9801  134.6759  156.0280 H   0  0  0  0  0  0  0  0  0  0  0  0  # atno 11005 bound_to 11000
  144.8891  139.4798  143.6686 LP  0  0  0  0  0  0  0  0  0  0  0  0  # atno 17320 bound_to 7965
  146.3059  139.7579  142.9056 LP  0  0  0  0  0  0  0  0  0  0  0  0  # atno 17321 bound_to 7965
  139.9200  143.6617  152.3098 LP  0  0  0  0  0  0  0  0  0  0  0  0  # atno 17342 bound_to 10162
  139.7031  144.7632  151.1240 LP  0  0  0  0  0  0  0  0  0  0  0  0  # atno 17343 bound_to 10162
  156.6814  130.8860  151.3576 LP  0  0  0  0  0  0  0  0  0  0  0  0  # atno 17370 bound_to 10713
  157.7031  130.9355  150.0847 LP  0  0  0  0  0  0  0  0  0  0  0  0  # atno 17371 bound_to 10713
  141.1474  133.6554  156.3908 LP  0  0  0  0  0  0  0  0  0  0  0  0  # atno 17394 bound_to 11000
  140.5115  134.6391  157.5286 LP  0  0  0  0  0  0  0  0  0  0  0  0  # atno 17395 bound_to 11000

$$$$
