AV-unprocessed.smi:36|AV-procd|sdf|286|dock7
  -GOLD-   2262016 63D 1   1.00000     0.00000
 Structure written by MMmdl.
 64 67  0  0  0  0  0  0  0  0  1 V2000
  147.0728  132.7909  159.7252 C   0  0  0  0  0  0  0  0  0  0  0  0
  147.5160  132.6075  161.1863 C   0  0  0  0  0  0  0  0  0  0  0  0
  146.5908  133.4083  162.1182 C   0  0  0  0  0  0  0  0  0  0  0  0
  147.4673  131.1179  161.5649 C   0  0  0  0  0  0  0  0  0  0  0  0
  149.3056  133.2437  161.3915 Si  0  0  0  0  0  0  0  0  0  0  0  0
  149.4791  135.0290  160.7655 C   0  0  0  0  0  0  0  0  0  0  0  0
  149.8647  133.1416  163.2048 C   0  0  0  0  0  0  0  0  0  0  0  0
  150.3167  132.2554  160.4631 O   0  0  0  0  0  0  0  0  0  0  0  0
  150.0808  131.9605  159.1024 C   0  0  0  0  0  0  0  0  0  0  0  0
  150.1800  133.2484  158.2760 C   0  0  1  0  0  0  0  0  0  0  0  0
  151.3080  134.0065  158.7054 O   0  0  0  0  0  0  0  0  0  0  0  0
  151.8909  134.6638  157.6191 C   0  0  2  0  0  0  0  0  0  0  0  0
  151.8736  136.1290  157.8987 N   0  0  0  0  0  0  0  0  0  0  0  0
  151.3887  136.7868  159.0083 C   0  0  0  0  0  0  0  0  0  0  0  0
  151.5162  138.0868  158.9858 N   0  0  0  0  0  0  0  0  0  0  0  0
  152.1318  138.3437  157.7669 C   0  0  0  0  0  0  0  0  0  0  0  0
  152.5612  139.5270  157.1112 C   0  0  0  0  0  0  0  0  0  0  0  0
  152.3979  140.7316  157.7068 N   0  0  0  0  0  0  0  0  0  0  0  0
  152.9368  141.1852  158.9769 C   0  0  0  0  0  0  0  0  0  0  0  0
  153.7278  140.5068  159.6328 O   0  0  0  0  0  0  0  0  0  0  0  0
  152.5416  142.5689  159.4037 C   0  0  0  0  0  0  0  0  0  0  0  0
  152.0008  143.4722  158.4609 C   0  0  0  0  0  0  0  0  0  0  0  0
  151.6489  144.7801  158.8471 C   0  0  0  0  0  0  0  0  0  0  0  0
  151.8419  145.1987  160.1772 C   0  0  0  0  0  0  0  0  0  0  0  0
  152.3890  144.3087  161.1207 C   0  0  0  0  0  0  0  0  0  0  0  0
  152.7413  143.0004  160.7358 C   0  0  0  0  0  0  0  0  0  0  0  0
  153.1394  139.3896  155.8886 N   0  0  0  0  0  0  0  0  0  0  0  0
  153.2862  138.1772  155.3455 C   0  0  0  0  0  0  0  0  0  0  0  0
  152.9354  136.9906  155.8462 N   0  0  0  0  0  0  0  0  0  0  0  0
  152.3561  137.1215  157.0744 C   0  0  0  0  0  0  0  0  0  0  0  0
  151.0453  134.3478  156.3853 C   0  0  0  0  0  0  0  0  0  0  0  0
  150.4294  133.0238  156.7824 C   0  0  2  0  0  0  0  0  0  0  0  0
  149.2354  132.7867  156.0651 O   0  0  0  0  0  0  0  0  0  0  0  0
  146.0526  132.4371  159.5734 H   0  0  0  0  0  0  0  0  0  0  0  0
  147.7172  132.2371  159.0421 H   0  0  0  0  0  0  0  0  0  0  0  0
  147.1034  133.8397  159.4290 H   0  0  0  0  0  0  0  0  0  0  0  0
  146.5974  134.4698  161.8698 H   0  0  0  0  0  0  0  0  0  0  0  0
  146.8988  133.3119  163.1598 H   0  0  0  0  0  0  0  0  0  0  0  0
  145.5593  133.0619  162.0461 H   0  0  0  0  0  0  0  0  0  0  0  0
  146.4557  130.7199  161.4783 H   0  0  0  0  0  0  0  0  0  0  0  0
  147.7968  130.9592  162.5922 H   0  0  0  0  0  0  0  0  0  0  0  0
  148.1105  130.5216  160.9174 H   0  0  0  0  0  0  0  0  0  0  0  0
  148.8250  135.7100  161.3095 H   0  0  0  0  0  0  0  0  0  0  0  0
  149.2264  135.1092  159.7085 H   0  0  0  0  0  0  0  0  0  0  0  0
  150.4982  135.3964  160.8834 H   0  0  0  0  0  0  0  0  0  0  0  0
  149.2267  133.7398  163.8550 H   0  0  0  0  0  0  0  0  0  0  0  0
  150.8841  133.5059  163.3297 H   0  0  0  0  0  0  0  0  0  0  0  0
  149.8388  132.1175  163.5757 H   0  0  0  0  0  0  0  0  0  0  0  0
  150.8201  131.2362  158.7589 H   0  0  0  0  0  0  0  0  0  0  0  0
  149.0976  131.5032  158.9870 H   0  0  0  0  0  0  0  0  0  0  0  0
  149.2911  133.8651  158.4222 H   0  0  0  0  0  0  0  0  0  0  0  0
  152.9398  134.3816  157.5230 H   0  0  0  0  0  0  0  0  0  0  0  0
  150.9371  136.2678  159.8413 H   0  0  0  0  0  0  0  0  0  0  0  0
  151.8025  141.3863  157.2213 H   0  0  0  0  0  0  0  0  0  0  0  0
  151.8495  143.1672  157.4351 H   0  0  0  0  0  0  0  0  0  0  0  0
  151.2329  145.4635  158.1215 H   0  0  0  0  0  0  0  0  0  0  0  0
  151.5741  146.2025  160.4725 H   0  0  0  0  0  0  0  0  0  0  0  0
  152.5427  144.6310  162.1403 H   0  0  0  0  0  0  0  0  0  0  0  0
  153.1702  142.3376  161.4733 H   0  0  0  0  0  0  0  0  0  0  0  0
  153.7518  138.1555  154.3711 H   0  0  0  0  0  0  0  0  0  0  0  0
  150.2756  135.1115  156.2564 H   0  0  0  0  0  0  0  0  0  0  0  0
  151.6582  134.3014  155.4849 H   0  0  0  0  0  0  0  0  0  0  0  0
  151.1390  132.2108  156.6220 H   0  0  0  0  0  0  0  0  0  0  0  0
  148.5887  133.4169  156.3452 H   0  0  0  0  0  0  0  0  0  0  0  0
  1  2  1  0  0  0  0
  1 34  1  0  0  0  0
  1 35  1  0  0  0  0
  1 36  1  0  0  0  0
  2  3  1  0  0  0  0
  2  4  1  0  0  0  0
  2  5  1  0  0  0  0
  3 37  1  0  0  0  0
  3 38  1  0  0  0  0
  3 39  1  0  0  0  0
  4 40  1  0  0  0  0
  4 41  1  0  0  0  0
  4 42  1  0  0  0  0
  5  6  1  0  0  0  0
  5  7  1  0  0  0  0
  5  8  1  0  0  0  0
  6 43  1  0  0  0  0
  6 44  1  0  0  0  0
  6 45  1  0  0  0  0
  7 46  1  0  0  0  0
  7 47  1  0  0  0  0
  7 48  1  0  0  0  0
  8  9  1  0  0  0  0
  9 10  1  0  0  0  0
  9 49  1  0  0  0  0
  9 50  1  0  0  0  0
 10 32  1  0  0  0  0
 10 11  1  0  0  0  0
 10 51  1  0  0  0  0
 11 12  1  0  0  0  0
 12 13  1  0  0  0  0
 12 31  1  0  0  0  0
 12 52  1  0  0  0  0
 13 30  1  0  0  0  0
 13 14  1  0  0  0  0
 14 15  2  0  0  0  0
 14 53  1  0  0  0  0
 15 16  1  0  0  0  0
 16 30  2  0  0  0  0
 16 17  1  0  0  0  0
 17 18  1  0  0  0  0
 17 27  2  0  0  0  0
 18 19  1  0  0  0  0
 18 54  1  0  0  0  0
 19 20  2  0  0  0  0
 19 21  1  0  0  0  0
 21 26  1  0  0  0  0
 21 22  2  0  0  0  0
 22 23  1  0  0  0  0
 22 55  1  0  0  0  0
 23 24  2  0  0  0  0
 23 56  1  0  0  0  0
 24 25  1  0  0  0  0
 24 57  1  0  0  0  0
 25 26  2  0  0  0  0
 25 58  1  0  0  0  0
 26 59  1  0  0  0  0
 27 28  1  0  0  0  0
 28 29  2  0  0  0  0
 28 60  1  0  0  0  0
 29 30  1  0  0  0  0
 31 32  1  0  0  0  0
 31 61  1  0  0  0  0
 31 62  1  0  0  0  0
 32 33  1  0  0  0  0
 32 63  1  0  0  0  0
 33 64  1  0  0  0  0
M  END
> <s_m_source_file>
AV-unprocessed.smi

> <i_m_source_file_index>
36

> <i_lp_mmshare_version>
43012

> <i_f3d_flags>
0

> <s_epik_input>
W0NIM11DKFtDSDNdKShbQ0gzXSlbU2ldKFtDSDNdKShbQ0gzXSlPW0NIMl1bQ0BASF0xT1tDQEhdKFtDSDJdW0NASF0xW09IXSluKFtjSF1uMiljKGMyMyluW2NIXW5jM1tOSF1DKD1PKWM0W2NIXVtjSF1bY0hdW2NIXVtjSF00

> <s_epik_cmdline>
J2VwaWtfcHl0aG9uJywgJy1waCcsICc3LjAnLCAnLXRuJywgJzgnLCAnLW1hJywgJzIwMCcsICctbWV0YWxfYmluZGluZycsICctaW1hZScsICc8aW5maWxlLm1hZT4nLCAnLW9tYWUnLCAnPG91dGZpbGUubWFlPic=

> <r_lp_tautomer_probability>
1

> <r_epik_Ionization_Penalty>
0.00150433

> <r_epik_Ionization_Penalty_Charging>
0

> <r_epik_Ionization_Penalty_Neutral>
0.00150433

> <r_epik_State_Penalty>
0.00724046

> <r_epik_Charging_Adjusted_Penalty>
0.00724046

> <i_epik_Tot_Q>
0

> <i_epik_Tot_abs_Q>
0

> <r_epik_Metal_State_Penalty>
0.323355

> <b_epik_Metal_Only>
0

> <s_epik_Chemistry_Notes>
This compound contains an acetal/aminal-like group ( X-CH(R)-Y where X, Y are N, S, or O) that may be acid/base labile, releasing an aldehyde.

> <s_lp_Force_Field>
OPLS_2005

> <r_lp_Energy>
35.7954

> <b_lp_Chiralities_Consistent>
1

> <s_lp_Variant>
AV-unprocessed.smi:36-8

> <Gold.Version>
5.8.1

> <Gold.Id.Protein>
6NUR|6NUR_protein|mol2

> <Gold.PLP.Fitness>
55.2694

> <Gold.PLP.PLP>
-48.7131

> <Gold.PLP.part.hbond>
-3.0000

> <Gold.PLP.part.metal>
0.0000

> <Gold.PLP.part.buried>
-7.4180

> <Gold.PLP.part.nonpolar>
-38.9729

> <Gold.PLP.part.repulsive>
0.1593

> <Gold.PLP.ligand.clash>
0.0000

> <Gold.PLP.ligand.torsion>
0.9909

> <Gold.PLP.Chemscore.Hbond>
2.7120

> <Gold.PLP.Chemscore.CHOScore>
0.0000

> <Gold.PLP.Chemscore.Metal>
0.0000

> <Gold.Chemscore.Hbonds>
donor molecule, donor type, donor heavy atom, donor atom, acceptor molecule, acceptor atom, score
      P1  H  7997  8009       L1    27  0.83
      P1  H 10752 10765       L1    29  0.56

> <Gold.PLP.Chemscore.Internal.Correction>
0.4020

> <Gold.Rescore>
     Score         DG    S(hbond)    S(metal)    S(lipo)     H(rot)  DE(clash)    DE(int)     intcor
     17.94     -19.35       2.44        0.00     108.05       2.70       0.02       1.39       ----

> <Gold.Chemscore.Fitness>
17.9435

> <Gold.Chemscore.DG>
-19.3547

> <Gold.Chemscore.ZeroCoef>
-5.4800

> <Gold.Chemscore.Hbond>
2.4417

> <Gold.Chemscore.Metal>
0.0000

> <Gold.Chemscore.Lipo>
108.0498

> <Gold.Chemscore.Internal_Hbond>
0.0000

> <Gold.Chemscore.DEClash>
0.0202

> <Gold.Chemscore.DEInternal>
1.3909

> <Gold.Chemscore.Rot>
2.7041

> <Gold.Chemscore.Internal.Correction>
   9.000000E+99

> <Gold.Chemscore.Hbonds>
donor molecule, donor type, donor heavy atom, donor atom, acceptor molecule, acceptor atom, score
      P1  H  7997  8009       L1    27  0.19
      P1  H 10752 10765       L1    29  0.55

> <Gold.Chemscore.Hbond.Weighted>
-8.1553

> <Gold.Chemscore.Metal.Weighted>
-0.0000

> <Gold.Chemscore.Lipo.Weighted>
-12.6418

> <Gold.Chemscore.Internal_Hbond.Weighted>
0.0000

> <Gold.Chemscore.DEClash.Weighted>
0.0202

> <Gold.Chemscore.DEInternal.Weighted>
1.3909

> <Gold.Chemscore.Rot.Weighted>
6.9225

> <Gold.Chemscore.Internal.Correction.Weighted>
   9.000000E+99

> <Gold.Protein.RotatedTorsions>
[ 6907 6896 6895 6894 ] final  125.03 input  -60.11 | X-H torsion
[ 7974 7965 7964 7962 ] final  -15.70 input  175.53 | X-H torsion
[ 8008 7997 7996 7995 ] final -149.03 input   59.86 | X-H torsion
[ 10167 10162 10161 10158 ] final -108.16 input  -65.29 | X-H torsion
[ 10718 10713 10712 10709 ] final  131.91 input   66.30 | X-H torsion
[ 10763 10752 10751 10750 ] final -163.50 input  -60.55 | X-H torsion
[ 11005 11000 10999 10996 ] final   30.12 input  -57.11 | X-H torsion

> <Gold.Protein.ActiveResidues>
 VAL166  LYS551  ARG553  GLY616  TRP617  ASP618  TYR619  PRO620  LYS621  CYS622 
 ASP623  PHE694  ASN695  SER759  ASP760  ASP761  ALA762  ILE779  LEU786  VAL792 
 PHE793  MET794  SER795  GLU796  ALA797  LYS798  CYS799  TRP800  GLU811  SER814 

> <Gold.Protein.RotatedAtoms>
  152.4027  133.6842  159.6329 H   0  0  0  0  0  0  0  0  0  0  0  0  # atno 6907 bound_to 6896
  150.7916  133.8763  159.3282 H   0  0  0  0  0  0  0  0  0  0  0  0  # atno 6908 bound_to 6896
  151.6524  135.1001  160.0215 H   0  0  0  0  0  0  0  0  0  0  0  0  # atno 6909 bound_to 6896
  146.2020  140.3531  142.8420 H   0  0  0  0  0  0  0  0  0  0  0  0  # atno 7974 bound_to 7965
  155.6011  140.0662  157.2732 H   0  0  0  0  0  0  0  0  0  0  0  0  # atno 8008 bound_to 7997
  154.4278  140.1818  156.1222 H   0  0  0  0  0  0  0  0  0  0  0  0  # atno 8009 bound_to 7997
  156.0158  140.3322  155.6991 H   0  0  0  0  0  0  0  0  0  0  0  0  # atno 8010 bound_to 7997
  140.1691  143.4057  152.1368 H   0  0  0  0  0  0  0  0  0  0  0  0  # atno 10167 bound_to 10162
  157.4922  131.1091  150.9541 H   0  0  0  0  0  0  0  0  0  0  0  0  # atno 10718 bound_to 10713
  154.7116  135.3007  154.9188 H   0  0  0  0  0  0  0  0  0  0  0  0  # atno 10763 bound_to 10752
  154.0088  135.6697  153.4768 H   0  0  0  0  0  0  0  0  0  0  0  0  # atno 10764 bound_to 10752
  153.0760  135.5035  154.8318 H   0  0  0  0  0  0  0  0  0  0  0  0  # atno 10765 bound_to 10752
  140.2978  134.2791  155.7761 H   0  0  0  0  0  0  0  0  0  0  0  0  # atno 11005 bound_to 11000
  144.8705  140.7266  143.6049 LP  0  0  0  0  0  0  0  0  0  0  0  0  # atno 17320 bound_to 7965
  145.3450  139.1721  143.4465 LP  0  0  0  0  0  0  0  0  0  0  0  0  # atno 17321 bound_to 7965
  139.5346  144.7196  151.4938 LP  0  0  0  0  0  0  0  0  0  0  0  0  # atno 17342 bound_to 10162
  140.6594  143.8531  150.6870 LP  0  0  0  0  0  0  0  0  0  0  0  0  # atno 17343 bound_to 10162
  157.0239  130.5685  149.5335 LP  0  0  0  0  0  0  0  0  0  0  0  0  # atno 17370 bound_to 10713
  156.0180  130.5274  150.8191 LP  0  0  0  0  0  0  0  0  0  0  0  0  # atno 17371 bound_to 10713
  141.2134  133.7626  156.9721 LP  0  0  0  0  0  0  0  0  0  0  0  0  # atno 17394 bound_to 11000
  140.1137  134.9461  157.2103 LP  0  0  0  0  0  0  0  0  0  0  0  0  # atno 17395 bound_to 11000

$$$$
