AV-unprocessed.smi:2445|AV-procd|sdf|9639|dock6
  -GOLD-   2272013273D 1   1.00000     0.00000
 Structure written by MMmdl.
 40 41  0  0  0  0  0  0  0  0  1 V2000
  139.5370  136.6755  153.8306 C   0  0  0  0  0  0  0  0  0  0  0  0
  140.9359  136.2458  153.5444 C   0  0  0  0  0  0  0  0  0  0  0  0
  141.4245  134.9646  153.4768 C   0  0  0  0  0  0  0  0  0  0  0  0
  142.7883  134.8956  153.1853 N   0  0  0  0  0  0  0  0  0  0  0  0
  143.3406  136.1024  153.0326 C   0  0  0  0  0  0  0  0  0  0  0  0
  144.7923  136.3213  152.7302 C   0  0  2  0  0  0  0  0  0  0  0  0
  145.1735  135.8080  151.3344 C   0  0  0  0  0  0  0  0  0  0  0  0
  145.7214  135.7945  153.8412 C   0  0  0  0  0  0  0  0  0  0  0  0
  147.0787  136.3113  153.6899 N   0  0  0  0  0  0  0  0  0  0  0  0
  147.7334  137.0418  154.6015 C   0  0  0  0  0  0  0  0  0  0  0  0
  147.2794  137.3431  155.7054 O   0  0  0  0  0  0  0  0  0  0  0  0
  148.9448  137.4086  154.1633 N   0  0  0  0  0  0  0  0  0  0  0  0
  149.8907  138.2207  154.9208 C   0  0  1  0  0  0  0  0  0  0  0  0
  151.3184  137.7230  154.8043 C   0  0  0  0  0  0  0  0  0  0  0  0
  152.1246  138.9837  155.1042 C   0  0  0  0  0  0  0  0  0  0  0  0
  151.3098  140.0838  154.7088 O   0  0  0  0  0  0  0  0  0  0  0  0
  150.0132  139.6293  154.3348 C   0  0  2  0  0  0  0  0  0  0  0  0
  148.9396  140.6068  154.8268 C   0  0  0  0  0  0  0  0  0  0  0  0
  142.1910  137.4186  153.2430 S   0  0  0  0  0  0  0  0  0  0  0  0
  138.8844  135.8151  153.9819 H   0  0  0  0  0  0  0  0  0  0  0  0
  139.1359  137.2605  153.0029 H   0  0  0  0  0  0  0  0  0  0  0  0
  139.4978  137.2904  154.7299 H   0  0  0  0  0  0  0  0  0  0  0  0
  140.8745  134.0463  153.6211 H   0  0  0  0  0  0  0  0  0  0  0  0
  144.9335  137.4026  152.7013 H   0  0  0  0  0  0  0  0  0  0  0  0
  144.5585  136.2744  150.5641 H   0  0  0  0  0  0  0  0  0  0  0  0
  145.0404  134.7283  151.2585 H   0  0  0  0  0  0  0  0  0  0  0  0
  146.2157  136.0309  151.1047 H   0  0  0  0  0  0  0  0  0  0  0  0
  145.3134  136.0787  154.8129 H   0  0  0  0  0  0  0  0  0  0  0  0
  145.7561  134.7047  153.8222 H   0  0  0  0  0  0  0  0  0  0  0  0
  147.5432  136.1178  152.8148 H   0  0  0  0  0  0  0  0  0  0  0  0
  149.2304  137.1152  153.2407 H   0  0  0  0  0  0  0  0  0  0  0  0
  149.6029  138.2771  155.9727 H   0  0  0  0  0  0  0  0  0  0  0  0
  151.5446  136.9018  155.4852 H   0  0  0  0  0  0  0  0  0  0  0  0
  151.5242  137.3875  153.7865 H   0  0  0  0  0  0  0  0  0  0  0  0
  152.3158  139.0663  156.1747 H   0  0  0  0  0  0  0  0  0  0  0  0
  153.0848  138.9935  154.5880 H   0  0  0  0  0  0  0  0  0  0  0  0
  149.9935  139.5781  153.2446 H   0  0  0  0  0  0  0  0  0  0  0  0
  147.9415  140.2616  154.5560 H   0  0  0  0  0  0  0  0  0  0  0  0
  149.0813  141.5940  154.3869 H   0  0  0  0  0  0  0  0  0  0  0  0
  148.9738  140.7166  155.9110 H   0  0  0  0  0  0  0  0  0  0  0  0
  1  2  1  0  0  0  0
  1 20  1  0  0  0  0
  1 21  1  0  0  0  0
  1 22  1  0  0  0  0
  2 19  1  0  0  0  0
  2  3  2  0  0  0  0
  3  4  1  0  0  0  0
  3 23  1  0  0  0  0
  4  5  2  0  0  0  0
  5  6  1  0  0  0  0
  5 19  1  0  0  0  0
  6  7  1  0  0  0  0
  6  8  1  0  0  0  0
  6 24  1  0  0  0  0
  7 25  1  0  0  0  0
  7 26  1  0  0  0  0
  7 27  1  0  0  0  0
  8  9  1  0  0  0  0
  8 28  1  0  0  0  0
  8 29  1  0  0  0  0
  9 10  1  0  0  0  0
  9 30  1  0  0  0  0
 10 11  2  0  0  0  0
 10 12  1  0  0  0  0
 12 13  1  0  0  0  0
 12 31  1  0  0  0  0
 13 17  1  0  0  0  0
 13 14  1  0  0  0  0
 13 32  1  0  0  0  0
 14 15  1  0  0  0  0
 14 33  1  0  0  0  0
 14 34  1  0  0  0  0
 15 16  1  0  0  0  0
 15 35  1  0  0  0  0
 15 36  1  0  0  0  0
 16 17  1  0  0  0  0
 17 18  1  0  0  0  0
 17 37  1  0  0  0  0
 18 38  1  0  0  0  0
 18 39  1  0  0  0  0
 18 40  1  0  0  0  0
M  END
> <s_m_source_file>
AV-unprocessed.smi

> <i_m_source_file_index>
2445

> <i_lp_mmshare_version>
43012

> <i_f3d_flags>
0

> <s_epik_input>
W0NIM11jMVtjSF1uYyhzMSlbQ0BIXShbQ0gzXSlbQ0gyXVtOSF1DKD1PKVtOSF1bQ0BASF0yW0NIMl1bQ0gyXU9bQ0BIXTJbQ0gzXQ==

> <s_epik_cmdline>
J2VwaWtfcHl0aG9uJywgJy1waCcsICc3LjAnLCAnLXRuJywgJzgnLCAnLW1hJywgJzIwMCcsICctbWV0YWxfYmluZGluZycsICctaW1hZScsICc8aW5maWxlLm1hZT4nLCAnLW9tYWUnLCAnPG91dGZpbGUubWFlPic=

> <r_epik_Ionization_Penalty>
0.000649483

> <r_epik_Ionization_Penalty_Charging>
0

> <r_epik_Ionization_Penalty_Neutral>
0.000649483

> <r_epik_State_Penalty>
0.000379895

> <r_epik_Charging_Adjusted_Penalty>
0.000379895

> <i_epik_Tot_Q>
0

> <i_epik_Tot_abs_Q>
0

> <r_epik_Metal_State_Penalty>
-0

> <b_epik_Metal_Only>
0

> <s_lp_Force_Field>
OPLS_2005

> <r_lp_Energy>
6.75485

> <b_lp_Chiralities_Consistent>
1

> <s_lp_Variant>
AV-unprocessed.smi:2445-7

> <Gold.Version>
5.8.1

> <Gold.Id.Protein>
6NUR|6NUR_protein|mol2

> <Gold.PLP.Fitness>
42.9558

> <Gold.PLP.PLP>
-34.4134

> <Gold.PLP.part.hbond>
-2.9481

> <Gold.PLP.part.metal>
0.0000

> <Gold.PLP.part.buried>
-5.1203

> <Gold.PLP.part.nonpolar>
-26.7737

> <Gold.PLP.part.repulsive>
0.2664

> <Gold.PLP.ligand.clash>
0.0000

> <Gold.PLP.ligand.torsion>
0.2929

> <Gold.PLP.Chemscore.Hbond>
3.0000

> <Gold.PLP.Chemscore.CHOScore>
0.0000

> <Gold.PLP.Chemscore.Metal>
0.0000

> <Gold.Chemscore.Hbonds>
donor molecule, donor type, donor heavy atom, donor atom, acceptor molecule, acceptor atom, score
      L1  H     9    30       P1  7948  0.99
      L1  H    12    31       P1  7948  1.00
      P1  H  7989  7998       L1    16  0.82

> <Gold.PLP.Chemscore.Internal.Correction>
0.1281

> <Gold.Rescore>
     Score         DG    S(hbond)    S(metal)    S(lipo)     H(rot)  DE(clash)    DE(int)     intcor
     18.52     -18.93       2.54        0.00      75.90       1.53       0.13       0.27       ----

> <Gold.Chemscore.Fitness>
18.5209

> <Gold.Chemscore.DG>
-18.9290

> <Gold.Chemscore.ZeroCoef>
-5.4800

> <Gold.Chemscore.Hbond>
2.5425

> <Gold.Chemscore.Metal>
0.0000

> <Gold.Chemscore.Lipo>
75.9022

> <Gold.Chemscore.Internal_Hbond>
0.0000

> <Gold.Chemscore.DEClash>
0.1334

> <Gold.Chemscore.DEInternal>
0.2747

> <Gold.Chemscore.Rot>
1.5325

> <Gold.Chemscore.Internal.Correction>
   9.000000E+99

> <Gold.Chemscore.Hbonds>
donor molecule, donor type, donor heavy atom, donor atom, acceptor molecule, acceptor atom, score
      L1  H     9    30       P1  7948  0.93
      L1  H    12    31       P1  7948  0.94
      P1  H  7989  7998       L1    16  0.18

> <Gold.Chemscore.Hbond.Weighted>
-8.4918

> <Gold.Chemscore.Metal.Weighted>
-0.0000

> <Gold.Chemscore.Lipo.Weighted>
-8.8806

> <Gold.Chemscore.Internal_Hbond.Weighted>
0.0000

> <Gold.Chemscore.DEClash.Weighted>
0.1334

> <Gold.Chemscore.DEInternal.Weighted>
0.2747

> <Gold.Chemscore.Rot.Weighted>
3.9233

> <Gold.Chemscore.Internal.Correction.Weighted>
   9.000000E+99

> <Gold.Protein.RotatedTorsions>
[ 6907 6896 6895 6894 ] final  134.32 input  -60.11 | X-H torsion
[ 7974 7965 7964 7962 ] final   59.61 input  175.53 | X-H torsion
[ 8008 7997 7996 7995 ] final  120.77 input   59.86 | X-H torsion
[ 10167 10162 10161 10158 ] final   85.76 input  -65.29 | X-H torsion
[ 10718 10713 10712 10709 ] final -124.54 input   66.30 | X-H torsion
[ 10763 10752 10751 10750 ] final  -73.63 input  -60.55 | X-H torsion
[ 11005 11000 10999 10996 ] final -135.21 input  -57.11 | X-H torsion

> <Gold.Protein.ActiveResidues>
 VAL166  LYS551  ARG553  GLY616  TRP617  ASP618  TYR619  PRO620  LYS621  CYS622 
 ASP623  PHE694  ASN695  SER759  ASP760  ASP761  ALA762  ILE779  LEU786  VAL792 
 PHE793  MET794  SER795  GLU796  ALA797  LYS798  CYS799  TRP800  GLU811  SER814 

> <Gold.Protein.RotatedAtoms>
  152.3125  133.5768  159.5690 H   0  0  0  0  0  0  0  0  0  0  0  0  # atno 6907 bound_to 6896
  150.7330  134.0131  159.3685 H   0  0  0  0  0  0  0  0  0  0  0  0  # atno 6908 bound_to 6896
  151.8022  135.0706  160.0453 H   0  0  0  0  0  0  0  0  0  0  0  0  # atno 6909 bound_to 6896
  145.9053  139.3612  143.0568 H   0  0  0  0  0  0  0  0  0  0  0  0  # atno 7974 bound_to 7965
  156.2657  140.2823  156.1202 H   0  0  0  0  0  0  0  0  0  0  0  0  # atno 8008 bound_to 7997
  155.1163  140.0391  157.2755 H   0  0  0  0  0  0  0  0  0  0  0  0  # atno 8009 bound_to 7997
  154.6704  140.2586  155.7019 H   0  0  0  0  0  0  0  0  0  0  0  0  # atno 8010 bound_to 7997
  139.8945  144.6366  150.8703 H   0  0  0  0  0  0  0  0  0  0  0  0  # atno 10167 bound_to 10162
  156.1596  130.6592  151.0031 H   0  0  0  0  0  0  0  0  0  0  0  0  # atno 10718 bound_to 10713
  154.4621  135.5891  153.6263 H   0  0  0  0  0  0  0  0  0  0  0  0  # atno 10763 bound_to 10752
  152.9824  135.6046  154.3473 H   0  0  0  0  0  0  0  0  0  0  0  0  # atno 10764 bound_to 10752
  154.3346  135.2842  155.2433 H   0  0  0  0  0  0  0  0  0  0  0  0  # atno 10765 bound_to 10752
  140.8919  134.1801  157.4521 H   0  0  0  0  0  0  0  0  0  0  0  0  # atno 11005 bound_to 11000
  145.8740  140.9403  143.0635 LP  0  0  0  0  0  0  0  0  0  0  0  0  # atno 17320 bound_to 7965
  144.6739  140.0692  143.7473 LP  0  0  0  0  0  0  0  0  0  0  0  0  # atno 17321 bound_to 7965
  140.7720  143.3484  151.2063 LP  0  0  0  0  0  0  0  0  0  0  0  0  # atno 17342 bound_to 10162
  139.7080  143.9423  152.2935 LP  0  0  0  0  0  0  0  0  0  0  0  0  # atno 17343 bound_to 10162
  157.6722  131.0859  150.7584 LP  0  0  0  0  0  0  0  0  0  0  0  0  # atno 17370 bound_to 10713
  156.7647  130.4810  149.5430 LP  0  0  0  0  0  0  0  0  0  0  0  0  # atno 17371 bound_to 10713
  139.8731  134.9862  156.5314 LP  0  0  0  0  0  0  0  0  0  0  0  0  # atno 17394 bound_to 11000
  140.8336  133.8259  155.9007 LP  0  0  0  0  0  0  0  0  0  0  0  0  # atno 17395 bound_to 11000

$$$$
