AV-unprocessed.smi:467|AV-procd|sdf|2644|dock7
  -GOLD-   2262023 53D 1   1.00000     0.00000
 Structure written by MMmdl.
 44 46  0  0  0  0  0  0  0  0  1 V2000
  154.2158  142.2952  163.1431 C   0  0  0  0  0  0  0  0  0  0  0  0
  153.5163  142.5049  161.8118 C   0  0  0  0  0  0  0  0  0  0  0  0
  152.6263  143.5931  161.6665 C   0  0  0  0  0  0  0  0  0  0  0  0
  151.9611  143.8264  160.4428 C   0  0  0  0  0  0  0  0  0  0  0  0
  151.0662  144.8190  160.0810 N   0  0  0  0  0  0  0  0  0  0  0  0
  150.8071  144.4980  158.8166 C   0  0  0  0  0  0  0  0  0  0  0  0
  151.4273  143.4123  158.3161 N   0  0  0  0  0  0  0  0  0  0  0  0
  151.3000  142.8759  156.9725 C   0  0  0  0  0  0  0  0  0  0  0  0
  150.1512  141.8567  156.8484 C   0  0  1  0  0  0  0  0  0  0  0  0
  148.9185  142.5092  157.0827 O   0  0  0  0  0  0  0  0  0  0  0  0
  150.1060  141.2255  155.4426 C   0  0  0  0  0  0  0  0  0  0  0  0
  150.6863  139.8857  155.3320 N   0  0  0  0  0  0  0  0  0  0  0  0
  152.1484  139.8953  155.3465 C   0  0  0  0  0  0  0  0  0  0  0  0
  152.7330  138.4793  155.2000 C   0  0  0  0  0  0  0  0  0  0  0  0
  152.2406  137.8779  154.0072 O   0  0  0  0  0  0  0  0  0  0  0  0
  150.8191  137.8065  153.9762 C   0  0  0  0  0  0  0  0  0  0  0  0
  150.2311  139.2211  154.1152 C   0  0  0  0  0  0  0  0  0  0  0  0
  152.2080  142.9306  159.3616 C   0  0  0  0  0  0  0  0  0  0  0  0
  153.0890  141.8431  159.4948 C   0  0  0  0  0  0  0  0  0  0  0  0
  153.7503  141.6280  160.7220 C   0  0  0  0  0  0  0  0  0  0  0  0
  154.7087  140.4575  160.8511 C   0  0  0  0  0  0  0  0  0  0  0  0
  153.8844  143.0211  163.8862 H   0  0  0  0  0  0  0  0  0  0  0  0
  155.2945  142.4025  163.0271 H   0  0  0  0  0  0  0  0  0  0  0  0
  154.0067  141.2994  163.5340 H   0  0  0  0  0  0  0  0  0  0  0  0
  152.4491  144.2624  162.4955 H   0  0  0  0  0  0  0  0  0  0  0  0
  150.1269  145.0861  158.2180 H   0  0  0  0  0  0  0  0  0  0  0  0
  151.1561  143.7047  156.2778 H   0  0  0  0  0  0  0  0  0  0  0  0
  152.2474  142.4068  156.7032 H   0  0  0  0  0  0  0  0  0  0  0  0
  150.2884  141.0917  157.6116 H   0  0  0  0  0  0  0  0  0  0  0  0
  149.0282  143.4282  156.8906 H   0  0  0  0  0  0  0  0  0  0  0  0
  149.0627  141.1913  155.1247 H   0  0  0  0  0  0  0  0  0  0  0  0
  150.6071  141.8889  154.7360 H   0  0  0  0  0  0  0  0  0  0  0  0
  152.5228  140.5255  154.5385 H   0  0  0  0  0  0  0  0  0  0  0  0
  152.5191  140.3249  156.2760 H   0  0  0  0  0  0  0  0  0  0  0  0
  153.8213  138.5208  155.1557 H   0  0  0  0  0  0  0  0  0  0  0  0
  152.4705  137.8626  156.0612 H   0  0  0  0  0  0  0  0  0  0  0  0
  150.5044  137.3555  153.0351 H   0  0  0  0  0  0  0  0  0  0  0  0
  150.4619  137.1588  154.7785 H   0  0  0  0  0  0  0  0  0  0  0  0
  149.1422  139.1579  154.1128 H   0  0  0  0  0  0  0  0  0  0  0  0
  150.5106  139.8139  153.2426 H   0  0  0  0  0  0  0  0  0  0  0  0
  153.2590  141.1851  158.6553 H   0  0  0  0  0  0  0  0  0  0  0  0
  154.7867  139.9027  159.9157 H   0  0  0  0  0  0  0  0  0  0  0  0
  154.3679  139.7671  161.6229 H   0  0  0  0  0  0  0  0  0  0  0  0
  155.7066  140.8085  161.1148 H   0  0  0  0  0  0  0  0  0  0  0  0
  1  2  1  0  0  0  0
  1 22  1  0  0  0  0
  1 23  1  0  0  0  0
  1 24  1  0  0  0  0
  2 20  1  0  0  0  0
  2  3  2  0  0  0  0
  3  4  1  0  0  0  0
  3 25  1  0  0  0  0
  4 18  2  0  0  0  0
  4  5  1  0  0  0  0
  5  6  2  0  0  0  0
  6  7  1  0  0  0  0
  6 26  1  0  0  0  0
  7  8  1  0  0  0  0
  7 18  1  0  0  0  0
  8  9  1  0  0  0  0
  8 27  1  0  0  0  0
  8 28  1  0  0  0  0
  9 10  1  0  0  0  0
  9 11  1  0  0  0  0
  9 29  1  0  0  0  0
 10 30  1  0  0  0  0
 11 12  1  0  0  0  0
 11 31  1  0  0  0  0
 11 32  1  0  0  0  0
 12 17  1  0  0  0  0
 12 13  1  0  0  0  0
 13 14  1  0  0  0  0
 13 33  1  0  0  0  0
 13 34  1  0  0  0  0
 14 15  1  0  0  0  0
 14 35  1  0  0  0  0
 14 36  1  0  0  0  0
 15 16  1  0  0  0  0
 16 17  1  0  0  0  0
 16 37  1  0  0  0  0
 16 38  1  0  0  0  0
 17 39  1  0  0  0  0
 17 40  1  0  0  0  0
 18 19  1  0  0  0  0
 19 20  2  0  0  0  0
 19 41  1  0  0  0  0
 20 21  1  0  0  0  0
 21 42  1  0  0  0  0
 21 43  1  0  0  0  0
 21 44  1  0  0  0  0
M  END
> <s_m_source_file>
AV-unprocessed.smi

> <i_m_source_file_index>
467

> <i_lp_mmshare_version>
43012

> <i_f3d_flags>
0

> <s_epik_input>
W0NIM11jKFtjSF0xKWMoW0NIM10pW2NIXWMoYzEyKW4oW2NIXW4yKVtDSDJdW0NASF0oW09IXSlbQ0gyXU4zW0NIMl1bQ0gyXU9bQ0gyXVtDSDJdMw==

> <s_epik_cmdline>
J2VwaWtfcHl0aG9uJywgJy1waCcsICc3LjAnLCAnLXRuJywgJzgnLCAnLW1hJywgJzIwMCcsICctbWV0YWxfYmluZGluZycsICctaW1hZScsICc8aW5maWxlLm1hZT4nLCAnLW9tYWUnLCAnPG91dGZpbGUubWFlPic=

> <r_epik_Ionization_Penalty>
0.345029

> <r_epik_Ionization_Penalty_Charging>
0

> <r_epik_Ionization_Penalty_Neutral>
0.345029

> <r_epik_State_Penalty>
0.314465

> <r_epik_Charging_Adjusted_Penalty>
0.314465

> <i_epik_Tot_Q>
0

> <i_epik_Tot_abs_Q>
0

> <r_epik_Metal_State_Penalty>
0.239717

> <b_epik_Metal_Only>
0

> <s_lp_Force_Field>
OPLS_2005

> <r_lp_Energy>
29.8688

> <b_lp_Chiralities_Consistent>
1

> <s_lp_Variant>
AV-unprocessed.smi:467-2

> <Gold.Version>
5.8.1

> <Gold.Id.Protein>
6NUR|6NUR_protein|mol2

> <Gold.PLP.Fitness>
61.2845

> <Gold.PLP.PLP>
-55.7484

> <Gold.PLP.part.hbond>
-1.8439

> <Gold.PLP.part.metal>
0.0000

> <Gold.PLP.part.buried>
-6.2692

> <Gold.PLP.part.nonpolar>
-47.5640

> <Gold.PLP.part.repulsive>
0.2797

> <Gold.PLP.ligand.clash>
0.0000

> <Gold.PLP.ligand.torsion>
1.0988

> <Gold.PLP.Chemscore.Hbond>
1.6720

> <Gold.PLP.Chemscore.CHOScore>
0.8936

> <Gold.PLP.Chemscore.Metal>
0.0000

> <Gold.Chemscore.Hbonds>
donor molecule, donor type, donor heavy atom, donor atom, acceptor molecule, acceptor atom, score
      L1  H    10    30       P1  8028  0.94
      P1  H 10752 10765       L1    15  0.22
      L1  C     6    26       P1  8028  0.09
      L1  C     6    26       P1  8029  0.87

> <Gold.PLP.Chemscore.Internal.Correction>
0.0370

> <Gold.Rescore>
     Score         DG    S(hbond)    S(metal)    S(lipo)     H(rot)  DE(clash)    DE(int)     intcor
     21.24     -22.44       1.78        0.00     138.33       2.02       0.04       1.16       ----

> <Gold.Chemscore.Fitness>
21.2405

> <Gold.Chemscore.DG>
-22.4392

> <Gold.Chemscore.ZeroCoef>
-5.4800

> <Gold.Chemscore.Hbond>
1.7822

> <Gold.Chemscore.Metal>
0.0000

> <Gold.Chemscore.Lipo>
138.3306

> <Gold.Chemscore.Internal_Hbond>
0.0000

> <Gold.Chemscore.DEClash>
0.0357

> <Gold.Chemscore.DEInternal>
1.1630

> <Gold.Chemscore.Rot>
2.0227

> <Gold.Chemscore.Internal.Correction>
   9.000000E+99

> <Gold.Chemscore.Hbonds>
donor molecule, donor type, donor heavy atom, donor atom, acceptor molecule, acceptor atom, score
      L1  H    10    30       P1  8028  0.71
      P1  H 10752 10765       L1    15  0.04

> <Gold.Chemscore.Hbond.Weighted>
-5.9526

> <Gold.Chemscore.Metal.Weighted>
-0.0000

> <Gold.Chemscore.Lipo.Weighted>
-16.1847

> <Gold.Chemscore.Internal_Hbond.Weighted>
0.0000

> <Gold.Chemscore.DEClash.Weighted>
0.0357

> <Gold.Chemscore.DEInternal.Weighted>
1.1630

> <Gold.Chemscore.Rot.Weighted>
5.1780

> <Gold.Chemscore.Internal.Correction.Weighted>
   9.000000E+99

> <Gold.Protein.RotatedTorsions>
[ 6907 6896 6895 6894 ] final -154.34 input  -60.11 | X-H torsion
[ 7974 7965 7964 7962 ] final  105.16 input  175.53 | X-H torsion
[ 8008 7997 7996 7995 ] final   27.80 input   59.86 | X-H torsion
[ 10167 10162 10161 10158 ] final  -19.07 input  -65.29 | X-H torsion
[ 10718 10713 10712 10709 ] final   37.77 input   66.30 | X-H torsion
[ 10763 10752 10751 10750 ] final  159.38 input  -60.55 | X-H torsion
[ 11005 11000 10999 10996 ] final -116.18 input  -57.11 | X-H torsion

> <Gold.Protein.ActiveResidues>
 VAL166  LYS551  ARG553  GLY616  TRP617  ASP618  TYR619  PRO620  LYS621  CYS622 
 ASP623  PHE694  ASN695  SER759  ASP760  ASP761  ALA762  ILE779  LEU786  VAL792 
 PHE793  MET794  SER795  GLU796  ALA797  LYS798  CYS799  TRP800  GLU811  SER814 

> <Gold.Protein.RotatedAtoms>
  151.2560  133.4326  159.2613 H   0  0  0  0  0  0  0  0  0  0  0  0  # atno 6907 bound_to 6896
  151.0574  134.9714  159.8253 H   0  0  0  0  0  0  0  0  0  0  0  0  # atno 6908 bound_to 6896
  152.5393  134.2512  159.8952 H   0  0  0  0  0  0  0  0  0  0  0  0  # atno 6909 bound_to 6896
  145.3234  139.2506  143.3700 H   0  0  0  0  0  0  0  0  0  0  0  0  # atno 7974 bound_to 7965
  155.0486  140.3177  155.4700 H   0  0  0  0  0  0  0  0  0  0  0  0  # atno 8008 bound_to 7997
  156.2839  140.2150  156.5555 H   0  0  0  0  0  0  0  0  0  0  0  0  # atno 8009 bound_to 7997
  154.7230  140.0488  157.0644 H   0  0  0  0  0  0  0  0  0  0  0  0  # atno 8010 bound_to 7997
  140.7265  143.4854  151.0062 H   0  0  0  0  0  0  0  0  0  0  0  0  # atno 10167 bound_to 10162
  157.3509  130.7598  149.6977 H   0  0  0  0  0  0  0  0  0  0  0  0  # atno 10718 bound_to 10713
  154.2308  135.2778  155.2890 H   0  0  0  0  0  0  0  0  0  0  0  0  # atno 10763 bound_to 10752
  154.5625  135.5643  153.7024 H   0  0  0  0  0  0  0  0  0  0  0  0  # atno 10764 bound_to 10752
  153.0020  135.6301  154.2450 H   0  0  0  0  0  0  0  0  0  0  0  0  # atno 10765 bound_to 10752
  141.0439  133.9793  157.2949 H   0  0  0  0  0  0  0  0  0  0  0  0  # atno 11005 bound_to 11000
  146.3074  140.3796  142.8682 LP  0  0  0  0  0  0  0  0  0  0  0  0  # atno 17320 bound_to 7965
  144.8921  140.7537  143.5920 LP  0  0  0  0  0  0  0  0  0  0  0  0  # atno 17321 bound_to 7965
  139.8555  143.7382  152.3176 LP  0  0  0  0  0  0  0  0  0  0  0  0  # atno 17342 bound_to 10162
  139.7579  144.7515  151.0407 LP  0  0  0  0  0  0  0  0  0  0  0  0  # atno 17343 bound_to 10162
  155.9721  130.4141  150.4115 LP  0  0  0  0  0  0  0  0  0  0  0  0  # atno 17370 bound_to 10713
  157.2177  131.0475  151.2564 LP  0  0  0  0  0  0  0  0  0  0  0  0  # atno 17371 bound_to 10713
  139.9297  135.0200  156.8357 LP  0  0  0  0  0  0  0  0  0  0  0  0  # atno 17394 bound_to 11000
  140.6183  134.0018  155.7607 LP  0  0  0  0  0  0  0  0  0  0  0  0  # atno 17395 bound_to 11000

$$$$
