AV-unprocessed.smi:151|AV-procd|sdf|1244|dock9
  -GOLD-   2262018463D 1   1.00000     0.00000
 Structure written by MMmdl.
 56 59  0  0  0  0  0  0  0  0  1 V2000
  151.1238  138.7059  154.1643 C   0  0  0  0  0  0  0  0  0  0  0  0
  149.6302  138.4649  154.4406 C   0  0  0  0  0  0  0  0  0  0  0  0
  148.6770  139.5821  153.9404 C   0  0  2  0  0  0  0  0  0  0  0  0
  149.2292  140.9818  154.2880 C   0  0  0  0  0  0  0  0  0  0  0  0
  148.3350  142.0058  153.8609 O   0  0  0  0  0  0  0  0  0  0  0  0
  147.0123  141.9165  154.3956 C   0  0  0  0  0  0  0  0  0  0  0  0
  146.9959  142.1542  155.9212 C   0  0  0  0  0  0  0  0  0  0  0  0
  146.2123  143.0293  153.7009 C   0  0  0  0  0  0  0  0  0  0  0  0
  146.4258  140.5408  154.0220 C   0  0  0  0  0  0  0  0  0  0  0  0
  147.3023  139.4508  154.4383 N   0  0  0  0  0  0  0  0  0  0  0  0
  146.6735  138.2635  154.2702 C   0  0  0  0  0  0  0  0  0  0  0  0
  146.3595  137.4907  155.3437 N   0  0  0  0  0  0  0  0  0  0  0  0
  145.7590  136.3108  155.1627 C   0  0  0  0  0  0  0  0  0  0  0  0
  145.4009  135.7230  154.0192 N   0  0  0  0  0  0  0  0  0  0  0  0
  145.7292  136.4893  152.9390 C   0  0  0  0  0  0  0  0  0  0  0  0
  146.3645  137.7618  152.9785 C   0  0  0  0  0  0  0  0  0  0  0  0
  146.5449  138.2478  151.6904 N   0  0  0  0  0  0  0  0  0  0  0  0
  146.0416  137.3148  150.9293 C   0  0  0  0  0  0  0  0  0  0  0  0
  145.5300  136.2214  151.5935 N   0  0  0  0  0  0  0  0  0  0  0  0
  144.9182  135.0695  150.9912 C   0  0  0  0  0  0  0  0  0  0  0  0
  144.3743  133.9226  151.8487 C   0  0  0  0  0  0  0  0  0  0  0  0
  144.8518  132.8989  150.7916 C   0  0  0  0  0  0  0  0  0  0  0  0
  145.5817  131.6532  151.3291 C   0  0  0  0  0  0  0  0  0  0  0  0
  146.8528  131.9517  151.8711 O   0  0  0  0  0  0  0  0  0  0  0  0
  143.7692  132.3485  149.8395 C   0  0  0  0  0  0  0  0  0  0  0  0
  143.2630  133.3172  148.9432 O   0  0  0  0  0  0  0  0  0  0  0  0
  145.7451  134.0294  150.2272 C   0  0  0  0  0  0  0  0  0  0  0  0
  151.7230  137.8928  154.5742 H   0  0  0  0  0  0  0  0  0  0  0  0
  151.4728  139.6314  154.6228 H   0  0  0  0  0  0  0  0  0  0  0  0
  151.3375  138.7577  153.0974 H   0  0  0  0  0  0  0  0  0  0  0  0
  149.3370  137.5205  153.9813 H   0  0  0  0  0  0  0  0  0  0  0  0
  149.4968  138.3102  155.5108 H   0  0  0  0  0  0  0  0  0  0  0  0
  148.6340  139.5187  152.8519 H   0  0  0  0  0  0  0  0  0  0  0  0
  149.4258  141.0875  155.3536 H   0  0  0  0  0  0  0  0  0  0  0  0
  150.1856  141.1371  153.7883 H   0  0  0  0  0  0  0  0  0  0  0  0
  145.9730  142.1978  156.2963 H   0  0  0  0  0  0  0  0  0  0  0  0
  147.4822  143.0956  156.1781 H   0  0  0  0  0  0  0  0  0  0  0  0
  147.4982  141.3602  156.4734 H   0  0  0  0  0  0  0  0  0  0  0  0
  145.1696  143.0274  154.0200 H   0  0  0  0  0  0  0  0  0  0  0  0
  146.2263  142.9090  152.6171 H   0  0  0  0  0  0  0  0  0  0  0  0
  146.6265  144.0126  153.9267 H   0  0  0  0  0  0  0  0  0  0  0  0
  145.4379  140.4277  154.4720 H   0  0  0  0  0  0  0  0  0  0  0  0
  146.2875  140.4791  152.9411 H   0  0  0  0  0  0  0  0  0  0  0  0
  145.5341  135.7578  156.0627 H   0  0  0  0  0  0  0  0  0  0  0  0
  146.0299  137.4020  149.8524 H   0  0  0  0  0  0  0  0  0  0  0  0
  144.1263  135.4508  150.3452 H   0  0  0  0  0  0  0  0  0  0  0  0
  144.8885  133.8354  152.8063 H   0  0  0  0  0  0  0  0  0  0  0  0
  143.2945  133.9538  151.9977 H   0  0  0  0  0  0  0  0  0  0  0  0
  144.9946  131.1675  152.1094 H   0  0  0  0  0  0  0  0  0  0  0  0
  145.7238  130.9157  150.5383 H   0  0  0  0  0  0  0  0  0  0  0  0
  147.5158  131.6164  151.2870 H   0  0  0  0  0  0  0  0  0  0  0  0
  144.1626  131.5239  149.2440 H   0  0  0  0  0  0  0  0  0  0  0  0
  142.9256  131.9501  150.4043 H   0  0  0  0  0  0  0  0  0  0  0  0
  142.3375  133.4207  149.1036 H   0  0  0  0  0  0  0  0  0  0  0  0
  145.7052  134.1417  149.1434 H   0  0  0  0  0  0  0  0  0  0  0  0
  146.7801  133.9795  150.5655 H   0  0  0  0  0  0  0  0  0  0  0  0
  1  2  1  0  0  0  0
  1 28  1  0  0  0  0
  1 29  1  0  0  0  0
  1 30  1  0  0  0  0
  2  3  1  0  0  0  0
  2 31  1  0  0  0  0
  2 32  1  0  0  0  0
  3 10  1  0  0  0  0
  3  4  1  0  0  0  0
  3 33  1  0  0  0  0
  4  5  1  0  0  0  0
  4 34  1  0  0  0  0
  4 35  1  0  0  0  0
  5  6  1  0  0  0  0
  6  7  1  0  0  0  0
  6  8  1  0  0  0  0
  6  9  1  0  0  0  0
  7 36  1  0  0  0  0
  7 37  1  0  0  0  0
  7 38  1  0  0  0  0
  8 39  1  0  0  0  0
  8 40  1  0  0  0  0
  8 41  1  0  0  0  0
  9 10  1  0  0  0  0
  9 42  1  0  0  0  0
  9 43  1  0  0  0  0
 10 11  1  0  0  0  0
 11 16  1  0  0  0  0
 11 12  2  0  0  0  0
 12 13  1  0  0  0  0
 13 14  2  0  0  0  0
 13 44  1  0  0  0  0
 14 15  1  0  0  0  0
 15 19  1  0  0  0  0
 15 16  2  0  0  0  0
 16 17  1  0  0  0  0
 17 18  2  0  0  0  0
 18 19  1  0  0  0  0
 18 45  1  0  0  0  0
 19 20  1  0  0  0  0
 20 27  1  0  0  0  0
 20 21  1  0  0  0  0
 20 46  1  0  0  0  0
 21 22  1  0  0  0  0
 21 47  1  0  0  0  0
 21 48  1  0  0  0  0
 22 23  1  0  0  0  0
 22 25  1  0  0  0  0
 22 27  1  0  0  0  0
 23 24  1  0  0  0  0
 23 49  1  0  0  0  0
 23 50  1  0  0  0  0
 24 51  1  0  0  0  0
 25 26  1  0  0  0  0
 25 52  1  0  0  0  0
 25 53  1  0  0  0  0
 26 54  1  0  0  0  0
 27 55  1  0  0  0  0
 27 56  1  0  0  0  0
M  END
> <s_m_source_file>
AV-unprocessed.smi

> <i_m_source_file_index>
151

> <i_lp_mmshare_version>
43012

> <i_f3d_flags>
0

> <s_epik_input>
W0NIM11DMShbQ0gzXSlPW0NIMl1bQ0BASF0oW0NIMl1bQ0gzXSlOKFtDSDJdMSljKG5bY0hdbjIpYyhjMjMpbltjSF1uM1tDSF0oW0NIMl00KVtDSDJdQzQoW0NIMl1bT0hdKVtDSDJdW09IXQ==

> <s_epik_cmdline>
J2VwaWtfcHl0aG9uJywgJy1waCcsICc3LjAnLCAnLXRuJywgJzgnLCAnLW1hJywgJzIwMCcsICctbWV0YWxfYmluZGluZycsICctaW1hZScsICc8aW5maWxlLm1hZT4nLCAnLW9tYWUnLCAnPG91dGZpbGUubWFlPic=

> <r_lp_tautomer_probability>
1

> <r_epik_Ionization_Penalty>
0.000102837

> <r_epik_Ionization_Penalty_Charging>
0

> <r_epik_Ionization_Penalty_Neutral>
0.000102837

> <r_epik_State_Penalty>
-0

> <r_epik_Charging_Adjusted_Penalty>
0

> <i_epik_Tot_Q>
0

> <i_epik_Tot_abs_Q>
0

> <r_epik_Metal_State_Penalty>
-0

> <b_epik_Metal_Only>
0

> <s_lp_Force_Field>
OPLS_2005

> <r_lp_Energy>
52.7657

> <b_lp_Chiralities_Consistent>
1

> <s_lp_Variant>
AV-unprocessed.smi:151-1

> <Gold.Version>
5.8.1

> <Gold.Id.Protein>
6NUR|6NUR_protein|mol2

> <Gold.PLP.Fitness>
47.2528

> <Gold.PLP.PLP>
-41.2523

> <Gold.PLP.part.hbond>
-3.0000

> <Gold.PLP.part.metal>
0.0000

> <Gold.PLP.part.buried>
-1.1537

> <Gold.PLP.part.nonpolar>
-38.6401

> <Gold.PLP.part.repulsive>
0.7563

> <Gold.PLP.ligand.clash>
0.0000

> <Gold.PLP.ligand.torsion>
0.8400

> <Gold.PLP.Chemscore.Hbond>
2.0674

> <Gold.PLP.Chemscore.CHOScore>
0.3179

> <Gold.PLP.Chemscore.Metal>
0.0000

> <Gold.Chemscore.Hbonds>
donor molecule, donor type, donor heavy atom, donor atom, acceptor molecule, acceptor atom, score
      L1  H    24    51       P1 10747  1.00
      L1  H    26    54       P1 10186  1.00
      P1  H  8011  8017       L1     5  0.10
      L1  C    18    45       P1 10171  0.30

> <Gold.PLP.Chemscore.Internal.Correction>
0.5246

> <Gold.Rescore>
     Score         DG    S(hbond)    S(metal)    S(lipo)     H(rot)  DE(clash)    DE(int)     intcor
     10.56     -15.39       2.00        0.00      98.98       3.26       2.98       1.84       ----

> <Gold.Chemscore.Fitness>
10.5640

> <Gold.Chemscore.DG>
-15.3923

> <Gold.Chemscore.ZeroCoef>
-5.4800

> <Gold.Chemscore.Hbond>
1.9989

> <Gold.Chemscore.Metal>
0.0000

> <Gold.Chemscore.Lipo>
98.9788

> <Gold.Chemscore.Internal_Hbond>
0.0000

> <Gold.Chemscore.DEClash>
2.9841

> <Gold.Chemscore.DEInternal>
1.8441

> <Gold.Chemscore.Rot>
3.2596

> <Gold.Chemscore.Internal.Correction>
   9.000000E+99

> <Gold.Chemscore.Hbonds>
donor molecule, donor type, donor heavy atom, donor atom, acceptor molecule, acceptor atom, score
      L1  H    24    51       P1 10747  0.99
      L1  H    26    54       P1 10186  0.94

> <Gold.Chemscore.Hbond.Weighted>
-6.6765

> <Gold.Chemscore.Metal.Weighted>
-0.0000

> <Gold.Chemscore.Lipo.Weighted>
-11.5805

> <Gold.Chemscore.Internal_Hbond.Weighted>
0.0000

> <Gold.Chemscore.DEClash.Weighted>
2.9841

> <Gold.Chemscore.DEInternal.Weighted>
1.8441

> <Gold.Chemscore.Rot.Weighted>
8.3447

> <Gold.Chemscore.Internal.Correction.Weighted>
   9.000000E+99

> <Gold.Protein.RotatedTorsions>
[ 6907 6896 6895 6894 ] final -141.85 input  -60.11 | X-H torsion
[ 7974 7965 7964 7962 ] final -108.50 input  175.53 | X-H torsion
[ 8008 7997 7996 7995 ] final  -58.22 input   59.86 | X-H torsion
[ 10167 10162 10161 10158 ] final -107.27 input  -65.29 | X-H torsion
[ 10718 10713 10712 10709 ] final -108.47 input   66.30 | X-H torsion
[ 10763 10752 10751 10750 ] final   59.46 input  -60.55 | X-H torsion
[ 11005 11000 10999 10996 ] final  -78.58 input  -57.11 | X-H torsion

> <Gold.Protein.ActiveResidues>
 VAL166  LYS551  ARG553  GLY616  TRP617  ASP618  TYR619  PRO620  LYS621  CYS622 
 ASP623  PHE694  ASN695  SER759  ASP760  ASP761  ALA762  ILE779  LEU786  VAL792 
 PHE793  MET794  SER795  GLU796  ALA797  LYS798  CYS799  TRP800  GLU811  SER814 

> <Gold.Protein.RotatedAtoms>
  151.0793  133.5403  159.2621 H   0  0  0  0  0  0  0  0  0  0  0  0  # atno 6907 bound_to 6896
  151.2313  135.0554  159.8998 H   0  0  0  0  0  0  0  0  0  0  0  0  # atno 6908 bound_to 6896
  152.5421  134.0581  159.8193 H   0  0  0  0  0  0  0  0  0  0  0  0  # atno 6909 bound_to 6896
  145.1921  140.9019  143.3418 H   0  0  0  0  0  0  0  0  0  0  0  0  # atno 7974 bound_to 7965
  154.4300  140.1089  156.5922 H   0  0  0  0  0  0  0  0  0  0  0  0  # atno 8008 bound_to 7997
  155.5999  140.3493  155.4572 H   0  0  0  0  0  0  0  0  0  0  0  0  # atno 8009 bound_to 7997
  156.0181  140.1233  157.0375 H   0  0  0  0  0  0  0  0  0  0  0  0  # atno 8010 bound_to 7997
  140.1788  143.3983  152.1297 H   0  0  0  0  0  0  0  0  0  0  0  0  # atno 10167 bound_to 10162
  156.0487  130.5714  150.7965 H   0  0  0  0  0  0  0  0  0  0  0  0  # atno 10718 bound_to 10713
  152.9895  135.5570  154.5717 H   0  0  0  0  0  0  0  0  0  0  0  0  # atno 10763 bound_to 10752
  154.5116  135.2802  155.1340 H   0  0  0  0  0  0  0  0  0  0  0  0  # atno 10764 bound_to 10752
  154.2729  135.6359  153.5370 H   0  0  0  0  0  0  0  0  0  0  0  0  # atno 10765 bound_to 10752
  141.1665  133.7069  156.7993 H   0  0  0  0  0  0  0  0  0  0  0  0  # atno 11005 bound_to 11000
  145.0031  139.3580  143.6158 LP  0  0  0  0  0  0  0  0  0  0  0  0  # atno 17320 bound_to 7965
  146.3434  139.9262  142.8760 LP  0  0  0  0  0  0  0  0  0  0  0  0  # atno 17321 bound_to 7965
  139.5305  144.7153  151.5073 LP  0  0  0  0  0  0  0  0  0  0  0  0  # atno 17342 bound_to 10162
  140.6533  143.8651  150.6809 LP  0  0  0  0  0  0  0  0  0  0  0  0  # atno 17343 bound_to 10162
  157.5391  131.0940  150.9852 LP  0  0  0  0  0  0  0  0  0  0  0  0  # atno 17370 bound_to 10713
  157.0140  130.5648  149.5324 LP  0  0  0  0  0  0  0  0  0  0  0  0  # atno 17371 bound_to 10713
  140.2268  134.8716  157.3435 LP  0  0  0  0  0  0  0  0  0  0  0  0  # atno 17394 bound_to 11000
  140.1931  134.4347  155.7704 LP  0  0  0  0  0  0  0  0  0  0  0  0  # atno 17395 bound_to 11000

$$$$
