#       Name:                AV-unprocessed.smi:739
#       Creating user name   scv26
#       Creation time:       Fri Mar 27 00:53:55 2020


#       File generated by GOLD software.
#

@<TRIPOS>MOLECULE
AV-unprocessed.smi:739
    35    37     1
SMALL
NO_CHARGES


@<TRIPOS>ATOM
      1 ****        -1.3802   1.6853   0.6540 O.3            1 S1                 0.0000
      2 ****        -0.8793   0.3623   0.6726 C.3            1 S1                 0.0000
      3 ****         0.6617   0.3910   0.6509 C.3            1 S1                 0.0000
      4 ****         1.2026   1.1015  -0.5150 N.pl3          1 S1                 0.0000
      5 ****         1.6386   2.3851  -0.6323 C.2            1 S1                 0.0000
      6 ****         2.0431   2.5646  -1.9207 N.pl3          1 S1                 1.0000
      7 ****         1.8621   1.3784  -2.6361 C.ar           1 S1                 0.0000
      8 ****         2.1227   1.0654  -3.9664 C.ar           1 S1                 0.0000
      9 ****         1.8196  -0.2485  -4.3810 C.ar           1 S1                 0.0000
     10 ****         2.0552  -0.6069  -5.6652 F              1 S1                 0.0000
     11 ****         1.2770  -1.1945  -3.4851 C.ar           1 S1                 0.0000
     12 ****         1.0005  -2.4452  -3.9244 F              1 S1                 0.0000
     13 ****         1.0163  -0.8651  -2.1386 C.ar           1 S1                 0.0000
     14 ****         1.3211   0.4347  -1.7382 C.ar           1 S1                 0.0000
     15 ****        -1.3987  -0.4350   1.8584 C.ar           1 S1                 0.0000
     16 ****        -1.8645  -1.7541   1.6699 C.ar           1 S1                 0.0000
     17 ****        -2.3390  -2.5030   2.7644 C.ar           1 S1                 0.0000
     18 ****        -2.3477  -1.9384   4.0543 C.ar           1 S1                 0.0000
     19 ****        -2.8037  -2.6590   5.1059 F              1 S1                 0.0000
     20 ****        -1.8803  -0.6245   4.2496 C.ar           1 S1                 0.0000
     21 ****        -1.4066   0.1252   3.1553 C.ar           1 S1                 0.0000
     22 ****        -2.3229   1.6472   0.5949 H              1 S1                 0.0000
     23 ****        -1.2368  -0.1156  -0.2403 H              1 S1                 0.0000
     24 ****         1.0468   0.8865   1.5434 H              1 S1                 0.0000
     25 ****         1.0714  -0.6200   0.6583 H              1 S1                 0.0000
     26 ****         1.6565   3.1271   0.1533 H              1 S1                 0.0000
     27 ****         2.5373   1.7867  -4.6553 H              1 S1                 0.0000
     28 ****         0.6002  -1.5959  -1.4613 H              1 S1                 0.0000
     29 ****        -1.8594  -2.1981   0.6850 H              1 S1                 0.0000
     30 ****        -2.6954  -3.5115   2.6144 H              1 S1                 0.0000
     31 ****        -1.8840  -0.1918   5.2391 H              1 S1                 0.0000
     32 ****        -1.0471   1.1310   3.3164 H              1 S1                 0.0000
     33 ****         2.4141   3.4346  -2.2812 H              1 S1                 0.0000
     34 ****        -1.0119   2.1747  -0.1365 LP             1 S1                 0.0000
     35 ****        -1.1135   2.1591   1.4933 LP             1 S1                 0.0000
@<TRIPOS>BOND
    1    1    2 1     
    2    1   22 1     
    3    2    3 1     
    4    2   15 1     
    5    2   23 1     
    6    3    4 1     
    7    3   24 1     
    8    3   25 1     
    9    4   14 1     
   10    4    5 1     
   11    5    6 2     
   12    5   26 1     
   13    6    7 1     
   14    6   33 1     
   15    7   14 ar    
   16    7    8 ar    
   17    8    9 ar    
   18    8   27 1     
   19    9   10 1     
   20    9   11 ar    
   21   11   12 1     
   22   11   13 ar    
   23   13   14 ar    
   24   13   28 1     
   25   15   21 ar    
   26   15   16 ar    
   27   16   17 ar    
   28   16   29 1     
   29   17   18 ar    
   30   17   30 1     
   31   18   19 1     
   32   18   20 ar    
   33   20   21 ar    
   34   20   31 1     
   35   21   32 1     
   36    1   34 1     
   37    1   35 1     
@<TRIPOS>SUBSTRUCTURE
      1 S1             1
@<TRIPOS>SET
LONE_PAIRS      STATIC     ATOMS    <user>   **** ""
2 34 35
DONOR_HYDROGENS      STATIC     ATOMS    <user>   **** ""
2 22 33
ATOM$BLUE        STATIC     ATOMS    COLORGROUP SYSTEM
2 34 35
ATOM$RED        STATIC     ATOMS    COLORGROUP SYSTEM
2 22 33
