#       Name:                AV-unprocessed.smi:2391
#       Creating user name   scv26
#       Creation time:       Fri Mar 27 13:11:33 2020


#       File generated by GOLD software.
#

@<TRIPOS>MOLECULE
AV-unprocessed.smi:2391
    39    40     1
SMALL
NO_CHARGES


@<TRIPOS>ATOM
      1 ****        -0.6509   1.5498   1.2925 O.2            1 S1                 0.0000
      2 ****        -1.1271   0.6296   0.6241 C.2            1 S1                 0.0000
      3 ****        -2.3945   0.5528   0.1553 N.pl3          1 S1                -1.0000
      4 ****        -3.2729   1.5335   0.4132 C.ar           1 S1                 0.0000
      5 ****        -4.0610   1.4945   1.5853 C.ar           1 S1                 0.0000
      6 ****        -4.9746   2.5372   1.8131 C.ar           1 S1                 0.0000
      7 ****        -5.0437   3.5525   0.8446 C.ar           1 S1                 0.0000
      8 ****        -4.2775   3.5473  -0.2673 N.ar           1 S1                 0.0000
      9 ****        -3.4103   2.5501  -0.4757 N.ar           1 S1                 0.0000
     10 ****        -0.3697  -0.4284   0.3007 N.am           1 S1                 0.0000
     11 ****         1.0364  -0.6377   0.6534 C.3            1 S1                 0.0000
     12 ****         1.7589  -1.3057  -0.5445 C.3            1 S1                 0.0000
     13 ****         3.2785  -1.4530  -0.3917 C.3            1 S1                 0.0000
     14 ****         3.8306  -1.6033  -1.8146 C.3            1 S1                 0.0000
     15 ****         2.7400  -1.0826  -2.7603 C.3            1 S1                 0.0000
     16 ****         1.6296  -0.5313  -1.8629 C.3            1 S1                 0.0000
     17 ****         1.1264  -1.4491   1.9690 C.3            1 S1                 0.0000
     18 ****         0.4530  -0.8356   2.9428 F              1 S1                 0.0000
     19 ****         0.6160  -2.6700   1.8025 F              1 S1                 0.0000
     20 ****         2.3918  -1.5640   2.3701 F              1 S1                 0.0000
     21 ****        -3.9641   0.6856   2.2947 H              1 S1                 0.0000
     22 ****        -5.5967   2.5567   2.6953 H              1 S1                 0.0000
     23 ****        -5.7254   4.3819   0.9613 H              1 S1                 0.0000
     24 ****        -0.8092  -1.1562  -0.2434 H              1 S1                 0.0000
     25 ****         1.5087   0.3319   0.8211 H              1 S1                 0.0000
     26 ****         1.3380  -2.3002  -0.7021 H              1 S1                 0.0000
     27 ****         3.6940  -0.5527   0.0632 H              1 S1                 0.0000
     28 ****         3.5550  -2.2986   0.2382 H              1 S1                 0.0000
     29 ****         4.7634  -1.0506  -1.9316 H              1 S1                 0.0000
     30 ****         4.0438  -2.6504  -2.0333 H              1 S1                 0.0000
     31 ****         3.1170  -0.3245  -3.4476 H              1 S1                 0.0000
     32 ****         2.3539  -1.9064  -3.3617 H              1 S1                 0.0000
     33 ****         0.6444  -0.6359  -2.3187 H              1 S1                 0.0000
     34 ****         1.7981   0.5322  -1.6861 H              1 S1                 0.0000
     35 ****        -1.2182   2.3365   1.5361 LP             1 S1                 0.0000
     36 ****         0.3027   1.5095   1.5911 LP             1 S1                 0.0000
     37 ****        -2.6776  -0.2389  -0.3860 LP             1 S1                 0.0000
     38 ****        -4.3582   4.2880  -0.9342 LP             1 S1                 0.0000
     39 ****        -2.8510   2.5538  -1.3046 LP             1 S1                 0.0000
@<TRIPOS>BOND
    1    1    2 2     
    2    2    3 1     
    3    2   10 am    
    4    3    4 1     
    5    4    9 ar    
    6    4    5 ar    
    7    5    6 ar    
    8    5   21 1     
    9    6    7 ar    
   10    6   22 1     
   11    7    8 ar    
   12    7   23 1     
   13    8    9 ar    
   14   10   11 1     
   15   10   24 1     
   16   11   12 1     
   17   11   17 1     
   18   11   25 1     
   19   12   16 1     
   20   12   13 1     
   21   12   26 1     
   22   13   14 1     
   23   13   27 1     
   24   13   28 1     
   25   14   15 1     
   26   14   29 1     
   27   14   30 1     
   28   15   16 1     
   29   15   31 1     
   30   15   32 1     
   31   16   33 1     
   32   16   34 1     
   33   17   18 1     
   34   17   19 1     
   35   17   20 1     
   36    1   35 1     
   37    1   36 1     
   38    3   37 1     
   39    8   38 1     
   40    9   39 1     
@<TRIPOS>SUBSTRUCTURE
      1 S1             1
@<TRIPOS>SET
LONE_PAIRS      STATIC     ATOMS    <user>   **** ""
5 35 36 37 38 39
DONOR_HYDROGENS      STATIC     ATOMS    <user>   **** ""
1 24
ATOM$BLUE        STATIC     ATOMS    COLORGROUP SYSTEM
5 35 36 37 38 39
ATOM$RED        STATIC     ATOMS    COLORGROUP SYSTEM
1 24
