AV-unprocessed.smi:114|AV-procd|sdf|1116|dock9
  -GOLD-   2262018233D 1   1.00000     0.00000
 Structure written by MMmdl.
 32 34  0  0  0  0  0  0  0  0  1 V2000
  143.3728  146.8477  154.3542 N   0  0  0  0  0  0  0  0  0  0  0  0
  143.8692  145.8149  155.0496 C   0  0  0  0  0  0  0  0  0  0  0  0
  143.6255  145.7556  156.3800 N   0  0  0  0  0  0  0  0  0  0  0  0
  144.1051  144.7417  157.1117 C   0  0  0  0  0  0  0  0  0  0  0  0
  143.8139  144.7641  158.4334 F   0  0  0  0  0  0  0  0  0  0  0  0
  144.8412  143.7095  156.6845 N   0  0  0  0  0  0  0  0  0  0  0  0
  145.0855  143.7675  155.3435 C   0  0  0  0  0  0  0  0  0  0  0  0
  144.6384  144.7832  154.4585 C   0  0  0  0  0  0  0  0  0  0  0  0
  145.0803  144.5149  153.1699 N   0  0  0  0  0  0  0  0  0  0  0  0
  145.7526  143.4010  153.2932 C   0  0  0  0  0  0  0  0  0  0  0  0
  145.8079  142.8849  154.5718 N   0  0  0  0  0  0  0  0  0  0  0  0
  146.4820  141.6427  155.0712 C   0  0  1  0  0  0  0  0  0  0  0  0
  146.1043  140.5767  154.2514 O   0  0  0  0  0  0  0  0  0  0  0  0
  147.1666  140.2519  153.3609 C   0  0  2  0  0  0  0  0  0  0  0  0
  147.0013  138.8102  152.8574 C   0  0  0  0  0  0  0  0  0  0  0  0
  145.7834  138.6835  152.1551 O   0  0  0  0  0  0  0  0  0  0  0  0
  148.3825  140.4565  154.2641 C   0  0  1  0  0  0  0  0  0  0  0  0
  149.5999  140.5388  153.5462 O   0  0  0  0  0  0  0  0  0  0  0  0
  148.0258  141.7386  155.0121 C   0  0  1  0  0  0  0  0  0  0  0  0
  148.5056  142.8998  154.3491 O   0  0  0  0  0  0  0  0  0  0  0  0
  146.0875  141.4990  156.0779 H   0  0  0  0  0  0  0  0  0  0  0  0
  147.1968  140.9617  152.5317 H   0  0  0  0  0  0  0  0  0  0  0  0
  148.4486  139.6335  154.9775 H   0  0  0  0  0  0  0  0  0  0  0  0
  148.4288  141.7299  156.0252 H   0  0  0  0  0  0  0  0  0  0  0  0
  143.5442  146.9117  153.3609 H   0  0  0  0  0  0  0  0  0  0  0  0
  142.8305  147.5588  154.8232 H   0  0  0  0  0  0  0  0  0  0  0  0
  146.2274  142.9274  152.4463 H   0  0  0  0  0  0  0  0  0  0  0  0
  147.8054  138.5591  152.1653 H   0  0  0  0  0  0  0  0  0  0  0  0
  147.0440  138.0940  153.6785 H   0  0  0  0  0  0  0  0  0  0  0  0
  145.3158  139.5024  152.2140 H   0  0  0  0  0  0  0  0  0  0  0  0
  149.4263  140.3410  152.6386 H   0  0  0  0  0  0  0  0  0  0  0  0
  149.4026  142.7477  154.0926 H   0  0  0  0  0  0  0  0  0  0  0  0
  1  2  1  0  0  0  0
  1 25  1  0  0  0  0
  1 26  1  0  0  0  0
  2  8  1  0  0  0  0
  2  3  2  0  0  0  0
  3  4  1  0  0  0  0
  4  5  1  0  0  0  0
  4  6  2  0  0  0  0
  6  7  1  0  0  0  0
  7 11  1  0  0  0  0
  7  8  2  0  0  0  0
  8  9  1  0  0  0  0
  9 10  2  0  0  0  0
 10 11  1  0  0  0  0
 10 27  1  0  0  0  0
 11 12  1  0  0  0  0
 12 21  1  0  0  0  0
 12 19  1  0  0  0  0
 12 13  1  0  0  0  0
 13 14  1  0  0  0  0
 14 22  1  0  0  0  0
 14 15  1  0  0  0  0
 14 17  1  0  0  0  0
 15 16  1  0  0  0  0
 15 28  1  0  0  0  0
 15 29  1  0  0  0  0
 16 30  1  0  0  0  0
 17 23  1  0  0  0  0
 17 18  1  0  0  0  0
 17 19  1  0  0  0  0
 18 31  1  0  0  0  0
 19 24  1  0  0  0  0
 19 20  1  0  0  0  0
 20 32  1  0  0  0  0
M  END
> <s_m_source_file>
AV-unprocessed.smi

> <i_m_source_file_index>
114

> <i_lp_mmshare_version>
43012

> <i_f3d_flags>
0

> <s_epik_input>
RmMobjEpbmMoW05IMl0pYyhjMTIpbltjSF1uMltDQEBIXTNPW0NASF0oW0NIMl1bT0hdKVtDQEBIXShbT0hdKVtDQEBIXTNbT0hd

> <s_epik_cmdline>
J2VwaWtfcHl0aG9uJywgJy1waCcsICc3LjAnLCAnLXRuJywgJzgnLCAnLW1hJywgJzIwMCcsICctbWV0YWxfYmluZGluZycsICctaW1hZScsICc8aW5maWxlLm1hZT4nLCAnLW9tYWUnLCAnPG91dGZpbGUubWFlPic=

> <r_lp_tautomer_probability>
1

> <r_epik_Ionization_Penalty>
1.13199e-05

> <r_epik_Ionization_Penalty_Charging>
0

> <r_epik_Ionization_Penalty_Neutral>
1.13199e-05

> <r_epik_State_Penalty>
-0

> <r_epik_Charging_Adjusted_Penalty>
0

> <i_epik_Tot_Q>
0

> <i_epik_Tot_abs_Q>
0

> <r_epik_Metal_State_Penalty>
-0

> <b_epik_Metal_Only>
0

> <s_epik_Chemistry_Notes>
This compound contains an acetal/aminal-like group ( X-CH(R)-Y where X, Y are N, S, or O) that may be acid/base labile, releasing an aldehyde.

> <s_lp_Force_Field>
OPLS_2005

> <r_lp_Energy>
42.7446

> <b_lp_Chiralities_Consistent>
1

> <s_lp_Variant>
AV-unprocessed.smi:114-10

> <Gold.Version>
5.8.1

> <Gold.Id.Protein>
6NUR|6NUR_protein|mol2

> <Gold.PLP.Fitness>
39.8114

> <Gold.PLP.PLP>
-31.4113

> <Gold.PLP.part.hbond>
-7.1387

> <Gold.PLP.part.metal>
0.0000

> <Gold.PLP.part.buried>
-7.6769

> <Gold.PLP.part.nonpolar>
-19.6754

> <Gold.PLP.part.repulsive>
1.3515

> <Gold.PLP.ligand.clash>
0.3058

> <Gold.PLP.ligand.torsion>
0.1675

> <Gold.PLP.Chemscore.Hbond>
2.9890

> <Gold.PLP.Chemscore.CHOScore>
0.0000

> <Gold.PLP.Chemscore.Metal>
0.0000

> <Gold.Chemscore.Hbonds>
donor molecule, donor type, donor heavy atom, donor atom, acceptor molecule, acceptor atom, score
      L1  H    16    30       P1 10175  1.00
      L1  H    18    31       P1  7957  0.98
      P1  H  7989  7998       L1    18  0.46
      P1  H  8022  8030       L1    20  0.55

> <Gold.PLP.Chemscore.Internal.Correction>
0.0739

> <Gold.Rescore>
     Score         DG    S(hbond)    S(metal)    S(lipo)     H(rot)  DE(clash)    DE(int)     intcor
      2.74      -6.02       2.06        0.00      33.88       4.03       1.98       1.29       ----

> <Gold.Chemscore.Fitness>
2.7440

> <Gold.Chemscore.DG>
-6.0178

> <Gold.Chemscore.ZeroCoef>
-5.4800

> <Gold.Chemscore.Hbond>
2.0613

> <Gold.Chemscore.Metal>
0.0000

> <Gold.Chemscore.Lipo>
33.8803

> <Gold.Chemscore.Internal_Hbond>
0.0000

> <Gold.Chemscore.DEClash>
1.9835

> <Gold.Chemscore.DEInternal>
1.2903

> <Gold.Chemscore.Rot>
4.0277

> <Gold.Chemscore.Internal.Correction>
   9.000000E+99

> <Gold.Chemscore.Hbonds>
donor molecule, donor type, donor heavy atom, donor atom, acceptor molecule, acceptor atom, score
      L1  H    16    30       P1 10175  0.93
      L1  H    18    31       P1  7957  0.91
      P1  H  7989  7998       L1    18  0.11
      P1  H  8022  8030       L1    20  0.03

> <Gold.Chemscore.Hbond.Weighted>
-6.8847

> <Gold.Chemscore.Metal.Weighted>
-0.0000

> <Gold.Chemscore.Lipo.Weighted>
-3.9640

> <Gold.Chemscore.Internal_Hbond.Weighted>
0.0000

> <Gold.Chemscore.DEClash.Weighted>
1.9835

> <Gold.Chemscore.DEInternal.Weighted>
1.2903

> <Gold.Chemscore.Rot.Weighted>
10.3110

> <Gold.Chemscore.Internal.Correction.Weighted>
   9.000000E+99

> <Gold.Protein.RotatedTorsions>
[ 6907 6896 6895 6894 ] final    8.34 input  -60.11 | X-H torsion
[ 7974 7965 7964 7962 ] final -155.11 input  175.53 | X-H torsion
[ 8008 7997 7996 7995 ] final  173.54 input   59.86 | X-H torsion
[ 10167 10162 10161 10158 ] final   -3.08 input  -65.29 | X-H torsion
[ 10718 10713 10712 10709 ] final  139.27 input   66.30 | X-H torsion
[ 10763 10752 10751 10750 ] final   35.27 input  -60.55 | X-H torsion
[ 11005 11000 10999 10996 ] final -171.77 input  -57.11 | X-H torsion

> <Gold.Protein.ActiveResidues>
 VAL166  LYS551  ARG553  GLY616  TRP617  ASP618  TYR619  PRO620  LYS621  CYS622 
 ASP623  PHE694  ASN695  SER759  ASP760  ASP761  ALA762  ILE779  LEU786  VAL792 
 PHE793  MET794  SER795  GLU796  ALA797  LYS798  CYS799  TRP800  GLU811  SER814 

> <Gold.Protein.RotatedAtoms>
  151.7044  135.0924  160.0256 H   0  0  0  0  0  0  0  0  0  0  0  0  # atno 6907 bound_to 6896
  152.3701  133.6403  159.6089 H   0  0  0  0  0  0  0  0  0  0  0  0  # atno 6908 bound_to 6896
  150.7667  133.9201  159.3437 H   0  0  0  0  0  0  0  0  0  0  0  0  # atno 6909 bound_to 6896
  144.7656  140.4294  143.5944 H   0  0  0  0  0  0  0  0  0  0  0  0  # atno 7974 bound_to 7965
  156.1065  140.1457  156.9397 H   0  0  0  0  0  0  0  0  0  0  0  0  # atno 8008 bound_to 7997
  154.4737  140.0901  156.7253 H   0  0  0  0  0  0  0  0  0  0  0  0  # atno 8009 bound_to 7997
  155.4671  140.3440  155.4323 H   0  0  0  0  0  0  0  0  0  0  0  0  # atno 8010 bound_to 7997
  140.6876  143.6582  150.8290 H   0  0  0  0  0  0  0  0  0  0  0  0  # atno 10167 bound_to 10162
  157.4163  131.1033  151.0401 H   0  0  0  0  0  0  0  0  0  0  0  0  # atno 10718 bound_to 10713
  153.0126  135.6338  154.1800 H   0  0  0  0  0  0  0  0  0  0  0  0  # atno 10763 bound_to 10752
  154.1542  135.2827  155.3128 H   0  0  0  0  0  0  0  0  0  0  0  0  # atno 10764 bound_to 10752
  154.6031  135.5581  153.7455 H   0  0  0  0  0  0  0  0  0  0  0  0  # atno 10765 bound_to 10752
  140.5045  134.5861  157.4999 H   0  0  0  0  0  0  0  0  0  0  0  0  # atno 11005 bound_to 11000
  145.6481  139.1560  143.2877 LP  0  0  0  0  0  0  0  0  0  0  0  0  # atno 17320 bound_to 7965
  146.1760  140.6572  142.9211 LP  0  0  0  0  0  0  0  0  0  0  0  0  # atno 17321 bound_to 7965
  140.0291  143.5462  152.2768 LP  0  0  0  0  0  0  0  0  0  0  0  0  # atno 17342 bound_to 10162
  139.6249  144.7635  151.2661 LP  0  0  0  0  0  0  0  0  0  0  0  0  # atno 17343 bound_to 10162
  157.1348  130.6117  149.5539 LP  0  0  0  0  0  0  0  0  0  0  0  0  # atno 17370 bound_to 10713
  155.9866  130.4901  150.7087 LP  0  0  0  0  0  0  0  0  0  0  0  0  # atno 17371 bound_to 10713
  139.9694  134.7318  156.0072 LP  0  0  0  0  0  0  0  0  0  0  0  0  # atno 17394 bound_to 11000
  141.1418  133.6563  156.3752 LP  0  0  0  0  0  0  0  0  0  0  0  0  # atno 17395 bound_to 11000

$$$$
