AV-unprocessed.smi:1925|AV-procd|sdf|7792|dock1
  -GOLD-   22720 9533D 1   1.00000     0.00000
 Structure written by MMmdl.
 31 32  0  0  0  0  0  0  0  0  1 V2000
  144.5689  136.7775  152.2472 O   0  0  0  0  0  0  0  0  0  0  0  0
  145.7724  136.5663  152.0937 C   0  0  0  0  0  0  0  0  0  0  0  0
  146.7260  137.4418  152.4425 N   0  0  0  0  0  0  0  0  0  0  0  0
  146.4849  138.7504  153.0416 C   0  0  0  0  0  0  0  0  0  0  0  0
  147.7577  139.6182  153.0772 C   0  0  2  0  0  0  0  0  0  0  0  0
  148.8075  139.1741  154.0855 C   0  0  0  0  0  0  0  0  0  0  0  0
  149.5077  140.4763  154.4899 C   0  0  0  0  0  0  0  0  0  0  0  0
  148.8068  141.5257  153.8312 O   0  0  0  0  0  0  0  0  0  0  0  0
  147.5085  141.0615  153.5014 C   0  0  0  0  0  0  0  0  0  0  0  0
  146.3064  135.4506  151.5659 N   0  0  0  0  0  0  0  0  0  0  0  0
  145.6315  134.3064  151.0632 C   0  0  0  0  0  0  0  0  0  0  0  0
  146.4716  133.2984  150.5382 C   0  0  0  0  0  0  0  0  0  0  0  0
  145.8999  132.1235  150.0129 C   0  0  0  0  0  0  0  0  0  0  0  0
  144.5004  131.9867  150.0253 C   0  0  0  0  0  0  0  0  0  0  0  0
  143.7363  133.0376  150.5655 C   0  0  0  0  0  0  0  0  0  0  0  0
  144.2824  134.1642  151.0700 N   0  0  0  0  0  0  0  0  0  0  0  0
  147.6894  137.1866  152.2824 H   0  0  0  0  0  0  0  0  0  0  0  0
  145.6913  139.2664  152.4986 H   0  0  0  0  0  0  0  0  0  0  0  0
  146.1112  138.5929  154.0538 H   0  0  0  0  0  0  0  0  0  0  0  0
  148.2162  139.6357  152.0871 H   0  0  0  0  0  0  0  0  0  0  0  0
  148.3392  138.7209  154.9603 H   0  0  0  0  0  0  0  0  0  0  0  0
  149.4980  138.4443  153.6611 H   0  0  0  0  0  0  0  0  0  0  0  0
  149.4603  140.6217  155.5695 H   0  0  0  0  0  0  0  0  0  0  0  0
  150.5564  140.4871  154.1923 H   0  0  0  0  0  0  0  0  0  0  0  0
  147.0567  141.6619  152.7114 H   0  0  0  0  0  0  0  0  0  0  0  0
  146.8688  141.1115  154.3842 H   0  0  0  0  0  0  0  0  0  0  0  0
  147.3137  135.4168  151.5145 H   0  0  0  0  0  0  0  0  0  0  0  0
  147.5452  133.4197  150.5363 H   0  0  0  0  0  0  0  0  0  0  0  0
  146.5250  131.3415  149.6077 H   0  0  0  0  0  0  0  0  0  0  0  0
  144.0249  131.1006  149.6313 H   0  0  0  0  0  0  0  0  0  0  0  0
  142.6586  132.9731  150.5936 H   0  0  0  0  0  0  0  0  0  0  0  0
  1  2  2  0  0  0  0
  2  3  1  0  0  0  0
  2 10  1  0  0  0  0
  3  4  1  0  0  0  0
  3 17  1  0  0  0  0
  4  5  1  0  0  0  0
  4 18  1  0  0  0  0
  4 19  1  0  0  0  0
  5  9  1  0  0  0  0
  5  6  1  0  0  0  0
  5 20  1  0  0  0  0
  6  7  1  0  0  0  0
  6 21  1  0  0  0  0
  6 22  1  0  0  0  0
  7  8  1  0  0  0  0
  7 23  1  0  0  0  0
  7 24  1  0  0  0  0
  8  9  1  0  0  0  0
  9 25  1  0  0  0  0
  9 26  1  0  0  0  0
 10 11  1  0  0  0  0
 10 27  1  0  0  0  0
 11 16  1  0  0  0  0
 11 12  2  0  0  0  0
 12 13  1  0  0  0  0
 12 28  1  0  0  0  0
 13 14  2  0  0  0  0
 13 29  1  0  0  0  0
 14 15  1  0  0  0  0
 14 30  1  0  0  0  0
 15 16  2  0  0  0  0
 15 31  1  0  0  0  0
M  END
> <s_m_source_file>
AV-unprocessed.smi

> <i_m_source_file_index>
1925

> <i_lp_mmshare_version>
43012

> <i_f3d_flags>
0

> <s_epik_input>
bjFbY0hdW2NIXVtjSF1bY0hdYzFbTkhdQyg9TylbTkhdW0NIMl1bQ0BASF0yW0NIMl1bQ0gyXU9bQ0gyXTI=

> <s_epik_cmdline>
J2VwaWtfcHl0aG9uJywgJy1waCcsICc3LjAnLCAnLXRuJywgJzgnLCAnLW1hJywgJzIwMCcsICctbWV0YWxfYmluZGluZycsICctaW1hZScsICc8aW5maWxlLm1hZT4nLCAnLW9tYWUnLCAnPG91dGZpbGUubWFlPic=

> <r_lp_tautomer_probability>
1

> <r_epik_Ionization_Penalty>
4.81143e-05

> <r_epik_Ionization_Penalty_Charging>
0

> <r_epik_Ionization_Penalty_Neutral>
4.81143e-05

> <r_epik_State_Penalty>
-0

> <r_epik_Charging_Adjusted_Penalty>
0

> <i_epik_Tot_Q>
0

> <i_epik_Tot_abs_Q>
0

> <r_epik_Metal_State_Penalty>
-0

> <b_epik_Metal_Only>
0

> <s_lp_Force_Field>
OPLS_2005

> <r_lp_Energy>
20.9741

> <b_lp_Chiralities_Consistent>
1

> <s_lp_Variant>
AV-unprocessed.smi:1925-1

> <Gold.Version>
5.8.1

> <Gold.Id.Protein>
6NUR|6NUR_protein|mol2

> <Gold.PLP.Fitness>
40.9466

> <Gold.PLP.PLP>
-30.0815

> <Gold.PLP.part.hbond>
-3.0000

> <Gold.PLP.part.metal>
0.0000

> <Gold.PLP.part.buried>
0.0601

> <Gold.PLP.part.nonpolar>
-26.8977

> <Gold.PLP.part.repulsive>
0.7478

> <Gold.PLP.ligand.clash>
0.0000

> <Gold.PLP.ligand.torsion>
0.1078

> <Gold.PLP.Chemscore.Hbond>
2.7040

> <Gold.PLP.Chemscore.CHOScore>
0.9886

> <Gold.PLP.Chemscore.Metal>
0.0000

> <Gold.Chemscore.Hbonds>
donor molecule, donor type, donor heavy atom, donor atom, acceptor molecule, acceptor atom, score
      L1  H     3    17       P1  7948  1.00
      L1  H    10    27       P1  7948  1.00
      P1  H  8011  8017       L1     8  0.70
      L1  C    15    31       P1 10186  0.99

> <Gold.PLP.Chemscore.Internal.Correction>
0.0030

> <Gold.Rescore>
     Score         DG    S(hbond)    S(metal)    S(lipo)     H(rot)  DE(clash)    DE(int)     intcor
     16.33     -19.17       2.45        0.00      74.77       1.27       1.43       1.41       ----

> <Gold.Chemscore.Fitness>
16.3303

> <Gold.Chemscore.DG>
-19.1729

> <Gold.Chemscore.ZeroCoef>
-5.4800

> <Gold.Chemscore.Hbond>
2.4522

> <Gold.Chemscore.Metal>
0.0000

> <Gold.Chemscore.Lipo>
74.7697

> <Gold.Chemscore.Internal_Hbond>
0.0000

> <Gold.Chemscore.DEClash>
1.4338

> <Gold.Chemscore.DEInternal>
1.4088

> <Gold.Chemscore.Rot>
1.2678

> <Gold.Chemscore.Internal.Correction>
   9.000000E+99

> <Gold.Chemscore.Hbonds>
donor molecule, donor type, donor heavy atom, donor atom, acceptor molecule, acceptor atom, score
      L1  H     3    17       P1  7948  0.99
      L1  H    10    27       P1  7948  0.89
      P1  H  8011  8017       L1     8  0.56

> <Gold.Chemscore.Hbond.Weighted>
-8.1903

> <Gold.Chemscore.Metal.Weighted>
-0.0000

> <Gold.Chemscore.Lipo.Weighted>
-8.7481

> <Gold.Chemscore.Internal_Hbond.Weighted>
0.0000

> <Gold.Chemscore.DEClash.Weighted>
1.4338

> <Gold.Chemscore.DEInternal.Weighted>
1.4088

> <Gold.Chemscore.Rot.Weighted>
3.2455

> <Gold.Chemscore.Internal.Correction.Weighted>
   9.000000E+99

> <Gold.Protein.RotatedTorsions>
[ 6907 6896 6895 6894 ] final  154.91 input  -60.11 | X-H torsion
[ 7974 7965 7964 7962 ] final  169.44 input  175.53 | X-H torsion
[ 8008 7997 7996 7995 ] final    2.74 input   59.86 | X-H torsion
[ 10167 10162 10161 10158 ] final  -59.52 input  -65.29 | X-H torsion
[ 10718 10713 10712 10709 ] final -138.46 input   66.30 | X-H torsion
[ 10763 10752 10751 10750 ] final -171.93 input  -60.55 | X-H torsion
[ 11005 11000 10999 10996 ] final  -40.02 input  -57.11 | X-H torsion

> <Gold.Protein.ActiveResidues>
 VAL166  LYS551  ARG553  GLY616  TRP617  ASP618  TYR619  PRO620  LYS621  CYS622 
 ASP623  PHE694  ASN695  SER759  ASP760  ASP761  ALA762  ILE779  LEU786  VAL792 
 PHE793  MET794  SER795  GLU796  ALA797  LYS798  CYS799  TRP800  GLU811  SER814 

> <Gold.Protein.RotatedAtoms>
  152.0517  133.4022  159.4379 H   0  0  0  0  0  0  0  0  0  0  0  0  # atno 6907 bound_to 6896
  150.6870  134.3300  159.4832 H   0  0  0  0  0  0  0  0  0  0  0  0  # atno 6908 bound_to 6896
  152.1111  134.9273  160.0617 H   0  0  0  0  0  0  0  0  0  0  0  0  # atno 6909 bound_to 6896
  144.7355  139.9055  143.6412 H   0  0  0  0  0  0  0  0  0  0  0  0  # atno 7974 bound_to 7965
  154.6952  140.2661  155.6773 H   0  0  0  0  0  0  0  0  0  0  0  0  # atno 8008 bound_to 7997
  156.2746  140.2783  156.1467 H   0  0  0  0  0  0  0  0  0  0  0  0  # atno 8009 bound_to 7997
  155.0841  140.0373  157.2638 H   0  0  0  0  0  0  0  0  0  0  0  0  # atno 8010 bound_to 7997
  140.6130  143.2393  151.5664 H   0  0  0  0  0  0  0  0  0  0  0  0  # atno 10167 bound_to 10162
  156.2996  130.7421  151.1469 H   0  0  0  0  0  0  0  0  0  0  0  0  # atno 10718 bound_to 10713
  154.6250  135.2879  155.0283 H   0  0  0  0  0  0  0  0  0  0  0  0  # atno 10763 bound_to 10752
  154.1464  135.6510  153.4957 H   0  0  0  0  0  0  0  0  0  0  0  0  # atno 10764 bound_to 10752
  153.0253  135.5345  154.7054 H   0  0  0  0  0  0  0  0  0  0  0  0  # atno 10765 bound_to 10752
  141.0144  133.6892  156.2265 H   0  0  0  0  0  0  0  0  0  0  0  0  # atno 11005 bound_to 11000
  146.1040  139.4038  143.0329 LP  0  0  0  0  0  0  0  0  0  0  0  0  # atno 17320 bound_to 7965
  145.7538  140.9962  143.1236 LP  0  0  0  0  0  0  0  0  0  0  0  0  # atno 17321 bound_to 7965
  139.5376  144.2737  152.1284 LP  0  0  0  0  0  0  0  0  0  0  0  0  # atno 17342 bound_to 10162
  140.1940  144.4723  150.6464 LP  0  0  0  0  0  0  0  0  0  0  0  0  # atno 17343 bound_to 10162
  157.7364  131.0562  150.5413 LP  0  0  0  0  0  0  0  0  0  0  0  0  # atno 17370 bound_to 10713
  156.5539  130.4238  149.6094 LP  0  0  0  0  0  0  0  0  0  0  0  0  # atno 17371 bound_to 10713
  140.6679  134.4899  157.5586 LP  0  0  0  0  0  0  0  0  0  0  0  0  # atno 17394 bound_to 11000
  139.9108  134.8348  156.1534 LP  0  0  0  0  0  0  0  0  0  0  0  0  # atno 17395 bound_to 11000

$$$$
