AV-unprocessed.smi:2317|AV-procd|sdf|9272|dock9
  -GOLD-   2272012493D 1   1.00000     0.00000
 Structure written by MMmdl.
 37 38  0  0  0  0  0  0  0  0  1 V2000
  144.8477  137.2250  152.5785 O   0  0  0  0  0  0  0  0  0  0  0  0
  146.0284  136.9576  152.3580 C   0  0  0  0  0  0  0  0  0  0  0  0
  147.0419  137.7820  152.6616 N   0  0  0  0  0  0  0  0  0  0  0  0
  146.9133  139.0842  153.3109 C   0  0  0  0  0  0  0  0  0  0  0  0
  147.9228  139.2721  154.4665 C   0  0  1  0  0  0  0  0  0  0  0  0
  149.1331  138.3123  154.3905 C   0  0  0  0  0  0  0  0  0  0  0  0
  150.0904  138.5090  155.5774 C   0  0  0  0  0  0  0  0  0  0  0  0
  150.5638  139.9657  155.6826 C   0  0  0  0  0  0  0  0  0  0  0  0
  149.3715  140.9342  155.7629 C   0  0  0  0  0  0  0  0  0  0  0  0
  148.3905  140.7439  154.5896 C   0  0  1  0  0  0  0  0  0  0  0  0
  149.0067  141.1883  153.3949 O   0  0  0  0  0  0  0  0  0  0  0  0
  146.4792  135.8331  151.7753 N   0  0  0  0  0  0  0  0  0  0  0  0
  145.7497  134.7020  151.3139 C   0  0  0  0  0  0  0  0  0  0  0  0
  144.5012  134.7685  150.6481 C   0  0  0  0  0  0  0  0  0  0  0  0
  143.8783  133.5656  150.2584 C   0  0  0  0  0  0  0  0  0  0  0  0
  144.4046  132.3449  150.4914 N   0  0  0  0  0  0  0  0  0  0  0  0
  145.5890  132.2842  151.1356 C   0  0  0  0  0  0  0  0  0  0  0  0
  146.2946  133.4251  151.5676 C   0  0  0  0  0  0  0  0  0  0  0  0
  147.4782  133.2918  152.2138 F   0  0  0  0  0  0  0  0  0  0  0  0
  147.9788  137.4822  152.4350 H   0  0  0  0  0  0  0  0  0  0  0  0
  147.0066  139.8919  152.5832 H   0  0  0  0  0  0  0  0  0  0  0  0
  145.8975  139.1482  153.7018 H   0  0  0  0  0  0  0  0  0  0  0  0
  147.3901  139.0372  155.3896 H   0  0  0  0  0  0  0  0  0  0  0  0
  148.7976  137.2755  154.3829 H   0  0  0  0  0  0  0  0  0  0  0  0
  149.6711  138.4663  153.4544 H   0  0  0  0  0  0  0  0  0  0  0  0
  149.5888  138.2213  156.5021 H   0  0  0  0  0  0  0  0  0  0  0  0
  150.9503  137.8467  155.4739 H   0  0  0  0  0  0  0  0  0  0  0  0
  151.1997  140.0867  156.5602 H   0  0  0  0  0  0  0  0  0  0  0  0
  151.1825  140.2121  154.8189 H   0  0  0  0  0  0  0  0  0  0  0  0
  148.8418  140.7676  156.7016 H   0  0  0  0  0  0  0  0  0  0  0  0
  149.7278  141.9646  155.7950 H   0  0  0  0  0  0  0  0  0  0  0  0
  147.5220  141.3823  154.7557 H   0  0  0  0  0  0  0  0  0  0  0  0
  149.1452  140.4422  152.8318 H   0  0  0  0  0  0  0  0  0  0  0  0
  147.4735  135.7949  151.6047 H   0  0  0  0  0  0  0  0  0  0  0  0
  144.0044  135.7024  150.4380 H   0  0  0  0  0  0  0  0  0  0  0  0
  142.9258  133.5853  149.7499 H   0  0  0  0  0  0  0  0  0  0  0  0
  145.9858  131.2959  151.3146 H   0  0  0  0  0  0  0  0  0  0  0  0
  1  2  2  0  0  0  0
  2  3  1  0  0  0  0
  2 12  1  0  0  0  0
  3  4  1  0  0  0  0
  3 20  1  0  0  0  0
  4  5  1  0  0  0  0
  4 21  1  0  0  0  0
  4 22  1  0  0  0  0
  5 10  1  0  0  0  0
  5  6  1  0  0  0  0
  5 23  1  0  0  0  0
  6  7  1  0  0  0  0
  6 24  1  0  0  0  0
  6 25  1  0  0  0  0
  7  8  1  0  0  0  0
  7 26  1  0  0  0  0
  7 27  1  0  0  0  0
  8  9  1  0  0  0  0
  8 28  1  0  0  0  0
  8 29  1  0  0  0  0
  9 10  1  0  0  0  0
  9 30  1  0  0  0  0
  9 31  1  0  0  0  0
 10 11  1  0  0  0  0
 10 32  1  0  0  0  0
 11 33  1  0  0  0  0
 12 13  1  0  0  0  0
 12 34  1  0  0  0  0
 13 18  1  0  0  0  0
 13 14  2  0  0  0  0
 14 15  1  0  0  0  0
 14 35  1  0  0  0  0
 15 16  2  0  0  0  0
 15 36  1  0  0  0  0
 16 17  1  0  0  0  0
 17 18  2  0  0  0  0
 17 37  1  0  0  0  0
 18 19  1  0  0  0  0
M  END
> <s_m_source_file>
AV-unprocessed.smi

> <i_m_source_file_index>
2317

> <i_lp_mmshare_version>
43012

> <i_f3d_flags>
0

> <s_epik_input>
RmMxW2NIXW5bY0hdW2NIXWMxW05IXUMoPU8pW05IXVtDSDJdW0NAQEhdMltDSDJdW0NIMl1bQ0gyXVtDSDJdW0NASF0yW09IXQ==

> <s_epik_cmdline>
J2VwaWtfcHl0aG9uJywgJy1waCcsICc3LjAnLCAnLXRuJywgJzgnLCAnLW1hJywgJzIwMCcsICctbWV0YWxfYmluZGluZycsICctaW1hZScsICc8aW5maWxlLm1hZT4nLCAnLW9tYWUnLCAnPG91dGZpbGUubWFlPic=

> <r_epik_Ionization_Penalty>
0.00317647

> <r_epik_Ionization_Penalty_Charging>
0

> <r_epik_Ionization_Penalty_Neutral>
0.00317647

> <r_epik_State_Penalty>
0.0022093

> <r_epik_Charging_Adjusted_Penalty>
0.0022093

> <i_epik_Tot_Q>
0

> <i_epik_Tot_abs_Q>
0

> <r_epik_Metal_State_Penalty>
-0

> <b_epik_Metal_Only>
0

> <s_lp_Force_Field>
OPLS_2005

> <r_lp_Energy>
21.0871

> <b_lp_Chiralities_Consistent>
1

> <s_lp_Variant>
AV-unprocessed.smi:2317-2

> <Gold.Version>
5.8.1

> <Gold.Id.Protein>
6NUR|6NUR_protein|mol2

> <Gold.PLP.Fitness>
44.1746

> <Gold.PLP.PLP>
-31.5392

> <Gold.PLP.part.hbond>
-4.1875

> <Gold.PLP.part.metal>
0.0000

> <Gold.PLP.part.buried>
-1.2883

> <Gold.PLP.part.nonpolar>
-27.0139

> <Gold.PLP.part.repulsive>
0.4708

> <Gold.PLP.ligand.clash>
0.0000

> <Gold.PLP.ligand.torsion>
0.9009

> <Gold.PLP.Chemscore.Hbond>
3.8080

> <Gold.PLP.Chemscore.CHOScore>
1.0000

> <Gold.PLP.Chemscore.Metal>
0.0000

> <Gold.Chemscore.Hbonds>
donor molecule, donor type, donor heavy atom, donor atom, acceptor molecule, acceptor atom, score
      L1  H     3    20       P1  7948  0.94
      L1  H    11    33       P1  7957  0.80
      L1  H    12    34       P1  7948  0.98
      P1  H  8011  8017       L1    11  0.85
      L1  C    15    36       P1 10186  1.00

> <Gold.PLP.Chemscore.Internal.Correction>
0.0133

> <Gold.Rescore>
     Score         DG    S(hbond)    S(metal)    S(lipo)     H(rot)  DE(clash)    DE(int)     intcor
     18.89     -20.22       3.24        0.00      72.72       1.79       0.28       1.05       ----

> <Gold.Chemscore.Fitness>
18.8947

> <Gold.Chemscore.DG>
-20.2236

> <Gold.Chemscore.ZeroCoef>
-5.4800

> <Gold.Chemscore.Hbond>
3.2354

> <Gold.Chemscore.Metal>
0.0000

> <Gold.Chemscore.Lipo>
72.7163

> <Gold.Chemscore.Internal_Hbond>
0.0000

> <Gold.Chemscore.DEClash>
0.2807

> <Gold.Chemscore.DEInternal>
1.0482

> <Gold.Chemscore.Rot>
1.7853

> <Gold.Chemscore.Internal.Correction>
   9.000000E+99

> <Gold.Chemscore.Hbonds>
donor molecule, donor type, donor heavy atom, donor atom, acceptor molecule, acceptor atom, score
      L1  H     3    20       P1  7948  0.91
      L1  H    11    33       P1  7957  0.80
      L1  H    12    34       P1  7948  0.90
      P1  H  8011  8017       L1    11  0.14

> <Gold.Chemscore.Hbond.Weighted>
-10.8062

> <Gold.Chemscore.Metal.Weighted>
-0.0000

> <Gold.Chemscore.Lipo.Weighted>
-8.5078

> <Gold.Chemscore.Internal_Hbond.Weighted>
0.0000

> <Gold.Chemscore.DEClash.Weighted>
0.2807

> <Gold.Chemscore.DEInternal.Weighted>
1.0482

> <Gold.Chemscore.Rot.Weighted>
4.5704

> <Gold.Chemscore.Internal.Correction.Weighted>
   9.000000E+99

> <Gold.Protein.RotatedTorsions>
[ 6907 6896 6895 6894 ] final -148.76 input  -60.11 | X-H torsion
[ 7974 7965 7964 7962 ] final -164.32 input  175.53 | X-H torsion
[ 8008 7997 7996 7995 ] final -111.31 input   59.86 | X-H torsion
[ 10167 10162 10161 10158 ] final   62.48 input  -65.29 | X-H torsion
[ 10718 10713 10712 10709 ] final  113.74 input   66.30 | X-H torsion
[ 10763 10752 10751 10750 ] final -113.36 input  -60.55 | X-H torsion
[ 11005 11000 10999 10996 ] final   95.62 input  -57.11 | X-H torsion

> <Gold.Protein.ActiveResidues>
 VAL166  LYS551  ARG553  GLY616  TRP617  ASP618  TYR619  PRO620  LYS621  CYS622 
 ASP623  PHE694  ASN695  SER759  ASP760  ASP761  ALA762  ILE779  LEU786  VAL792 
 PHE793  MET794  SER795  GLU796  ALA797  LYS798  CYS799  TRP800  GLU811  SER814 

> <Gold.Protein.RotatedAtoms>
  151.1744  133.4764  159.2593 H   0  0  0  0  0  0  0  0  0  0  0  0  # atno 6907 bound_to 6896
  151.1323  135.0136  159.8598 H   0  0  0  0  0  0  0  0  0  0  0  0  # atno 6908 bound_to 6896
  152.5460  134.1645  159.8625 H   0  0  0  0  0  0  0  0  0  0  0  0  # atno 6909 bound_to 6896
  144.7300  140.2977  143.6210 H   0  0  0  0  0  0  0  0  0  0  0  0  # atno 7974 bound_to 7965
  154.9878  140.0395  157.2306 H   0  0  0  0  0  0  0  0  0  0  0  0  # atno 8008 bound_to 7997
  154.7655  140.2792  155.6157 H   0  0  0  0  0  0  0  0  0  0  0  0  # atno 8009 bound_to 7997
  156.2912  140.2620  156.2445 H   0  0  0  0  0  0  0  0  0  0  0  0  # atno 8010 bound_to 7997
  140.1434  144.4531  150.6798 H   0  0  0  0  0  0  0  0  0  0  0  0  # atno 10167 bound_to 10162
  157.6321  131.0988  150.7085 H   0  0  0  0  0  0  0  0  0  0  0  0  # atno 10718 bound_to 10713
  154.8392  135.4457  154.1337 H   0  0  0  0  0  0  0  0  0  0  0  0  # atno 10763 bound_to 10752
  153.2541  135.6929  153.7654 H   0  0  0  0  0  0  0  0  0  0  0  0  # atno 10764 bound_to 10752
  153.6956  135.3380  155.3188 H   0  0  0  0  0  0  0  0  0  0  0  0  # atno 10765 bound_to 10752
  139.8787  134.8908  156.4038 H   0  0  0  0  0  0  0  0  0  0  0  0  # atno 11005 bound_to 11000
  145.7791  139.1885  143.2168 LP  0  0  0  0  0  0  0  0  0  0  0  0  # atno 17320 bound_to 7965
  146.0848  140.7723  142.9624 LP  0  0  0  0  0  0  0  0  0  0  0  0  # atno 17321 bound_to 7965
  140.6746  143.2300  151.5539 LP  0  0  0  0  0  0  0  0  0  0  0  0  # atno 17342 bound_to 10162
  139.5460  144.2519  152.1444 LP  0  0  0  0  0  0  0  0  0  0  0  0  # atno 17343 bound_to 10162
  156.7422  130.4743  149.5475 LP  0  0  0  0  0  0  0  0  0  0  0  0  # atno 17370 bound_to 10713
  156.1532  130.6324  151.0623 LP  0  0  0  0  0  0  0  0  0  0  0  0  # atno 17371 bound_to 10713
  140.9248  133.7620  155.9951 LP  0  0  0  0  0  0  0  0  0  0  0  0  # atno 17394 bound_to 11000
  140.8398  134.3080  157.5318 LP  0  0  0  0  0  0  0  0  0  0  0  0  # atno 17395 bound_to 11000

$$$$
