AV-unprocessed.smi:876|AV-procd|sdf|4026|dock7
  -GOLD-   22720 1513D 1   1.00000     0.00000
 Structure written by MMmdl.
 40 41  0  0  0  0  0  0  0  0  1 V2000
  150.9893  142.5269  156.6094 C   0  0  0  0  0  0  0  0  0  0  0  0
  150.9115  141.1361  157.0392 N   0  0  0  0  0  0  0  0  0  0  0  0
  151.5953  140.7115  158.2566 C   0  0  0  0  0  0  0  0  0  0  0  0
  150.1581  140.2012  156.2926 C   0  0  0  0  0  0  0  0  0  0  0  0
  149.0801  139.4872  156.8725 C   0  0  0  0  0  0  0  0  0  0  0  0
  148.3598  138.5651  156.0889 C   0  0  0  0  0  0  0  0  0  0  0  0
  148.7260  138.3802  154.7357 C   0  0  0  0  0  0  0  0  0  0  0  0
  148.0943  137.4712  153.8433 N   0  0  0  0  0  0  0  0  0  0  0  0
  146.8735  136.9148  153.9282 C   0  0  0  0  0  0  0  0  0  0  0  0
  146.0555  137.1170  154.8253 O   0  0  0  0  0  0  0  0  0  0  0  0
  146.6382  136.1058  152.8856 N   0  0  0  0  0  0  0  0  0  0  0  0
  145.4001  135.3652  152.6684 C   0  0  1  0  0  0  0  0  0  0  0  0
  144.7518  135.7854  151.3778 C   0  0  0  0  0  0  0  0  0  0  0  0
  144.5071  134.7582  150.5675 C   0  0  0  0  0  0  0  0  0  0  0  0
  144.9484  133.4384  151.1470 C   0  0  1  0  0  0  0  0  0  0  0  0
  145.8718  132.6463  150.2053 C   0  0  0  0  0  0  0  0  0  0  0  0
  146.3097  131.4545  150.8243 O   0  0  0  0  0  0  0  0  0  0  0  0
  145.6328  133.8429  152.4779 C   0  0  0  0  0  0  0  0  0  0  0  0
  149.8172  139.1269  154.2504 C   0  0  0  0  0  0  0  0  0  0  0  0
  150.5105  140.0105  154.9977 N   0  0  0  0  0  0  0  0  0  0  0  0
  144.6967  135.5539  153.4811 H   0  0  0  0  0  0  0  0  0  0  0  0
  144.0533  132.8530  151.3623 H   0  0  0  0  0  0  0  0  0  0  0  0
  149.9982  142.9815  156.6001 H   0  0  0  0  0  0  0  0  0  0  0  0
  151.4153  142.5957  155.6079 H   0  0  0  0  0  0  0  0  0  0  0  0
  151.6183  143.1144  157.2782 H   0  0  0  0  0  0  0  0  0  0  0  0
  152.3315  139.9386  158.0336 H   0  0  0  0  0  0  0  0  0  0  0  0
  150.8812  140.3121  158.9775 H   0  0  0  0  0  0  0  0  0  0  0  0
  152.1173  141.5427  158.7308 H   0  0  0  0  0  0  0  0  0  0  0  0
  148.7936  139.6227  157.9043 H   0  0  0  0  0  0  0  0  0  0  0  0
  147.5546  138.0143  156.5484 H   0  0  0  0  0  0  0  0  0  0  0  0
  148.6200  137.2539  153.0093 H   0  0  0  0  0  0  0  0  0  0  0  0
  147.3623  135.9975  152.1908 H   0  0  0  0  0  0  0  0  0  0  0  0
  144.5056  136.8154  151.1653 H   0  0  0  0  0  0  0  0  0  0  0  0
  144.0332  134.8315  149.5996 H   0  0  0  0  0  0  0  0  0  0  0  0
  145.3602  132.4007  149.2739 H   0  0  0  0  0  0  0  0  0  0  0  0
  146.7472  133.2422  149.9460 H   0  0  0  0  0  0  0  0  0  0  0  0
  147.1481  131.2165  150.4590 H   0  0  0  0  0  0  0  0  0  0  0  0
  146.6998  133.6165  152.4400 H   0  0  0  0  0  0  0  0  0  0  0  0
  145.2250  133.2775  153.3166 H   0  0  0  0  0  0  0  0  0  0  0  0
  150.1455  139.0161  153.2271 H   0  0  0  0  0  0  0  0  0  0  0  0
  1  2  1  0  0  0  0
  1 23  1  0  0  0  0
  1 24  1  0  0  0  0
  1 25  1  0  0  0  0
  2  3  1  0  0  0  0
  2  4  1  0  0  0  0
  3 26  1  0  0  0  0
  3 27  1  0  0  0  0
  3 28  1  0  0  0  0
  4 20  1  0  0  0  0
  4  5  2  0  0  0  0
  5  6  1  0  0  0  0
  5 29  1  0  0  0  0
  6  7  2  0  0  0  0
  6 30  1  0  0  0  0
  7  8  1  0  0  0  0
  7 19  1  0  0  0  0
  8  9  1  0  0  0  0
  8 31  1  0  0  0  0
  9 10  2  0  0  0  0
  9 11  1  0  0  0  0
 11 12  1  0  0  0  0
 11 32  1  0  0  0  0
 12 21  1  0  0  0  0
 12 18  1  0  0  0  0
 12 13  1  0  0  0  0
 13 14  2  0  0  0  0
 13 33  1  0  0  0  0
 14 15  1  0  0  0  0
 14 34  1  0  0  0  0
 15 22  1  0  0  0  0
 15 16  1  0  0  0  0
 15 18  1  0  0  0  0
 16 17  1  0  0  0  0
 16 35  1  0  0  0  0
 16 36  1  0  0  0  0
 17 37  1  0  0  0  0
 18 38  1  0  0  0  0
 18 39  1  0  0  0  0
 19 20  2  0  0  0  0
 19 40  1  0  0  0  0
M  END
> <s_m_source_file>
AV-unprocessed.smi

> <i_m_source_file_index>
876

> <i_lp_mmshare_version>
43012

> <i_f3d_flags>
0

> <s_epik_input>
W0NIM11OKFtDSDNdKWMxW2NIXVtjSF1jKFtjSF1uMSlbTkhdQyg9TylbTkhdW0NAQEhdMltDSF09W0NIXVtDQEBIXShbQ0gyXTIpW0NIMl1bT0hd

> <s_epik_cmdline>
J2VwaWtfcHl0aG9uJywgJy1waCcsICc3LjAnLCAnLXRuJywgJzgnLCAnLW1hJywgJzIwMCcsICctbWV0YWxfYmluZGluZycsICctaW1hZScsICc8aW5maWxlLm1hZT4nLCAnLW9tYWUnLCAnPG91dGZpbGUubWFlPic=

> <r_lp_tautomer_probability>
1

> <r_epik_Ionization_Penalty>
0.617998

> <r_epik_Ionization_Penalty_Charging>
0

> <r_epik_Ionization_Penalty_Neutral>
0.617998

> <r_epik_State_Penalty>
0.632637

> <r_epik_Charging_Adjusted_Penalty>
0.632637

> <i_epik_Tot_Q>
0

> <i_epik_Tot_abs_Q>
0

> <r_epik_Metal_State_Penalty>
0.305596

> <b_epik_Metal_Only>
0

> <s_lp_Force_Field>
OPLS_2005

> <r_lp_Energy>
21.5566

> <b_lp_Chiralities_Consistent>
1

> <s_lp_Variant>
AV-unprocessed.smi:876-8

> <Gold.Version>
5.8.1

> <Gold.Id.Protein>
6NUR|6NUR_protein|mol2

> <Gold.PLP.Fitness>
39.9376

> <Gold.PLP.PLP>
-27.6798

> <Gold.PLP.part.hbond>
-3.7859

> <Gold.PLP.part.metal>
0.0000

> <Gold.PLP.part.buried>
-3.3722

> <Gold.PLP.part.nonpolar>
-21.1994

> <Gold.PLP.part.repulsive>
0.1225

> <Gold.PLP.ligand.clash>
0.0000

> <Gold.PLP.ligand.torsion>
1.1987

> <Gold.PLP.Chemscore.Hbond>
3.8777

> <Gold.PLP.Chemscore.CHOScore>
1.0000

> <Gold.PLP.Chemscore.Metal>
0.0000

> <Gold.Chemscore.Hbonds>
donor molecule, donor type, donor heavy atom, donor atom, acceptor molecule, acceptor atom, score
      L1  H     8    31       P1  7948  0.99
      L1  H    11    32       P1  7948  0.93
      L1  H    17    37       P1 10747  1.00
      P1  H  7989  7998       L1    20  0.88
      L1  C    19    40       P1  7957  1.00

> <Gold.PLP.Chemscore.Internal.Correction>
0.0221

> <Gold.Rescore>
     Score         DG    S(hbond)    S(metal)    S(lipo)     H(rot)  DE(clash)    DE(int)     intcor
     16.15     -18.32       3.05        0.00      61.94       1.80       0.18       1.99       ----

> <Gold.Chemscore.Fitness>
16.1522

> <Gold.Chemscore.DG>
-18.3201

> <Gold.Chemscore.ZeroCoef>
-5.4800

> <Gold.Chemscore.Hbond>
3.0527

> <Gold.Chemscore.Metal>
0.0000

> <Gold.Chemscore.Lipo>
61.9381

> <Gold.Chemscore.Internal_Hbond>
0.0000

> <Gold.Chemscore.DEClash>
0.1808

> <Gold.Chemscore.DEInternal>
1.9871

> <Gold.Chemscore.Rot>
1.7980

> <Gold.Chemscore.Internal.Correction>
   9.000000E+99

> <Gold.Chemscore.Hbonds>
donor molecule, donor type, donor heavy atom, donor atom, acceptor molecule, acceptor atom, score
      L1  H     8    31       P1  7948  0.91
      L1  H    11    32       P1  7948  0.90
      L1  H    17    37       P1 10747  1.00
      P1  H  7989  7998       L1    20  0.19

> <Gold.Chemscore.Hbond.Weighted>
-10.1962

> <Gold.Chemscore.Metal.Weighted>
-0.0000

> <Gold.Chemscore.Lipo.Weighted>
-7.2468

> <Gold.Chemscore.Internal_Hbond.Weighted>
0.0000

> <Gold.Chemscore.DEClash.Weighted>
0.1808

> <Gold.Chemscore.DEInternal.Weighted>
1.9871

> <Gold.Chemscore.Rot.Weighted>
4.6029

> <Gold.Chemscore.Internal.Correction.Weighted>
   9.000000E+99

> <Gold.Protein.RotatedTorsions>
[ 6907 6896 6895 6894 ] final  171.34 input  -60.11 | X-H torsion
[ 7974 7965 7964 7962 ] final  -90.49 input  175.53 | X-H torsion
[ 8008 7997 7996 7995 ] final   69.12 input   59.86 | X-H torsion
[ 10167 10162 10161 10158 ] final  -53.88 input  -65.29 | X-H torsion
[ 10718 10713 10712 10709 ] final   86.92 input   66.30 | X-H torsion
[ 10763 10752 10751 10750 ] final   98.98 input  -60.55 | X-H torsion
[ 11005 11000 10999 10996 ] final  -44.50 input  -57.11 | X-H torsion

> <Gold.Protein.ActiveResidues>
 VAL166  LYS551  ARG553  GLY616  TRP617  ASP618  TYR619  PRO620  LYS621  CYS622 
 ASP623  PHE694  ASN695  SER759  ASP760  ASP761  ALA762  ILE779  LEU786  VAL792 
 PHE793  MET794  SER795  GLU796  ALA797  LYS798  CYS799  TRP800  GLU811  SER814 

> <Gold.Protein.RotatedAtoms>
  151.8018  133.3371  159.3529 H   0  0  0  0  0  0  0  0  0  0  0  0  # atno 6907 bound_to 6896
  150.7356  134.5746  159.5917 H   0  0  0  0  0  0  0  0  0  0  0  0  # atno 6908 bound_to 6896
  152.3137  134.7467  160.0381 H   0  0  0  0  0  0  0  0  0  0  0  0  # atno 6909 bound_to 6896
  145.4257  140.9553  143.2156 H   0  0  0  0  0  0  0  0  0  0  0  0  # atno 7974 bound_to 7965
  155.7187  140.3493  155.5006 H   0  0  0  0  0  0  0  0  0  0  0  0  # atno 8008 bound_to 7997
  155.9290  140.1080  157.1169 H   0  0  0  0  0  0  0  0  0  0  0  0  # atno 8009 bound_to 7997
  154.4082  140.1235  156.4764 H   0  0  0  0  0  0  0  0  0  0  0  0  # atno 8010 bound_to 7997
  140.6461  143.2536  151.4855 H   0  0  0  0  0  0  0  0  0  0  0  0  # atno 10167 bound_to 10162
  157.6934  131.0235  150.3045 H   0  0  0  0  0  0  0  0  0  0  0  0  # atno 10718 bound_to 10713
  153.2958  135.4129  155.1208 H   0  0  0  0  0  0  0  0  0  0  0  0  # atno 10763 bound_to 10752
  154.8534  135.3529  154.5919 H   0  0  0  0  0  0  0  0  0  0  0  0  # atno 10764 bound_to 10752
  153.6343  135.7059  153.5322 H   0  0  0  0  0  0  0  0  0  0  0  0  # atno 10765 bound_to 10752
  141.0454  133.6763  156.2881 H   0  0  0  0  0  0  0  0  0  0  0  0  # atno 11005 bound_to 11000
  144.8216  139.5782  143.6984 LP  0  0  0  0  0  0  0  0  0  0  0  0  # atno 17320 bound_to 7965
  146.2633  139.6461  142.9347 LP  0  0  0  0  0  0  0  0  0  0  0  0  # atno 17321 bound_to 7965
  139.5672  144.2015  152.1782 LP  0  0  0  0  0  0  0  0  0  0  0  0  # atno 17342 bound_to 10162
  140.1300  144.5297  150.6808 LP  0  0  0  0  0  0  0  0  0  0  0  0  # atno 17343 bound_to 10162
  156.3556  130.3838  149.7293 LP  0  0  0  0  0  0  0  0  0  0  0  0  # atno 17370 bound_to 10713
  156.4756  130.8017  151.3033 LP  0  0  0  0  0  0  0  0  0  0  0  0  # atno 17371 bound_to 10713
  140.6156  134.5414  157.5540 LP  0  0  0  0  0  0  0  0  0  0  0  0  # atno 17394 bound_to 11000
  139.9308  134.7968  156.0937 LP  0  0  0  0  0  0  0  0  0  0  0  0  # atno 17395 bound_to 11000

$$$$
