AV-unprocessed.smi:3241|AV-procd|sdf|12390|dock8
  -GOLD-   2272018263D 1   1.00000     0.00000
 Structure written by MMmdl.
 43 44  0  0  0  0  0  0  0  0  1 V2000
  145.5145  142.7289  154.3048 C   0  0  0  0  0  0  0  0  0  0  0  0
  146.9223  142.3116  154.7578 C   0  0  1  0  0  0  0  0  0  0  0  0
  146.9036  141.6380  156.1449 C   0  0  0  0  0  0  0  0  0  0  0  0
  148.3198  141.2591  156.6073 C   0  0  0  0  0  0  0  0  0  0  0  0
  149.0275  140.3729  155.5712 C   0  0  0  0  0  0  0  0  0  0  0  0
  149.0477  141.0426  154.1872 C   0  0  0  0  0  0  0  0  0  0  0  0
  147.6268  141.4172  153.7132 C   0  0  1  0  0  0  0  0  0  0  0  0
  146.8461  140.2421  153.5252 O   0  0  0  0  0  0  0  0  0  0  0  0
  147.1487  139.5130  152.3453 C   0  0  0  0  0  0  0  0  0  0  0  0
  146.3057  138.2343  152.3368 C   0  0  0  0  0  0  0  0  0  0  0  0
  146.8477  137.2671  151.3898 N   0  0  0  0  0  0  0  0  0  0  0  0
  145.8316  136.6148  150.5694 C   0  0  0  0  0  0  0  0  0  0  0  0
  144.9326  135.6908  151.4073 C   0  0  0  0  0  0  0  0  0  0  0  0
  145.1099  134.2900  151.0677 N   0  0  0  0  0  0  0  0  0  0  0  0
  144.1630  133.3924  150.6218 C   0  0  0  0  0  0  0  0  0  0  0  0
  144.7949  132.1974  150.4285 C   0  0  0  0  0  0  0  0  0  0  0  0
  146.1448  132.4670  150.7883 C   0  0  0  0  0  0  0  0  0  0  0  0
  146.3298  133.7192  151.1735 N   0  0  0  0  0  0  0  0  0  0  0  0
  144.8543  141.8668  154.2059 H   0  0  0  0  0  0  0  0  0  0  0  0
  145.5471  143.2353  153.3398 H   0  0  0  0  0  0  0  0  0  0  0  0
  145.0599  143.4138  155.0209 H   0  0  0  0  0  0  0  0  0  0  0  0
  147.5080  143.2276  154.8492 H   0  0  0  0  0  0  0  0  0  0  0  0
  146.4491  142.3060  156.8772 H   0  0  0  0  0  0  0  0  0  0  0  0
  146.2787  140.7443  156.1155 H   0  0  0  0  0  0  0  0  0  0  0  0
  148.9041  142.1650  156.7723 H   0  0  0  0  0  0  0  0  0  0  0  0
  148.2725  140.7435  157.5668 H   0  0  0  0  0  0  0  0  0  0  0  0
  150.0465  140.1631  155.8974 H   0  0  0  0  0  0  0  0  0  0  0  0
  148.5207  139.4093  155.5049 H   0  0  0  0  0  0  0  0  0  0  0  0
  149.6575  141.9456  154.2366 H   0  0  0  0  0  0  0  0  0  0  0  0
  149.5410  140.3898  153.4679 H   0  0  0  0  0  0  0  0  0  0  0  0
  147.6908  141.9704  152.7743 H   0  0  0  0  0  0  0  0  0  0  0  0
  146.8975  140.1241  151.4775 H   0  0  0  0  0  0  0  0  0  0  0  0
  148.2093  139.2697  152.2742 H   0  0  0  0  0  0  0  0  0  0  0  0
  146.2653  137.8108  153.3409 H   0  0  0  0  0  0  0  0  0  0  0  0
  145.2808  138.4803  152.0570 H   0  0  0  0  0  0  0  0  0  0  0  0
  147.3892  136.5678  151.8886 H   0  0  0  0  0  0  0  0  0  0  0  0
  145.2086  137.3715  150.0912 H   0  0  0  0  0  0  0  0  0  0  0  0
  146.3019  136.0470  149.7658 H   0  0  0  0  0  0  0  0  0  0  0  0
  145.1185  135.8320  152.4734 H   0  0  0  0  0  0  0  0  0  0  0  0
  143.8861  135.9466  151.2381 H   0  0  0  0  0  0  0  0  0  0  0  0
  143.1310  133.6769  150.4786 H   0  0  0  0  0  0  0  0  0  0  0  0
  144.3598  131.2721  150.0815 H   0  0  0  0  0  0  0  0  0  0  0  0
  146.9897  131.7945  150.7815 H   0  0  0  0  0  0  0  0  0  0  0  0
  1  2  1  0  0  0  0
  1 19  1  0  0  0  0
  1 20  1  0  0  0  0
  1 21  1  0  0  0  0
  2  7  1  0  0  0  0
  2  3  1  0  0  0  0
  2 22  1  0  0  0  0
  3  4  1  0  0  0  0
  3 23  1  0  0  0  0
  3 24  1  0  0  0  0
  4  5  1  0  0  0  0
  4 25  1  0  0  0  0
  4 26  1  0  0  0  0
  5  6  1  0  0  0  0
  5 27  1  0  0  0  0
  5 28  1  0  0  0  0
  6  7  1  0  0  0  0
  6 29  1  0  0  0  0
  6 30  1  0  0  0  0
  7  8  1  0  0  0  0
  7 31  1  0  0  0  0
  8  9  1  0  0  0  0
  9 10  1  0  0  0  0
  9 32  1  0  0  0  0
  9 33  1  0  0  0  0
 10 11  1  0  0  0  0
 10 34  1  0  0  0  0
 10 35  1  0  0  0  0
 11 12  1  0  0  0  0
 11 36  1  0  0  0  0
 12 13  1  0  0  0  0
 12 37  1  0  0  0  0
 12 38  1  0  0  0  0
 13 14  1  0  0  0  0
 13 39  1  0  0  0  0
 13 40  1  0  0  0  0
 14 18  1  0  0  0  0
 14 15  1  0  0  0  0
 15 16  2  0  0  0  0
 15 41  1  0  0  0  0
 16 17  1  0  0  0  0
 16 42  1  0  0  0  0
 17 18  2  0  0  0  0
 17 43  1  0  0  0  0
M  END
> <s_m_source_file>
AV-unprocessed.smi

> <i_m_source_file_index>
3241

> <i_lp_mmshare_version>
43012

> <i_f3d_flags>
0

> <s_epik_input>
W0NIM11bQ0BASF0xW0NIMl1bQ0gyXVtDSDJdW0NIMl1bQ0BIXTFPW0NIMl1bQ0gyXVtOSF1bQ0gyXVtDSDJdbjJbY0hdW2NIXVtjSF1uMg==

> <s_epik_cmdline>
J2VwaWtfcHl0aG9uJywgJy1waCcsICc3LjAnLCAnLXRuJywgJzgnLCAnLW1hJywgJzIwMCcsICctbWV0YWxfYmluZGluZycsICctaW1hZScsICc8aW5maWxlLm1hZT4nLCAnLW9tYWUnLCAnPG91dGZpbGUubWFlPic=

> <r_lp_tautomer_probability>
1

> <r_epik_Ionization_Penalty>
2.47055

> <r_epik_Ionization_Penalty_Charging>
0

> <r_epik_Ionization_Penalty_Neutral>
2.47055

> <r_epik_State_Penalty>
2.6322

> <r_epik_Charging_Adjusted_Penalty>
2.6322

> <i_epik_Tot_Q>
0

> <i_epik_Tot_abs_Q>
0

> <r_epik_Metal_State_Penalty>
2.63108

> <b_epik_Metal_Only>
0

> <s_lp_Force_Field>
OPLS_2005

> <r_lp_Energy>
16.4291

> <b_lp_Chiralities_Consistent>
1

> <s_lp_Variant>
AV-unprocessed.smi:3241-6

> <Gold.Version>
5.8.1

> <Gold.Id.Protein>
6NUR|6NUR_protein|mol2

> <Gold.PLP.Fitness>
44.0944

> <Gold.PLP.PLP>
-34.9333

> <Gold.PLP.part.hbond>
-1.6395

> <Gold.PLP.part.metal>
0.0000

> <Gold.PLP.part.buried>
-0.4895

> <Gold.PLP.part.nonpolar>
-35.3383

> <Gold.PLP.part.repulsive>
0.3698

> <Gold.PLP.ligand.clash>
0.0000

> <Gold.PLP.ligand.torsion>
0.8973

> <Gold.PLP.Chemscore.Hbond>
1.6297

> <Gold.PLP.Chemscore.CHOScore>
2.0000

> <Gold.PLP.Chemscore.Metal>
0.0000

> <Gold.Chemscore.Hbonds>
donor molecule, donor type, donor heavy atom, donor atom, acceptor molecule, acceptor atom, score
      L1  H    11    36       P1  7948  0.61
      P1  H  7954  7966       L1    11  0.83
      L1  C    15    41       P1 10186  1.00
      L1  C    17    43       P1 10747  1.00

> <Gold.PLP.Chemscore.Internal.Correction>
0.0665

> <Gold.Rescore>
     Score         DG    S(hbond)    S(metal)    S(lipo)     H(rot)  DE(clash)    DE(int)     intcor
     11.58     -14.17       0.72        0.00      92.85       1.79       1.68       0.91       ----

> <Gold.Chemscore.Fitness>
11.5812

> <Gold.Chemscore.DG>
-14.1740

> <Gold.Chemscore.ZeroCoef>
-5.4800

> <Gold.Chemscore.Hbond>
0.7227

> <Gold.Chemscore.Metal>
0.0000

> <Gold.Chemscore.Lipo>
92.8453

> <Gold.Chemscore.Internal_Hbond>
0.0000

> <Gold.Chemscore.DEClash>
1.6818

> <Gold.Chemscore.DEInternal>
0.9110

> <Gold.Chemscore.Rot>
1.7901

> <Gold.Chemscore.Internal.Correction>
   9.000000E+99

> <Gold.Chemscore.Hbonds>
donor molecule, donor type, donor heavy atom, donor atom, acceptor molecule, acceptor atom, score
      L1  H    11    36       P1  7948  0.58
      P1  H  7954  7966       L1    11  0.06

> <Gold.Chemscore.Hbond.Weighted>
-2.4139

> <Gold.Chemscore.Metal.Weighted>
-0.0000

> <Gold.Chemscore.Lipo.Weighted>
-10.8629

> <Gold.Chemscore.Internal_Hbond.Weighted>
0.0000

> <Gold.Chemscore.DEClash.Weighted>
1.6818

> <Gold.Chemscore.DEInternal.Weighted>
0.9110

> <Gold.Chemscore.Rot.Weighted>
4.5827

> <Gold.Chemscore.Internal.Correction.Weighted>
   9.000000E+99

> <Gold.Protein.RotatedTorsions>
[ 6907 6896 6895 6894 ] final   96.79 input  -60.11 | X-H torsion
[ 7974 7965 7964 7962 ] final  103.21 input  175.53 | X-H torsion
[ 8008 7997 7996 7995 ] final -118.10 input   59.86 | X-H torsion
[ 10167 10162 10161 10158 ] final   18.47 input  -65.29 | X-H torsion
[ 10718 10713 10712 10709 ] final  119.04 input   66.30 | X-H torsion
[ 10763 10752 10751 10750 ] final -140.53 input  -60.55 | X-H torsion
[ 11005 11000 10999 10996 ] final   99.99 input  -57.11 | X-H torsion

> <Gold.Protein.ActiveResidues>
 VAL166  LYS551  ARG553  GLY616  TRP617  ASP618  TYR619  PRO620  LYS621  CYS622 
 ASP623  PHE694  ASN695  SER759  ASP760  ASP761  ALA762  ILE779  LEU786  VAL792 
 PHE793  MET794  SER795  GLU796  ALA797  LYS798  CYS799  TRP800  GLU811  SER814 

> <Gold.Protein.RotatedAtoms>
  152.5431  134.0832  159.8244 H   0  0  0  0  0  0  0  0  0  0  0  0  # atno 6907 bound_to 6896
  151.0931  133.5293  159.2621 H   0  0  0  0  0  0  0  0  0  0  0  0  # atno 6908 bound_to 6896
  151.2076  135.0477  159.8952 H   0  0  0  0  0  0  0  0  0  0  0  0  # atno 6909 bound_to 6896
  145.3489  139.2444  143.3569 H   0  0  0  0  0  0  0  0  0  0  0  0  # atno 7974 bound_to 7965
  155.0942  140.0395  157.2678 H   0  0  0  0  0  0  0  0  0  0  0  0  # atno 8008 bound_to 7997
  154.6808  140.2632  155.6885 H   0  0  0  0  0  0  0  0  0  0  0  0  # atno 8009 bound_to 7997
  156.2694  140.2779  156.1352 H   0  0  0  0  0  0  0  0  0  0  0  0  # atno 8010 bound_to 7997
  140.5650  143.9266  150.6670 H   0  0  0  0  0  0  0  0  0  0  0  0  # atno 10167 bound_to 10162
  157.5989  131.1054  150.7841 H   0  0  0  0  0  0  0  0  0  0  0  0  # atno 10718 bound_to 10713
  154.8575  135.3550  154.5722 H   0  0  0  0  0  0  0  0  0  0  0  0  # atno 10763 bound_to 10752
  153.6334  135.7001  153.5272 H   0  0  0  0  0  0  0  0  0  0  0  0  # atno 10764 bound_to 10752
  153.3030  135.4201  155.1229 H   0  0  0  0  0  0  0  0  0  0  0  0  # atno 10765 bound_to 10752
  139.8771  134.9120  156.4688 H   0  0  0  0  0  0  0  0  0  0  0  0  # atno 11005 bound_to 11000
  146.2976  140.4101  142.8716 LP  0  0  0  0  0  0  0  0  0  0  0  0  # atno 17320 bound_to 7965
  144.8733  140.7302  143.6033 LP  0  0  0  0  0  0  0  0  0  0  0  0  # atno 17321 bound_to 7965
  140.2727  143.3444  152.1223 LP  0  0  0  0  0  0  0  0  0  0  0  0  # atno 17342 bound_to 10162
  139.5089  144.6857  151.5893 LP  0  0  0  0  0  0  0  0  0  0  0  0  # atno 17343 bound_to 10162
  156.8245  130.4995  149.5339 LP  0  0  0  0  0  0  0  0  0  0  0  0  # atno 17370 bound_to 10713
  156.1057  130.6003  150.9967 LP  0  0  0  0  0  0  0  0  0  0  0  0  # atno 17371 bound_to 10713
  140.8810  133.7917  155.9467 LP  0  0  0  0  0  0  0  0  0  0  0  0  # atno 17394 bound_to 11000
  140.8853  134.2561  157.5123 LP  0  0  0  0  0  0  0  0  0  0  0  0  # atno 17395 bound_to 11000

$$$$
