AV-unprocessed.smi:613|AV-procd|sdf|3067|dock5
  -GOLD-   2262023593D 1   1.00000     0.00000
 Structure written by MMmdl.
 39 40  0  0  0  0  0  0  0  0  2 V2000
  148.7524  141.2825  157.9587 C   0  0  0  0  0  0  0  0  0  0  0  0
  150.0587  141.7912  157.5586 N   0  0  0  0  0  0  0  0  0  0  0  0
  150.5458  141.4906  156.2101 C   0  0  0  0  0  0  0  0  0  0  0  0
  151.8210  140.6239  156.2023 C   0  0  1  0  0  0  0  0  0  0  0  0
  151.8969  139.6321  157.3833 C   0  0  0  0  0  0  0  0  0  0  0  0
  153.0558  138.7406  157.2918 N   0  0  0  0  0  0  0  0  0  0  0  0
  153.1540  137.7792  158.3990 C   0  0  0  0  0  0  0  0  0  0  0  0
  153.1863  138.4192  159.7920 C   0  0  0  0  0  0  0  0  0  0  0  0
  153.3255  137.5960  160.8337 N   0  0  0  0  0  0  0  0  0  0  0  0
  153.0954  139.6383  159.9223 O   0  0  0  0  0  0  0  0  0  0  0  0
  153.0525  138.0656  155.9975 C   0  0  0  0  0  0  0  0  0  0  0  0
  152.9775  139.0637  154.8307 C   0  0  0  0  0  0  0  0  0  0  0  0
  151.8257  139.8866  154.9832 O   0  0  0  0  0  0  0  0  0  0  0  0
  150.6672  142.8021  158.3402 C   0  0  0  0  0  0  0  0  0  0  0  0
  151.6316  142.5259  159.3406 C   0  0  0  0  0  0  0  0  0  0  0  0
  152.1687  143.5941  160.0788 C   0  0  0  0  0  0  0  0  0  0  0  0
  151.7143  144.8880  159.7759 C   0  0  0  0  0  0  0  0  0  0  0  0
  150.8009  145.1427  158.8147 N   0  0  0  0  0  0  0  0  0  0  0  0
  150.3091  144.0982  158.1269 N   0  3  0  0  0  0  0  0  0  0  0  0
  148.8068  140.8110  158.9403 H   0  0  0  0  0  0  0  0  0  0  0  0
  148.3916  140.5346  157.2519 H   0  0  0  0  0  0  0  0  0  0  0  0
  148.0185  142.0881  157.9950 H   0  0  0  0  0  0  0  0  0  0  0  0
  149.7729  141.0364  155.5902 H   0  0  0  0  0  0  0  0  0  0  0  0
  150.7697  142.4431  155.7285 H   0  0  0  0  0  0  0  0  0  0  0  0
  152.6985  141.2729  156.2122 H   0  0  0  0  0  0  0  0  0  0  0  0
  151.9386  140.2080  158.3066 H   0  0  0  0  0  0  0  0  0  0  0  0
  150.9805  139.0405  157.4235 H   0  0  0  0  0  0  0  0  0  0  0  0
  152.3183  137.0783  158.3593 H   0  0  0  0  0  0  0  0  0  0  0  0
  154.0573  137.1774  158.2858 H   0  0  0  0  0  0  0  0  0  0  0  0
  153.3594  137.9709  161.7707 H   0  0  0  0  0  0  0  0  0  0  0  0
  153.4036  136.6010  160.6804 H   0  0  0  0  0  0  0  0  0  0  0  0
  153.9527  137.4588  155.8913 H   0  0  0  0  0  0  0  0  0  0  0  0
  152.2064  137.3787  155.9367 H   0  0  0  0  0  0  0  0  0  0  0  0
  153.8747  139.6832  154.7919 H   0  0  0  0  0  0  0  0  0  0  0  0
  152.9128  138.5327  153.8808 H   0  0  0  0  0  0  0  0  0  0  0  0
  151.9625  141.5213  159.5569 H   0  0  0  0  0  0  0  0  0  0  0  0
  152.9022  143.4275  160.8537 H   0  0  0  0  0  0  0  0  0  0  0  0
  152.0942  145.7430  160.3156 H   0  0  0  0  0  0  0  0  0  0  0  0
  149.6165  144.2867  157.4022 H   0  0  0  0  0  0  0  0  0  0  0  0
  1  2  1  0  0  0  0
  1 20  1  0  0  0  0
  1 21  1  0  0  0  0
  1 22  1  0  0  0  0
  2  3  1  0  0  0  0
  2 14  1  0  0  0  0
  3  4  1  0  0  0  0
  3 23  1  0  0  0  0
  3 24  1  0  0  0  0
  4 13  1  0  0  0  0
  4  5  1  0  0  0  0
  4 25  1  0  0  0  0
  5  6  1  0  0  0  0
  5 26  1  0  0  0  0
  5 27  1  0  0  0  0
  6  7  1  0  0  0  0
  6 11  1  0  0  0  0
  7  8  1  0  0  0  0
  7 28  1  0  0  0  0
  7 29  1  0  0  0  0
  8  9  1  0  0  0  0
  8 10  2  0  0  0  0
  9 30  1  0  0  0  0
  9 31  1  0  0  0  0
 11 12  1  0  0  0  0
 11 32  1  0  0  0  0
 11 33  1  0  0  0  0
 12 13  1  0  0  0  0
 12 34  1  0  0  0  0
 12 35  1  0  0  0  0
 14 19  1  0  0  0  0
 14 15  2  0  0  0  0
 15 16  1  0  0  0  0
 15 36  1  0  0  0  0
 16 17  2  0  0  0  0
 16 37  1  0  0  0  0
 17 18  1  0  0  0  0
 17 38  1  0  0  0  0
 18 19  2  0  0  0  0
 19 39  1  0  0  0  0
M  CHG  1  19   1
M  END
> <s_m_source_file>
AV-unprocessed.smi

> <i_m_source_file_index>
613

> <i_lp_mmshare_version>
43012

> <i_f3d_flags>
0

> <s_epik_input>
bjFuW2NIXVtjSF1bY0hdYzFOKFtDSDNdKVtDSDJdW0NAQEhdMltDSDJdTihbQ0gyXVtDSDJdTzIpW0NIMl1DKD1PKVtOSDJd

> <s_epik_cmdline>
J2VwaWtfcHl0aG9uJywgJy1waCcsICc3LjAnLCAnLXRuJywgJzgnLCAnLW1hJywgJzIwMCcsICctbWV0YWxfYmluZGluZycsICctaW1hZScsICc8aW5maWxlLm1hZT4nLCAnLW9tYWUnLCAnPG91dGZpbGUubWFlPic=

> <r_lp_tautomer_probability>
0.966961

> <r_epik_Ionization_Penalty>
1.86301

> <r_epik_Ionization_Penalty_Charging>
1.86058

> <r_epik_Ionization_Penalty_Neutral>
0.00243207

> <r_epik_State_Penalty>
1.48112

> <r_epik_Charging_Adjusted_Penalty>
3.3417

> <i_epik_Tot_Q>
1

> <i_epik_Tot_abs_Q>
1

> <r_epik_Metal_State_Penalty>
1.50193

> <b_epik_Metal_Only>
0

> <s_lp_Force_Field>
OPLS_2005

> <r_lp_Energy>
27.4635

> <b_lp_Chiralities_Consistent>
1

> <s_lp_Variant>
AV-unprocessed.smi:613-4

> <Gold.Version>
5.8.1

> <Gold.Id.Protein>
6NUR|6NUR_protein|mol2

> <Gold.PLP.Fitness>
43.1160

> <Gold.PLP.PLP>
-34.8106

> <Gold.PLP.part.hbond>
-3.8108

> <Gold.PLP.part.metal>
0.0000

> <Gold.PLP.part.buried>
-5.8159

> <Gold.PLP.part.nonpolar>
-25.4085

> <Gold.PLP.part.repulsive>
0.3408

> <Gold.PLP.ligand.clash>
0.0000

> <Gold.PLP.ligand.torsion>
1.9489

> <Gold.PLP.Chemscore.Hbond>
4.0000

> <Gold.PLP.Chemscore.CHOScore>
0.0000

> <Gold.PLP.Chemscore.Metal>
0.0000

> <Gold.Chemscore.Hbonds>
donor molecule, donor type, donor heavy atom, donor atom, acceptor molecule, acceptor atom, score
      L1  H    19    39       P1  8028  1.80
      P1  H  7989  7998       L1    13  0.98
      P1  H  7997  8009       L1     6  0.95

> <Gold.PLP.Chemscore.Internal.Correction>
0.2031

> <Gold.Rescore>
     Score         DG    S(hbond)    S(metal)    S(lipo)     H(rot)  DE(clash)    DE(int)     intcor
     11.49     -13.81       1.59        0.00      74.55       2.23       0.25       2.07       ----

> <Gold.Chemscore.Fitness>
11.4866

> <Gold.Chemscore.DG>
-13.8070

> <Gold.Chemscore.ZeroCoef>
-5.4800

> <Gold.Chemscore.Hbond>
1.5946

> <Gold.Chemscore.Metal>
0.0000

> <Gold.Chemscore.Lipo>
74.5478

> <Gold.Chemscore.Internal_Hbond>
0.0000

> <Gold.Chemscore.DEClash>
0.2539

> <Gold.Chemscore.DEInternal>
2.0666

> <Gold.Chemscore.Rot>
2.2348

> <Gold.Chemscore.Internal.Correction>
   9.000000E+99

> <Gold.Chemscore.Hbonds>
donor molecule, donor type, donor heavy atom, donor atom, acceptor molecule, acceptor atom, score
      L1  H    19    39       P1  8028  0.18
      P1  H  7989  7998       L1    13  0.50
      P1  H  7997  8009       L1     6  0.07

> <Gold.Chemscore.Hbond.Weighted>
-5.3260

> <Gold.Chemscore.Metal.Weighted>
-0.0000

> <Gold.Chemscore.Lipo.Weighted>
-8.7221

> <Gold.Chemscore.Internal_Hbond.Weighted>
0.0000

> <Gold.Chemscore.DEClash.Weighted>
0.2539

> <Gold.Chemscore.DEInternal.Weighted>
2.0666

> <Gold.Chemscore.Rot.Weighted>
5.7211

> <Gold.Chemscore.Internal.Correction.Weighted>
   9.000000E+99

> <Gold.Protein.RotatedTorsions>
[ 6907 6896 6895 6894 ] final    0.81 input  -60.11 | X-H torsion
[ 7974 7965 7964 7962 ] final   84.92 input  175.53 | X-H torsion
[ 8008 7997 7996 7995 ] final  157.89 input   59.86 | X-H torsion
[ 10167 10162 10161 10158 ] final -175.23 input  -65.29 | X-H torsion
[ 10718 10713 10712 10709 ] final   80.37 input   66.30 | X-H torsion
[ 10763 10752 10751 10750 ] final  162.22 input  -60.55 | X-H torsion
[ 11005 11000 10999 10996 ] final   77.19 input  -57.11 | X-H torsion

> <Gold.Protein.ActiveResidues>
 VAL166  LYS551  ARG553  GLY616  TRP617  ASP618  TYR619  PRO620  LYS621  CYS622 
 ASP623  PHE694  ASN695  SER759  ASP760  ASP761  ALA762  ILE779  LEU786  VAL792 
 PHE793  MET794  SER795  GLU796  ALA797  LYS798  CYS799  TRP800  GLU811  SER814 

> <Gold.Protein.RotatedAtoms>
  151.5825  135.1057  160.0020 H   0  0  0  0  0  0  0  0  0  0  0  0  # atno 6907 bound_to 6896
  152.4347  133.7335  159.6611 H   0  0  0  0  0  0  0  0  0  0  0  0  # atno 6908 bound_to 6896
  150.8243  133.8129  159.3148 H   0  0  0  0  0  0  0  0  0  0  0  0  # atno 6909 bound_to 6896
  145.5924  139.2340  143.2292 H   0  0  0  0  0  0  0  0  0  0  0  0  # atno 7974 bound_to 7965
  156.2336  140.1873  156.7178 H   0  0  0  0  0  0  0  0  0  0  0  0  # atno 8008 bound_to 7997
  154.6066  140.0628  156.9466 H   0  0  0  0  0  0  0  0  0  0  0  0  # atno 8009 bound_to 7997
  155.2085  140.3298  155.4335 H   0  0  0  0  0  0  0  0  0  0  0  0  # atno 8010 bound_to 7997
  139.5592  144.1913  152.1210 H   0  0  0  0  0  0  0  0  0  0  0  0  # atno 10167 bound_to 10162
  157.6804  130.9956  150.2069 H   0  0  0  0  0  0  0  0  0  0  0  0  # atno 10718 bound_to 10713
  154.2750  135.2764  155.2722 H   0  0  0  0  0  0  0  0  0  0  0  0  # atno 10763 bound_to 10752
  154.5268  135.5741  153.6729 H   0  0  0  0  0  0  0  0  0  0  0  0  # atno 10764 bound_to 10752
  152.9938  135.6218  154.2906 H   0  0  0  0  0  0  0  0  0  0  0  0  # atno 10765 bound_to 10752
  139.9265  134.7662  156.1490 H   0  0  0  0  0  0  0  0  0  0  0  0  # atno 11005 bound_to 11000
  146.1637  140.6750  142.9265 LP  0  0  0  0  0  0  0  0  0  0  0  0  # atno 17320 bound_to 7965
  144.7345  140.4769  143.6913 LP  0  0  0  0  0  0  0  0  0  0  0  0  # atno 17321 bound_to 7965
  140.1423  144.5191  150.6737 LP  0  0  0  0  0  0  0  0  0  0  0  0  # atno 17342 bound_to 10162
  140.6869  143.2355  151.5236 LP  0  0  0  0  0  0  0  0  0  0  0  0  # atno 17343 bound_to 10162
  156.2748  130.3726  149.7994 LP  0  0  0  0  0  0  0  0  0  0  0  0  # atno 17370 bound_to 10713
  156.5700  130.8421  151.3354 LP  0  0  0  0  0  0  0  0  0  0  0  0  # atno 17371 bound_to 10713
  141.0826  133.6747  156.2369 LP  0  0  0  0  0  0  0  0  0  0  0  0  # atno 17394 bound_to 11000
  140.6321  134.5253  157.5560 LP  0  0  0  0  0  0  0  0  0  0  0  0  # atno 17395 bound_to 11000

$$$$
