AV-unprocessed.smi:3229|AV-procd|sdf|12327|dock5
  -GOLD-   2272018173D 1   1.00000     0.00000
 Structure written by MMmdl.
 35 36  0  0  0  0  0  0  0  0  1 V2000
  151.7596  145.1804  159.4049 C   0  0  0  0  0  0  0  0  0  0  0  0
  152.0031  144.4799  158.0637 C   0  0  0  0  0  0  0  0  0  0  0  0
  151.6509  143.0289  158.0837 C   0  0  0  0  0  0  0  0  0  0  0  0
  150.6943  142.3899  157.3345 C   0  0  0  0  0  0  0  0  0  0  0  0
  150.6039  141.0192  157.5837 N   0  0  0  0  0  0  0  0  0  0  0  0
  151.4701  140.6109  158.5151 C   0  0  0  0  0  0  0  0  0  0  0  0
  151.6100  139.1865  158.9485 C   0  0  0  0  0  0  0  0  0  0  0  0
  150.5444  138.2446  158.3538 C   0  0  0  0  0  0  0  0  0  0  0  0
  150.0408  137.2754  159.3220 N   0  0  0  0  0  0  0  0  0  0  0  0
  148.7509  137.1140  159.6556 C   0  0  0  0  0  0  0  0  0  0  0  0
  147.8448  137.8038  159.1872 O   0  0  0  0  0  0  0  0  0  0  0  0
  148.4342  135.9835  160.6432 C   0  0  2  0  0  0  0  0  0  0  0  0
  147.3015  135.0515  160.2008 C   0  0  0  0  0  0  0  0  0  0  0  0
  146.7818  134.5507  161.5294 C   0  0  0  0  0  0  0  0  0  0  0  0
  146.8947  135.7978  162.3998 C   0  0  0  0  0  0  0  0  0  0  0  0
  148.0087  136.5282  161.8935 O   0  0  0  0  0  0  0  0  0  0  0  0
  152.4803  141.9103  159.1364 S   0  0  0  0  0  0  0  0  0  0  0  0
  152.0401  146.2325  159.3496 H   0  0  0  0  0  0  0  0  0  0  0  0
  152.3466  144.7204  160.2006 H   0  0  0  0  0  0  0  0  0  0  0  0
  150.7089  145.1316  159.6915 H   0  0  0  0  0  0  0  0  0  0  0  0
  151.4268  144.9799  157.2848 H   0  0  0  0  0  0  0  0  0  0  0  0
  153.0509  144.5957  157.7843 H   0  0  0  0  0  0  0  0  0  0  0  0
  150.0357  142.8318  156.6014 H   0  0  0  0  0  0  0  0  0  0  0  0
  152.6040  138.8358  158.6700 H   0  0  0  0  0  0  0  0  0  0  0  0
  151.5707  139.1513  160.0380 H   0  0  0  0  0  0  0  0  0  0  0  0
  149.6942  138.8328  158.0082 H   0  0  0  0  0  0  0  0  0  0  0  0
  150.9394  137.7301  157.4766 H   0  0  0  0  0  0  0  0  0  0  0  0
  150.7184  136.6627  159.7527 H   0  0  0  0  0  0  0  0  0  0  0  0
  149.3403  135.4023  160.8215 H   0  0  0  0  0  0  0  0  0  0  0  0
  146.5164  135.5985  159.6754 H   0  0  0  0  0  0  0  0  0  0  0  0
  147.6476  134.2435  159.5554 H   0  0  0  0  0  0  0  0  0  0  0  0
  145.7662  134.1577  161.4747 H   0  0  0  0  0  0  0  0  0  0  0  0
  147.4338  133.7647  161.9129 H   0  0  0  0  0  0  0  0  0  0  0  0
  146.0016  136.4152  162.2950 H   0  0  0  0  0  0  0  0  0  0  0  0
  147.0192  135.5596  163.4563 H   0  0  0  0  0  0  0  0  0  0  0  0
  1  2  1  0  0  0  0
  1 18  1  0  0  0  0
  1 19  1  0  0  0  0
  1 20  1  0  0  0  0
  2  3  1  0  0  0  0
  2 21  1  0  0  0  0
  2 22  1  0  0  0  0
  3 17  1  0  0  0  0
  3  4  2  0  0  0  0
  4  5  1  0  0  0  0
  4 23  1  0  0  0  0
  5  6  2  0  0  0  0
  6  7  1  0  0  0  0
  6 17  1  0  0  0  0
  7  8  1  0  0  0  0
  7 24  1  0  0  0  0
  7 25  1  0  0  0  0
  8  9  1  0  0  0  0
  8 26  1  0  0  0  0
  8 27  1  0  0  0  0
  9 10  1  0  0  0  0
  9 28  1  0  0  0  0
 10 11  2  0  0  0  0
 10 12  1  0  0  0  0
 12 16  1  0  0  0  0
 12 13  1  0  0  0  0
 12 29  1  0  0  0  0
 13 14  1  0  0  0  0
 13 30  1  0  0  0  0
 13 31  1  0  0  0  0
 14 15  1  0  0  0  0
 14 32  1  0  0  0  0
 14 33  1  0  0  0  0
 15 16  1  0  0  0  0
 15 34  1  0  0  0  0
 15 35  1  0  0  0  0
M  END
> <s_m_source_file>
AV-unprocessed.smi

> <i_m_source_file_index>
3229

> <i_lp_mmshare_version>
43012

> <i_f3d_flags>
0

> <s_epik_input>
W0NIM11bQ0gyXWMxW2NIXW5jKHMxKVtDSDJdW0NIMl1bTkhdQyg9TylbQ0BASF0yW0NIMl1bQ0gyXVtDSDJdTzI=

> <s_epik_cmdline>
J2VwaWtfcHl0aG9uJywgJy1waCcsICc3LjAnLCAnLXRuJywgJzgnLCAnLW1hJywgJzIwMCcsICctbWV0YWxfYmluZGluZycsICctaW1hZScsICc8aW5maWxlLm1hZT4nLCAnLW9tYWUnLCAnPG91dGZpbGUubWFlPic=

> <r_epik_Ionization_Penalty>
0.000508191

> <r_epik_Ionization_Penalty_Charging>
0

> <r_epik_Ionization_Penalty_Neutral>
0.000508191

> <r_epik_State_Penalty>
0.000316483

> <r_epik_Charging_Adjusted_Penalty>
0.000316483

> <i_epik_Tot_Q>
0

> <i_epik_Tot_abs_Q>
0

> <r_epik_Metal_State_Penalty>
-0

> <b_epik_Metal_Only>
0

> <s_lp_Force_Field>
OPLS_2005

> <r_lp_Energy>
9.62318

> <b_lp_Chiralities_Consistent>
1

> <s_lp_Variant>
AV-unprocessed.smi:3229-1

> <Gold.Version>
5.8.1

> <Gold.Id.Protein>
6NUR|6NUR_protein|mol2

> <Gold.PLP.Fitness>
41.3477

> <Gold.PLP.PLP>
-35.3005

> <Gold.PLP.part.hbond>
-2.0000

> <Gold.PLP.part.metal>
0.0000

> <Gold.PLP.part.buried>
-4.8369

> <Gold.PLP.part.nonpolar>
-29.6332

> <Gold.PLP.part.repulsive>
0.2426

> <Gold.PLP.ligand.clash>
0.0000

> <Gold.PLP.ligand.torsion>
0.5396

> <Gold.PLP.Chemscore.Hbond>
1.3640

> <Gold.PLP.Chemscore.CHOScore>
1.0000

> <Gold.PLP.Chemscore.Metal>
0.0000

> <Gold.Chemscore.Hbonds>
donor molecule, donor type, donor heavy atom, donor atom, acceptor molecule, acceptor atom, score
      P1  H  6931  6943       L1    16  1.00
      P1  H  6934  6947       L1    11  0.26
      L1  C     4    23       P1  8028  1.00

> <Gold.PLP.Chemscore.Internal.Correction>
0.0344

> <Gold.Rescore>
     Score         DG    S(hbond)    S(metal)    S(lipo)     H(rot)  DE(clash)    DE(int)     intcor
     15.36     -16.40       0.99        0.00     100.05       1.60       0.12       0.92       ----

> <Gold.Chemscore.Fitness>
15.3570

> <Gold.Chemscore.DG>
-16.4002

> <Gold.Chemscore.ZeroCoef>
-5.4800

> <Gold.Chemscore.Hbond>
0.9943

> <Gold.Chemscore.Metal>
0.0000

> <Gold.Chemscore.Lipo>
100.0473

> <Gold.Chemscore.Internal_Hbond>
0.0000

> <Gold.Chemscore.DEClash>
0.1214

> <Gold.Chemscore.DEInternal>
0.9219

> <Gold.Chemscore.Rot>
1.6040

> <Gold.Chemscore.Internal.Correction>
   9.000000E+99

> <Gold.Chemscore.Hbonds>
donor molecule, donor type, donor heavy atom, donor atom, acceptor molecule, acceptor atom, score
      P1  H  6931  6943       L1    16  0.29
      P1  H  6934  6947       L1    11  0.12

> <Gold.Chemscore.Hbond.Weighted>
-3.3209

> <Gold.Chemscore.Metal.Weighted>
-0.0000

> <Gold.Chemscore.Lipo.Weighted>
-11.7055

> <Gold.Chemscore.Internal_Hbond.Weighted>
0.0000

> <Gold.Chemscore.DEClash.Weighted>
0.1214

> <Gold.Chemscore.DEInternal.Weighted>
0.9219

> <Gold.Chemscore.Rot.Weighted>
4.1062

> <Gold.Chemscore.Internal.Correction.Weighted>
   9.000000E+99

> <Gold.Protein.RotatedTorsions>
[ 6907 6896 6895 6894 ] final  137.75 input  -60.11 | X-H torsion
[ 7974 7965 7964 7962 ] final  -52.88 input  175.53 | X-H torsion
[ 8008 7997 7996 7995 ] final  100.13 input   59.86 | X-H torsion
[ 10167 10162 10161 10158 ] final   44.36 input  -65.29 | X-H torsion
[ 10718 10713 10712 10709 ] final -176.20 input   66.30 | X-H torsion
[ 10763 10752 10751 10750 ] final  -13.93 input  -60.55 | X-H torsion
[ 11005 11000 10999 10996 ] final   88.59 input  -57.11 | X-H torsion

> <Gold.Protein.ActiveResidues>
 VAL166  LYS551  ARG553  GLY616  TRP617  ASP618  TYR619  PRO620  LYS621  CYS622 
 ASP623  PHE694  ASN695  SER759  ASP760  ASP761  ALA762  ILE779  LEU786  VAL792 
 PHE793  MET794  SER795  GLU796  ALA797  LYS798  CYS799  TRP800  GLU811  SER814 

> <Gold.Protein.RotatedAtoms>
  152.2745  133.5413  159.5459 H   0  0  0  0  0  0  0  0  0  0  0  0  # atno 6907 bound_to 6896
  150.7172  134.0650  159.3853 H   0  0  0  0  0  0  0  0  0  0  0  0  # atno 6908 bound_to 6896
  151.8564  135.0540  160.0515 H   0  0  0  0  0  0  0  0  0  0  0  0  # atno 6909 bound_to 6896
  145.9031  140.7978  142.9733 H   0  0  0  0  0  0  0  0  0  0  0  0  # atno 7974 bound_to 7965
  156.1173  140.3218  155.8157 H   0  0  0  0  0  0  0  0  0  0  0  0  # atno 8008 bound_to 7997
  155.4567  140.0536  157.3012 H   0  0  0  0  0  0  0  0  0  0  0  0  # atno 8009 bound_to 7997
  154.4802  140.2049  155.9796 H   0  0  0  0  0  0  0  0  0  0  0  0  # atno 8010 bound_to 7997
  140.3351  144.2540  150.6163 H   0  0  0  0  0  0  0  0  0  0  0  0  # atno 10167 bound_to 10162
  156.8111  130.9586  151.3116 H   0  0  0  0  0  0  0  0  0  0  0  0  # atno 10718 bound_to 10713
  153.5207  135.7015  153.5733 H   0  0  0  0  0  0  0  0  0  0  0  0  # atno 10763 bound_to 10752
  153.3783  135.3927  155.1838 H   0  0  0  0  0  0  0  0  0  0  0  0  # atno 10764 bound_to 10752
  154.8695  135.3829  154.4695 H   0  0  0  0  0  0  0  0  0  0  0  0  # atno 10765 bound_to 10752
  139.8893  134.8497  156.3022 H   0  0  0  0  0  0  0  0  0  0  0  0  # atno 11005 bound_to 11000
  144.6737  140.1707  143.7414 LP  0  0  0  0  0  0  0  0  0  0  0  0  # atno 17320 bound_to 7965
  145.8766  139.2300  143.1629 LP  0  0  0  0  0  0  0  0  0  0  0  0  # atno 17321 bound_to 7965
  140.5361  143.2233  151.8160 LP  0  0  0  0  0  0  0  0  0  0  0  0  # atno 17342 bound_to 10162
  139.4850  144.4659  151.9484 LP  0  0  0  0  0  0  0  0  0  0  0  0  # atno 17343 bound_to 10162
  157.6505  130.8880  149.9624 LP  0  0  0  0  0  0  0  0  0  0  0  0  # atno 17370 bound_to 10713
  156.1044  130.3653  150.0160 LP  0  0  0  0  0  0  0  0  0  0  0  0  # atno 17371 bound_to 10713
  140.9906  133.7211  156.0808 LP  0  0  0  0  0  0  0  0  0  0  0  0  # atno 17394 bound_to 11000
  140.7630  134.3918  157.5522 LP  0  0  0  0  0  0  0  0  0  0  0  0  # atno 17395 bound_to 11000

$$$$
