#       Name:                AV-unprocessed.smi:523
#       Creating user name   scv26
#       Creation time:       Thu Mar 26 23:27:59 2020


#       File generated by GOLD software.
#

@<TRIPOS>MOLECULE
AV-unprocessed.smi:523
    50    52     1
SMALL
NO_CHARGES


@<TRIPOS>ATOM
      1 ****        -3.5505   0.2489  -1.6471 C.3            1 S1                 0.0000
      2 ****        -2.1499   0.4397  -1.7306 O.3            1 S1                 0.0000
      3 ****        -1.4384  -0.7830  -1.8343 C.3            1 S1                 0.0000
      4 ****         0.0702  -0.5049  -1.8849 C.3            1 S1                 0.0000
      5 ****         0.5217   0.2514  -0.7180 N.pl3          1 S1                 0.0000
      6 ****         0.8177  -0.2107   0.5280 C.2            1 S1                 0.0000
      7 ****         0.7595  -1.5661   0.8534 N.pl3          1 S1                 0.0000
      8 ****         1.5189  -2.6496   0.2358 C.3            1 S1                 0.0000
      9 ****         0.5991  -3.8350  -0.1076 C.3            1 S1                 0.0000
     10 ****        -0.0222  -4.3032   1.0842 O.3            1 S1                 0.0000
     11 ****        -0.7829  -3.2832   1.7221 C.3            1 S1                 0.0000
     12 ****         0.1336  -2.0932   2.0610 C.3            1 S1                 0.0000
     13 ****         1.1146   0.7396   1.4183 N.2            1 S1                 0.0000
     14 ****         1.0282   1.9057   0.6744 C.2            1 S1                 0.0000
     15 ****         0.6672   1.6368  -0.6064 C.2            1 S1                 0.0000
     16 ****         0.4566   2.6988  -1.6017 C.2            1 S1                 0.0000
     17 ****         0.1154   2.4871  -2.7631 O.2            1 S1                 0.0000
     18 ****         0.6701   3.9421  -1.1070 N.am           1 S1                 0.0000
     19 ****         1.0387   4.2791   0.1660 C.2            1 S1                 0.0000
     20 ****         1.1895   5.4623   0.4700 O.2            1 S1                 0.0000
     21 ****         1.2248   3.2610   1.0656 N.am           1 S1                 0.0000
     22 ****         1.6135   3.5646   2.4441 C.3            1 S1                 0.0000
     23 ****         0.5370   4.7083  -1.7509 H              1 S1                 0.0000
     24 ****        -4.0472   1.2160  -1.5704 H              1 S1                 0.0000
     25 ****        -3.8165  -0.3371  -0.7664 H              1 S1                 0.0000
     26 ****        -3.9329  -0.2572  -2.5343 H              1 S1                 0.0000
     27 ****        -1.6686  -1.4199  -0.9788 H              1 S1                 0.0000
     28 ****        -1.7457  -1.3205  -2.7322 H              1 S1                 0.0000
     29 ****         0.6157  -1.4408  -1.9600 H              1 S1                 0.0000
     30 ****         0.3246   0.0352  -2.7940 H              1 S1                 0.0000
     31 ****         2.0472  -2.2956  -0.6483 H              1 S1                 0.0000
     32 ****         2.2943  -2.9758   0.9303 H              1 S1                 0.0000
     33 ****        -0.1577  -3.5484  -0.8392 H              1 S1                 0.0000
     34 ****         1.1780  -4.6474  -0.5467 H              1 S1                 0.0000
     35 ****        -1.6050  -2.9697   1.0766 H              1 S1                 0.0000
     36 ****        -1.2269  -3.6882   2.6314 H              1 S1                 0.0000
     37 ****         0.9053  -2.3950   2.7704 H              1 S1                 0.0000
     38 ****        -0.4491  -1.3084   2.5444 H              1 S1                 0.0000
     39 ****         2.5094   4.1869   2.4664 H              1 S1                 0.0000
     40 ****         1.8302   2.6688   3.0255 H              1 S1                 0.0000
     41 ****         0.8125   4.1025   2.9531 H              1 S1                 0.0000
     42 ****        -1.8426   0.9205  -0.9094 LP             1 S1                 0.0000
     43 ****        -1.9499   0.9961  -2.5371 LP             1 S1                 0.0000
     44 ****         0.6860  -4.6206   1.7148 LP             1 S1                 0.0000
     45 ****        -0.6295  -5.0639   0.8549 LP             1 S1                 0.0000
     46 ****         1.3435   0.6351   2.3861 LP             1 S1                 0.0000
     47 ****        -0.0348   1.5496  -3.0771 LP             1 S1                 0.0000
     48 ****        -0.0121   3.2522  -3.3941 LP             1 S1                 0.0000
     49 ****         1.0425   6.1769  -0.2139 LP             1 S1                 0.0000
     50 ****         1.4590   5.7089   1.4009 LP             1 S1                 0.0000
@<TRIPOS>BOND
    1    1    2 1     
    2    1   24 1     
    3    1   25 1     
    4    1   26 1     
    5    2    3 1     
    6    3    4 1     
    7    3   27 1     
    8    3   28 1     
    9    4    5 1     
   10    4   29 1     
   11    4   30 1     
   12    5   15 1     
   13    5    6 1     
   14    6    7 1     
   15    6   13 2     
   16    7   12 1     
   17    7    8 1     
   18    8    9 1     
   19    8   31 1     
   20    8   32 1     
   21    9   10 1     
   22    9   33 1     
   23    9   34 1     
   24   10   11 1     
   25   11   12 1     
   26   11   35 1     
   27   11   36 1     
   28   12   37 1     
   29   12   38 1     
   30   13   14 1     
   31   14   21 1     
   32   14   15 2     
   33   15   16 1     
   34   16   17 2     
   35   16   18 1     
   36   18   23 1     
   37   18   19 1     
   38   19   20 2     
   39   19   21 1     
   40   21   22 1     
   41   22   39 1     
   42   22   40 1     
   43   22   41 1     
   44    2   42 1     
   45    2   43 1     
   46   10   44 1     
   47   10   45 1     
   48   13   46 1     
   49   17   47 1     
   50   17   48 1     
   51   20   49 1     
   52   20   50 1     
@<TRIPOS>SUBSTRUCTURE
      1 S1             1
@<TRIPOS>SET
LONE_PAIRS      STATIC     ATOMS    <user>   **** ""
9 42 43 44 45 46 47 48 49 50
DONOR_HYDROGENS      STATIC     ATOMS    <user>   **** ""
1 23
ATOM$BLUE        STATIC     ATOMS    COLORGROUP SYSTEM
9 42 43 44 45 46 47 48 49 50
ATOM$RED        STATIC     ATOMS    COLORGROUP SYSTEM
1 23
