AV-unprocessed.smi:109|AV-procd|sdf|1035|dock6
  -GOLD-   2262018 53D 1   1.00000     0.00000
 Structure written by MMmdl.
 58 61  0  0  0  0  0  0  0  0  1 V2000
  148.9682  141.3325  153.6948 O   0  0  0  0  0  0  0  0  0  0  0  0
  149.5142  140.5749  154.7531 C   0  0  0  0  0  0  0  0  0  0  0  0
  150.3870  141.4758  155.6432 C   0  0  0  0  0  0  0  0  0  0  0  0
  151.0372  140.7492  156.8468 C   0  0  2  0  0  0  0  0  0  0  0  0
  149.9960  140.1070  157.6520 N   0  0  0  0  0  0  0  0  0  0  0  0
  149.9116  138.7642  157.7863 C   0  0  0  0  0  0  0  0  0  0  0  0
  149.4816  138.1904  158.9393 N   0  0  0  0  0  0  0  0  0  0  0  0
  149.4140  136.8603  159.0391 C   0  0  0  0  0  0  0  0  0  0  0  0
  149.7236  135.9393  158.1245 N   0  0  0  0  0  0  0  0  0  0  0  0
  150.1613  136.5064  156.9616 C   0  0  0  0  0  0  0  0  0  0  0  0
  150.2753  137.9043  156.7178 C   0  0  0  0  0  0  0  0  0  0  0  0
  150.7274  138.1223  155.4247 N   0  0  0  0  0  0  0  0  0  0  0  0
  150.8607  136.9211  154.9319 C   0  0  0  0  0  0  0  0  0  0  0  0
  150.5786  135.8840  155.7975 N   0  0  0  0  0  0  0  0  0  0  0  0
  150.6108  134.4071  155.5028 C   0  0  2  0  0  0  0  0  0  0  0  0
  149.7848  134.1447  154.4106 O   0  0  0  0  0  0  0  0  0  0  0  0
  148.4743  133.8556  154.8781 C   0  0  1  0  0  0  0  0  0  0  0  0
  147.6045  133.2465  153.7658 C   0  0  0  0  0  0  0  0  0  0  0  0
  147.1582  134.2661  152.8978 O   0  0  0  0  0  0  0  0  0  0  0  0
  148.7804  132.9408  156.0699 C   0  0  1  0  0  0  0  0  0  0  0  0
  149.0200  131.6110  155.6357 O   0  0  0  0  0  0  0  0  0  0  0  0
  150.0208  133.5993  156.6810 C   0  0  1  0  0  0  0  0  0  0  0  0
  150.9337  132.6651  157.2251 O   0  0  0  0  0  0  0  0  0  0  0  0
  151.8802  141.6905  157.7560 C   0  0  0  0  0  0  0  0  0  0  0  0
  152.4462  140.9849  159.0146 C   0  0  0  0  0  0  0  0  0  0  0  0
  153.2493  141.9409  159.9125 C   0  0  0  0  0  0  0  0  0  0  0  0
  152.4151  143.1587  160.3271 C   0  0  0  0  0  0  0  0  0  0  0  0
  151.8667  143.8825  159.0919 C   0  0  0  0  0  0  0  0  0  0  0  0
  151.0570  142.9267  158.2021 C   0  0  0  0  0  0  0  0  0  0  0  0
  151.6575  134.1972  155.2784 H   0  0  0  0  0  0  0  0  0  0  0  0
  148.0134  134.7725  155.2528 H   0  0  0  0  0  0  0  0  0  0  0  0
  147.9505  132.9186  156.7771 H   0  0  0  0  0  0  0  0  0  0  0  0
  149.6994  134.2715  157.4765 H   0  0  0  0  0  0  0  0  0  0  0  0
  149.0425  140.8312  152.8972 H   0  0  0  0  0  0  0  0  0  0  0  0
  148.6952  140.1314  155.3192 H   0  0  0  0  0  0  0  0  0  0  0  0
  150.1052  139.7596  154.3350 H   0  0  0  0  0  0  0  0  0  0  0  0
  151.1604  141.8905  154.9993 H   0  0  0  0  0  0  0  0  0  0  0  0
  149.7980  142.3218  156.0003 H   0  0  0  0  0  0  0  0  0  0  0  0
  151.7267  140.0031  156.4517 H   0  0  0  0  0  0  0  0  0  0  0  0
  149.4141  140.7382  158.1837 H   0  0  0  0  0  0  0  0  0  0  0  0
  149.0638  136.4795  159.9871 H   0  0  0  0  0  0  0  0  0  0  0  0
  151.1757  136.7602  153.9109 H   0  0  0  0  0  0  0  0  0  0  0  0
  148.1463  132.4837  153.2059 H   0  0  0  0  0  0  0  0  0  0  0  0
  146.7215  132.7725  154.1956 H   0  0  0  0  0  0  0  0  0  0  0  0
  147.9150  134.7046  152.5389 H   0  0  0  0  0  0  0  0  0  0  0  0
  148.2525  131.3043  155.1767 H   0  0  0  0  0  0  0  0  0  0  0  0
  151.0034  131.9366  156.6268 H   0  0  0  0  0  0  0  0  0  0  0  0
  152.7292  142.0480  157.1706 H   0  0  0  0  0  0  0  0  0  0  0  0
  151.6302  140.5429  159.5879 H   0  0  0  0  0  0  0  0  0  0  0  0
  153.1107  140.1682  158.7384 H   0  0  0  0  0  0  0  0  0  0  0  0
  153.5975  141.4115  160.7998 H   0  0  0  0  0  0  0  0  0  0  0  0
  154.1423  142.2741  159.3820 H   0  0  0  0  0  0  0  0  0  0  0  0
  151.5893  142.8394  160.9641 H   0  0  0  0  0  0  0  0  0  0  0  0
  153.0215  143.8422  160.9219 H   0  0  0  0  0  0  0  0  0  0  0  0
  151.2417  144.7208  159.4011 H   0  0  0  0  0  0  0  0  0  0  0  0
  152.6916  144.3059  158.5174 H   0  0  0  0  0  0  0  0  0  0  0  0
  150.6998  143.4880  157.3387 H   0  0  0  0  0  0  0  0  0  0  0  0
  150.1667  142.5984  158.7403 H   0  0  0  0  0  0  0  0  0  0  0  0
  1  2  1  0  0  0  0
  1 34  1  0  0  0  0
  2  3  1  0  0  0  0
  2 35  1  0  0  0  0
  2 36  1  0  0  0  0
  3  4  1  0  0  0  0
  3 37  1  0  0  0  0
  3 38  1  0  0  0  0
  4  5  1  0  0  0  0
  4 24  1  0  0  0  0
  4 39  1  0  0  0  0
  5  6  1  0  0  0  0
  5 40  1  0  0  0  0
  6 11  1  0  0  0  0
  6  7  2  0  0  0  0
  7  8  1  0  0  0  0
  8  9  2  0  0  0  0
  8 41  1  0  0  0  0
  9 10  1  0  0  0  0
 10 14  1  0  0  0  0
 10 11  2  0  0  0  0
 11 12  1  0  0  0  0
 12 13  2  0  0  0  0
 13 14  1  0  0  0  0
 13 42  1  0  0  0  0
 14 15  1  0  0  0  0
 15 30  1  0  0  0  0
 15 22  1  0  0  0  0
 15 16  1  0  0  0  0
 16 17  1  0  0  0  0
 17 31  1  0  0  0  0
 17 18  1  0  0  0  0
 17 20  1  0  0  0  0
 18 19  1  0  0  0  0
 18 43  1  0  0  0  0
 18 44  1  0  0  0  0
 19 45  1  0  0  0  0
 20 32  1  0  0  0  0
 20 21  1  0  0  0  0
 20 22  1  0  0  0  0
 21 46  1  0  0  0  0
 22 33  1  0  0  0  0
 22 23  1  0  0  0  0
 23 47  1  0  0  0  0
 24 29  1  0  0  0  0
 24 25  1  0  0  0  0
 24 48  1  0  0  0  0
 25 26  1  0  0  0  0
 25 49  1  0  0  0  0
 25 50  1  0  0  0  0
 26 27  1  0  0  0  0
 26 51  1  0  0  0  0
 26 52  1  0  0  0  0
 27 28  1  0  0  0  0
 27 53  1  0  0  0  0
 27 54  1  0  0  0  0
 28 29  1  0  0  0  0
 28 55  1  0  0  0  0
 28 56  1  0  0  0  0
 29 57  1  0  0  0  0
 29 58  1  0  0  0  0
M  END
> <s_m_source_file>
AV-unprocessed.smi

> <i_m_source_file_index>
109

> <i_lp_mmshare_version>
43012

> <i_f3d_flags>
0

> <s_epik_input>
W0NIMl0xW0NIMl1bQ0gyXVtDSDJdW0NIMl1bQ0hdMVtDQEhdKFtDSDJdW0NIMl1bT0hdKVtOSF1jKG5bY0hdbjIpYyhjMjMpbltjSF1uM1tDQEBIXTRPW0NASF0oW0NIMl1bT0hdKVtDQEBIXShbT0hdKVtDQEhdNFtPSF0=

> <s_epik_cmdline>
J2VwaWtfcHl0aG9uJywgJy1waCcsICc3LjAnLCAnLXRuJywgJzgnLCAnLW1hJywgJzIwMCcsICctbWV0YWxfYmluZGluZycsICctaW1hZScsICc8aW5maWxlLm1hZT4nLCAnLW9tYWUnLCAnPG91dGZpbGUubWFlPic=

> <r_lp_tautomer_probability>
1

> <r_epik_Ionization_Penalty>
0.000793976

> <r_epik_Ionization_Penalty_Charging>
0

> <r_epik_Ionization_Penalty_Neutral>
0.000793976

> <r_epik_State_Penalty>
-0

> <r_epik_Charging_Adjusted_Penalty>
0

> <i_epik_Tot_Q>
0

> <i_epik_Tot_abs_Q>
0

> <r_epik_Metal_State_Penalty>
-0

> <b_epik_Metal_Only>
0

> <s_epik_Chemistry_Notes>
This compound contains an acetal/aminal-like group ( X-CH(R)-Y where X, Y are N, S, or O) that may be acid/base labile, releasing an aldehyde.

> <s_lp_Force_Field>
OPLS_2005

> <r_lp_Energy>
57.9127

> <b_lp_Chiralities_Consistent>
1

> <s_lp_Variant>
AV-unprocessed.smi:109-5

> <Gold.Version>
5.8.1

> <Gold.Id.Protein>
6NUR|6NUR_protein|mol2

> <Gold.PLP.Fitness>
56.4442

> <Gold.PLP.PLP>
-45.1782

> <Gold.PLP.part.hbond>
-6.1725

> <Gold.PLP.part.metal>
0.0000

> <Gold.PLP.part.buried>
-5.9552

> <Gold.PLP.part.nonpolar>
-32.2328

> <Gold.PLP.part.repulsive>
0.2982

> <Gold.PLP.ligand.clash>
0.0000

> <Gold.PLP.ligand.torsion>
0.4770

> <Gold.PLP.Chemscore.Hbond>
3.2952

> <Gold.PLP.Chemscore.CHOScore>
0.7443

> <Gold.PLP.Chemscore.Metal>
0.0000

> <Gold.Chemscore.Hbonds>
donor molecule, donor type, donor heavy atom, donor atom, acceptor molecule, acceptor atom, score
      L1  H     1    34       P1  7957  1.00
      L1  H    19    45       P1  7948  1.00
      P1  H  6896  6907       L1    23  0.64
      P1  H  6896  6908       L1     9  0.22
      L1  C    13    42       P1  7949  0.98

> <Gold.PLP.Chemscore.Internal.Correction>
0.1016

> <Gold.Rescore>
     Score         DG    S(hbond)    S(metal)    S(lipo)     H(rot)  DE(clash)    DE(int)     intcor
      7.18     -11.75       2.63        0.00      98.04       5.47       0.38       4.19       ----

> <Gold.Chemscore.Fitness>
7.1770

> <Gold.Chemscore.DG>
-11.7454

> <Gold.Chemscore.ZeroCoef>
-5.4800

> <Gold.Chemscore.Hbond>
2.6311

> <Gold.Chemscore.Metal>
0.0000

> <Gold.Chemscore.Lipo>
98.0439

> <Gold.Chemscore.Internal_Hbond>
0.0000

> <Gold.Chemscore.DEClash>
0.3764

> <Gold.Chemscore.DEInternal>
4.1919

> <Gold.Chemscore.Rot>
5.4662

> <Gold.Chemscore.Internal.Correction>
   9.000000E+99

> <Gold.Chemscore.Hbonds>
donor molecule, donor type, donor heavy atom, donor atom, acceptor molecule, acceptor atom, score
      L1  H     1    34       P1  7957  0.97
      L1  H    19    45       P1  7948  0.69
      P1  H  6896  6907       L1    23  0.40
      P1  H  6896  6908       L1     9  0.01

> <Gold.Chemscore.Hbond.Weighted>
-8.7878

> <Gold.Chemscore.Metal.Weighted>
-0.0000

> <Gold.Chemscore.Lipo.Weighted>
-11.4711

> <Gold.Chemscore.Internal_Hbond.Weighted>
0.0000

> <Gold.Chemscore.DEClash.Weighted>
0.3764

> <Gold.Chemscore.DEInternal.Weighted>
4.1919

> <Gold.Chemscore.Rot.Weighted>
13.9935

> <Gold.Chemscore.Internal.Correction.Weighted>
   9.000000E+99

> <Gold.Protein.RotatedTorsions>
[ 6907 6896 6895 6894 ] final -168.82 input  -60.11 | X-H torsion
[ 7974 7965 7964 7962 ] final   41.45 input  175.53 | X-H torsion
[ 8008 7997 7996 7995 ] final  122.85 input   59.86 | X-H torsion
[ 10167 10162 10161 10158 ] final  116.72 input  -65.29 | X-H torsion
[ 10718 10713 10712 10709 ] final   92.51 input   66.30 | X-H torsion
[ 10763 10752 10751 10750 ] final  147.63 input  -60.55 | X-H torsion
[ 11005 11000 10999 10996 ] final -141.87 input  -57.11 | X-H torsion

> <Gold.Protein.ActiveResidues>
 VAL166  LYS551  ARG553  GLY616  TRP617  ASP618  TYR619  PRO620  LYS621  CYS622 
 ASP623  PHE694  ASN695  SER759  ASP760  ASP761  ALA762  ILE779  LEU786  VAL792 
 PHE793  MET794  SER795  GLU796  ALA797  LYS798  CYS799  TRP800  GLU811  SER814 

> <Gold.Protein.RotatedAtoms>
  151.4818  133.3545  159.2839 H   0  0  0  0  0  0  0  0  0  0  0  0  # atno 6907 bound_to 6896
  150.8892  134.8296  159.7292 H   0  0  0  0  0  0  0  0  0  0  0  0  # atno 6908 bound_to 6896
  152.4812  134.4725  159.9692 H   0  0  0  0  0  0  0  0  0  0  0  0  # atno 6909 bound_to 6896
  146.0822  139.5414  142.9529 H   0  0  0  0  0  0  0  0  0  0  0  0  # atno 7974 bound_to 7965
  156.2743  140.2776  156.1533 H   0  0  0  0  0  0  0  0  0  0  0  0  # atno 8008 bound_to 7997
  155.0830  140.0388  157.2663 H   0  0  0  0  0  0  0  0  0  0  0  0  # atno 8009 bound_to 7997
  154.6949  140.2637  155.6782 H   0  0  0  0  0  0  0  0  0  0  0  0  # atno 8010 bound_to 7997
  139.6228  144.7104  151.2598 H   0  0  0  0  0  0  0  0  0  0  0  0  # atno 10167 bound_to 10162
  157.6958  131.0446  150.3893 H   0  0  0  0  0  0  0  0  0  0  0  0  # atno 10718 bound_to 10713
  154.0415  135.2889  155.3354 H   0  0  0  0  0  0  0  0  0  0  0  0  # atno 10763 bound_to 10752
  154.6926  135.5220  153.8417 H   0  0  0  0  0  0  0  0  0  0  0  0  # atno 10764 bound_to 10752
  153.0598  135.6609  154.0619 H   0  0  0  0  0  0  0  0  0  0  0  0  # atno 10765 bound_to 10752
  140.8281  134.2550  157.4869 H   0  0  0  0  0  0  0  0  0  0  0  0  # atno 11005 bound_to 11000
  145.6196  141.0325  143.1922 LP  0  0  0  0  0  0  0  0  0  0  0  0  # atno 17320 bound_to 7965
  144.7301  139.7752  143.7350 LP  0  0  0  0  0  0  0  0  0  0  0  0  # atno 17321 bound_to 7965
  140.7392  143.6624  150.8153 LP  0  0  0  0  0  0  0  0  0  0  0  0  # atno 17342 bound_to 10162
  140.0237  143.5515  152.2789 LP  0  0  0  0  0  0  0  0  0  0  0  0  # atno 17343 bound_to 10162
  156.4298  130.3969  149.6768 LP  0  0  0  0  0  0  0  0  0  0  0  0  # atno 17370 bound_to 10713
  156.3989  130.7665  151.2671 LP  0  0  0  0  0  0  0  0  0  0  0  0  # atno 17371 bound_to 10713
  139.8706  134.9571  156.4259 LP  0  0  0  0  0  0  0  0  0  0  0  0  # atno 17394 bound_to 11000
  140.9027  133.7767  155.9699 LP  0  0  0  0  0  0  0  0  0  0  0  0  # atno 17395 bound_to 11000

$$$$
