AV-unprocessed.smi:3265|AV-procd|sdf|12498|dock7
  -GOLD-   2272018403D 1   1.00000     0.00000
 Structure written by MMmdl.
 41 42  0  0  0  0  0  0  0  0  2 V2000
  147.3160  133.1396  151.5663 C   0  0  0  0  0  0  0  0  0  0  0  0
  147.2282  132.5710  152.9920 C   0  0  2  0  0  0  0  0  0  0  0  0
  145.9079  132.9321  153.6992 C   0  0  0  0  0  0  0  0  0  0  0  0
  145.8902  134.4045  154.1353 C   0  0  0  0  0  0  0  0  0  0  0  0
  147.1296  134.7448  154.9771 C   0  0  0  0  0  0  0  0  0  0  0  0
  148.3754  134.4217  154.2377 N   0  3  1  0  0  0  0  0  0  0  0  0
  149.6000  134.8843  154.9391 C   0  0  0  0  0  0  0  0  0  0  0  0
  149.6231  134.4610  156.4229 C   0  0  0  0  0  0  0  0  0  0  0  0
  148.9437  135.4227  157.2868 N   0  0  0  0  0  0  0  0  0  0  0  0
  148.5662  135.1854  158.5528 C   0  0  0  0  0  0  0  0  0  0  0  0
  148.7993  134.1313  159.1431 O   0  0  0  0  0  0  0  0  0  0  0  0
  147.7818  136.2951  159.2512 C   0  0  0  0  0  0  0  0  0  0  0  0
  147.6233  136.0013  160.6648 N   0  0  0  0  0  0  0  0  0  0  0  0
  147.1778  134.8360  161.2540 C   0  0  0  0  0  0  0  0  0  0  0  0
  147.1952  135.0308  162.6053 C   0  0  0  0  0  0  0  0  0  0  0  0
  147.6773  136.3615  162.7487 C   0  0  0  0  0  0  0  0  0  0  0  0
  147.9258  136.9423  161.5857 N   0  0  0  0  0  0  0  0  0  0  0  0
  148.4369  132.9859  153.8556 C   0  0  0  0  0  0  0  0  0  0  0  0
  147.3297  134.2280  151.5688 H   0  0  0  0  0  0  0  0  0  0  0  0
  146.4679  132.8184  150.9612 H   0  0  0  0  0  0  0  0  0  0  0  0
  148.2232  132.8020  151.0648 H   0  0  0  0  0  0  0  0  0  0  0  0
  147.2554  131.4852  152.8908 H   0  0  0  0  0  0  0  0  0  0  0  0
  145.0554  132.7177  153.0539 H   0  0  0  0  0  0  0  0  0  0  0  0
  145.7895  132.3002  154.5806 H   0  0  0  0  0  0  0  0  0  0  0  0
  145.8517  135.0527  153.2594 H   0  0  0  0  0  0  0  0  0  0  0  0
  144.9853  134.6108  154.7073 H   0  0  0  0  0  0  0  0  0  0  0  0
  147.1102  135.8075  155.2217 H   0  0  0  0  0  0  0  0  0  0  0  0
  147.1108  134.1979  155.9213 H   0  0  0  0  0  0  0  0  0  0  0  0
  150.4774  134.4551  154.4541 H   0  0  0  0  0  0  0  0  0  0  0  0
  149.7076  135.9657  154.8425 H   0  0  0  0  0  0  0  0  0  0  0  0
  149.1743  133.4735  156.5404 H   0  0  0  0  0  0  0  0  0  0  0  0
  150.6515  134.3694  156.7716 H   0  0  0  0  0  0  0  0  0  0  0  0
  148.7207  136.3235  156.8874 H   0  0  0  0  0  0  0  0  0  0  0  0
  148.3062  137.2459  159.1478 H   0  0  0  0  0  0  0  0  0  0  0  0
  146.8020  136.4157  158.7856 H   0  0  0  0  0  0  0  0  0  0  0  0
  146.8879  133.9759  160.6682 H   0  0  0  0  0  0  0  0  0  0  0  0
  146.9105  134.3287  163.3748 H   0  0  0  0  0  0  0  0  0  0  0  0
  147.8463  136.9219  163.6564 H   0  0  0  0  0  0  0  0  0  0  0  0
  148.4663  132.3791  154.7622 H   0  0  0  0  0  0  0  0  0  0  0  0
  149.3606  132.7792  153.3146 H   0  0  0  0  0  0  0  0  0  0  0  0
  148.3294  134.9525  153.3794 H   0  0  0  0  0  0  0  0  0  0  0  0
  1  2  1  0  0  0  0
  1 19  1  0  0  0  0
  1 20  1  0  0  0  0
  1 21  1  0  0  0  0
  2 18  1  0  0  0  0
  2  3  1  0  0  0  0
  2 22  1  0  0  0  0
  3  4  1  0  0  0  0
  3 23  1  0  0  0  0
  3 24  1  0  0  0  0
  4  5  1  0  0  0  0
  4 25  1  0  0  0  0
  4 26  1  0  0  0  0
  5  6  1  0  0  0  0
  5 27  1  0  0  0  0
  5 28  1  0  0  0  0
  6  7  1  0  0  0  0
  6 18  1  0  0  0  0
  6 41  1  0  0  0  0
  7  8  1  0  0  0  0
  7 29  1  0  0  0  0
  7 30  1  0  0  0  0
  8  9  1  0  0  0  0
  8 31  1  0  0  0  0
  8 32  1  0  0  0  0
  9 10  1  0  0  0  0
  9 33  1  0  0  0  0
 10 11  2  0  0  0  0
 10 12  1  0  0  0  0
 12 13  1  0  0  0  0
 12 34  1  0  0  0  0
 12 35  1  0  0  0  0
 13 17  1  0  0  0  0
 13 14  1  0  0  0  0
 14 15  2  0  0  0  0
 14 36  1  0  0  0  0
 15 16  1  0  0  0  0
 15 37  1  0  0  0  0
 16 17  2  0  0  0  0
 16 38  1  0  0  0  0
 18 39  1  0  0  0  0
 18 40  1  0  0  0  0
M  CHG  1   6   1
M  END
> <s_m_source_file>
AV-unprocessed.smi

> <i_m_source_file_index>
3265

> <i_lp_mmshare_version>
43012

> <i_f3d_flags>
0

> <s_epik_input>
W0NIM11bQ0BASF0xW0NIMl1bQ0gyXVtDSDJdTihbQ0gyXTEpW0NIMl1bQ0gyXVtOSF1DKD1PKVtDSDJdbjJbY0hdW2NIXVtjSF1uMg==

> <s_epik_cmdline>
J2VwaWtfcHl0aG9uJywgJy1waCcsICc3LjAnLCAnLXRuJywgJzgnLCAnLW1hJywgJzIwMCcsICctbWV0YWxfYmluZGluZycsICctaW1hZScsICc8aW5maWxlLm1hZT4nLCAnLW9tYWUnLCAnPG91dGZpbGUubWFlPic=

> <r_lp_tautomer_probability>
1

> <r_epik_Ionization_Penalty>
0.00231455

> <r_epik_Ionization_Penalty_Charging>
0.00230623

> <r_epik_Ionization_Penalty_Neutral>
8.31727e-06

> <r_epik_State_Penalty>
0.00159065

> <r_epik_Charging_Adjusted_Penalty>
0.00389688

> <i_epik_Tot_Q>
1

> <i_epik_Tot_abs_Q>
1

> <r_epik_Metal_State_Penalty>
-0

> <b_epik_Metal_Only>
0

> <s_lp_Force_Field>
OPLS_2005

> <r_lp_Energy>
23.6627

> <b_lp_Chiralities_Consistent>
1

> <s_lp_Variant>
AV-unprocessed.smi:3265-3

> <Gold.Version>
5.8.1

> <Gold.Id.Protein>
6NUR|6NUR_protein|mol2

> <Gold.PLP.Fitness>
42.8324

> <Gold.PLP.PLP>
-29.7991

> <Gold.PLP.part.hbond>
-4.0000

> <Gold.PLP.part.metal>
0.0000

> <Gold.PLP.part.buried>
-1.3578

> <Gold.PLP.part.nonpolar>
-22.9228

> <Gold.PLP.part.repulsive>
0.0501

> <Gold.PLP.ligand.clash>
0.0000

> <Gold.PLP.ligand.torsion>
0.5475

> <Gold.PLP.Chemscore.Hbond>
4.6978

> <Gold.PLP.Chemscore.CHOScore>
0.0000

> <Gold.PLP.Chemscore.Metal>
0.0000

> <Gold.Chemscore.Hbonds>
donor molecule, donor type, donor heavy atom, donor atom, acceptor molecule, acceptor atom, score
      L1  H     6    41       P1  7948  1.89
      P1  H  6896  6909       L1    11  1.00
      P1  H  6931  6943       L1    17  1.00
      P1  H  6934  6947       L1    17  0.24

> <Gold.PLP.Chemscore.Internal.Correction>
0.0348

> <Gold.Rescore>
     Score         DG    S(hbond)    S(metal)    S(lipo)     H(rot)  DE(clash)    DE(int)     intcor
     15.45     -18.40       3.08        0.00      62.66       1.84       0.15       2.80       ----

> <Gold.Chemscore.Fitness>
15.4531

> <Gold.Chemscore.DG>
-18.4035

> <Gold.Chemscore.ZeroCoef>
-5.4800

> <Gold.Chemscore.Hbond>
3.0834

> <Gold.Chemscore.Metal>
0.0000

> <Gold.Chemscore.Lipo>
62.6636

> <Gold.Chemscore.Internal_Hbond>
0.0000

> <Gold.Chemscore.DEClash>
0.1483

> <Gold.Chemscore.DEInternal>
2.8021

> <Gold.Chemscore.Rot>
1.8386

> <Gold.Chemscore.Internal.Correction>
   9.000000E+99

> <Gold.Chemscore.Hbonds>
donor molecule, donor type, donor heavy atom, donor atom, acceptor molecule, acceptor atom, score
      L1  H     6    41       P1  7948  0.79
      P1  H  6896  6909       L1    11  0.29
      P1  H  6931  6943       L1    17  0.55
      P1  H  6934  6947       L1    17  0.19

> <Gold.Chemscore.Hbond.Weighted>
-10.2987

> <Gold.Chemscore.Metal.Weighted>
-0.0000

> <Gold.Chemscore.Lipo.Weighted>
-7.3316

> <Gold.Chemscore.Internal_Hbond.Weighted>
0.0000

> <Gold.Chemscore.DEClash.Weighted>
0.1483

> <Gold.Chemscore.DEInternal.Weighted>
2.8021

> <Gold.Chemscore.Rot.Weighted>
4.7069

> <Gold.Chemscore.Internal.Correction.Weighted>
   9.000000E+99

> <Gold.Protein.RotatedTorsions>
[ 6907 6896 6895 6894 ] final   33.38 input  -60.11 | X-H torsion
[ 7974 7965 7964 7962 ] final  128.38 input  175.53 | X-H torsion
[ 8008 7997 7996 7995 ] final  -51.95 input   59.86 | X-H torsion
[ 10167 10162 10161 10158 ] final  105.21 input  -65.29 | X-H torsion
[ 10718 10713 10712 10709 ] final -112.03 input   66.30 | X-H torsion
[ 10763 10752 10751 10750 ] final -153.68 input  -60.55 | X-H torsion
[ 11005 11000 10999 10996 ] final -144.48 input  -57.11 | X-H torsion

> <Gold.Protein.ActiveResidues>
 VAL166  LYS551  ARG553  GLY616  TRP617  ASP618  TYR619  PRO620  LYS621  CYS622 
 ASP623  PHE694  ASN695  SER759  ASP760  ASP761  ALA762  ILE779  LEU786  VAL792 
 PHE793  MET794  SER795  GLU796  ALA797  LYS798  CYS799  TRP800  GLU811  SER814 

> <Gold.Protein.RotatedAtoms>
  152.0878  134.9428  160.0572 H   0  0  0  0  0  0  0  0  0  0  0  0  # atno 6907 bound_to 6896
  152.0691  133.4093  159.4460 H   0  0  0  0  0  0  0  0  0  0  0  0  # atno 6908 bound_to 6896
  150.6836  134.3032  159.4758 H   0  0  0  0  0  0  0  0  0  0  0  0  # atno 6909 bound_to 6896
  145.0402  139.3970  143.5106 H   0  0  0  0  0  0  0  0  0  0  0  0  # atno 7974 bound_to 7965
  154.4095  140.1235  156.4912 H   0  0  0  0  0  0  0  0  0  0  0  0  # atno 8008 bound_to 7997
  155.6988  140.3495  155.4904 H   0  0  0  0  0  0  0  0  0  0  0  0  # atno 8009 bound_to 7997
  155.9404  140.1086  157.1050 H   0  0  0  0  0  0  0  0  0  0  0  0  # atno 8010 bound_to 7997
  139.7112  144.7077  151.1024 H   0  0  0  0  0  0  0  0  0  0  0  0  # atno 10167 bound_to 10162
  156.0682  130.5898  150.8454 H   0  0  0  0  0  0  0  0  0  0  0  0  # atno 10718 bound_to 10713
  154.7911  135.3207  154.7775 H   0  0  0  0  0  0  0  0  0  0  0  0  # atno 10763 bound_to 10752
  153.8464  135.6866  153.4801 H   0  0  0  0  0  0  0  0  0  0  0  0  # atno 10764 bound_to 10752
  153.1582  135.4671  154.9674 H   0  0  0  0  0  0  0  0  0  0  0  0  # atno 10765 bound_to 10752
  140.8020  134.2846  157.4975 H   0  0  0  0  0  0  0  0  0  0  0  0  # atno 11005 bound_to 11000
  146.3508  139.9998  142.8677 LP  0  0  0  0  0  0  0  0  0  0  0  0  # atno 17320 bound_to 7965
  145.1658  140.9696  143.4351 LP  0  0  0  0  0  0  0  0  0  0  0  0  # atno 17321 bound_to 7965
  140.7733  143.5291  150.9445 LP  0  0  0  0  0  0  0  0  0  0  0  0  # atno 17342 bound_to 10162
  139.8976  143.6876  152.3136 LP  0  0  0  0  0  0  0  0  0  0  0  0  # atno 17343 bound_to 10162
  157.5736  131.0946  150.9379 LP  0  0  0  0  0  0  0  0  0  0  0  0  # atno 17370 bound_to 10713
  156.9590  130.5448  149.5285 LP  0  0  0  0  0  0  0  0  0  0  0  0  # atno 17371 bound_to 10713
  139.8721  134.9435  156.3854 LP  0  0  0  0  0  0  0  0  0  0  0  0  # atno 17394 bound_to 11000
  140.9285  133.7595  155.9995 LP  0  0  0  0  0  0  0  0  0  0  0  0  # atno 17395 bound_to 11000

$$$$
