AV-unprocessed.smi:177|AV-procd|sdf|1442|dock10
  -GOLD-   2262019233D 1   1.00000     0.00000
 Structure written by MMmdl.
 61 65  0  0  0  0  0  0  0  0  1 V2000
  155.6869  140.4844  160.4218 C   0  0  0  0  0  0  0  0  0  0  0  0
  154.8417  140.2171  159.3133 O   0  0  0  0  0  0  0  0  0  0  0  0
  153.4878  140.6090  159.5016 C   0  0  1  0  0  0  0  0  0  0  0  0
  153.4122  142.1302  159.2934 C   0  0  0  0  0  0  0  0  0  0  0  0
  151.9713  142.6441  159.4383 C   0  0  0  0  0  0  0  0  0  0  0  0
  150.9956  141.9152  158.4979 C   0  0  1  0  0  0  0  0  0  0  0  0
  151.2572  142.2956  157.1494 O   0  0  0  0  0  0  0  0  0  0  0  0
  150.3001  141.7504  156.2473 C   0  0  0  0  0  0  0  0  0  0  0  0
  150.3561  140.2149  156.2918 C   0  0  0  0  0  0  0  0  0  0  0  0
  150.2043  139.7376  157.6672 N   0  0  0  0  0  0  0  0  0  0  0  0
  149.9518  138.4140  157.8578 C   0  0  0  0  0  0  0  0  0  0  0  0
  149.4748  137.9880  159.0588 N   0  0  0  0  0  0  0  0  0  0  0  0
  149.2053  136.6961  159.2641 C   0  0  0  0  0  0  0  0  0  0  0  0
  149.3364  135.6731  158.4191 N   0  0  0  0  0  0  0  0  0  0  0  0
  149.8177  136.0876  157.2126 C   0  0  0  0  0  0  0  0  0  0  0  0
  150.1546  137.4242  156.8523 C   0  0  0  0  0  0  0  0  0  0  0  0
  150.6382  137.4484  155.5491 N   0  0  0  0  0  0  0  0  0  0  0  0
  150.5751  136.2057  155.1583 C   0  0  0  0  0  0  0  0  0  0  0  0
  150.0786  135.3214  156.0889 N   0  0  0  0  0  0  0  0  0  0  0  0
  149.9116  133.8842  155.9218 C   0  0  0  0  0  0  0  0  0  0  0  0
  148.4350  133.3989  155.7687 C   0  0  0  0  0  0  0  0  0  0  0  0
  147.6112  133.9376  156.9714 C   0  0  0  0  0  0  0  0  0  0  0  0
  146.2645  133.5057  156.9704 O   0  0  0  0  0  0  0  0  0  0  0  0
  147.7974  133.8803  154.4393 C   0  0  0  0  0  0  0  0  0  0  0  0
  148.4204  133.1947  153.2105 C   0  0  0  0  0  0  0  0  0  0  0  0
  148.2897  131.7835  153.3292 O   0  0  0  0  0  0  0  0  0  0  0  0
  148.9812  131.2528  154.4536 C   0  0  0  0  0  0  0  0  0  0  0  0
  148.4146  131.8479  155.7574 C   0  0  0  0  0  0  0  0  0  0  0  0
  151.0996  140.3777  158.6360 C   0  0  1  0  0  0  0  0  0  0  0  0
  152.5616  139.8915  158.5011 C   0  0  0  0  0  0  0  0  0  0  0  0
  156.7045  140.1756  160.1832 H   0  0  0  0  0  0  0  0  0  0  0  0
  155.3774  139.9392  161.3129 H   0  0  0  0  0  0  0  0  0  0  0  0
  155.7084  141.5500  160.6533 H   0  0  0  0  0  0  0  0  0  0  0  0
  153.1757  140.3847  160.5235 H   0  0  0  0  0  0  0  0  0  0  0  0
  154.0557  142.6350  160.0145 H   0  0  0  0  0  0  0  0  0  0  0  0
  153.7952  142.3878  158.3048 H   0  0  0  0  0  0  0  0  0  0  0  0
  151.6457  142.5024  160.4693 H   0  0  0  0  0  0  0  0  0  0  0  0
  151.9366  143.7179  159.2518 H   0  0  0  0  0  0  0  0  0  0  0  0
  149.9833  142.2338  158.7541 H   0  0  0  0  0  0  0  0  0  0  0  0
  149.3011  142.1089  156.4996 H   0  0  0  0  0  0  0  0  0  0  0  0
  150.5188  142.1041  155.2397 H   0  0  0  0  0  0  0  0  0  0  0  0
  149.5617  139.8095  155.6637 H   0  0  0  0  0  0  0  0  0  0  0  0
  151.3024  139.8629  155.8798 H   0  0  0  0  0  0  0  0  0  0  0  0
  148.8290  136.4477  160.2457 H   0  0  0  0  0  0  0  0  0  0  0  0
  150.8897  135.8997  154.1713 H   0  0  0  0  0  0  0  0  0  0  0  0
  150.5160  133.5916  155.0649 H   0  0  0  0  0  0  0  0  0  0  0  0
  150.3740  133.3924  156.7786 H   0  0  0  0  0  0  0  0  0  0  0  0
  148.0643  133.6231  157.9121 H   0  0  0  0  0  0  0  0  0  0  0  0
  147.5984  135.0274  156.9748 H   0  0  0  0  0  0  0  0  0  0  0  0
  145.7223  134.2120  157.2871 H   0  0  0  0  0  0  0  0  0  0  0  0
  146.7320  133.6479  154.4350 H   0  0  0  0  0  0  0  0  0  0  0  0
  147.8569  134.9636  154.3415 H   0  0  0  0  0  0  0  0  0  0  0  0
  147.9032  133.5162  152.3064 H   0  0  0  0  0  0  0  0  0  0  0  0
  149.4681  133.4678  153.0835 H   0  0  0  0  0  0  0  0  0  0  0  0
  148.8534  130.1703  154.4578 H   0  0  0  0  0  0  0  0  0  0  0  0
  150.0517  131.4339  154.3558 H   0  0  0  0  0  0  0  0  0  0  0  0
  148.9609  131.4536  156.6151 H   0  0  0  0  0  0  0  0  0  0  0  0
  147.3926  131.4829  155.8607 H   0  0  0  0  0  0  0  0  0  0  0  0
  150.7701  140.1376  159.6447 H   0  0  0  0  0  0  0  0  0  0  0  0
  152.9290  140.0669  157.4897 H   0  0  0  0  0  0  0  0  0  0  0  0
  152.5999  138.8142  158.6591 H   0  0  0  0  0  0  0  0  0  0  0  0
  1  2  1  0  0  0  0
  1 31  1  0  0  0  0
  1 32  1  0  0  0  0
  1 33  1  0  0  0  0
  2  3  1  0  0  0  0
  3 30  1  0  0  0  0
  3  4  1  0  0  0  0
  3 34  1  0  0  0  0
  4  5  1  0  0  0  0
  4 35  1  0  0  0  0
  4 36  1  0  0  0  0
  5  6  1  0  0  0  0
  5 37  1  0  0  0  0
  5 38  1  0  0  0  0
  6 29  1  0  0  0  0
  6  7  1  0  0  0  0
  6 39  1  0  0  0  0
  7  8  1  0  0  0  0
  8  9  1  0  0  0  0
  8 40  1  0  0  0  0
  8 41  1  0  0  0  0
  9 10  1  0  0  0  0
  9 42  1  0  0  0  0
  9 43  1  0  0  0  0
 10 11  1  0  0  0  0
 10 29  1  0  0  0  0
 11 16  1  0  0  0  0
 11 12  2  0  0  0  0
 12 13  1  0  0  0  0
 13 14  2  0  0  0  0
 13 44  1  0  0  0  0
 14 15  1  0  0  0  0
 15 19  1  0  0  0  0
 15 16  2  0  0  0  0
 16 17  1  0  0  0  0
 17 18  2  0  0  0  0
 18 19  1  0  0  0  0
 18 45  1  0  0  0  0
 19 20  1  0  0  0  0
 20 21  1  0  0  0  0
 20 46  1  0  0  0  0
 20 47  1  0  0  0  0
 21 28  1  0  0  0  0
 21 22  1  0  0  0  0
 21 24  1  0  0  0  0
 22 23  1  0  0  0  0
 22 48  1  0  0  0  0
 22 49  1  0  0  0  0
 23 50  1  0  0  0  0
 24 25  1  0  0  0  0
 24 51  1  0  0  0  0
 24 52  1  0  0  0  0
 25 26  1  0  0  0  0
 25 53  1  0  0  0  0
 25 54  1  0  0  0  0
 26 27  1  0  0  0  0
 27 28  1  0  0  0  0
 27 55  1  0  0  0  0
 27 56  1  0  0  0  0
 28 57  1  0  0  0  0
 28 58  1  0  0  0  0
 29 30  1  0  0  0  0
 29 59  1  0  0  0  0
 30 60  1  0  0  0  0
 30 61  1  0  0  0  0
M  END
> <s_m_source_file>
AV-unprocessed.smi

> <i_m_source_file_index>
177

> <i_lp_mmshare_version>
43012

> <i_f3d_flags>
0

> <s_epik_input>
W0NIM11PW0NASF0oW0NIMl1bQ0gyXTEpW0NIMl1bQ0BIXShbQ0BASF0xMilOKFtDSDJdW0NIMl1PMiljKG5bY0hdbjMpYyhjMzQpbltjSF1uNFtDSDJdQzUoW0NIMl1bT0hdKVtDSDJdW0NIMl1PW0NIMl1bQ0gyXTU=

> <s_epik_cmdline>
J2VwaWtfcHl0aG9uJywgJy1waCcsICc3LjAnLCAnLXRuJywgJzgnLCAnLW1hJywgJzIwMCcsICctbWV0YWxfYmluZGluZycsICctaW1hZScsICc8aW5maWxlLm1hZT4nLCAnLW9tYWUnLCAnPG91dGZpbGUubWFlPic=

> <r_lp_tautomer_probability>
1

> <r_epik_Ionization_Penalty>
0.0065899

> <r_epik_Ionization_Penalty_Charging>
0

> <r_epik_Ionization_Penalty_Neutral>
0.0065899

> <r_epik_State_Penalty>
0.00470042

> <r_epik_Charging_Adjusted_Penalty>
0.00470042

> <i_epik_Tot_Q>
0

> <i_epik_Tot_abs_Q>
0

> <r_epik_Metal_State_Penalty>
-0

> <b_epik_Metal_Only>
0

> <s_lp_Force_Field>
OPLS_2005

> <r_lp_Energy>
44.6168

> <b_lp_Chiralities_Consistent>
1

> <s_lp_Variant>
AV-unprocessed.smi:177-6

> <Gold.Version>
5.8.1

> <Gold.Id.Protein>
6NUR|6NUR_protein|mol2

> <Gold.PLP.Fitness>
44.2921

> <Gold.PLP.PLP>
-36.9941

> <Gold.PLP.part.hbond>
-2.3416

> <Gold.PLP.part.metal>
0.0000

> <Gold.PLP.part.buried>
-4.2702

> <Gold.PLP.part.nonpolar>
-30.8884

> <Gold.PLP.part.repulsive>
0.7051

> <Gold.PLP.ligand.clash>
0.0000

> <Gold.PLP.ligand.torsion>
0.6041

> <Gold.PLP.Chemscore.Hbond>
1.9120

> <Gold.PLP.Chemscore.CHOScore>
0.7663

> <Gold.PLP.Chemscore.Metal>
0.0000

> <Gold.Chemscore.Hbonds>
donor molecule, donor type, donor heavy atom, donor atom, acceptor molecule, acceptor atom, score
      P1  H  6896  6909       L1    14  0.81
      P1  H  7997  8010       L1     2  0.91
      L1  C    18    45       P1  7949  0.50

> <Gold.PLP.Chemscore.Internal.Correction>
0.4713

> <Gold.Rescore>
     Score         DG    S(hbond)    S(metal)    S(lipo)     H(rot)  DE(clash)    DE(int)     intcor
     12.21     -14.50       1.24        0.00      98.18       2.58       0.35       1.94       ----

> <Gold.Chemscore.Fitness>
12.2128

> <Gold.Chemscore.DG>
-14.5018

> <Gold.Chemscore.ZeroCoef>
-5.4800

> <Gold.Chemscore.Hbond>
1.2398

> <Gold.Chemscore.Metal>
0.0000

> <Gold.Chemscore.Lipo>
98.1804

> <Gold.Chemscore.Internal_Hbond>
0.0000

> <Gold.Chemscore.DEClash>
0.3470

> <Gold.Chemscore.DEInternal>
1.9420

> <Gold.Chemscore.Rot>
2.5806

> <Gold.Chemscore.Internal.Correction>
   9.000000E+99

> <Gold.Chemscore.Hbonds>
donor molecule, donor type, donor heavy atom, donor atom, acceptor molecule, acceptor atom, score
      P1  H  6896  6909       L1    14  0.24
      P1  H  7997  8010       L1     2  0.68

> <Gold.Chemscore.Hbond.Weighted>
-4.1409

> <Gold.Chemscore.Metal.Weighted>
-0.0000

> <Gold.Chemscore.Lipo.Weighted>
-11.4871

> <Gold.Chemscore.Internal_Hbond.Weighted>
0.0000

> <Gold.Chemscore.DEClash.Weighted>
0.3470

> <Gold.Chemscore.DEInternal.Weighted>
1.9420

> <Gold.Chemscore.Rot.Weighted>
6.6062

> <Gold.Chemscore.Internal.Correction.Weighted>
   9.000000E+99

> <Gold.Protein.RotatedTorsions>
[ 6907 6896 6895 6894 ] final   36.62 input  -60.11 | X-H torsion
[ 7974 7965 7964 7962 ] final  135.86 input  175.53 | X-H torsion
[ 8008 7997 7996 7995 ] final   -8.83 input   59.86 | X-H torsion
[ 10167 10162 10161 10158 ] final  -33.43 input  -65.29 | X-H torsion
[ 10718 10713 10712 10709 ] final   78.67 input   66.30 | X-H torsion
[ 10763 10752 10751 10750 ] final   60.53 input  -60.55 | X-H torsion
[ 11005 11000 10999 10996 ] final  -31.86 input  -57.11 | X-H torsion

> <Gold.Protein.ActiveResidues>
 VAL166  LYS551  ARG553  GLY616  TRP617  ASP618  TYR619  PRO620  LYS621  CYS622 
 ASP623  PHE694  ASN695  SER759  ASP760  ASP761  ALA762  ILE779  LEU786  VAL792 
 PHE793  MET794  SER795  GLU796  ALA797  LYS798  CYS799  TRP800  GLU811  SER814 

> <Gold.Protein.RotatedAtoms>
  152.1322  134.9126  160.0557 H   0  0  0  0  0  0  0  0  0  0  0  0  # atno 6907 bound_to 6896
  152.0226  133.3900  159.4272 H   0  0  0  0  0  0  0  0  0  0  0  0  # atno 6908 bound_to 6896
  150.6857  134.3531  159.4961 H   0  0  0  0  0  0  0  0  0  0  0  0  # atno 6909 bound_to 6896
  144.9622  139.4698  143.5474 H   0  0  0  0  0  0  0  0  0  0  0  0  # atno 7974 bound_to 7965
  154.5704  140.2371  155.8200 H   0  0  0  0  0  0  0  0  0  0  0  0  # atno 8008 bound_to 7997
  156.2102  140.3028  155.9673 H   0  0  0  0  0  0  0  0  0  0  0  0  # atno 8009 bound_to 7997
  155.2723  140.0419  157.2998 H   0  0  0  0  0  0  0  0  0  0  0  0  # atno 8010 bound_to 7997
  140.7204  143.3621  151.1942 H   0  0  0  0  0  0  0  0  0  0  0  0  # atno 10167 bound_to 10162
  157.6752  130.9879  150.1821 H   0  0  0  0  0  0  0  0  0  0  0  0  # atno 10718 bound_to 10713
  152.9924  135.5533  154.5889 H   0  0  0  0  0  0  0  0  0  0  0  0  # atno 10763 bound_to 10752
  154.5255  135.2810  155.1228 H   0  0  0  0  0  0  0  0  0  0  0  0  # atno 10764 bound_to 10752
  154.2564  135.6389  153.5311 H   0  0  0  0  0  0  0  0  0  0  0  0  # atno 10765 bound_to 10752
  140.9503  133.7224  156.1211 H   0  0  0  0  0  0  0  0  0  0  0  0  # atno 11005 bound_to 11000
  146.3356  139.8779  142.8829 LP  0  0  0  0  0  0  0  0  0  0  0  0  # atno 17320 bound_to 7965
  145.2683  141.0100  143.3786 LP  0  0  0  0  0  0  0  0  0  0  0  0  # atno 17321 bound_to 7965
  139.7175  143.9277  152.2972 LP  0  0  0  0  0  0  0  0  0  0  0  0  # atno 17342 bound_to 10162
  139.9022  144.6905  150.8652 LP  0  0  0  0  0  0  0  0  0  0  0  0  # atno 17343 bound_to 10162
  156.2551  130.3704  149.8190 LP  0  0  0  0  0  0  0  0  0  0  0  0  # atno 17370 bound_to 10713
  156.5952  130.8523  151.3418 LP  0  0  0  0  0  0  0  0  0  0  0  0  # atno 17371 bound_to 10713
  140.7611  134.3938  157.5525 LP  0  0  0  0  0  0  0  0  0  0  0  0  # atno 17394 bound_to 11000
  139.8845  134.8962  156.2696 LP  0  0  0  0  0  0  0  0  0  0  0  0  # atno 17395 bound_to 11000

$$$$
