#       Name:                AV-unprocessed.smi:1230
#       Creating user name   scv26
#       Creation time:       Fri Mar 27 04:22:49 2020


#       File generated by GOLD software.
#

@<TRIPOS>MOLECULE
AV-unprocessed.smi:1230
    46    47     1
SMALL
NO_CHARGES


@<TRIPOS>ATOM
      1 ****        -2.0574   0.7760   2.4582 C.3            1 S1                 0.0000
      2 ****        -2.5394   0.8991   1.0034 C.3            1 S1                 0.0000
      3 ****        -3.3388   2.2027   0.8051 C.3            1 S1                 0.0000
      4 ****        -3.8276   2.3577  -0.6427 C.3            1 S1                 0.0000
      5 ****        -2.6539   2.2901  -1.6292 C.3            1 S1                 0.0000
      6 ****        -1.8588   0.9886  -1.4501 C.3            1 S1                 0.0000
      7 ****        -1.3642   0.8184   0.0024 C.3            1 S1                 0.0000
      8 ****        -0.7549  -0.4584   0.1497 O.3            1 S1                 0.0000
      9 ****         0.6057  -0.5115  -0.2514 C.3            1 S1                 0.0000
     10 ****         1.1177  -1.9439  -0.0444 C.3            1 S1                 0.0000
     11 ****         2.5385  -2.0629  -0.3962 N.am           1 S1                 0.0000
     12 ****         3.4771  -1.9462   0.6430 C.2            1 S1                 0.0000
     13 ****         4.8004  -2.0421   0.4135 C.2            1 S1                 0.0000
     14 ****         5.7734  -1.9271   1.4495 C.1            1 S1                 0.0000
     15 ****         6.5404  -1.8298   2.3115 N.1            1 S1                 0.0000
     16 ****         5.2588  -2.2709  -0.9546 C.2            1 S1                 0.0000
     17 ****         6.4620  -2.3705  -1.1921 O.2            1 S1                 0.0000
     18 ****         4.3040  -2.3645  -1.9267 N.pl3          1 S1                -1.0000
     19 ****         2.9602  -2.2625  -1.6810 C.2            1 S1                 0.0000
     20 ****         2.1197  -2.3431  -2.5770 O.2            1 S1                 0.0000
     21 ****        -1.3695   1.5814   2.7173 H              1 S1                 0.0000
     22 ****        -1.5414  -0.1693   2.6275 H              1 S1                 0.0000
     23 ****        -2.8959   0.8181   3.1538 H              1 S1                 0.0000
     24 ****        -3.2110   0.0624   0.8050 H              1 S1                 0.0000
     25 ****        -4.1945   2.2211   1.4808 H              1 S1                 0.0000
     26 ****        -2.7185   3.0597   1.0712 H              1 S1                 0.0000
     27 ****        -4.5471   1.5710  -0.8736 H              1 S1                 0.0000
     28 ****        -4.3562   3.3044  -0.7577 H              1 S1                 0.0000
     29 ****        -3.0233   2.3621  -2.6525 H              1 S1                 0.0000
     30 ****        -1.9953   3.1459  -1.4760 H              1 S1                 0.0000
     31 ****        -2.4880   0.1402  -1.7227 H              1 S1                 0.0000
     32 ****        -1.0197   0.9843  -2.1452 H              1 S1                 0.0000
     33 ****        -0.6504   1.6090   0.2427 H              1 S1                 0.0000
     34 ****         0.7118  -0.2219  -1.2968 H              1 S1                 0.0000
     35 ****         1.1953   0.1859   0.3456 H              1 S1                 0.0000
     36 ****         0.9636  -2.2382   0.9946 H              1 S1                 0.0000
     37 ****         0.5182  -2.6430  -0.6298 H              1 S1                 0.0000
     38 ****         3.0593  -1.7729   1.6240 H              1 S1                 0.0000
     39 ****        -1.2690  -1.1152  -0.4019 LP             1 S1                 0.0000
     40 ****        -0.8068  -0.7198   1.1135 LP             1 S1                 0.0000
     41 ****         7.2028  -1.7458   3.0560 LP             1 S1                 0.0000
     42 ****         7.1264  -2.2948  -0.4485 LP             1 S1                 0.0000
     43 ****         6.7755  -2.5271  -2.1287 LP             1 S1                 0.0000
     44 ****         4.6021  -2.5157  -2.8691 LP             1 S1                 0.0000
     45 ****         1.1471  -2.2627  -2.3589 LP             1 S1                 0.0000
     46 ****         2.4096  -2.4890  -3.5228 LP             1 S1                 0.0000
@<TRIPOS>BOND
    1    1    2 1     
    2    1   21 1     
    3    1   22 1     
    4    1   23 1     
    5    2    7 1     
    6    2    3 1     
    7    2   24 1     
    8    3    4 1     
    9    3   25 1     
   10    3   26 1     
   11    4    5 1     
   12    4   27 1     
   13    4   28 1     
   14    5    6 1     
   15    5   29 1     
   16    5   30 1     
   17    6    7 1     
   18    6   31 1     
   19    6   32 1     
   20    7    8 1     
   21    7   33 1     
   22    8    9 1     
   23    9   10 1     
   24    9   34 1     
   25    9   35 1     
   26   10   11 1     
   27   10   36 1     
   28   10   37 1     
   29   11   19 am    
   30   11   12 1     
   31   12   13 2     
   32   12   38 1     
   33   13   14 1     
   34   13   16 1     
   35   14   15 3     
   36   16   17 2     
   37   16   18 1     
   38   18   19 1     
   39   19   20 2     
   40    8   39 1     
   41    8   40 1     
   42   15   41 1     
   43   17   42 1     
   44   17   43 1     
   45   18   44 1     
   46   20   45 1     
   47   20   46 1     
@<TRIPOS>SUBSTRUCTURE
      1 S1             1
@<TRIPOS>SET
LONE_PAIRS      STATIC     ATOMS    <user>   **** ""
8 39 40 41 42 43 44 45 46
ATOM$BLUE        STATIC     ATOMS    COLORGROUP SYSTEM
8 39 40 41 42 43 44 45 46
