#       Name:                AV-unprocessed.smi:2222
#       Creating user name   scv26
#       Creation time:       Fri Mar 27 12:19:57 2020


#       File generated by GOLD software.
#

@<TRIPOS>MOLECULE
AV-unprocessed.smi:2222
    39    40     1
SMALL
NO_CHARGES


@<TRIPOS>ATOM
      1 ****        -1.8932  -2.8488   0.5309 C.3            1 S1                 0.0000
      2 ****        -1.1973  -1.6232   0.3575 O.3            1 S1                 0.0000
      3 ****        -1.9360  -0.4602   0.2580 C.ar           1 S1                 0.0000
      4 ****        -3.3526  -0.4229   0.3132 C.ar           1 S1                 0.0000
      5 ****        -4.0162   0.8114   0.2042 C.ar           1 S1                 0.0000
      6 ****        -3.2385   1.9716   0.0411 C.ar           1 S1                 0.0000
      7 ****        -3.8853   3.3350  -0.0830 C.3            1 S1                 0.0000
      8 ****        -1.8918   1.9489  -0.0124 N.ar           1 S1                 0.0000
      9 ****        -1.2393   0.7648   0.0921 C.ar           1 S1                 0.0000
     10 ****         0.1776   0.6575   0.0479 N.am           1 S1                 0.0000
     11 ****         1.0939   1.6337  -0.1073 C.2            1 S1                 0.0000
     12 ****         0.8289   2.8211  -0.2872 O.2            1 S1                 0.0000
     13 ****         2.3682   1.2025  -0.0919 N.am           1 S1                 0.0000
     14 ****         3.5616   1.9820  -0.2304 C.3            1 S1                 0.0000
     15 ****         4.8193   1.2297  -0.6069 C.3            1 S1                 0.0000
     16 ****         4.6700   1.7865   0.7836 C.3            1 S1                 0.0000
     17 ****         5.5301   2.9492   1.2285 C.3            1 S1                 0.0000
     18 ****        -1.1731  -3.6645   0.5949 H              1 S1                 0.0000
     19 ****        -2.5521  -3.0567  -0.3131 H              1 S1                 0.0000
     20 ****        -2.4751  -2.8502   1.4536 H              1 S1                 0.0000
     21 ****        -3.9450  -1.3164   0.4376 H              1 S1                 0.0000
     22 ****        -5.0943   0.8617   0.2450 H              1 S1                 0.0000
     23 ****        -4.9707   3.2539  -0.1453 H              1 S1                 0.0000
     24 ****        -3.5313   3.8439  -0.9801 H              1 S1                 0.0000
     25 ****        -3.6373   3.9504   0.7822 H              1 S1                 0.0000
     26 ****         0.5392  -0.2783   0.1588 H              1 S1                 0.0000
     27 ****         2.5018   0.2029  -0.0383 H              1 S1                 0.0000
     28 ****         3.4717   2.9703  -0.6791 H              1 S1                 0.0000
     29 ****         4.7544   0.1495  -0.7216 H              1 S1                 0.0000
     30 ****         5.5154   1.7257  -1.2804 H              1 S1                 0.0000
     31 ****         4.4796   1.0590   1.5706 H              1 S1                 0.0000
     32 ****         5.6911   3.6492   0.4081 H              1 S1                 0.0000
     33 ****         6.4992   2.5876   1.5726 H              1 S1                 0.0000
     34 ****         5.0454   3.4802   2.0476 H              1 S1                 0.0000
     35 ****        -0.6584  -1.7045  -0.4809 LP             1 S1                 0.0000
     36 ****        -0.5831  -1.5180   1.1396 LP             1 S1                 0.0000
     37 ****        -1.3778   2.7988  -0.1282 LP             1 S1                 0.0000
     38 ****        -0.1245   3.1202  -0.3268 LP             1 S1                 0.0000
     39 ****         1.5668   3.4875  -0.3938 LP             1 S1                 0.0000
@<TRIPOS>BOND
    1    1    2 1     
    2    1   18 1     
    3    1   19 1     
    4    1   20 1     
    5    2    3 1     
    6    3    9 ar    
    7    3    4 ar    
    8    4    5 ar    
    9    4   21 1     
   10    5    6 ar    
   11    5   22 1     
   12    6    7 1     
   13    6    8 ar    
   14    7   23 1     
   15    7   24 1     
   16    7   25 1     
   17    8    9 ar    
   18    9   10 1     
   19   10   11 am    
   20   10   26 1     
   21   11   12 2     
   22   11   13 am    
   23   13   14 1     
   24   13   27 1     
   25   14   16 1     
   26   14   15 1     
   27   14   28 1     
   28   15   16 1     
   29   15   29 1     
   30   15   30 1     
   31   16   17 1     
   32   16   31 1     
   33   17   32 1     
   34   17   33 1     
   35   17   34 1     
   36    2   35 1     
   37    2   36 1     
   38    8   37 1     
   39   12   38 1     
   40   12   39 1     
@<TRIPOS>SUBSTRUCTURE
      1 S1             1
@<TRIPOS>SET
LONE_PAIRS      STATIC     ATOMS    <user>   **** ""
5 35 36 37 38 39
DONOR_HYDROGENS      STATIC     ATOMS    <user>   **** ""
2 26 27
ATOM$BLUE        STATIC     ATOMS    COLORGROUP SYSTEM
5 35 36 37 38 39
ATOM$RED        STATIC     ATOMS    COLORGROUP SYSTEM
2 26 27
