AV-unprocessed.smi:1785|AV-procd|sdf|7200|dock7
  -GOLD-   22720 8443D 1   1.00000     0.00000
 Structure written by MMmdl.
 28 29  0  0  0  0  0  0  0  0  1 V2000
  152.9211  143.1671  161.9218 C   0  0  0  0  0  0  0  0  0  0  0  0
  152.3458  143.4961  160.5535 C   0  0  0  0  0  0  0  0  0  0  0  0
  151.9289  144.8160  160.2792 C   0  0  0  0  0  0  0  0  0  0  0  0
  151.3973  145.1183  159.0139 C   0  0  0  0  0  0  0  0  0  0  0  0
  151.3053  144.0810  158.0702 C   0  0  0  0  0  0  0  0  0  0  0  0
  151.7018  142.8171  158.3235 N   0  0  0  0  0  0  0  0  0  0  0  0
  152.2165  142.5082  159.5404 C   0  0  0  0  0  0  0  0  0  0  0  0
  152.6547  141.1974  159.8801 N   0  0  0  0  0  0  0  0  0  0  0  0
  152.9130  140.1531  159.0686 C   0  0  0  0  0  0  0  0  0  0  0  0
  152.7994  140.1882  157.8420 O   0  0  0  0  0  0  0  0  0  0  0  0
  153.3398  138.9849  159.8295 C   0  0  0  0  0  0  0  0  0  0  0  0
  153.1438  137.7478  159.3171 C   0  0  0  0  0  0  0  0  0  0  0  0
  153.4736  136.5892  159.9749 O   0  0  0  0  0  0  0  0  0  0  0  0
  153.8034  136.7604  161.3481 C   0  0  0  0  0  0  0  0  0  0  0  0
  154.6619  138.0193  161.5388 C   0  0  0  0  0  0  0  0  0  0  0  0
  153.9768  139.1627  161.0387 O   0  0  0  0  0  0  0  0  0  0  0  0
  152.9294  144.0435  162.5706 H   0  0  0  0  0  0  0  0  0  0  0  0
  153.9469  142.8096  161.8280 H   0  0  0  0  0  0  0  0  0  0  0  0
  152.3271  142.3946  162.4111 H   0  0  0  0  0  0  0  0  0  0  0  0
  152.0139  145.5901  161.0277 H   0  0  0  0  0  0  0  0  0  0  0  0
  151.0686  146.1185  158.7734 H   0  0  0  0  0  0  0  0  0  0  0  0
  150.9028  144.2701  157.0861 H   0  0  0  0  0  0  0  0  0  0  0  0
  152.7890  141.0285  160.8663 H   0  0  0  0  0  0  0  0  0  0  0  0
  152.6742  137.5423  158.3657 H   0  0  0  0  0  0  0  0  0  0  0  0
  152.8845  136.8348  161.9313 H   0  0  0  0  0  0  0  0  0  0  0  0
  154.3367  135.8771  161.7000 H   0  0  0  0  0  0  0  0  0  0  0  0
  154.8869  138.1716  162.5944 H   0  0  0  0  0  0  0  0  0  0  0  0
  155.6150  137.9147  161.0185 H   0  0  0  0  0  0  0  0  0  0  0  0
  1  2  1  0  0  0  0
  1 17  1  0  0  0  0
  1 18  1  0  0  0  0
  1 19  1  0  0  0  0
  2  7  1  0  0  0  0
  2  3  2  0  0  0  0
  3  4  1  0  0  0  0
  3 20  1  0  0  0  0
  4  5  2  0  0  0  0
  4 21  1  0  0  0  0
  5  6  1  0  0  0  0
  5 22  1  0  0  0  0
  6  7  2  0  0  0  0
  7  8  1  0  0  0  0
  8  9  1  0  0  0  0
  8 23  1  0  0  0  0
  9 10  2  0  0  0  0
  9 11  1  0  0  0  0
 11 16  1  0  0  0  0
 11 12  2  0  0  0  0
 12 13  1  0  0  0  0
 12 24  1  0  0  0  0
 13 14  1  0  0  0  0
 14 15  1  0  0  0  0
 14 25  1  0  0  0  0
 14 26  1  0  0  0  0
 15 16  1  0  0  0  0
 15 27  1  0  0  0  0
 15 28  1  0  0  0  0
M  END
> <s_m_source_file>
AV-unprocessed.smi

> <i_m_source_file_index>
1785

> <i_lp_mmshare_version>
43012

> <i_f3d_flags>
0

> <s_epik_input>
W0NIM11jMVtjSF1bY0hdW2NIXW5jMVtOSF1DKD1PKUMyPVtDSF1PW0NIMl1bQ0gyXU8y

> <s_epik_cmdline>
J2VwaWtfcHl0aG9uJywgJy1waCcsICc3LjAnLCAnLXRuJywgJzgnLCAnLW1hJywgJzIwMCcsICctbWV0YWxfYmluZGluZycsICctaW1hZScsICc8aW5maWxlLm1hZT4nLCAnLW9tYWUnLCAnPG91dGZpbGUubWFlPic=

> <r_lp_tautomer_probability>
1

> <r_epik_Ionization_Penalty>
8.87723e-05

> <r_epik_Ionization_Penalty_Charging>
0

> <r_epik_Ionization_Penalty_Neutral>
8.87723e-05

> <r_epik_State_Penalty>
-0

> <r_epik_Charging_Adjusted_Penalty>
0

> <i_epik_Tot_Q>
0

> <i_epik_Tot_abs_Q>
0

> <r_epik_Metal_State_Penalty>
0.0224094

> <b_epik_Metal_Only>
0

> <s_lp_Force_Field>
OPLS_2005

> <r_lp_Energy>
4.55211

> <b_lp_Chiralities_Consistent>
1

> <s_lp_Variant>
AV-unprocessed.smi:1785-1

> <Gold.Version>
5.8.1

> <Gold.Id.Protein>
6NUR|6NUR_protein|mol2

> <Gold.PLP.Fitness>
42.1500

> <Gold.PLP.PLP>
-33.9184

> <Gold.PLP.part.hbond>
-1.9962

> <Gold.PLP.part.metal>
0.0000

> <Gold.PLP.part.buried>
-4.8195

> <Gold.PLP.part.nonpolar>
-27.4101

> <Gold.PLP.part.repulsive>
0.1601

> <Gold.PLP.ligand.clash>
0.0000

> <Gold.PLP.ligand.torsion>
0.3597

> <Gold.PLP.Chemscore.Hbond>
1.9833

> <Gold.PLP.Chemscore.CHOScore>
1.0000

> <Gold.PLP.Chemscore.Metal>
0.0000

> <Gold.Chemscore.Hbonds>
donor molecule, donor type, donor heavy atom, donor atom, acceptor molecule, acceptor atom, score
      P1  H  6896  6909       L1    13  0.88
      P1  H  7997  8010       L1    10  0.99
      L1  C     5    22       P1  8028  1.00

> <Gold.PLP.Chemscore.Internal.Correction>
0.0012

> <Gold.Rescore>
     Score         DG    S(hbond)    S(metal)    S(lipo)     H(rot)  DE(clash)    DE(int)     intcor
     20.47     -22.28       1.94        0.00      88.12       0.00       0.02       1.79       ----

> <Gold.Chemscore.Fitness>
20.4678

> <Gold.Chemscore.DG>
-22.2773

> <Gold.Chemscore.ZeroCoef>
-5.4800

> <Gold.Chemscore.Hbond>
1.9422

> <Gold.Chemscore.Metal>
0.0000

> <Gold.Chemscore.Lipo>
88.1229

> <Gold.Chemscore.Internal_Hbond>
0.0000

> <Gold.Chemscore.DEClash>
0.0179

> <Gold.Chemscore.DEInternal>
1.7916

> <Gold.Chemscore.Rot>
0.0000

> <Gold.Chemscore.Internal.Correction>
   9.000000E+99

> <Gold.Chemscore.Hbonds>
donor molecule, donor type, donor heavy atom, donor atom, acceptor molecule, acceptor atom, score
      P1  H  6896  6909       L1    13  0.26
      P1  H  7997  8010       L1    10  0.83

> <Gold.Chemscore.Hbond.Weighted>
-6.4869

> <Gold.Chemscore.Metal.Weighted>
-0.0000

> <Gold.Chemscore.Lipo.Weighted>
-10.3104

> <Gold.Chemscore.Internal_Hbond.Weighted>
0.0000

> <Gold.Chemscore.DEClash.Weighted>
0.0179

> <Gold.Chemscore.DEInternal.Weighted>
1.7916

> <Gold.Chemscore.Rot.Weighted>
0.0000

> <Gold.Chemscore.Internal.Correction.Weighted>
   9.000000E+99

> <Gold.Protein.RotatedTorsions>
[ 6907 6896 6895 6894 ] final  162.98 input  -60.11 | X-H torsion
[ 7974 7965 7964 7962 ] final  -68.83 input  175.53 | X-H torsion
[ 8008 7997 7996 7995 ] final   44.21 input   59.86 | X-H torsion
[ 10167 10162 10161 10158 ] final -134.04 input  -65.29 | X-H torsion
[ 10718 10713 10712 10709 ] final    4.05 input   66.30 | X-H torsion
[ 10763 10752 10751 10750 ] final   89.12 input  -60.55 | X-H torsion
[ 11005 11000 10999 10996 ] final   49.09 input  -57.11 | X-H torsion

> <Gold.Protein.ActiveResidues>
 VAL166  LYS551  ARG553  GLY616  TRP617  ASP618  TYR619  PRO620  LYS621  CYS622 
 ASP623  PHE694  ASN695  SER759  ASP760  ASP761  ALA762  ILE779  LEU786  VAL792 
 PHE793  MET794  SER795  GLU796  ALA797  LYS798  CYS799  TRP800  GLU811  SER814 

> <Gold.Protein.RotatedAtoms>
  151.9322  133.3614  159.3934 H   0  0  0  0  0  0  0  0  0  0  0  0  # atno 6907 bound_to 6896
  150.7015  134.4526  159.5352 H   0  0  0  0  0  0  0  0  0  0  0  0  # atno 6908 bound_to 6896
  152.2168  134.8450  160.0541 H   0  0  0  0  0  0  0  0  0  0  0  0  # atno 6909 bound_to 6896
  145.7115  140.9076  143.0678 H   0  0  0  0  0  0  0  0  0  0  0  0  # atno 7974 bound_to 7965
  155.3156  140.3393  155.4242 H   0  0  0  0  0  0  0  0  0  0  0  0  # atno 8008 bound_to 7997
  156.1934  140.1706  156.8084 H   0  0  0  0  0  0  0  0  0  0  0  0  # atno 8009 bound_to 7997
  154.5470  140.0713  156.8588 H   0  0  0  0  0  0  0  0  0  0  0  0  # atno 8010 bound_to 7997
  139.8921  143.6709  152.2610 H   0  0  0  0  0  0  0  0  0  0  0  0  # atno 10167 bound_to 10162
  156.8869  130.5673  149.5651 H   0  0  0  0  0  0  0  0  0  0  0  0  # atno 10718 bound_to 10713
  153.1838  135.4482  155.0062 H   0  0  0  0  0  0  0  0  0  0  0  0  # atno 10763 bound_to 10752
  154.8047  135.3269  154.7464 H   0  0  0  0  0  0  0  0  0  0  0  0  # atno 10764 bound_to 10752
  153.7925  135.6969  153.4924 H   0  0  0  0  0  0  0  0  0  0  0  0  # atno 10765 bound_to 10752
  140.1134  134.4925  155.8658 H   0  0  0  0  0  0  0  0  0  0  0  0  # atno 11005 bound_to 11000
  144.6941  139.9080  143.7462 LP  0  0  0  0  0  0  0  0  0  0  0  0  # atno 17320 bound_to 7965
  146.0708  139.3697  143.0524 LP  0  0  0  0  0  0  0  0  0  0  0  0  # atno 17321 bound_to 7965
  139.7100  144.7622  151.1128 LP  0  0  0  0  0  0  0  0  0  0  0  0  # atno 17342 bound_to 10162
  140.7724  143.5343  150.9386 LP  0  0  0  0  0  0  0  0  0  0  0  0  # atno 17343 bound_to 10162
  156.0649  130.5694  150.9268 LP  0  0  0  0  0  0  0  0  0  0  0  0  # atno 17370 bound_to 10713
  157.6107  131.0936  150.8800 LP  0  0  0  0  0  0  0  0  0  0  0  0  # atno 17371 bound_to 10713
  141.2135  133.6735  156.6748 LP  0  0  0  0  0  0  0  0  0  0  0  0  # atno 17394 bound_to 11000
  140.3061  134.8124  157.4138 LP  0  0  0  0  0  0  0  0  0  0  0  0  # atno 17395 bound_to 11000

$$$$
