AV-unprocessed.smi:364|AV-procd|sdf|2425|dock4
  -GOLD-   2262022363D 1   1.00000     0.00000
 Structure written by MMmdl.
 37 38  0  0  0  0  0  0  0  0  1 V2000
  153.1300  142.6235  160.8332 C   0  0  0  0  0  0  0  0  0  0  0  0
  152.0461  142.6121  159.7462 C   0  0  2  0  0  0  0  0  0  0  0  0
  151.8921  141.2141  159.1174 C   0  0  0  0  0  0  0  0  0  0  0  0
  150.8094  141.1993  158.0263 C   0  0  0  0  0  0  0  0  0  0  0  0
  151.0917  142.2544  156.9384 C   0  0  1  0  0  0  0  0  0  0  0  0
  150.0128  142.2833  155.9576 N   0  0  0  0  0  0  0  0  0  0  0  0
  149.7819  141.3532  155.0157 C   0  0  0  0  0  0  0  0  0  0  0  0
  150.4736  140.3432  154.8922 O   0  0  0  0  0  0  0  0  0  0  0  0
  148.5975  141.5694  154.0572 C   0  0  0  0  0  0  0  0  0  0  0  0
  147.3267  141.9337  154.7100 N   0  0  0  0  0  0  0  0  0  0  0  0
  146.5511  142.9351  154.1017 C   0  0  0  0  0  0  0  0  0  0  0  0
  145.3817  143.3184  154.6338 C   0  0  0  0  0  0  0  0  0  0  0  0
  144.9719  142.6372  155.8687 C   0  0  0  0  0  0  0  0  0  0  0  0
  145.6755  141.7226  156.4246 N   0  0  0  0  0  0  0  0  0  0  0  0
  146.9029  141.3215  155.8639 C   0  0  0  0  0  0  0  0  0  0  0  0
  147.5813  140.4387  156.3890 O   0  0  0  0  0  0  0  0  0  0  0  0
  151.2487  143.6517  157.5644 C   0  0  0  0  0  0  0  0  0  0  0  0
  152.3314  143.6615  158.6551 C   0  0  0  0  0  0  0  0  0  0  0  0
  154.1075  142.3718  160.4207 H   0  0  0  0  0  0  0  0  0  0  0  0
  152.9050  141.9029  161.6198 H   0  0  0  0  0  0  0  0  0  0  0  0
  153.2078  143.6061  161.2993 H   0  0  0  0  0  0  0  0  0  0  0  0
  151.0999  142.8717  160.2234 H   0  0  0  0  0  0  0  0  0  0  0  0
  152.8430  140.8957  158.6879 H   0  0  0  0  0  0  0  0  0  0  0  0
  151.6424  140.4835  159.8876 H   0  0  0  0  0  0  0  0  0  0  0  0
  150.7546  140.2049  157.5819 H   0  0  0  0  0  0  0  0  0  0  0  0
  149.8358  141.3877  158.4809 H   0  0  0  0  0  0  0  0  0  0  0  0
  152.0265  142.0018  156.4337 H   0  0  0  0  0  0  0  0  0  0  0  0
  149.3942  143.0811  155.9877 H   0  0  0  0  0  0  0  0  0  0  0  0
  148.8779  142.3312  153.3279 H   0  0  0  0  0  0  0  0  0  0  0  0
  148.4679  140.6568  153.4734 H   0  0  0  0  0  0  0  0  0  0  0  0
  146.9598  143.3553  153.1940 H   0  0  0  0  0  0  0  0  0  0  0  0
  144.7375  144.0788  154.2177 H   0  0  0  0  0  0  0  0  0  0  0  0
  144.0170  142.9640  156.2878 H   0  0  0  0  0  0  0  0  0  0  0  0
  151.4993  144.3806  156.7927 H   0  0  0  0  0  0  0  0  0  0  0  0
  150.2995  143.9732  157.9957 H   0  0  0  0  0  0  0  0  0  0  0  0
  152.3909  144.6555  159.0995 H   0  0  0  0  0  0  0  0  0  0  0  0
  153.3045  143.4680  158.2014 H   0  0  0  0  0  0  0  0  0  0  0  0
  1  2  1  0  0  0  0
  1 19  1  0  0  0  0
  1 20  1  0  0  0  0
  1 21  1  0  0  0  0
  2 18  1  0  0  0  0
  2  3  1  0  0  0  0
  2 22  1  0  0  0  0
  3  4  1  0  0  0  0
  3 23  1  0  0  0  0
  3 24  1  0  0  0  0
  4  5  1  0  0  0  0
  4 25  1  0  0  0  0
  4 26  1  0  0  0  0
  5  6  1  0  0  0  0
  5 17  1  0  0  0  0
  5 27  1  0  0  0  0
  6  7  1  0  0  0  0
  6 28  1  0  0  0  0
  7  8  2  0  0  0  0
  7  9  1  0  0  0  0
  9 10  1  0  0  0  0
  9 29  1  0  0  0  0
  9 30  1  0  0  0  0
 10 15  1  0  0  0  0
 10 11  1  0  0  0  0
 11 12  2  0  0  0  0
 11 31  1  0  0  0  0
 12 13  1  0  0  0  0
 12 32  1  0  0  0  0
 13 14  2  0  0  0  0
 13 33  1  0  0  0  0
 14 15  1  0  0  0  0
 15 16  2  0  0  0  0
 17 18  1  0  0  0  0
 17 34  1  0  0  0  0
 17 35  1  0  0  0  0
 18 36  1  0  0  0  0
 18 37  1  0  0  0  0
M  END
> <s_m_source_file>
AV-unprocessed.smi

> <i_m_source_file_index>
364

> <i_lp_mmshare_version>
43012

> <i_f3d_flags>
0

> <s_epik_input>
W0NIM11bQ0BASF0xW0NIMl1bQ0gyXVtDQEhdKFtDSDJdW0NIMl0xKVtOSF1DKD1PKVtDSDJdbjJbY0hdW2NIXVtjSF1uYzI9Tw==

> <s_epik_cmdline>
J2VwaWtfcHl0aG9uJywgJy1waCcsICc3LjAnLCAnLXRuJywgJzgnLCAnLW1hJywgJzIwMCcsICctbWV0YWxfYmluZGluZycsICctaW1hZScsICc8aW5maWxlLm1hZT4nLCAnLW9tYWUnLCAnPG91dGZpbGUubWFlPic=

> <r_lp_tautomer_probability>
1

> <r_epik_Ionization_Penalty>
7.65306e-06

> <r_epik_Ionization_Penalty_Charging>
1.81354e-08

> <r_epik_Ionization_Penalty_Neutral>
7.63492e-06

> <r_epik_State_Penalty>
-0

> <r_epik_Charging_Adjusted_Penalty>
1.81354e-08

> <i_epik_Tot_Q>
0

> <i_epik_Tot_abs_Q>
0

> <r_epik_Metal_State_Penalty>
-0

> <b_epik_Metal_Only>
0

> <s_lp_Force_Field>
OPLS_2005

> <r_lp_Energy>
10.9522

> <b_lp_Chiralities_Consistent>
1

> <s_lp_Variant>
AV-unprocessed.smi:364-1

> <Gold.Version>
5.8.1

> <Gold.Id.Protein>
6NUR|6NUR_protein|mol2

> <Gold.PLP.Fitness>
44.8934

> <Gold.PLP.PLP>
-39.9808

> <Gold.PLP.part.hbond>
-2.0000

> <Gold.PLP.part.metal>
0.0000

> <Gold.PLP.part.buried>
-2.8383

> <Gold.PLP.part.nonpolar>
-35.4677

> <Gold.PLP.part.repulsive>
0.2808

> <Gold.PLP.ligand.clash>
0.0000

> <Gold.PLP.ligand.torsion>
0.5454

> <Gold.PLP.Chemscore.Hbond>
2.0000

> <Gold.PLP.Chemscore.CHOScore>
0.0000

> <Gold.PLP.Chemscore.Metal>
0.0000

> <Gold.Chemscore.Hbonds>
donor molecule, donor type, donor heavy atom, donor atom, acceptor molecule, acceptor atom, score
      L1  H     6    28       P1  8028  1.00
      P1  H  7989  7998       L1     8  1.00

> <Gold.PLP.Chemscore.Internal.Correction>
0.0033

> <Gold.Rescore>
     Score         DG    S(hbond)    S(metal)    S(lipo)     H(rot)  DE(clash)    DE(int)     intcor
     16.15     -18.02       1.70        0.00      91.47       1.50       0.26       1.61       ----

> <Gold.Chemscore.Fitness>
16.1507

> <Gold.Chemscore.DG>
-18.0161

> <Gold.Chemscore.ZeroCoef>
-5.4800

> <Gold.Chemscore.Hbond>
1.6972

> <Gold.Chemscore.Metal>
0.0000

> <Gold.Chemscore.Lipo>
91.4653

> <Gold.Chemscore.Internal_Hbond>
0.0000

> <Gold.Chemscore.DEClash>
0.2580

> <Gold.Chemscore.DEInternal>
1.6074

> <Gold.Chemscore.Rot>
1.4977

> <Gold.Chemscore.Internal.Correction>
   9.000000E+99

> <Gold.Chemscore.Hbonds>
donor molecule, donor type, donor heavy atom, donor atom, acceptor molecule, acceptor atom, score
      L1  H     6    28       P1  8028  0.99
      P1  H  7989  7998       L1     8  0.25

> <Gold.Chemscore.Hbond.Weighted>
-5.6688

> <Gold.Chemscore.Metal.Weighted>
-0.0000

> <Gold.Chemscore.Lipo.Weighted>
-10.7014

> <Gold.Chemscore.Internal_Hbond.Weighted>
0.0000

> <Gold.Chemscore.DEClash.Weighted>
0.2580

> <Gold.Chemscore.DEInternal.Weighted>
1.6074

> <Gold.Chemscore.Rot.Weighted>
3.8341

> <Gold.Chemscore.Internal.Correction.Weighted>
   9.000000E+99

> <Gold.Protein.RotatedTorsions>
[ 6907 6896 6895 6894 ] final   52.99 input  -60.11 | X-H torsion
[ 7974 7965 7964 7962 ] final   -3.44 input  175.53 | X-H torsion
[ 8008 7997 7996 7995 ] final -114.70 input   59.86 | X-H torsion
[ 10167 10162 10161 10158 ] final  175.04 input  -65.29 | X-H torsion
[ 10718 10713 10712 10709 ] final   41.00 input   66.30 | X-H torsion
[ 10763 10752 10751 10750 ] final  175.41 input  -60.55 | X-H torsion
[ 11005 11000 10999 10996 ] final   28.96 input  -57.11 | X-H torsion

> <Gold.Protein.ActiveResidues>
 VAL166  LYS551  ARG553  GLY616  TRP617  ASP618  TYR619  PRO620  LYS621  CYS622 
 ASP623  PHE694  ASN695  SER759  ASP760  ASP761  ALA762  ILE779  LEU786  VAL792 
 PHE793  MET794  SER795  GLU796  ALA797  LYS798  CYS799  TRP800  GLU811  SER814 

> <Gold.Protein.RotatedAtoms>
  152.3290  134.7284  160.0294 H   0  0  0  0  0  0  0  0  0  0  0  0  # atno 6907 bound_to 6896
  151.7707  133.3335  159.3451 H   0  0  0  0  0  0  0  0  0  0  0  0  # atno 6908 bound_to 6896
  150.7412  134.5953  159.6053 H   0  0  0  0  0  0  0  0  0  0  0  0  # atno 6909 bound_to 6896
  146.2389  140.1721  142.8332 H   0  0  0  0  0  0  0  0  0  0  0  0  # atno 7974 bound_to 7965
  155.0404  140.0392  157.2507 H   0  0  0  0  0  0  0  0  0  0  0  0  # atno 8008 bound_to 7997
  154.7221  140.2714  155.6508 H   0  0  0  0  0  0  0  0  0  0  0  0  # atno 8009 bound_to 7997
  156.2819  140.2701  156.1896 H   0  0  0  0  0  0  0  0  0  0  0  0  # atno 8010 bound_to 7997
  139.5163  144.3077  152.0320 H   0  0  0  0  0  0  0  0  0  0  0  0  # atno 10167 bound_to 10162
  157.3886  130.7793  149.7250 H   0  0  0  0  0  0  0  0  0  0  0  0  # atno 10718 bound_to 10713
  154.4672  135.2770  155.1670 H   0  0  0  0  0  0  0  0  0  0  0  0  # atno 10763 bound_to 10752
  154.3433  135.6165  153.5611 H   0  0  0  0  0  0  0  0  0  0  0  0  # atno 10764 bound_to 10752
  152.9860  135.5794  154.5046 H   0  0  0  0  0  0  0  0  0  0  0  0  # atno 10765 bound_to 10752
  140.3100  134.2660  155.7736 H   0  0  0  0  0  0  0  0  0  0  0  0  # atno 11005 bound_to 11000
  145.0003  140.8626  143.5286 LP  0  0  0  0  0  0  0  0  0  0  0  0  # atno 17320 bound_to 7965
  145.1739  139.2389  143.5327 LP  0  0  0  0  0  0  0  0  0  0  0  0  # atno 17321 bound_to 7965
  140.2523  144.4156  150.6217 LP  0  0  0  0  0  0  0  0  0  0  0  0  # atno 17342 bound_to 10162
  140.6216  143.2177  151.6682 LP  0  0  0  0  0  0  0  0  0  0  0  0  # atno 17343 bound_to 10162
  155.9793  130.4042  150.3598 LP  0  0  0  0  0  0  0  0  0  0  0  0  # atno 17370 bound_to 10713
  157.1711  131.0369  151.2795 LP  0  0  0  0  0  0  0  0  0  0  0  0  # atno 17371 bound_to 10713
  141.2110  133.7702  156.9894 LP  0  0  0  0  0  0  0  0  0  0  0  0  # atno 17394 bound_to 11000
  140.1033  134.9522  157.1955 LP  0  0  0  0  0  0  0  0  0  0  0  0  # atno 17395 bound_to 11000

$$$$
