#       Name:                AV-unprocessed.smi:2183
#       Creating user name   scv26
#       Creation time:       Fri Mar 27 12:06:49 2020


#       File generated by GOLD software.
#

@<TRIPOS>MOLECULE
AV-unprocessed.smi:2183
    47    49     1
SMALL
NO_CHARGES


@<TRIPOS>ATOM
      1 ****        -2.5336   2.9409   3.6630 O.3            1 S1                 0.0000
      2 ****        -2.2784   1.8400   2.8159 C.3            1 S1                 0.0000
      3 ****        -2.1799   2.2167   1.3715 C.2            1 S1                 0.0000
      4 ****        -2.5175   3.4200   0.8245 N.pl3          1 S1                 1.0000
      5 ****        -2.2940   3.3951  -0.5526 C.ar           1 S1                 0.0000
      6 ****        -2.4851   4.3708  -1.5260 C.ar           1 S1                 0.0000
      7 ****        -2.1536   4.0165  -2.8505 C.ar           1 S1                 0.0000
      8 ****        -1.6557   2.7352  -3.1653 C.ar           1 S1                 0.0000
      9 ****        -1.4677   1.7539  -2.1697 C.ar           1 S1                 0.0000
     10 ****        -1.7957   2.1136  -0.8629 C.ar           1 S1                 0.0000
     11 ****        -1.7391   1.4233   0.3527 N.pl3          1 S1                 0.0000
     12 ****        -1.2522   0.0349   0.3661 C.3            1 S1                 0.0000
     13 ****         0.2858  -0.0658   0.3089 C.3            1 S1                 0.0000
     14 ****         0.8310   0.6404   1.4060 O.3            1 S1                 0.0000
     15 ****         0.7674  -1.5236   0.3731 C.3            1 S1                 0.0000
     16 ****         2.0772  -1.5987  -0.1746 O.3            1 S1                 0.0000
     17 ****         2.7013  -2.8273  -0.2117 C.ar           1 S1                 0.0000
     18 ****         4.0079  -2.8653  -0.7413 C.ar           1 S1                 0.0000
     19 ****         4.7212  -4.0772  -0.8164 C.ar           1 S1                 0.0000
     20 ****         4.1307  -5.2703  -0.3602 C.ar           1 S1                 0.0000
     21 ****         5.0030  -6.7564  -0.4487 Cl             1 S1                 0.0000
     22 ****         2.8267  -5.2476   0.1689 C.ar           1 S1                 0.0000
     23 ****         2.1136  -4.0350   0.2437 C.ar           1 S1                 0.0000
     24 ****        -2.5800   2.6289   4.5542 H              1 S1                 0.0000
     25 ****        -1.3483   1.3655   3.1295 H              1 S1                 0.0000
     26 ****        -3.0749   1.1058   2.9387 H              1 S1                 0.0000
     27 ****        -2.8670   5.3527  -1.2875 H              1 S1                 0.0000
     28 ****        -2.2841   4.7418  -3.6407 H              1 S1                 0.0000
     29 ****        -1.4127   2.5001  -4.1914 H              1 S1                 0.0000
     30 ****        -1.0855   0.7754  -2.4207 H              1 S1                 0.0000
     31 ****        -1.6293  -0.4416   1.2720 H              1 S1                 0.0000
     32 ****        -1.7093  -0.4955  -0.4703 H              1 S1                 0.0000
     33 ****         0.6418   0.3928  -0.6142 H              1 S1                 0.0000
     34 ****         0.5904   1.5505   1.3258 H              1 S1                 0.0000
     35 ****         0.7338  -1.8982   1.3979 H              1 S1                 0.0000
     36 ****         0.1072  -2.1473  -0.2323 H              1 S1                 0.0000
     37 ****         4.4698  -1.9543  -1.0926 H              1 S1                 0.0000
     38 ****         5.7215  -4.0895  -1.2236 H              1 S1                 0.0000
     39 ****         2.3702  -6.1612   0.5202 H              1 S1                 0.0000
     40 ****         1.1166  -4.0584   0.6558 H              1 S1                 0.0000
     41 ****        -2.8741   4.1992   1.3630 H              1 S1                 0.0000
     42 ****        -3.4016   3.3677   3.4094 LP             1 S1                 0.0000
     43 ****        -1.7956   3.6103   3.5779 LP             1 S1                 0.0000
     44 ****         1.8272   0.5531   1.4020 LP             1 S1                 0.0000
     45 ****         0.4674   0.2693   2.2605 LP             1 S1                 0.0000
     46 ****         2.6583  -0.9877   0.3631 LP             1 S1                 0.0000
     47 ****         2.0239  -1.2653  -1.1158 LP             1 S1                 0.0000
@<TRIPOS>BOND
    1    1    2 1     
    2    1   24 1     
    3    2    3 1     
    4    2   25 1     
    5    2   26 1     
    6    3   11 1     
    7    3    4 2     
    8    4    5 1     
    9    4   41 1     
   10    5   10 ar    
   11    5    6 ar    
   12    6    7 ar    
   13    6   27 1     
   14    7    8 ar    
   15    7   28 1     
   16    8    9 ar    
   17    8   29 1     
   18    9   10 ar    
   19    9   30 1     
   20   10   11 1     
   21   11   12 1     
   22   12   13 1     
   23   12   31 1     
   24   12   32 1     
   25   13   14 1     
   26   13   15 1     
   27   13   33 1     
   28   14   34 1     
   29   15   16 1     
   30   15   35 1     
   31   15   36 1     
   32   16   17 1     
   33   17   23 ar    
   34   17   18 ar    
   35   18   19 ar    
   36   18   37 1     
   37   19   20 ar    
   38   19   38 1     
   39   20   21 1     
   40   20   22 ar    
   41   22   23 ar    
   42   22   39 1     
   43   23   40 1     
   44    1   42 1     
   45    1   43 1     
   46   14   44 1     
   47   14   45 1     
   48   16   46 1     
   49   16   47 1     
@<TRIPOS>SUBSTRUCTURE
      1 S1             1
@<TRIPOS>SET
LONE_PAIRS      STATIC     ATOMS    <user>   **** ""
6 42 43 44 45 46 47
DONOR_HYDROGENS      STATIC     ATOMS    <user>   **** ""
3 24 41 34
ATOM$BLUE        STATIC     ATOMS    COLORGROUP SYSTEM
6 42 43 44 45 46 47
ATOM$RED        STATIC     ATOMS    COLORGROUP SYSTEM
3 24 41 34
