AV-unprocessed.smi:3014|AV-procd|sdf|11468|dock8
  -GOLD-   2272016403D 1   1.00000     0.00000
 Structure written by MMmdl.
 45 46  0  0  0  0  0  0  0  0  1 V2000
  153.2901  142.3859  161.8952 C   0  0  0  0  0  0  0  0  0  0  0  0
  152.9467  142.8019  160.4576 C   0  0  2  0  0  0  0  0  0  0  0  0
  152.4119  144.2462  160.4024 C   0  0  0  0  0  0  0  0  0  0  0  0
  152.0582  144.6621  158.9657 C   0  0  0  0  0  0  0  0  0  0  0  0
  151.0564  143.6826  158.3363 C   0  0  0  0  0  0  0  0  0  0  0  0
  151.5922  142.2418  158.3686 C   0  0  2  0  0  0  0  0  0  0  0  0
  150.5739  141.3970  157.8364 O   0  0  0  0  0  0  0  0  0  0  0  0
  151.0000  140.1362  157.3246 C   0  0  0  0  0  0  0  0  0  0  0  0
  149.8663  139.1067  157.3891 C   0  0  0  0  0  0  0  0  0  0  0  0
  149.5751  138.4604  156.3824 O   0  0  0  0  0  0  0  0  0  0  0  0
  149.2594  138.9812  158.5839 N   0  0  0  0  0  0  0  0  0  0  0  0
  148.1967  138.1099  158.9392 C   0  0  0  0  0  0  0  0  0  0  0  0
  147.4187  137.6191  157.8687 C   0  0  0  0  0  0  0  0  0  0  0  0
  146.3581  136.7510  158.1919 C   0  0  0  0  0  0  0  0  0  0  0  0
  146.0908  136.3994  159.4661 N   0  0  0  0  0  0  0  0  0  0  0  0
  146.8757  136.9104  160.4226 C   0  0  0  0  0  0  0  0  0  0  0  0
  146.6024  136.5493  161.7450 N   0  0  0  0  0  0  0  0  0  0  0  0
  147.3425  137.1406  162.8565 C   0  0  0  0  0  0  0  0  0  0  0  0
  145.5730  135.5639  162.0628 C   0  0  0  0  0  0  0  0  0  0  0  0
  147.9044  137.7415  160.2106 N   0  0  0  0  0  0  0  0  0  0  0  0
  151.9407  141.8274  159.8133 C   0  0  0  0  0  0  0  0  0  0  0  0
  152.4082  142.4090  162.5364 H   0  0  0  0  0  0  0  0  0  0  0  0
  154.0346  143.0534  162.3296 H   0  0  0  0  0  0  0  0  0  0  0  0
  153.6971  141.3748  161.9254 H   0  0  0  0  0  0  0  0  0  0  0  0
  153.8691  142.7632  159.8758 H   0  0  0  0  0  0  0  0  0  0  0  0
  151.5271  144.3367  161.0341 H   0  0  0  0  0  0  0  0  0  0  0  0
  153.1532  144.9347  160.8097 H   0  0  0  0  0  0  0  0  0  0  0  0
  151.6443  145.6708  158.9615 H   0  0  0  0  0  0  0  0  0  0  0  0
  152.9648  144.6965  158.3604 H   0  0  0  0  0  0  0  0  0  0  0  0
  150.1083  143.7364  158.8731 H   0  0  0  0  0  0  0  0  0  0  0  0
  150.8469  143.9774  157.3074 H   0  0  0  0  0  0  0  0  0  0  0  0
  152.4925  142.2041  157.7536 H   0  0  0  0  0  0  0  0  0  0  0  0
  151.3927  140.2320  156.3118 H   0  0  0  0  0  0  0  0  0  0  0  0
  151.8196  139.7758  157.9463 H   0  0  0  0  0  0  0  0  0  0  0  0
  149.5997  139.5779  159.3235 H   0  0  0  0  0  0  0  0  0  0  0  0
  147.6220  137.8924  156.8435 H   0  0  0  0  0  0  0  0  0  0  0  0
  145.7215  136.3371  157.4240 H   0  0  0  0  0  0  0  0  0  0  0  0
  147.1988  138.2215  162.8759 H   0  0  0  0  0  0  0  0  0  0  0  0
  148.4092  136.9378  162.7546 H   0  0  0  0  0  0  0  0  0  0  0  0
  147.0197  136.7443  163.8190 H   0  0  0  0  0  0  0  0  0  0  0  0
  145.8137  134.6033  161.6065 H   0  0  0  0  0  0  0  0  0  0  0  0
  144.6035  135.8909  161.6859 H   0  0  0  0  0  0  0  0  0  0  0  0
  145.4754  135.4074  163.1371 H   0  0  0  0  0  0  0  0  0  0  0  0
  152.3562  140.8198  159.8269 H   0  0  0  0  0  0  0  0  0  0  0  0
  151.0291  141.7921  160.4116 H   0  0  0  0  0  0  0  0  0  0  0  0
  1  2  1  0  0  0  0
  1 22  1  0  0  0  0
  1 23  1  0  0  0  0
  1 24  1  0  0  0  0
  2 21  1  0  0  0  0
  2  3  1  0  0  0  0
  2 25  1  0  0  0  0
  3  4  1  0  0  0  0
  3 26  1  0  0  0  0
  3 27  1  0  0  0  0
  4  5  1  0  0  0  0
  4 28  1  0  0  0  0
  4 29  1  0  0  0  0
  5  6  1  0  0  0  0
  5 30  1  0  0  0  0
  5 31  1  0  0  0  0
  6  7  1  0  0  0  0
  6 21  1  0  0  0  0
  6 32  1  0  0  0  0
  7  8  1  0  0  0  0
  8  9  1  0  0  0  0
  8 33  1  0  0  0  0
  8 34  1  0  0  0  0
  9 10  2  0  0  0  0
  9 11  1  0  0  0  0
 11 12  1  0  0  0  0
 11 35  1  0  0  0  0
 12 20  1  0  0  0  0
 12 13  2  0  0  0  0
 13 14  1  0  0  0  0
 13 36  1  0  0  0  0
 14 15  2  0  0  0  0
 14 37  1  0  0  0  0
 15 16  1  0  0  0  0
 16 17  1  0  0  0  0
 16 20  2  0  0  0  0
 17 18  1  0  0  0  0
 17 19  1  0  0  0  0
 18 38  1  0  0  0  0
 18 39  1  0  0  0  0
 18 40  1  0  0  0  0
 19 41  1  0  0  0  0
 19 42  1  0  0  0  0
 19 43  1  0  0  0  0
 21 44  1  0  0  0  0
 21 45  1  0  0  0  0
M  END
> <s_m_source_file>
AV-unprocessed.smi

> <i_m_source_file_index>
3014

> <i_lp_mmshare_version>
43012

> <i_f3d_flags>
0

> <s_epik_input>
W0NIM11bQ0BASF0xW0NIMl1bQ0gyXVtDSDJdW0NASF0oW0NIMl0xKU9bQ0gyXUMoPU8pW05IXWMyW2NIXVtjSF1uYyhuMilOKFtDSDNdKVtDSDNd

> <s_epik_cmdline>
J2VwaWtfcHl0aG9uJywgJy1waCcsICc3LjAnLCAnLXRuJywgJzgnLCAnLW1hJywgJzIwMCcsICctbWV0YWxfYmluZGluZycsICctaW1hZScsICc8aW5maWxlLm1hZT4nLCAnLW9tYWUnLCAnPG91dGZpbGUubWFlPic=

> <r_lp_tautomer_probability>
1

> <r_epik_Ionization_Penalty>
0.000308195

> <r_epik_Ionization_Penalty_Charging>
0

> <r_epik_Ionization_Penalty_Neutral>
0.000308195

> <r_epik_State_Penalty>
-0

> <r_epik_Charging_Adjusted_Penalty>
0

> <i_epik_Tot_Q>
0

> <i_epik_Tot_abs_Q>
0

> <r_epik_Metal_State_Penalty>
-0

> <b_epik_Metal_Only>
0

> <s_lp_Force_Field>
OPLS_2005

> <r_lp_Energy>
8.92974

> <b_lp_Chiralities_Consistent>
1

> <s_lp_Variant>
AV-unprocessed.smi:3014-3

> <Gold.Version>
5.8.1

> <Gold.Id.Protein>
6NUR|6NUR_protein|mol2

> <Gold.PLP.Fitness>
46.7929

> <Gold.PLP.PLP>
-45.1775

> <Gold.PLP.part.hbond>
-1.0000

> <Gold.PLP.part.metal>
0.0000

> <Gold.PLP.part.buried>
-5.3084

> <Gold.PLP.part.nonpolar>
-39.4703

> <Gold.PLP.part.repulsive>
0.2139

> <Gold.PLP.ligand.clash>
0.0000

> <Gold.PLP.ligand.torsion>
0.5459

> <Gold.PLP.Chemscore.Hbond>
0.8960

> <Gold.PLP.Chemscore.CHOScore>
0.0000

> <Gold.PLP.Chemscore.Metal>
0.0000

> <Gold.Chemscore.Hbonds>
donor molecule, donor type, donor heavy atom, donor atom, acceptor molecule, acceptor atom, score
      P1  H  6931  6943       L1    20  0.38
      P1  H  6934  6947       L1    20  0.51

> <Gold.PLP.Chemscore.Internal.Correction>
0.0193

> <Gold.Rescore>
     Score         DG    S(hbond)    S(metal)    S(lipo)     H(rot)  DE(clash)    DE(int)     intcor
     14.80     -16.82       0.88        0.00     103.01       1.43       0.02       2.00       ----

> <Gold.Chemscore.Fitness>
14.7965

> <Gold.Chemscore.DG>
-16.8199

> <Gold.Chemscore.ZeroCoef>
-5.4800

> <Gold.Chemscore.Hbond>
0.8835

> <Gold.Chemscore.Metal>
0.0000

> <Gold.Chemscore.Lipo>
103.0117

> <Gold.Chemscore.Internal_Hbond>
0.0000

> <Gold.Chemscore.DEClash>
0.0237

> <Gold.Chemscore.DEInternal>
1.9997

> <Gold.Chemscore.Rot>
1.4310

> <Gold.Chemscore.Internal.Correction>
   9.000000E+99

> <Gold.Chemscore.Hbonds>
donor molecule, donor type, donor heavy atom, donor atom, acceptor molecule, acceptor atom, score
      P1  H  6931  6943       L1    20  0.33
      P1  H  6934  6947       L1    20  0.04

> <Gold.Chemscore.Hbond.Weighted>
-2.9508

> <Gold.Chemscore.Metal.Weighted>
-0.0000

> <Gold.Chemscore.Lipo.Weighted>
-12.0524

> <Gold.Chemscore.Internal_Hbond.Weighted>
0.0000

> <Gold.Chemscore.DEClash.Weighted>
0.0237

> <Gold.Chemscore.DEInternal.Weighted>
1.9997

> <Gold.Chemscore.Rot.Weighted>
3.6632

> <Gold.Chemscore.Internal.Correction.Weighted>
   9.000000E+99

> <Gold.Protein.RotatedTorsions>
[ 6907 6896 6895 6894 ] final -113.86 input  -60.11 | X-H torsion
[ 7974 7965 7964 7962 ] final   48.31 input  175.53 | X-H torsion
[ 8008 7997 7996 7995 ] final -171.94 input   59.86 | X-H torsion
[ 10167 10162 10161 10158 ] final   85.20 input  -65.29 | X-H torsion
[ 10718 10713 10712 10709 ] final   -8.28 input   66.30 | X-H torsion
[ 10763 10752 10751 10750 ] final -106.14 input  -60.55 | X-H torsion
[ 11005 11000 10999 10996 ] final  -52.53 input  -57.11 | X-H torsion

> <Gold.Protein.ActiveResidues>
 VAL166  LYS551  ARG553  GLY616  TRP617  ASP618  TYR619  PRO620  LYS621  CYS622 
 ASP623  PHE694  ASN695  SER759  ASP760  ASP761  ALA762  ILE779  LEU786  VAL792 
 PHE793  MET794  SER795  GLU796  ALA797  LYS798  CYS799  TRP800  GLU811  SER814 

> <Gold.Protein.RotatedAtoms>
  150.7860  133.8884  159.3305 H   0  0  0  0  0  0  0  0  0  0  0  0  # atno 6907 bound_to 6896
  151.6734  135.0971  160.0212 H   0  0  0  0  0  0  0  0  0  0  0  0  # atno 6908 bound_to 6896
  152.3923  133.6658  159.6283 H   0  0  0  0  0  0  0  0  0  0  0  0  # atno 6909 bound_to 6896
  146.0216  139.4657  142.9894 H   0  0  0  0  0  0  0  0  0  0  0  0  # atno 7974 bound_to 7965
  155.9381  140.1103  157.1078 H   0  0  0  0  0  0  0  0  0  0  0  0  # atno 8008 bound_to 7997
  154.4084  140.1224  156.4957 H   0  0  0  0  0  0  0  0  0  0  0  0  # atno 8009 bound_to 7997
  155.6996  140.3472  155.4929 H   0  0  0  0  0  0  0  0  0  0  0  0  # atno 8010 bound_to 7997
  139.9002  144.6334  150.8645 H   0  0  0  0  0  0  0  0  0  0  0  0  # atno 10167 bound_to 10162
  156.7049  130.5104  149.5907 H   0  0  0  0  0  0  0  0  0  0  0  0  # atno 10718 bound_to 10713
  154.7992  135.4723  154.0235 H   0  0  0  0  0  0  0  0  0  0  0  0  # atno 10763 bound_to 10752
  153.1754  135.6832  153.8557 H   0  0  0  0  0  0  0  0  0  0  0  0  # atno 10764 bound_to 10752
  153.8126  135.3215  155.3380 H   0  0  0  0  0  0  0  0  0  0  0  0  # atno 10765 bound_to 10752
  141.0929  133.6629  156.4037 H   0  0  0  0  0  0  0  0  0  0  0  0  # atno 11005 bound_to 11000
  145.7184  141.0083  143.1415 LP  0  0  0  0  0  0  0  0  0  0  0  0  # atno 17320 bound_to 7965
  144.6992  139.8841  143.7449 LP  0  0  0  0  0  0  0  0  0  0  0  0  # atno 17321 bound_to 7965
  140.7708  143.3442  151.2145 LP  0  0  0  0  0  0  0  0  0  0  0  0  # atno 17342 bound_to 10162
  139.7032  143.9499  152.2915 LP  0  0  0  0  0  0  0  0  0  0  0  0  # atno 17343 bound_to 10162
  156.1702  130.6432  151.0828 LP  0  0  0  0  0  0  0  0  0  0  0  0  # atno 17370 bound_to 10713
  157.6959  131.0794  150.6971 LP  0  0  0  0  0  0  0  0  0  0  0  0  # atno 17371 bound_to 10713
  140.5210  134.6304  157.5318 LP  0  0  0  0  0  0  0  0  0  0  0  0  # atno 17394 bound_to 11000
  139.9759  134.7217  155.9952 LP  0  0  0  0  0  0  0  0  0  0  0  0  # atno 17395 bound_to 11000

$$$$
