AV-unprocessed.smi:2135|AV-procd|sdf|8699|dock1
  -GOLD-   2272011453D 1   1.00000     0.00000
 Structure written by MMmdl.
 42 43  0  0  0  0  0  0  0  0  1 V2000
  152.5709  137.8880  157.0511 C   0  0  0  0  0  0  0  0  0  0  0  0
  151.9350  138.4311  155.4126 S   0  0  0  0  0  0  0  0  0  0  0  0
  152.8555  139.4455  154.8767 O   0  0  0  0  0  0  0  0  0  0  0  0
  151.6317  137.2301  154.6196 O   0  0  0  0  0  0  0  0  0  0  0  0
  150.4272  139.2195  155.7790 N   0  0  0  0  0  0  0  0  0  0  0  0
  150.3132  140.6871  155.6589 C   0  0  0  0  0  0  0  0  0  0  0  0
  149.5887  141.0960  154.3643 C   0  0  0  0  0  0  0  0  0  0  0  0
  148.2326  140.3919  154.2405 C   0  0  0  0  0  0  0  0  0  0  0  0
  148.4293  138.8671  154.3160 C   0  0  2  0  0  0  0  0  0  0  0  0
  147.0899  138.1266  154.2077 C   0  0  0  0  0  0  0  0  0  0  0  0
  146.1831  138.3619  155.0070 O   0  0  0  0  0  0  0  0  0  0  0  0
  146.9810  137.2277  153.2172 N   0  0  0  0  0  0  0  0  0  0  0  0
  145.8076  136.4012  152.9631 C   0  0  0  0  0  0  0  0  0  0  0  0
  145.5533  136.2309  151.4565 C   0  0  0  0  0  0  0  0  0  0  0  0
  145.3843  134.7758  151.0681 C   0  0  0  0  0  0  0  0  0  0  0  0
  144.2425  134.3406  150.3648 C   0  0  0  0  0  0  0  0  0  0  0  0
  144.1307  132.9772  150.0311 C   0  0  0  0  0  0  0  0  0  0  0  0
  145.1685  132.1051  150.4165 C   0  0  0  0  0  0  0  0  0  0  0  0
  146.2661  132.5110  151.0905 N   0  0  0  0  0  0  0  0  0  0  0  0
  146.3659  133.8202  151.4062 C   0  0  0  0  0  0  0  0  0  0  0  0
  149.1531  138.4879  155.6266 C   0  0  0  0  0  0  0  0  0  0  0  0
  153.5168  137.3658  156.9092 H   0  0  0  0  0  0  0  0  0  0  0  0
  151.8598  137.2090  157.5181 H   0  0  0  0  0  0  0  0  0  0  0  0
  152.7388  138.7525  157.6904 H   0  0  0  0  0  0  0  0  0  0  0  0
  149.7573  141.0597  156.5200 H   0  0  0  0  0  0  0  0  0  0  0  0
  151.2985  141.1503  155.7054 H   0  0  0  0  0  0  0  0  0  0  0  0
  149.4460  142.1768  154.3495 H   0  0  0  0  0  0  0  0  0  0  0  0
  150.2045  140.8594  153.4976 H   0  0  0  0  0  0  0  0  0  0  0  0
  147.5718  140.7335  155.0389 H   0  0  0  0  0  0  0  0  0  0  0  0
  147.7565  140.6694  153.2991 H   0  0  0  0  0  0  0  0  0  0  0  0
  149.0493  138.5652  153.4719 H   0  0  0  0  0  0  0  0  0  0  0  0
  147.7727  137.0968  152.6044 H   0  0  0  0  0  0  0  0  0  0  0  0
  145.9234  135.4295  153.4463 H   0  0  0  0  0  0  0  0  0  0  0  0
  144.9488  136.8818  153.4325 H   0  0  0  0  0  0  0  0  0  0  0  0
  144.6620  136.7865  151.1614 H   0  0  0  0  0  0  0  0  0  0  0  0
  146.3803  136.6500  150.8817 H   0  0  0  0  0  0  0  0  0  0  0  0
  143.4645  135.0366  150.0868 H   0  0  0  0  0  0  0  0  0  0  0  0
  143.2700  132.6083  149.4930 H   0  0  0  0  0  0  0  0  0  0  0  0
  145.1148  131.0531  150.1779 H   0  0  0  0  0  0  0  0  0  0  0  0
  147.2537  134.1129  151.9475 H   0  0  0  0  0  0  0  0  0  0  0  0
  149.3315  137.4133  155.6676 H   0  0  0  0  0  0  0  0  0  0  0  0
  148.5227  138.7242  156.4853 H   0  0  0  0  0  0  0  0  0  0  0  0
  1  2  1  0  0  0  0
  1 22  1  0  0  0  0
  1 23  1  0  0  0  0
  1 24  1  0  0  0  0
  2  3  2  0  0  0  0
  2  4  2  0  0  0  0
  2  5  1  0  0  0  0
  5 21  1  0  0  0  0
  5  6  1  0  0  0  0
  6  7  1  0  0  0  0
  6 25  1  0  0  0  0
  6 26  1  0  0  0  0
  7  8  1  0  0  0  0
  7 27  1  0  0  0  0
  7 28  1  0  0  0  0
  8  9  1  0  0  0  0
  8 29  1  0  0  0  0
  8 30  1  0  0  0  0
  9 10  1  0  0  0  0
  9 21  1  0  0  0  0
  9 31  1  0  0  0  0
 10 11  2  0  0  0  0
 10 12  1  0  0  0  0
 12 13  1  0  0  0  0
 12 32  1  0  0  0  0
 13 14  1  0  0  0  0
 13 33  1  0  0  0  0
 13 34  1  0  0  0  0
 14 15  1  0  0  0  0
 14 35  1  0  0  0  0
 14 36  1  0  0  0  0
 15 20  1  0  0  0  0
 15 16  2  0  0  0  0
 16 17  1  0  0  0  0
 16 37  1  0  0  0  0
 17 18  2  0  0  0  0
 17 38  1  0  0  0  0
 18 19  1  0  0  0  0
 18 39  1  0  0  0  0
 19 20  2  0  0  0  0
 20 40  1  0  0  0  0
 21 41  1  0  0  0  0
 21 42  1  0  0  0  0
M  END
> <s_m_source_file>
AV-unprocessed.smi

> <i_m_source_file_index>
2135

> <i_lp_mmshare_version>
43012

> <i_f3d_flags>
0

> <s_epik_input>
W0NIM11TKD1PKSg9TylOMVtDSDJdW0NIMl1bQ0gyXVtDQEhdKFtDSDJdMSlDKD1PKVtOSF1bQ0gyXVtDSDJdYzJbY0hdW2NIXVtjSF1uW2NIXTI=

> <s_epik_cmdline>
J2VwaWtfcHl0aG9uJywgJy1waCcsICc3LjAnLCAnLXRuJywgJzgnLCAnLW1hJywgJzIwMCcsICctbWV0YWxfYmluZGluZycsICctaW1hZScsICc8aW5maWxlLm1hZT4nLCAnLW9tYWUnLCAnPG91dGZpbGUubWFlPic=

> <r_epik_Ionization_Penalty>
0.0134582

> <r_epik_Ionization_Penalty_Charging>
0

> <r_epik_Ionization_Penalty_Neutral>
0.0134582

> <r_epik_State_Penalty>
0.010475

> <r_epik_Charging_Adjusted_Penalty>
0.010475

> <i_epik_Tot_Q>
0

> <i_epik_Tot_abs_Q>
0

> <r_epik_Metal_State_Penalty>
0.0102416

> <b_epik_Metal_Only>
0

> <s_lp_Force_Field>
OPLS_2005

> <r_lp_Energy>
-1.59051

> <b_lp_Chiralities_Consistent>
1

> <s_lp_Variant>
AV-unprocessed.smi:2135-2

> <Gold.Version>
5.8.1

> <Gold.Id.Protein>
6NUR|6NUR_protein|mol2

> <Gold.PLP.Fitness>
46.8474

> <Gold.PLP.PLP>
-35.2978

> <Gold.PLP.part.hbond>
-3.8867

> <Gold.PLP.part.metal>
0.0000

> <Gold.PLP.part.buried>
-4.4068

> <Gold.PLP.part.nonpolar>
-28.2095

> <Gold.PLP.part.repulsive>
0.5487

> <Gold.PLP.ligand.clash>
0.0000

> <Gold.PLP.ligand.torsion>
1.6128

> <Gold.PLP.Chemscore.Hbond>
3.2319

> <Gold.PLP.Chemscore.CHOScore>
0.9984

> <Gold.PLP.Chemscore.Metal>
0.0000

> <Gold.Chemscore.Hbonds>
donor molecule, donor type, donor heavy atom, donor atom, acceptor molecule, acceptor atom, score
      L1  H    12    32       P1  7948  1.00
      P1  H  7989  7998       L1     3  0.17
      P1  H  7997  8008       L1     3  0.96
      P1  H 10752 10765       L1     4  0.93
      L1  C    20    40       P1  7948  0.66

> <Gold.PLP.Chemscore.Internal.Correction>
2.0843

> <Gold.Rescore>
     Score         DG    S(hbond)    S(metal)    S(lipo)     H(rot)  DE(clash)    DE(int)     intcor
     18.51     -20.23       2.84        0.00      79.27       1.56       0.04       1.68       ----

> <Gold.Chemscore.Fitness>
18.5133

> <Gold.Chemscore.DG>
-20.2322

> <Gold.Chemscore.ZeroCoef>
-5.4800

> <Gold.Chemscore.Hbond>
2.8391

> <Gold.Chemscore.Metal>
0.0000

> <Gold.Chemscore.Lipo>
79.2669

> <Gold.Chemscore.Internal_Hbond>
0.0000

> <Gold.Chemscore.DEClash>
0.0417

> <Gold.Chemscore.DEInternal>
1.6772

> <Gold.Chemscore.Rot>
1.5643

> <Gold.Chemscore.Internal.Correction>
   9.000000E+99

> <Gold.Chemscore.Hbonds>
donor molecule, donor type, donor heavy atom, donor atom, acceptor molecule, acceptor atom, score
      L1  H    12    32       P1  7948  0.98
      P1  H  7989  7998       L1     3  0.12
      P1  H  7997  8008       L1     3  0.90
      P1  H 10752 10765       L1     4  0.86

> <Gold.Chemscore.Hbond.Weighted>
-9.4826

> <Gold.Chemscore.Metal.Weighted>
-0.0000

> <Gold.Chemscore.Lipo.Weighted>
-9.2742

> <Gold.Chemscore.Internal_Hbond.Weighted>
0.0000

> <Gold.Chemscore.DEClash.Weighted>
0.0417

> <Gold.Chemscore.DEInternal.Weighted>
1.6772

> <Gold.Chemscore.Rot.Weighted>
4.0046

> <Gold.Chemscore.Internal.Correction.Weighted>
   9.000000E+99

> <Gold.Protein.RotatedTorsions>
[ 6907 6896 6895 6894 ] final   19.41 input  -60.11 | X-H torsion
[ 7974 7965 7964 7962 ] final  -95.12 input  175.53 | X-H torsion
[ 8008 7997 7996 7995 ] final  -23.75 input   59.86 | X-H torsion
[ 10167 10162 10161 10158 ] final  173.80 input  -65.29 | X-H torsion
[ 10718 10713 10712 10709 ] final  133.69 input   66.30 | X-H torsion
[ 10763 10752 10751 10750 ] final  164.50 input  -60.55 | X-H torsion
[ 11005 11000 10999 10996 ] final -128.82 input  -57.11 | X-H torsion

> <Gold.Protein.ActiveResidues>
 VAL166  LYS551  ARG553  GLY616  TRP617  ASP618  TYR619  PRO620  LYS621  CYS622 
 ASP623  PHE694  ASN695  SER759  ASP760  ASP761  ALA762  ILE779  LEU786  VAL792 
 PHE793  MET794  SER795  GLU796  ALA797  LYS798  CYS799  TRP800  GLU811  SER814 

> <Gold.Protein.RotatedAtoms>
  151.8805  135.0455  160.0487 H   0  0  0  0  0  0  0  0  0  0  0  0  # atno 6907 bound_to 6896
  152.2516  133.5216  159.5337 H   0  0  0  0  0  0  0  0  0  0  0  0  # atno 6908 bound_to 6896
  150.7086  134.0868  159.3960 H   0  0  0  0  0  0  0  0  0  0  0  0  # atno 6909 bound_to 6896
  145.3643  140.9496  143.2483 H   0  0  0  0  0  0  0  0  0  0  0  0  # atno 7974 bound_to 7965
  154.4567  140.1972  156.0359 H   0  0  0  0  0  0  0  0  0  0  0  0  # atno 8008 bound_to 7997
  156.0760  140.3278  155.7607 H   0  0  0  0  0  0  0  0  0  0  0  0  # atno 8009 bound_to 7997
  155.5187  140.0568  157.2901 H   0  0  0  0  0  0  0  0  0  0  0  0  # atno 8010 bound_to 7997
  139.5120  144.3220  152.0194 H   0  0  0  0  0  0  0  0  0  0  0  0  # atno 10167 bound_to 10162
  157.4748  131.1082  150.9758 H   0  0  0  0  0  0  0  0  0  0  0  0  # atno 10718 bound_to 10713
  154.3099  135.2757  155.2571 H   0  0  0  0  0  0  0  0  0  0  0  0  # atno 10763 bound_to 10752
  154.4971  135.5818  153.6506 H   0  0  0  0  0  0  0  0  0  0  0  0  # atno 10764 bound_to 10752
  152.9889  135.6148  154.3275 H   0  0  0  0  0  0  0  0  0  0  0  0  # atno 10765 bound_to 10752
  140.9484  134.1099  157.4085 H   0  0  0  0  0  0  0  0  0  0  0  0  # atno 11005 bound_to 11000
  144.8623  139.5159  143.6806 LP  0  0  0  0  0  0  0  0  0  0  0  0  # atno 17320 bound_to 7965
  146.2913  139.7149  142.9158 LP  0  0  0  0  0  0  0  0  0  0  0  0  # atno 17321 bound_to 7965
  140.2661  144.4014  150.6168 LP  0  0  0  0  0  0  0  0  0  0  0  0  # atno 17342 bound_to 10162
  140.6122  143.2170  151.6863 LP  0  0  0  0  0  0  0  0  0  0  0  0  # atno 17343 bound_to 10162
  157.0510  130.5787  149.5370 LP  0  0  0  0  0  0  0  0  0  0  0  0  # atno 17370 bound_to 10713
  156.0091  130.5181  150.7929 LP  0  0  0  0  0  0  0  0  0  0  0  0  # atno 17371 bound_to 10713
  139.8840  135.0058  156.6340 LP  0  0  0  0  0  0  0  0  0  0  0  0  # atno 17394 bound_to 11000
  140.7637  133.8796  155.8438 LP  0  0  0  0  0  0  0  0  0  0  0  0  # atno 17395 bound_to 11000

$$$$
