AV-unprocessed.smi:12|AV-procd|sdf|66|dock2
  -GOLD-   2262015183D 1   1.00000     0.00000
 Structure written by MMmdl.
 41 44  0  0  0  0  0  0  0  0  1 V2000
  151.9670  142.9805  159.2556 C   0  0  0  0  0  0  0  0  0  0  0  0
  151.5895  141.9584  158.1984 C   0  0  0  0  0  0  0  0  0  0  0  0
  150.8429  142.2932  157.1195 C   0  0  0  0  0  0  0  0  0  0  0  0
  150.5278  141.3337  156.1984 N   0  0  0  0  0  0  0  0  0  0  0  0
  150.9963  140.0137  156.3732 C   0  0  0  0  0  0  0  0  0  0  0  0
  151.7139  139.6150  157.3771 N   0  0  0  0  0  0  0  0  0  0  0  0
  152.0560  140.5588  158.3648 C   0  0  0  0  0  0  0  0  0  0  0  0
  152.7286  140.2258  159.3395 O   0  0  0  0  0  0  0  0  0  0  0  0
  150.5859  139.2554  155.3193 O   0  0  0  0  0  0  0  0  0  0  0  0
  149.8388  140.0641  154.4004 C   0  0  1  0  0  0  0  0  0  0  0  0
  148.3825  139.6140  154.3270 C   0  0  2  0  0  0  0  0  0  0  0  0
  148.1112  138.9952  153.0855 O   0  0  0  0  0  0  0  0  0  0  0  0
  147.5952  140.9188  154.4829 C   0  0  1  0  0  0  0  0  0  0  0  0
  146.2045  140.7506  155.1074 C   0  0  0  0  0  0  0  0  0  0  0  0
  145.4914  141.9719  155.0001 O   0  0  0  0  0  0  0  0  0  0  0  0
  145.3816  142.7876  156.0663 C   0  0  0  0  0  0  0  0  0  0  0  0
  145.7864  142.4956  157.1933 O   0  0  0  0  0  0  0  0  0  0  0  0
  144.7212  144.0841  155.7380 C   0  0  0  0  0  0  0  0  0  0  0  0
  144.4046  144.9849  156.7818 C   0  0  0  0  0  0  0  0  0  0  0  0
  143.7850  146.2184  156.5017 C   0  0  0  0  0  0  0  0  0  0  0  0
  143.4732  146.5659  155.1743 C   0  0  0  0  0  0  0  0  0  0  0  0
  143.7804  145.6774  154.1272 C   0  0  0  0  0  0  0  0  0  0  0  0
  144.4007  144.4437  154.4054 C   0  0  0  0  0  0  0  0  0  0  0  0
  148.4141  141.7024  155.3356 O   0  0  0  0  0  0  0  0  0  0  0  0
  149.7408  141.4897  154.9763 C   0  0  1  0  0  0  0  0  0  0  0  0
  151.5603  143.9642  159.0187 H   0  0  0  0  0  0  0  0  0  0  0  0
  153.0511  143.0723  159.3279 H   0  0  0  0  0  0  0  0  0  0  0  0
  151.5805  142.6820  160.2305 H   0  0  0  0  0  0  0  0  0  0  0  0
  150.4895  143.3042  156.9786 H   0  0  0  0  0  0  0  0  0  0  0  0
  150.3258  140.1083  153.4249 H   0  0  0  0  0  0  0  0  0  0  0  0
  148.1550  138.9306  155.1467 H   0  0  0  0  0  0  0  0  0  0  0  0
  148.5527  139.4814  152.4057 H   0  0  0  0  0  0  0  0  0  0  0  0
  147.5228  141.4411  153.5267 H   0  0  0  0  0  0  0  0  0  0  0  0
  145.6574  139.9456  154.6148 H   0  0  0  0  0  0  0  0  0  0  0  0
  146.3037  140.4835  156.1605 H   0  0  0  0  0  0  0  0  0  0  0  0
  144.6351  144.7406  157.8089 H   0  0  0  0  0  0  0  0  0  0  0  0
  143.5493  146.8986  157.3070 H   0  0  0  0  0  0  0  0  0  0  0  0
  142.9991  147.5124  154.9596 H   0  0  0  0  0  0  0  0  0  0  0  0
  143.5405  145.9423  153.1080 H   0  0  0  0  0  0  0  0  0  0  0  0
  144.6227  143.7859  153.5778 H   0  0  0  0  0  0  0  0  0  0  0  0
  150.2096  142.2801  154.3890 H   0  0  0  0  0  0  0  0  0  0  0  0
  1  2  1  0  0  0  0
  1 26  1  0  0  0  0
  1 27  1  0  0  0  0
  1 28  1  0  0  0  0
  2  7  1  0  0  0  0
  2  3  2  0  0  0  0
  3  4  1  0  0  0  0
  3 29  1  0  0  0  0
  4 25  1  0  0  0  0
  4  5  1  0  0  0  0
  5  6  2  0  0  0  0
  5  9  1  0  0  0  0
  6  7  1  0  0  0  0
  7  8  2  0  0  0  0
  9 10  1  0  0  0  0
 10 25  1  0  0  0  0
 10 11  1  0  0  0  0
 10 30  1  0  0  0  0
 11 12  1  0  0  0  0
 11 13  1  0  0  0  0
 11 31  1  0  0  0  0
 12 32  1  0  0  0  0
 13 14  1  0  0  0  0
 13 24  1  0  0  0  0
 13 33  1  0  0  0  0
 14 15  1  0  0  0  0
 14 34  1  0  0  0  0
 14 35  1  0  0  0  0
 15 16  1  0  0  0  0
 16 17  2  0  0  0  0
 16 18  1  0  0  0  0
 18 23  1  0  0  0  0
 18 19  2  0  0  0  0
 19 20  1  0  0  0  0
 19 36  1  0  0  0  0
 20 21  2  0  0  0  0
 20 37  1  0  0  0  0
 21 22  1  0  0  0  0
 21 38  1  0  0  0  0
 22 23  2  0  0  0  0
 22 39  1  0  0  0  0
 23 40  1  0  0  0  0
 24 25  1  0  0  0  0
 25 41  1  0  0  0  0
M  END
> <s_m_source_file>
AV-unprocessed.smi

> <i_m_source_file_index>
12

> <i_lp_mmshare_version>
43012

> <i_f3d_flags>
0

> <s_epik_input>
W0NIM11jKFtjSF0xKWMoPU8pbmMobjEyKU9bQ0BIXTNbQ0BASF0yT1tDQEBIXShbQ0BASF0zW09IXSlbQ0gyXU9DKD1PKWM0W2NIXVtjSF1bY0hdW2NIXVtjSF00

> <s_epik_cmdline>
J2VwaWtfcHl0aG9uJywgJy1waCcsICc3LjAnLCAnLXRuJywgJzgnLCAnLW1hJywgJzIwMCcsICctbWV0YWxfYmluZGluZycsICctaW1hZScsICc8aW5maWxlLm1hZT4nLCAnLW9tYWUnLCAnPG91dGZpbGUubWFlPic=

> <r_lp_tautomer_probability>
0.933681

> <r_epik_Ionization_Penalty>
0.00399549

> <r_epik_Ionization_Penalty_Charging>
3.09373e-09

> <r_epik_Ionization_Penalty_Neutral>
0.00399549

> <r_epik_State_Penalty>
0.00284953

> <r_epik_Charging_Adjusted_Penalty>
0.00284953

> <i_epik_Tot_Q>
0

> <i_epik_Tot_abs_Q>
0

> <r_epik_Metal_State_Penalty>
-0

> <b_epik_Metal_Only>
0

> <s_epik_Chemistry_Notes>
This compound has an ester and may undergo hydrolysis at high or low pH. This compound contains an acetal/aminal-like group ( X-CH(R)-Y where X, Y are N, S, or O) that may be acid/base labile, releasing an aldehyde.

> <s_lp_Force_Field>
OPLS_2005

> <r_lp_Energy>
41.0284

> <b_lp_Chiralities_Consistent>
1

> <s_lp_Variant>
AV-unprocessed.smi:12-6

> <Gold.Version>
5.8.1

> <Gold.Id.Protein>
6NUR|6NUR_protein|mol2

> <Gold.PLP.Fitness>
45.8288

> <Gold.PLP.PLP>
-40.6567

> <Gold.PLP.part.hbond>
-1.7275

> <Gold.PLP.part.metal>
0.0000

> <Gold.PLP.part.buried>
-5.1343

> <Gold.PLP.part.nonpolar>
-34.3431

> <Gold.PLP.part.repulsive>
0.8720

> <Gold.PLP.ligand.clash>
0.0000

> <Gold.PLP.ligand.torsion>
0.4179

> <Gold.PLP.Chemscore.Hbond>
1.0000

> <Gold.PLP.Chemscore.CHOScore>
1.0000

> <Gold.PLP.Chemscore.Metal>
0.0000

> <Gold.Chemscore.Hbonds>
donor molecule, donor type, donor heavy atom, donor atom, acceptor molecule, acceptor atom, score
      L1  H    12    32       P1  7957  1.00
      L1  C     3    29       P1  8028  1.00

> <Gold.PLP.Chemscore.Internal.Correction>
0.0080

> <Gold.Rescore>
     Score         DG    S(hbond)    S(metal)    S(lipo)     H(rot)  DE(clash)    DE(int)     intcor
     12.62     -13.26       1.00        0.00      85.63       2.18       0.25       0.38       ----

> <Gold.Chemscore.Fitness>
12.6229

> <Gold.Chemscore.DG>
-13.2557

> <Gold.Chemscore.ZeroCoef>
-5.4800

> <Gold.Chemscore.Hbond>
0.9994

> <Gold.Chemscore.Metal>
0.0000

> <Gold.Chemscore.Lipo>
85.6291

> <Gold.Chemscore.Internal_Hbond>
0.0000

> <Gold.Chemscore.DEClash>
0.2488

> <Gold.Chemscore.DEInternal>
0.3840

> <Gold.Chemscore.Rot>
2.1800

> <Gold.Chemscore.Internal.Correction>
   9.000000E+99

> <Gold.Chemscore.Hbonds>
donor molecule, donor type, donor heavy atom, donor atom, acceptor molecule, acceptor atom, score
      L1  H    12    32       P1  7957  1.00

> <Gold.Chemscore.Hbond.Weighted>
-3.3379

> <Gold.Chemscore.Metal.Weighted>
-0.0000

> <Gold.Chemscore.Lipo.Weighted>
-10.0186

> <Gold.Chemscore.Internal_Hbond.Weighted>
0.0000

> <Gold.Chemscore.DEClash.Weighted>
0.2488

> <Gold.Chemscore.DEInternal.Weighted>
0.3840

> <Gold.Chemscore.Rot.Weighted>
5.5807

> <Gold.Chemscore.Internal.Correction.Weighted>
   9.000000E+99

> <Gold.Protein.RotatedTorsions>
[ 6907 6896 6895 6894 ] final  104.44 input  -60.11 | X-H torsion
[ 7974 7965 7964 7962 ] final  -35.86 input  175.53 | X-H torsion
[ 8008 7997 7996 7995 ] final  -62.93 input   59.86 | X-H torsion
[ 10167 10162 10161 10158 ] final  103.01 input  -65.29 | X-H torsion
[ 10718 10713 10712 10709 ] final -163.37 input   66.30 | X-H torsion
[ 10763 10752 10751 10750 ] final  -28.66 input  -60.55 | X-H torsion
[ 11005 11000 10999 10996 ] final   84.48 input  -57.11 | X-H torsion

> <Gold.Protein.ActiveResidues>
 VAL166  LYS551  ARG553  GLY616  TRP617  ASP618  TYR619  PRO620  LYS621  CYS622 
 ASP623  PHE694  ASN695  SER759  ASP760  ASP761  ALA762  ILE779  LEU786  VAL792 
 PHE793  MET794  SER795  GLU796  ALA797  LYS798  CYS799  TRP800  GLU811  SER814 

> <Gold.Protein.RotatedAtoms>
  152.5264  133.9676  159.7746 H   0  0  0  0  0  0  0  0  0  0  0  0  # atno 6907 bound_to 6896
  150.9954  133.6100  159.2709 H   0  0  0  0  0  0  0  0  0  0  0  0  # atno 6908 bound_to 6896
  151.3228  135.0829  159.9365 H   0  0  0  0  0  0  0  0  0  0  0  0  # atno 6909 bound_to 6896
  146.0711  140.6209  142.8952 H   0  0  0  0  0  0  0  0  0  0  0  0  # atno 7974 bound_to 7965
  154.4526  140.0985  156.6664 H   0  0  0  0  0  0  0  0  0  0  0  0  # atno 8008 bound_to 7997
  155.5237  140.3479  155.4393 H   0  0  0  0  0  0  0  0  0  0  0  0  # atno 8009 bound_to 7997
  156.0713  140.1350  156.9814 H   0  0  0  0  0  0  0  0  0  0  0  0  # atno 8010 bound_to 7997
  139.7300  144.7038  151.0737 H   0  0  0  0  0  0  0  0  0  0  0  0  # atno 10167 bound_to 10162
  156.6237  130.8901  151.2963 H   0  0  0  0  0  0  0  0  0  0  0  0  # atno 10718 bound_to 10713
  153.7519  135.6925  153.4944 H   0  0  0  0  0  0  0  0  0  0  0  0  # atno 10763 bound_to 10752
  153.1997  135.4441  155.0250 H   0  0  0  0  0  0  0  0  0  0  0  0  # atno 10764 bound_to 10752
  154.8184  135.3410  154.7039 H   0  0  0  0  0  0  0  0  0  0  0  0  # atno 10765 bound_to 10752
  139.8999  134.8219  156.2450 H   0  0  0  0  0  0  0  0  0  0  0  0  # atno 11005 bound_to 11000
  144.7232  140.4441  143.6992 LP  0  0  0  0  0  0  0  0  0  0  0  0  # atno 17320 bound_to 7965
  145.6390  139.1547  143.2926 LP  0  0  0  0  0  0  0  0  0  0  0  0  # atno 17321 bound_to 7965
  140.7769  143.5056  150.9717 LP  0  0  0  0  0  0  0  0  0  0  0  0  # atno 17342 bound_to 10162
  139.8744  143.7152  152.3163 LP  0  0  0  0  0  0  0  0  0  0  0  0  # atno 17343 bound_to 10162
  157.7220  130.9571  150.1478 LP  0  0  0  0  0  0  0  0  0  0  0  0  # atno 17370 bound_to 10713
  156.2291  130.3680  149.8466 LP  0  0  0  0  0  0  0  0  0  0  0  0  # atno 17371 bound_to 10713
  141.0260  133.7015  156.1349 LP  0  0  0  0  0  0  0  0  0  0  0  0  # atno 17394 bound_to 11000
  140.7165  134.4405  157.5578 LP  0  0  0  0  0  0  0  0  0  0  0  0  # atno 17395 bound_to 11000

$$$$
