AV-unprocessed.smi:2009|AV-procd|sdf|8147|dock5
  -GOLD-   2272010383D 1   1.00000     0.00000
 Structure written by MMmdl.
 37 38  0  0  0  0  0  0  0  0  2 V2000
  151.9797  140.0769  159.0020 C   0  0  0  0  0  0  0  0  0  0  0  0
  151.3102  140.6767  157.7582 C   0  0  2  0  0  0  0  0  0  0  0  0
  150.4410  141.9113  158.1070 C   0  0  0  0  0  0  0  0  0  0  0  0
  151.1863  143.0300  158.6773 N   0  0  0  0  0  0  0  0  0  0  0  0
  151.3148  144.3138  158.1837 C   0  0  0  0  0  0  0  0  0  0  0  0
  152.0962  145.0143  159.0568 C   0  0  0  0  0  0  0  0  0  0  0  0
  152.3932  144.0680  160.0763 C   0  0  0  0  0  0  0  0  0  0  0  0
  151.8390  142.8870  159.8555 N   0  0  0  0  0  0  0  0  0  0  0  0
  150.4920  139.6512  157.1249 N   0  5  0  0  0  0  0  0  0  0  0  0
  150.7850  139.2440  155.5825 S   0  0  0  0  0  0  0  0  0  0  0  0
  151.8236  140.0625  154.9354 O   0  0  0  0  0  0  0  0  0  0  0  0
  150.8391  137.7861  155.3853 O   0  0  0  0  0  0  0  0  0  0  0  0
  149.2724  139.7814  154.9133 N   0  0  0  0  0  0  0  0  0  0  0  0
  148.5747  138.8419  154.0101 C   0  0  0  0  0  0  0  0  0  0  0  0
  147.1164  139.2626  153.7624 C   0  0  0  0  0  0  0  0  0  0  0  0
  147.0325  140.6998  153.2441 C   0  0  0  0  0  0  0  0  0  0  0  0
  147.7280  141.6296  154.2405 C   0  0  0  0  0  0  0  0  0  0  0  0
  149.1829  141.1966  154.4830 C   0  0  0  0  0  0  0  0  0  0  0  0
  152.6158  140.8120  159.4952 H   0  0  0  0  0  0  0  0  0  0  0  0
  152.6077  139.2248  158.7388 H   0  0  0  0  0  0  0  0  0  0  0  0
  151.2409  139.7364  159.7284 H   0  0  0  0  0  0  0  0  0  0  0  0
  152.1114  141.0133  157.0986 H   0  0  0  0  0  0  0  0  0  0  0  0
  149.9154  142.2668  157.2194 H   0  0  0  0  0  0  0  0  0  0  0  0
  149.6672  141.6248  158.8206 H   0  0  0  0  0  0  0  0  0  0  0  0
  150.8496  144.6129  157.2565 H   0  0  0  0  0  0  0  0  0  0  0  0
  152.4079  146.0449  158.9780 H   0  0  0  0  0  0  0  0  0  0  0  0
  152.9875  144.2043  160.9676 H   0  0  0  0  0  0  0  0  0  0  0  0
  149.1214  138.7873  153.0680 H   0  0  0  0  0  0  0  0  0  0  0  0
  148.5833  137.8405  154.4396 H   0  0  0  0  0  0  0  0  0  0  0  0
  146.6508  138.5816  153.0497 H   0  0  0  0  0  0  0  0  0  0  0  0
  146.5489  139.1740  154.6899 H   0  0  0  0  0  0  0  0  0  0  0  0
  147.5101  140.7736  152.2664 H   0  0  0  0  0  0  0  0  0  0  0  0
  145.9914  140.9954  153.1133 H   0  0  0  0  0  0  0  0  0  0  0  0
  147.7039  142.6554  153.8720 H   0  0  0  0  0  0  0  0  0  0  0  0
  147.1852  141.6277  155.1866 H   0  0  0  0  0  0  0  0  0  0  0  0
  149.6236  141.8494  155.2347 H   0  0  0  0  0  0  0  0  0  0  0  0
  149.7722  141.3262  153.5746 H   0  0  0  0  0  0  0  0  0  0  0  0
  1  2  1  0  0  0  0
  1 19  1  0  0  0  0
  1 20  1  0  0  0  0
  1 21  1  0  0  0  0
  2  3  1  0  0  0  0
  2  9  1  0  0  0  0
  2 22  1  0  0  0  0
  3  4  1  0  0  0  0
  3 23  1  0  0  0  0
  3 24  1  0  0  0  0
  4  8  1  0  0  0  0
  4  5  1  0  0  0  0
  5  6  2  0  0  0  0
  5 25  1  0  0  0  0
  6  7  1  0  0  0  0
  6 26  1  0  0  0  0
  7  8  2  0  0  0  0
  7 27  1  0  0  0  0
  9 10  1  0  0  0  0
 10 11  2  0  0  0  0
 10 12  2  0  0  0  0
 10 13  1  0  0  0  0
 13 18  1  0  0  0  0
 13 14  1  0  0  0  0
 14 15  1  0  0  0  0
 14 28  1  0  0  0  0
 14 29  1  0  0  0  0
 15 16  1  0  0  0  0
 15 30  1  0  0  0  0
 15 31  1  0  0  0  0
 16 17  1  0  0  0  0
 16 32  1  0  0  0  0
 16 33  1  0  0  0  0
 17 18  1  0  0  0  0
 17 34  1  0  0  0  0
 17 35  1  0  0  0  0
 18 36  1  0  0  0  0
 18 37  1  0  0  0  0
M  CHG  1   9  -1
M  END
> <s_m_source_file>
AV-unprocessed.smi

> <i_m_source_file_index>
2009

> <i_lp_mmshare_version>
43012

> <i_f3d_flags>
0

> <s_epik_input>
bjFbY0hdW2NIXVtjSF1uMVtDSDJdW0NAQEhdKFtDSDNdKVtOSF1TKD1PKSg9TylOMltDSDJdW0NIMl1bQ0gyXVtDSDJdW0NIMl0y

> <s_epik_cmdline>
J2VwaWtfcHl0aG9uJywgJy1waCcsICc3LjAnLCAnLXRuJywgJzgnLCAnLW1hJywgJzIwMCcsICctbWV0YWxfYmluZGluZycsICctaW1hZScsICc8aW5maWxlLm1hZT4nLCAnLW9tYWUnLCAnPG91dGZpbGUubWFlPic=

> <r_lp_tautomer_probability>
1

> <r_epik_Ionization_Penalty>
1.75622

> <r_epik_Ionization_Penalty_Charging>
1.7562

> <r_epik_Ionization_Penalty_Neutral>
2.38826e-05

> <r_epik_State_Penalty>
1.86645

> <r_epik_Charging_Adjusted_Penalty>
3.62264

> <i_epik_Tot_Q>
-1

> <i_epik_Tot_abs_Q>
1

> <r_epik_Metal_State_Penalty>
0.460135

> <b_epik_Metal_Only>
0

> <s_lp_Force_Field>
OPLS_2005

> <r_lp_Energy>
5.98775

> <b_lp_Chiralities_Consistent>
1

> <s_lp_Variant>
AV-unprocessed.smi:2009-3

> <Gold.Version>
5.8.1

> <Gold.Id.Protein>
6NUR|6NUR_protein|mol2

> <Gold.PLP.Fitness>
42.0128

> <Gold.PLP.PLP>
-37.1736

> <Gold.PLP.part.hbond>
-1.0000

> <Gold.PLP.part.metal>
0.0000

> <Gold.PLP.part.buried>
-5.1588

> <Gold.PLP.part.nonpolar>
-31.5015

> <Gold.PLP.part.repulsive>
0.1961

> <Gold.PLP.ligand.clash>
0.0000

> <Gold.PLP.ligand.torsion>
1.2897

> <Gold.PLP.Chemscore.Hbond>
0.9440

> <Gold.PLP.Chemscore.CHOScore>
1.0000

> <Gold.PLP.Chemscore.Metal>
0.0000

> <Gold.Chemscore.Hbonds>
donor molecule, donor type, donor heavy atom, donor atom, acceptor molecule, acceptor atom, score
      P1  H  7989  7998       L1    11  0.93
      L1  C     5    25       P1  8028  1.00

> <Gold.PLP.Chemscore.Internal.Correction>
1.5865

> <Gold.Rescore>
     Score         DG    S(hbond)    S(metal)    S(lipo)     H(rot)  DE(clash)    DE(int)     intcor
     14.13     -15.53       0.98        0.00      92.37       1.57       0.00       1.40       ----

> <Gold.Chemscore.Fitness>
14.1330

> <Gold.Chemscore.DG>
-15.5334

> <Gold.Chemscore.ZeroCoef>
-5.4800

> <Gold.Chemscore.Hbond>
0.9754

> <Gold.Chemscore.Metal>
0.0000

> <Gold.Chemscore.Lipo>
92.3709

> <Gold.Chemscore.Internal_Hbond>
0.0000

> <Gold.Chemscore.DEClash>
0.0048

> <Gold.Chemscore.DEInternal>
1.3955

> <Gold.Chemscore.Rot>
1.5672

> <Gold.Chemscore.Internal.Correction>
   9.000000E+99

> <Gold.Chemscore.Hbonds>
donor molecule, donor type, donor heavy atom, donor atom, acceptor molecule, acceptor atom, score
      P1  H  7989  7998       L1    11  0.89

> <Gold.Chemscore.Hbond.Weighted>
-3.2579

> <Gold.Chemscore.Metal.Weighted>
-0.0000

> <Gold.Chemscore.Lipo.Weighted>
-10.8074

> <Gold.Chemscore.Internal_Hbond.Weighted>
0.0000

> <Gold.Chemscore.DEClash.Weighted>
0.0048

> <Gold.Chemscore.DEInternal.Weighted>
1.3955

> <Gold.Chemscore.Rot.Weighted>
4.0119

> <Gold.Chemscore.Internal.Correction.Weighted>
   9.000000E+99

> <Gold.Protein.RotatedTorsions>
[ 6907 6896 6895 6894 ] final  -32.23 input  -60.11 | X-H torsion
[ 7974 7965 7964 7962 ] final -133.41 input  175.53 | X-H torsion
[ 8008 7997 7996 7995 ] final -137.39 input   59.86 | X-H torsion
[ 10167 10162 10161 10158 ] final -171.53 input  -65.29 | X-H torsion
[ 10718 10713 10712 10709 ] final   29.20 input   66.30 | X-H torsion
[ 10763 10752 10751 10750 ] final  177.14 input  -60.55 | X-H torsion
[ 11005 11000 10999 10996 ] final -167.31 input  -57.11 | X-H torsion

> <Gold.Protein.ActiveResidues>
 VAL166  LYS551  ARG553  GLY616  TRP617  ASP618  TYR619  PRO620  LYS621  CYS622 
 ASP623  PHE694  ASN695  SER759  ASP760  ASP761  ALA762  ILE779  LEU786  VAL792 
 PHE793  MET794  SER795  GLU796  ALA797  LYS798  CYS799  TRP800  GLU811  SER814 

> <Gold.Protein.RotatedAtoms>
  151.0816  134.9861  159.8358 H   0  0  0  0  0  0  0  0  0  0  0  0  # atno 6907 bound_to 6896
  152.5420  134.2175  159.8784 H   0  0  0  0  0  0  0  0  0  0  0  0  # atno 6908 bound_to 6896
  151.2205  133.4461  159.2634 H   0  0  0  0  0  0  0  0  0  0  0  0  # atno 6909 bound_to 6896
  144.9195  140.6997  143.4974 H   0  0  0  0  0  0  0  0  0  0  0  0  # atno 7974 bound_to 7965
  155.4110  140.0512  157.3031 H   0  0  0  0  0  0  0  0  0  0  0  0  # atno 8008 bound_to 7997
  154.4946  140.2133  155.9434 H   0  0  0  0  0  0  0  0  0  0  0  0  # atno 8009 bound_to 7997
  156.1388  140.3158  155.8468 H   0  0  0  0  0  0  0  0  0  0  0  0  # atno 8010 bound_to 7997
  139.5797  144.1452  152.1498 H   0  0  0  0  0  0  0  0  0  0  0  0  # atno 10167 bound_to 10162
  157.2435  130.7080  149.6370 H   0  0  0  0  0  0  0  0  0  0  0  0  # atno 10718 bound_to 10713
  154.4906  135.2779  155.1500 H   0  0  0  0  0  0  0  0  0  0  0  0  # atno 10763 bound_to 10752
  154.3173  135.6217  153.5496 H   0  0  0  0  0  0  0  0  0  0  0  0  # atno 10764 bound_to 10752
  152.9887  135.5734  154.5326 H   0  0  0  0  0  0  0  0  0  0  0  0  # atno 10765 bound_to 10752
  140.5547  134.5393  157.5130 H   0  0  0  0  0  0  0  0  0  0  0  0  # atno 11005 bound_to 11000
  145.3319  139.1757  143.4532 LP  0  0  0  0  0  0  0  0  0  0  0  0  # atno 17320 bound_to 7965
  146.3198  140.3350  142.8643 LP  0  0  0  0  0  0  0  0  0  0  0  0  # atno 17321 bound_to 7965
  140.1002  144.5546  150.6994 LP  0  0  0  0  0  0  0  0  0  0  0  0  # atno 17342 bound_to 10162
  140.7076  143.2480  151.4678 LP  0  0  0  0  0  0  0  0  0  0  0  0  # atno 17343 bound_to 10162
  155.9669  130.4450  150.5486 LP  0  0  0  0  0  0  0  0  0  0  0  0  # atno 17370 bound_to 10713
  157.3354  131.0707  151.1829 LP  0  0  0  0  0  0  0  0  0  0  0  0  # atno 17371 bound_to 10713
  139.9437  134.7740  156.0614 LP  0  0  0  0  0  0  0  0  0  0  0  0  # atno 17394 bound_to 11000
  141.1150  133.6630  156.3073 LP  0  0  0  0  0  0  0  0  0  0  0  0  # atno 17395 bound_to 11000

$$$$
