AV-unprocessed.smi:1261|AV-procd|sdf|5304|dock7
  -GOLD-   22720 4423D 1   1.00000     0.00000
 Structure written by MMmdl.
 49 50  0  0  0  0  0  0  0  0  3 V2000
  144.5065  132.4928  150.0541 C   0  0  0  0  0  0  0  0  0  0  0  0
  145.3123  133.3149  151.0699 C   0  0  1  0  0  0  0  0  0  0  0  0
  144.3993  133.9183  152.1525 C   0  0  0  0  0  0  0  0  0  0  0  0
  145.2055  134.6876  153.2154 C   0  0  2  0  0  0  0  0  0  0  0  0
  145.7210  136.0463  152.7096 C   0  0  0  0  0  0  0  0  0  0  0  0
  146.3379  133.8063  153.7795 C   0  0  0  0  0  0  0  0  0  0  0  0
  147.2070  133.2660  152.7013 N   0  3  1  0  0  0  0  0  0  0  0  0
  148.3838  132.5396  153.2428 C   0  0  0  0  0  0  0  0  0  0  0  0
  149.3781  133.4731  153.9541 C   0  0  0  0  0  0  0  0  0  0  0  0
  149.5207  133.1419  155.4483 C   0  0  0  0  0  0  0  0  0  0  0  0
  148.4033  133.6667  156.2223 N   0  0  0  0  0  0  0  0  0  0  0  0
  148.4112  133.8707  157.5485 C   0  0  0  0  0  0  0  0  0  0  0  0
  149.3923  133.6571  158.2611 O   0  0  0  0  0  0  0  0  0  0  0  0
  147.1155  134.4166  158.1579 C   0  0  0  0  0  0  0  0  0  0  0  0
  147.2128  134.5480  159.6168 N   0  0  0  0  0  0  0  0  0  0  0  0
  147.1180  135.9282  160.0853 N   0  5  0  0  0  0  0  0  0  0  0  0
  147.1619  136.1790  161.4206 C   0  0  0  0  0  0  0  0  0  0  0  0
  147.0746  137.3119  161.8888 O   0  0  0  0  0  0  0  0  0  0  0  0
  147.3206  135.0512  162.3238 C   0  0  0  0  0  0  0  0  0  0  0  0
  147.4174  133.7887  161.8625 C   0  0  0  0  0  0  0  0  0  0  0  0
  147.3661  133.4719  160.4403 C   0  0  0  0  0  0  0  0  0  0  0  0
  147.4511  132.3204  160.0136 O   0  0  0  0  0  0  0  0  0  0  0  0
  146.4247  132.4696  151.7190 C   0  0  0  0  0  0  0  0  0  0  0  0
  144.0048  131.6511  150.5326 H   0  0  0  0  0  0  0  0  0  0  0  0
  145.1519  132.0937  149.2711 H   0  0  0  0  0  0  0  0  0  0  0  0
  143.7436  133.1038  149.5707 H   0  0  0  0  0  0  0  0  0  0  0  0
  145.7839  134.1314  150.5217 H   0  0  0  0  0  0  0  0  0  0  0  0
  143.6526  134.5716  151.6993 H   0  0  0  0  0  0  0  0  0  0  0  0
  143.8437  133.1162  152.6408 H   0  0  0  0  0  0  0  0  0  0  0  0
  144.5248  134.9086  154.0385 H   0  0  0  0  0  0  0  0  0  0  0  0
  146.4418  135.9345  151.9000 H   0  0  0  0  0  0  0  0  0  0  0  0
  146.2106  136.5999  153.5114 H   0  0  0  0  0  0  0  0  0  0  0  0
  144.9013  136.6640  152.3415 H   0  0  0  0  0  0  0  0  0  0  0  0
  146.9325  134.3888  154.4846 H   0  0  0  0  0  0  0  0  0  0  0  0
  145.9141  132.9739  154.3436 H   0  0  0  0  0  0  0  0  0  0  0  0
  148.0422  131.8003  153.9686 H   0  0  0  0  0  0  0  0  0  0  0  0
  148.8775  131.9826  152.4449 H   0  0  0  0  0  0  0  0  0  0  0  0
  150.3584  133.4074  153.4829 H   0  0  0  0  0  0  0  0  0  0  0  0
  149.0498  134.5075  153.8443 H   0  0  0  0  0  0  0  0  0  0  0  0
  149.5505  132.0615  155.5909 H   0  0  0  0  0  0  0  0  0  0  0  0
  150.4615  133.5320  155.8398 H   0  0  0  0  0  0  0  0  0  0  0  0
  147.5456  133.8589  155.7243 H   0  0  0  0  0  0  0  0  0  0  0  0
  146.8853  135.3814  157.7028 H   0  0  0  0  0  0  0  0  0  0  0  0
  146.2827  133.7650  157.8864 H   0  0  0  0  0  0  0  0  0  0  0  0
  147.3632  135.2295  163.3881 H   0  0  0  0  0  0  0  0  0  0  0  0
  147.5352  132.9816  162.5701 H   0  0  0  0  0  0  0  0  0  0  0  0
  145.9966  131.5983  152.2174 H   0  0  0  0  0  0  0  0  0  0  0  0
  147.0789  132.0916  150.9345 H   0  0  0  0  0  0  0  0  0  0  0  0
  147.5718  134.0677  152.2069 H   0  0  0  0  0  0  0  0  0  0  0  0
  1  2  1  0  0  0  0
  1 24  1  0  0  0  0
  1 25  1  0  0  0  0
  1 26  1  0  0  0  0
  2 23  1  0  0  0  0
  2  3  1  0  0  0  0
  2 27  1  0  0  0  0
  3  4  1  0  0  0  0
  3 28  1  0  0  0  0
  3 29  1  0  0  0  0
  4  5  1  0  0  0  0
  4  6  1  0  0  0  0
  4 30  1  0  0  0  0
  5 31  1  0  0  0  0
  5 32  1  0  0  0  0
  5 33  1  0  0  0  0
  6  7  1  0  0  0  0
  6 34  1  0  0  0  0
  6 35  1  0  0  0  0
  7  8  1  0  0  0  0
  7 23  1  0  0  0  0
  7 49  1  0  0  0  0
  8  9  1  0  0  0  0
  8 36  1  0  0  0  0
  8 37  1  0  0  0  0
  9 10  1  0  0  0  0
  9 38  1  0  0  0  0
  9 39  1  0  0  0  0
 10 11  1  0  0  0  0
 10 40  1  0  0  0  0
 10 41  1  0  0  0  0
 11 12  1  0  0  0  0
 11 42  1  0  0  0  0
 12 13  2  0  0  0  0
 12 14  1  0  0  0  0
 14 43  1  0  0  0  0
 14 44  1  0  0  0  0
 14 15  1  0  0  0  0
 15 16  1  0  0  0  0
 15 21  1  0  0  0  0
 16 17  1  0  0  0  0
 17 18  2  0  0  0  0
 17 19  1  0  0  0  0
 19 45  1  0  0  0  0
 19 20  2  0  0  0  0
 20 46  1  0  0  0  0
 20 21  1  0  0  0  0
 21 22  2  0  0  0  0
 23 47  1  0  0  0  0
 23 48  1  0  0  0  0
M  CHG  1   7   1
M  CHG  1  16  -1
M  END
> <s_m_source_file>
AV-unprocessed.smi

> <i_m_source_file_index>
1261

> <i_lp_mmshare_version>
43012

> <i_f3d_flags>
0

> <s_epik_input>
W0NIM11bQ0BASF0xW0NIMl1bQ0BASF0oW0NIM10pW0NIMl1OKFtDSDJdMSlbQ0gyXVtDSDJdW0NIMl1bTkhdQyg9TylbQ0gyXW4yW25IXWMoPU8pW2NIXVtjSF1jMj1P

> <s_epik_cmdline>
J2VwaWtfcHl0aG9uJywgJy1waCcsICc3LjAnLCAnLXRuJywgJzgnLCAnLW1hJywgJzIwMCcsICctbWV0YWxfYmluZGluZycsICctaW1hZScsICc8aW5maWxlLm1hZT4nLCAnLW9tYWUnLCAnPG91dGZpbGUubWFlPic=

> <r_lp_tautomer_probability>
1

> <r_epik_Ionization_Penalty>
0.0955723

> <r_epik_Ionization_Penalty_Charging>
0.0955723

> <r_epik_Ionization_Penalty_Neutral>
2.68632e-08

> <r_epik_State_Penalty>
0.0334406

> <r_epik_Charging_Adjusted_Penalty>
0.129013

> <i_epik_Tot_Q>
0

> <i_epik_Tot_abs_Q>
2

> <r_epik_Metal_State_Penalty>
0.0334406

> <b_epik_Metal_Only>
0

> <s_lp_Force_Field>
OPLS_2005

> <r_lp_Energy>
33.6406

> <b_lp_Chiralities_Consistent>
1

> <s_lp_Variant>
AV-unprocessed.smi:1261-4

> <Gold.Version>
5.8.1

> <Gold.Id.Protein>
6NUR|6NUR_protein|mol2

> <Gold.PLP.Fitness>
48.1746

> <Gold.PLP.PLP>
-36.1074

> <Gold.PLP.part.hbond>
-4.0000

> <Gold.PLP.part.metal>
0.0000

> <Gold.PLP.part.buried>
-3.6194

> <Gold.PLP.part.nonpolar>
-27.3506

> <Gold.PLP.part.repulsive>
0.0119

> <Gold.PLP.ligand.clash>
0.0000

> <Gold.PLP.ligand.torsion>
0.6913

> <Gold.PLP.Chemscore.Hbond>
4.4560

> <Gold.PLP.Chemscore.CHOScore>
0.0000

> <Gold.PLP.Chemscore.Metal>
0.0000

> <Gold.Chemscore.Hbonds>
donor molecule, donor type, donor heavy atom, donor atom, acceptor molecule, acceptor atom, score
      P1  H  6896  6907       L1    13  1.00
      P1  H  6931  6943       L1    18  0.51
      P1  H  6934  6947       L1    18  0.82

> <Gold.PLP.Chemscore.Internal.Correction>
0.0817

> <Gold.Rescore>
     Score         DG    S(hbond)    S(metal)    S(lipo)     H(rot)  DE(clash)    DE(int)     intcor
     17.48     -18.52       3.50        0.00      66.08       2.49       0.21       0.84       ----

> <Gold.Chemscore.Fitness>
17.4765

> <Gold.Chemscore.DG>
-18.5241

> <Gold.Chemscore.ZeroCoef>
-5.4800

> <Gold.Chemscore.Hbond>
3.5021

> <Gold.Chemscore.Metal>
0.0000

> <Gold.Chemscore.Lipo>
66.0776

> <Gold.Chemscore.Internal_Hbond>
0.0000

> <Gold.Chemscore.DEClash>
0.2062

> <Gold.Chemscore.DEInternal>
0.8414

> <Gold.Chemscore.Rot>
2.4938

> <Gold.Chemscore.Internal.Correction>
   9.000000E+99

> <Gold.Chemscore.Hbonds>
donor molecule, donor type, donor heavy atom, donor atom, acceptor molecule, acceptor atom, score
      P1  H  6896  6907       L1    13  1.00
      P1  H  6931  6943       L1    18  0.40
      P1  H  6934  6947       L1    18  0.80

> <Gold.Chemscore.Hbond.Weighted>
-11.6970

> <Gold.Chemscore.Metal.Weighted>
-0.0000

> <Gold.Chemscore.Lipo.Weighted>
-7.7311

> <Gold.Chemscore.Internal_Hbond.Weighted>
0.0000

> <Gold.Chemscore.DEClash.Weighted>
0.2062

> <Gold.Chemscore.DEInternal.Weighted>
0.8414

> <Gold.Chemscore.Rot.Weighted>
6.3840

> <Gold.Chemscore.Internal.Correction.Weighted>
   9.000000E+99

> <Gold.Protein.RotatedTorsions>
[ 6907 6896 6895 6894 ] final -103.39 input  -60.11 | X-H torsion
[ 7974 7965 7964 7962 ] final -178.16 input  175.53 | X-H torsion
[ 8008 7997 7996 7995 ] final   57.81 input   59.86 | X-H torsion
[ 10167 10162 10161 10158 ] final  -78.69 input  -65.29 | X-H torsion
[ 10718 10713 10712 10709 ] final   19.48 input   66.30 | X-H torsion
[ 10763 10752 10751 10750 ] final   24.29 input  -60.55 | X-H torsion
[ 11005 11000 10999 10996 ] final  119.68 input  -57.11 | X-H torsion

> <Gold.Protein.ActiveResidues>
 VAL166  LYS551  ARG553  GLY616  TRP617  ASP618  TYR619  PRO620  LYS621  CYS622 
 ASP623  PHE694  ASN695  SER759  ASP760  ASP761  ALA762  ILE779  LEU786  VAL792 
 PHE793  MET794  SER795  GLU796  ALA797  LYS798  CYS799  TRP800  GLU811  SER814 

> <Gold.Protein.RotatedAtoms>
  150.7238  134.0437  159.3774 H   0  0  0  0  0  0  0  0  0  0  0  0  # atno 6907 bound_to 6896
  151.8411  135.0587  160.0457 H   0  0  0  0  0  0  0  0  0  0  0  0  # atno 6908 bound_to 6896
  152.2862  133.5481  159.5565 H   0  0  0  0  0  0  0  0  0  0  0  0  # atno 6909 bound_to 6896
  144.7130  140.0911  143.6421 H   0  0  0  0  0  0  0  0  0  0  0  0  # atno 7974 bound_to 7965
  155.5398  140.3484  155.4444 H   0  0  0  0  0  0  0  0  0  0  0  0  # atno 8008 bound_to 7997
  156.0659  140.1351  156.9912 H   0  0  0  0  0  0  0  0  0  0  0  0  # atno 8009 bound_to 7997
  154.4503  140.0975  156.6571 H   0  0  0  0  0  0  0  0  0  0  0  0  # atno 8010 bound_to 7997
  140.4660  143.2440  151.8278 H   0  0  0  0  0  0  0  0  0  0  0  0  # atno 10167 bound_to 10162
  157.1110  130.6509  149.5897 H   0  0  0  0  0  0  0  0  0  0  0  0  # atno 10718 bound_to 10713
  153.0775  135.6608  154.0115 H   0  0  0  0  0  0  0  0  0  0  0  0  # atno 10763 bound_to 10752
  153.9746  135.2961  155.3426 H   0  0  0  0  0  0  0  0  0  0  0  0  # atno 10764 bound_to 10752
  154.7166  135.5182  153.8818 H   0  0  0  0  0  0  0  0  0  0  0  0  # atno 10765 bound_to 10752
  139.9155  134.9630  156.7691 H   0  0  0  0  0  0  0  0  0  0  0  0  # atno 11005 bound_to 11000
  145.9619  139.2807  143.1150 LP  0  0  0  0  0  0  0  0  0  0  0  0  # atno 17320 bound_to 7965
  145.9211  140.9115  143.0405 LP  0  0  0  0  0  0  0  0  0  0  0  0  # atno 17321 bound_to 7965
  139.4812  144.4950  151.9135 LP  0  0  0  0  0  0  0  0  0  0  0  0  # atno 17342 bound_to 10162
  140.4036  144.2461  150.5892 LP  0  0  0  0  0  0  0  0  0  0  0  0  # atno 17343 bound_to 10162
  155.9850  130.4878  150.7012 LP  0  0  0  0  0  0  0  0  0  0  0  0  # atno 17370 bound_to 10713
  157.4559  131.0878  151.0797 LP  0  0  0  0  0  0  0  0  0  0  0  0  # atno 17371 bound_to 10713
  140.6635  133.9624  155.7817 LP  0  0  0  0  0  0  0  0  0  0  0  0  # atno 17394 bound_to 11000
  141.0627  134.0323  157.3636 LP  0  0  0  0  0  0  0  0  0  0  0  0  # atno 17395 bound_to 11000

$$$$
