AV-unprocessed.smi:1194|AV-procd|sdf|4993|dock10
  -GOLD-   22720 3593D 1   1.00000     0.00000
 Structure written by MMmdl.
 48 49  0  0  0  0  0  0  0  0  2 V2000
  150.9715  142.0385  157.1735 C   0  0  0  0  0  0  0  0  0  0  0  0
  150.4112  140.7285  157.7388 C   0  0  0  0  0  0  0  0  0  0  0  0
  150.5606  139.5523  156.7547 C   0  0  0  0  0  0  0  0  0  0  0  0
  150.0154  139.8406  155.3434 C   0  0  0  0  0  0  0  0  0  0  0  0
  150.7908  139.7675  154.3885 O   0  0  0  0  0  0  0  0  0  0  0  0
  148.7010  140.1508  155.1871 N   0  0  0  0  0  0  0  0  0  0  0  0
  147.7497  140.3089  156.3072 C   0  0  0  0  0  0  0  0  0  0  0  0
  147.2925  141.7755  156.3948 C   0  0  0  0  0  0  0  0  0  0  0  0
  146.7056  142.2533  155.0561 C   0  0  0  0  0  0  0  0  0  0  0  0
  147.6865  141.9770  153.9028 C   0  0  0  0  0  0  0  0  0  0  0  0
  148.1348  140.4949  153.8599 C   0  0  2  0  0  0  0  0  0  0  0  0
  147.0493  139.5130  153.3674 C   0  0  0  0  0  0  0  0  0  0  0  0
  146.0529  139.2902  154.0553 O   0  0  0  0  0  0  0  0  0  0  0  0
  147.2419  138.9360  152.1707 N   0  0  0  0  0  0  0  0  0  0  0  0
  146.3237  137.9908  151.5540 C   0  0  0  0  0  0  0  0  0  0  0  0
  145.9409  136.8853  152.5462 C   0  0  0  0  0  0  0  0  0  0  0  0
  145.4714  135.6269  151.8426 C   0  0  0  0  0  0  0  0  0  0  0  0
  146.2418  134.4442  151.8976 C   0  0  0  0  0  0  0  0  0  0  0  0
  145.7857  133.2899  151.2272 C   0  0  0  0  0  0  0  0  0  0  0  0
  144.5695  133.3449  150.5161 C   0  0  0  0  0  0  0  0  0  0  0  0
  143.8597  134.4944  150.4853 N   0  3  0  0  0  0  0  0  0  0  0  0
  144.2621  135.6208  151.1140 C   0  0  0  0  0  0  0  0  0  0  0  0
  150.8585  142.8508  157.8918 H   0  0  0  0  0  0  0  0  0  0  0  0
  150.4510  142.3275  156.2600 H   0  0  0  0  0  0  0  0  0  0  0  0
  152.0326  141.9455  156.9408 H   0  0  0  0  0  0  0  0  0  0  0  0
  150.9246  140.4985  158.6736 H   0  0  0  0  0  0  0  0  0  0  0  0
  149.3592  140.8735  157.9892 H   0  0  0  0  0  0  0  0  0  0  0  0
  151.6172  139.2935  156.6747 H   0  0  0  0  0  0  0  0  0  0  0  0
  150.0399  138.6840  157.1608 H   0  0  0  0  0  0  0  0  0  0  0  0
  146.8830  139.6678  156.1456 H   0  0  0  0  0  0  0  0  0  0  0  0
  148.1407  140.0025  157.2751 H   0  0  0  0  0  0  0  0  0  0  0  0
  146.5535  141.8913  157.1881 H   0  0  0  0  0  0  0  0  0  0  0  0
  148.1408  142.4048  156.6672 H   0  0  0  0  0  0  0  0  0  0  0  0
  145.7598  141.7436  154.8684 H   0  0  0  0  0  0  0  0  0  0  0  0
  146.4766  143.3181  155.1058 H   0  0  0  0  0  0  0  0  0  0  0  0
  147.2406  142.2772  152.9538 H   0  0  0  0  0  0  0  0  0  0  0  0
  148.5667  142.6094  154.0275 H   0  0  0  0  0  0  0  0  0  0  0  0
  148.8963  140.4415  153.0812 H   0  0  0  0  0  0  0  0  0  0  0  0
  148.0789  139.1722  151.6575 H   0  0  0  0  0  0  0  0  0  0  0  0
  145.4317  138.5228  151.2191 H   0  0  0  0  0  0  0  0  0  0  0  0
  146.7926  137.5551  150.6701 H   0  0  0  0  0  0  0  0  0  0  0  0
  146.7942  136.6394  153.1799 H   0  0  0  0  0  0  0  0  0  0  0  0
  145.1526  137.2368  153.2134 H   0  0  0  0  0  0  0  0  0  0  0  0
  147.1733  134.4212  152.4445 H   0  0  0  0  0  0  0  0  0  0  0  0
  146.3615  132.3764  151.2569 H   0  0  0  0  0  0  0  0  0  0  0  0
  144.1466  132.5110  149.9747 H   0  0  0  0  0  0  0  0  0  0  0  0
  143.6101  136.4764  151.0135 H   0  0  0  0  0  0  0  0  0  0  0  0
  142.9826  134.5128  149.9641 H   0  0  0  0  0  0  0  0  0  0  0  0
  1  2  1  0  0  0  0
  1 23  1  0  0  0  0
  1 24  1  0  0  0  0
  1 25  1  0  0  0  0
  2  3  1  0  0  0  0
  2 26  1  0  0  0  0
  2 27  1  0  0  0  0
  3  4  1  0  0  0  0
  3 28  1  0  0  0  0
  3 29  1  0  0  0  0
  4  5  2  0  0  0  0
  4  6  1  0  0  0  0
  6 11  1  0  0  0  0
  6  7  1  0  0  0  0
  7  8  1  0  0  0  0
  7 30  1  0  0  0  0
  7 31  1  0  0  0  0
  8  9  1  0  0  0  0
  8 32  1  0  0  0  0
  8 33  1  0  0  0  0
  9 10  1  0  0  0  0
  9 34  1  0  0  0  0
  9 35  1  0  0  0  0
 10 11  1  0  0  0  0
 10 36  1  0  0  0  0
 10 37  1  0  0  0  0
 11 12  1  0  0  0  0
 11 38  1  0  0  0  0
 12 13  2  0  0  0  0
 12 14  1  0  0  0  0
 14 15  1  0  0  0  0
 14 39  1  0  0  0  0
 15 16  1  0  0  0  0
 15 40  1  0  0  0  0
 15 41  1  0  0  0  0
 16 17  1  0  0  0  0
 16 42  1  0  0  0  0
 16 43  1  0  0  0  0
 17 22  1  0  0  0  0
 17 18  2  0  0  0  0
 18 19  1  0  0  0  0
 18 44  1  0  0  0  0
 19 20  2  0  0  0  0
 19 45  1  0  0  0  0
 20 21  1  0  0  0  0
 20 46  1  0  0  0  0
 21 22  2  0  0  0  0
 21 48  1  0  0  0  0
 22 47  1  0  0  0  0
M  CHG  1  21   1
M  END
> <s_m_source_file>
AV-unprocessed.smi

> <i_m_source_file_index>
1194

> <i_lp_mmshare_version>
43012

> <i_f3d_flags>
0

> <s_epik_input>
W0NIM11bQ0gyXVtDSDJdQyg9TylOMVtDSDJdW0NIMl1bQ0gyXVtDSDJdW0NASF0xQyg9TylbTkhdW0NIMl1bQ0gyXWMyW2NIXVtjSF1bY0hdbltjSF0y

> <s_epik_cmdline>
J2VwaWtfcHl0aG9uJywgJy1waCcsICc3LjAnLCAnLXRuJywgJzgnLCAnLW1hJywgJzIwMCcsICctbWV0YWxfYmluZGluZycsICctaW1hZScsICc8aW5maWxlLm1hZT4nLCAnLW9tYWUnLCAnPG91dGZpbGUubWFlPic=

> <r_epik_Ionization_Penalty>
2.26523

> <r_epik_Ionization_Penalty_Charging>
2.26523

> <r_epik_Ionization_Penalty_Neutral>
5.33649e-08

> <r_epik_State_Penalty>
2.41338

> <r_epik_Charging_Adjusted_Penalty>
4.67861

> <i_epik_Tot_Q>
1

> <i_epik_Tot_abs_Q>
1

> <r_epik_Metal_State_Penalty>
2.42628

> <b_epik_Metal_Only>
0

> <s_lp_Force_Field>
OPLS_2005

> <r_lp_Energy>
33.0292

> <b_lp_Chiralities_Consistent>
1

> <s_lp_Variant>
AV-unprocessed.smi:1194-4

> <Gold.Version>
5.8.1

> <Gold.Id.Protein>
6NUR|6NUR_protein|mol2

> <Gold.PLP.Fitness>
47.9346

> <Gold.PLP.PLP>
-36.5481

> <Gold.PLP.part.hbond>
-3.2601

> <Gold.PLP.part.metal>
0.0000

> <Gold.PLP.part.buried>
-1.8284

> <Gold.PLP.part.nonpolar>
-31.4300

> <Gold.PLP.part.repulsive>
0.8042

> <Gold.PLP.ligand.clash>
0.0000

> <Gold.PLP.ligand.torsion>
0.3417

> <Gold.PLP.Chemscore.Hbond>
4.0000

> <Gold.PLP.Chemscore.CHOScore>
0.0000

> <Gold.PLP.Chemscore.Metal>
0.0000

> <Gold.Chemscore.Hbonds>
donor molecule, donor type, donor heavy atom, donor atom, acceptor molecule, acceptor atom, score
      L1  H    14    39       P1  7957  1.00
      L1  H    21    48       P1 10186  2.00
      P1  H  7989  7998       L1     5  1.00

> <Gold.PLP.Chemscore.Internal.Correction>
0.0700

> <Gold.Rescore>
     Score         DG    S(hbond)    S(metal)    S(lipo)     H(rot)  DE(clash)    DE(int)     intcor
     16.27     -19.03       2.70        0.00      78.16       1.80       0.34       2.42       ----

> <Gold.Chemscore.Fitness>
16.2746

> <Gold.Chemscore.DG>
-19.0316

> <Gold.Chemscore.ZeroCoef>
-5.4800

> <Gold.Chemscore.Hbond>
2.6981

> <Gold.Chemscore.Metal>
0.0000

> <Gold.Chemscore.Lipo>
78.1554

> <Gold.Chemscore.Internal_Hbond>
0.0000

> <Gold.Chemscore.DEClash>
0.3390

> <Gold.Chemscore.DEInternal>
2.4179

> <Gold.Chemscore.Rot>
1.7985

> <Gold.Chemscore.Internal.Correction>
   9.000000E+99

> <Gold.Chemscore.Hbonds>
donor molecule, donor type, donor heavy atom, donor atom, acceptor molecule, acceptor atom, score
      L1  H    14    39       P1  7957  0.96
      L1  H    21    48       P1 10186  0.84
      P1  H  7989  7998       L1     5  1.00

> <Gold.Chemscore.Hbond.Weighted>
-9.0115

> <Gold.Chemscore.Metal.Weighted>
-0.0000

> <Gold.Chemscore.Lipo.Weighted>
-9.1442

> <Gold.Chemscore.Internal_Hbond.Weighted>
0.0000

> <Gold.Chemscore.DEClash.Weighted>
0.3390

> <Gold.Chemscore.DEInternal.Weighted>
2.4179

> <Gold.Chemscore.Rot.Weighted>
4.6041

> <Gold.Chemscore.Internal.Correction.Weighted>
   9.000000E+99

> <Gold.Protein.RotatedTorsions>
[ 6907 6896 6895 6894 ] final   96.73 input  -60.11 | X-H torsion
[ 7974 7965 7964 7962 ] final   81.29 input  175.53 | X-H torsion
[ 8008 7997 7996 7995 ] final   44.57 input   59.86 | X-H torsion
[ 10167 10162 10161 10158 ] final  -80.48 input  -65.29 | X-H torsion
[ 10718 10713 10712 10709 ] final  -99.96 input   66.30 | X-H torsion
[ 10763 10752 10751 10750 ] final -138.66 input  -60.55 | X-H torsion
[ 11005 11000 10999 10996 ] final  149.47 input  -57.11 | X-H torsion

> <Gold.Protein.ActiveResidues>
 VAL166  LYS551  ARG553  GLY616  TRP617  ASP618  TYR619  PRO620  LYS621  CYS622 
 ASP623  PHE694  ASN695  SER759  ASP760  ASP761  ALA762  ILE779  LEU786  VAL792 
 PHE793  MET794  SER795  GLU796  ALA797  LYS798  CYS799  TRP800  GLU811  SER814 

> <Gold.Protein.RotatedAtoms>
  152.5432  134.0841  159.8248 H   0  0  0  0  0  0  0  0  0  0  0  0  # atno 6907 bound_to 6896
  151.0939  133.5287  159.2621 H   0  0  0  0  0  0  0  0  0  0  0  0  # atno 6908 bound_to 6896
  151.2068  135.0474  159.8949 H   0  0  0  0  0  0  0  0  0  0  0  0  # atno 6909 bound_to 6896
  145.6401  139.2423  143.2035 H   0  0  0  0  0  0  0  0  0  0  0  0  # atno 7974 bound_to 7965
  155.3215  140.3397  155.4241 H   0  0  0  0  0  0  0  0  0  0  0  0  # atno 8008 bound_to 7997
  156.1906  140.1696  156.8136 H   0  0  0  0  0  0  0  0  0  0  0  0  # atno 8009 bound_to 7997
  154.5438  140.0719  156.8538 H   0  0  0  0  0  0  0  0  0  0  0  0  # atno 8010 bound_to 7997
  140.4499  143.2486  151.8503 H   0  0  0  0  0  0  0  0  0  0  0  0  # atno 10167 bound_to 10162
  156.0149  130.5306  150.6746 H   0  0  0  0  0  0  0  0  0  0  0  0  # atno 10718 bound_to 10713
  154.8631  135.3605  154.5420 H   0  0  0  0  0  0  0  0  0  0  0  0  # atno 10763 bound_to 10752
  153.6042  135.7011  153.5377 H   0  0  0  0  0  0  0  0  0  0  0  0  # atno 10764 bound_to 10752
  153.3265  135.4136  155.1421 H   0  0  0  0  0  0  0  0  0  0  0  0  # atno 10765 bound_to 10752
  140.1047  134.8961  157.1848 H   0  0  0  0  0  0  0  0  0  0  0  0  # atno 11005 bound_to 11000
  146.1287  140.7213  142.9422 LP  0  0  0  0  0  0  0  0  0  0  0  0  # atno 17320 bound_to 7965
  144.7160  140.4212  143.7044 LP  0  0  0  0  0  0  0  0  0  0  0  0  # atno 17321 bound_to 7965
  139.4796  144.5132  151.8904 LP  0  0  0  0  0  0  0  0  0  0  0  0  # atno 17342 bound_to 10162
  140.4219  144.2232  150.5887 LP  0  0  0  0  0  0  0  0  0  0  0  0  # atno 17343 bound_to 10162
  157.4462  131.0867  151.0893 LP  0  0  0  0  0  0  0  0  0  0  0  0  # atno 17370 bound_to 10713
  157.1423  130.6148  149.5558 LP  0  0  0  0  0  0  0  0  0  0  0  0  # atno 17371 bound_to 10713
  140.3172  134.2957  155.7254 LP  0  0  0  0  0  0  0  0  0  0  0  0  # atno 17394 bound_to 11000
  141.2115  133.7687  156.9859 LP  0  0  0  0  0  0  0  0  0  0  0  0  # atno 17395 bound_to 11000

$$$$
