AV-unprocessed.smi:435|AV-procd|sdf|2556|dock4
  -GOLD-   2262022523D 1   1.00000     0.00000
 Structure written by MMmdl.
 44 45  0  0  0  0  0  0  0  0  1 V2000
  146.9319  139.4156  154.7367 C   0  0  0  0  0  0  0  0  0  0  0  0
  148.2186  138.6532  154.9046 C   0  0  0  0  0  0  0  0  0  0  0  0
  148.1214  137.3688  155.0115 N   0  0  0  0  0  0  0  0  0  0  0  0
  149.2397  136.5732  155.1698 N   0  0  0  0  0  0  0  0  0  0  0  0
  148.9461  135.1345  155.2494 C   0  0  0  0  0  0  0  0  0  0  0  0
  147.5733  134.7585  154.6721 C   0  0  0  0  0  0  0  0  0  0  0  0
  146.5364  135.0317  155.2788 O   0  0  0  0  0  0  0  0  0  0  0  0
  147.5889  134.1103  153.4976 N   0  0  0  0  0  0  0  0  0  0  0  0
  146.4093  133.6636  152.7629 C   0  0  2  0  0  0  0  0  0  0  0  0
  146.6351  132.2595  152.1666 C   0  0  0  0  0  0  0  0  0  0  0  0
  145.4322  131.8071  151.3231 C   0  0  0  0  0  0  0  0  0  0  0  0
  145.1053  132.8204  150.2097 C   0  0  1  0  0  0  0  0  0  0  0  0
  143.9014  132.3664  149.3725 C   0  0  0  0  0  0  0  0  0  0  0  0
  144.8781  134.2207  150.8104 C   0  0  0  0  0  0  0  0  0  0  0  0
  146.0805  134.6774  151.6523 C   0  0  0  0  0  0  0  0  0  0  0  0
  150.5196  137.0394  155.2485 C   0  0  0  0  0  0  0  0  0  0  0  0
  151.4874  136.2943  155.4093 O   0  0  0  0  0  0  0  0  0  0  0  0
  150.6226  138.4947  155.1212 C   0  0  0  0  0  0  0  0  0  0  0  0
  151.9463  139.0242  155.1891 C   0  0  0  0  0  0  0  0  0  0  0  0
  153.0145  139.4684  155.2307 N   0  0  0  0  0  0  0  0  0  0  0  0
  149.5336  139.2851  154.9503 C   0  0  0  0  0  0  0  0  0  0  0  0
  149.5897  140.8008  154.8151 C   0  0  0  0  0  0  0  0  0  0  0  0
  146.8512  140.2104  155.4783 H   0  0  0  0  0  0  0  0  0  0  0  0
  146.0595  138.7709  154.8520 H   0  0  0  0  0  0  0  0  0  0  0  0
  146.8789  139.8691  153.7470 H   0  0  0  0  0  0  0  0  0  0  0  0
  149.7255  134.5683  154.7359 H   0  0  0  0  0  0  0  0  0  0  0  0
  148.9774  134.7988  156.2874 H   0  0  0  0  0  0  0  0  0  0  0  0
  148.4860  133.9202  153.0746 H   0  0  0  0  0  0  0  0  0  0  0  0
  145.5599  133.6245  153.4476 H   0  0  0  0  0  0  0  0  0  0  0  0
  147.5319  132.2612  151.5456 H   0  0  0  0  0  0  0  0  0  0  0  0
  146.8127  131.5350  152.9622 H   0  0  0  0  0  0  0  0  0  0  0  0
  145.6396  130.8288  150.8881 H   0  0  0  0  0  0  0  0  0  0  0  0
  144.5642  131.6782  151.9712 H   0  0  0  0  0  0  0  0  0  0  0  0
  145.9667  132.8764  149.5424 H   0  0  0  0  0  0  0  0  0  0  0  0
  143.0002  132.2905  149.9816 H   0  0  0  0  0  0  0  0  0  0  0  0
  144.0818  131.3898  148.9221 H   0  0  0  0  0  0  0  0  0  0  0  0
  143.6987  133.0689  148.5639 H   0  0  0  0  0  0  0  0  0  0  0  0
  144.6957  134.9431  150.0141 H   0  0  0  0  0  0  0  0  0  0  0  0
  143.9819  134.2148  151.4324 H   0  0  0  0  0  0  0  0  0  0  0  0
  145.8711  135.6547  152.0887 H   0  0  0  0  0  0  0  0  0  0  0  0
  146.9465  134.8088  151.0019 H   0  0  0  0  0  0  0  0  0  0  0  0
  150.6098  141.1649  154.6964 H   0  0  0  0  0  0  0  0  0  0  0  0
  149.1684  141.2756  155.7013 H   0  0  0  0  0  0  0  0  0  0  0  0
  149.0260  141.1355  153.9440 H   0  0  0  0  0  0  0  0  0  0  0  0
  1  2  1  0  0  0  0
  1 23  1  0  0  0  0
  1 24  1  0  0  0  0
  1 25  1  0  0  0  0
  2 21  1  0  0  0  0
  2  3  2  0  0  0  0
  3  4  1  0  0  0  0
  4  5  1  0  0  0  0
  4 16  1  0  0  0  0
  5  6  1  0  0  0  0
  5 26  1  0  0  0  0
  5 27  1  0  0  0  0
  6  7  2  0  0  0  0
  6  8  1  0  0  0  0
  8  9  1  0  0  0  0
  8 28  1  0  0  0  0
  9 15  1  0  0  0  0
  9 10  1  0  0  0  0
  9 29  1  0  0  0  0
 10 11  1  0  0  0  0
 10 30  1  0  0  0  0
 10 31  1  0  0  0  0
 11 12  1  0  0  0  0
 11 32  1  0  0  0  0
 11 33  1  0  0  0  0
 12 13  1  0  0  0  0
 12 14  1  0  0  0  0
 12 34  1  0  0  0  0
 13 35  1  0  0  0  0
 13 36  1  0  0  0  0
 13 37  1  0  0  0  0
 14 15  1  0  0  0  0
 14 38  1  0  0  0  0
 14 39  1  0  0  0  0
 15 40  1  0  0  0  0
 15 41  1  0  0  0  0
 16 17  2  0  0  0  0
 16 18  1  0  0  0  0
 18 19  1  0  0  0  0
 18 21  2  0  0  0  0
 19 20  3  0  0  0  0
 21 22  1  0  0  0  0
 22 42  1  0  0  0  0
 22 43  1  0  0  0  0
 22 44  1  0  0  0  0
M  END
> <s_m_source_file>
AV-unprocessed.smi

> <i_m_source_file_index>
435

> <i_lp_mmshare_version>
43012

> <i_f3d_flags>
0

> <s_epik_input>
TiNDYyhjMVtDSDNdKWMoPU8pbihuYzFbQ0gzXSlbQ0gyXUMoPU8pW05IXVtDQEBIXTJbQ0gyXVtDSDJdW0NAQEhdKFtDSDNdKVtDSDJdW0NIMl0y

> <s_epik_cmdline>
J2VwaWtfcHl0aG9uJywgJy1waCcsICc3LjAnLCAnLXRuJywgJzgnLCAnLW1hJywgJzIwMCcsICctbWV0YWxfYmluZGluZycsICctaW1hZScsICc8aW5maWxlLm1hZT4nLCAnLW9tYWUnLCAnPG91dGZpbGUubWFlPic=

> <r_lp_tautomer_probability>
1

> <r_epik_Ionization_Penalty>
1.90703e-08

> <r_epik_Ionization_Penalty_Charging>
2.32563e-11

> <r_epik_Ionization_Penalty_Neutral>
1.90471e-08

> <r_epik_State_Penalty>
-0

> <r_epik_Charging_Adjusted_Penalty>
2.32563e-11

> <i_epik_Tot_Q>
0

> <i_epik_Tot_abs_Q>
0

> <r_epik_Metal_State_Penalty>
-0

> <b_epik_Metal_Only>
0

> <s_lp_Force_Field>
OPLS_2005

> <r_lp_Energy>
23.1706

> <b_lp_Chiralities_Consistent>
1

> <s_lp_Variant>
AV-unprocessed.smi:435-1

> <Gold.Version>
5.8.1

> <Gold.Id.Protein>
6NUR|6NUR_protein|mol2

> <Gold.PLP.Fitness>
40.5932

> <Gold.PLP.PLP>
-36.0055

> <Gold.PLP.part.hbond>
-4.0000

> <Gold.PLP.part.metal>
0.0000

> <Gold.PLP.part.buried>
-1.6120

> <Gold.PLP.part.nonpolar>
-30.4684

> <Gold.PLP.part.repulsive>
0.2930

> <Gold.PLP.ligand.clash>
0.0000

> <Gold.PLP.ligand.torsion>
0.7082

> <Gold.PLP.Chemscore.Hbond>
2.0000

> <Gold.PLP.Chemscore.CHOScore>
0.0000

> <Gold.PLP.Chemscore.Metal>
0.0000

> <Gold.Chemscore.Hbonds>
donor molecule, donor type, donor heavy atom, donor atom, acceptor molecule, acceptor atom, score
      P1  H  7997  8008       L1    20  0.98
      P1  H 10752 10764       L1    17  1.00

> <Gold.PLP.Chemscore.Internal.Correction>
0.0041

> <Gold.Rescore>
     Score         DG    S(hbond)    S(metal)    S(lipo)     H(rot)  DE(clash)    DE(int)     intcor
     15.47     -17.36       1.99        0.00      76.76       1.46       0.03       1.86       ----

> <Gold.Chemscore.Fitness>
15.4695

> <Gold.Chemscore.DG>
-17.3642

> <Gold.Chemscore.ZeroCoef>
-5.4800

> <Gold.Chemscore.Hbond>
1.9896

> <Gold.Chemscore.Metal>
0.0000

> <Gold.Chemscore.Lipo>
76.7561

> <Gold.Chemscore.Internal_Hbond>
0.0000

> <Gold.Chemscore.DEClash>
0.0347

> <Gold.Chemscore.DEInternal>
1.8600

> <Gold.Chemscore.Rot>
1.4615

> <Gold.Chemscore.Internal.Correction>
   9.000000E+99

> <Gold.Chemscore.Hbonds>
donor molecule, donor type, donor heavy atom, donor atom, acceptor molecule, acceptor atom, score
      P1  H  7997  8008       L1    20  0.93
      P1  H 10752 10764       L1    17  1.00

> <Gold.Chemscore.Hbond.Weighted>
-6.6451

> <Gold.Chemscore.Metal.Weighted>
-0.0000

> <Gold.Chemscore.Lipo.Weighted>
-8.9805

> <Gold.Chemscore.Internal_Hbond.Weighted>
0.0000

> <Gold.Chemscore.DEClash.Weighted>
0.0347

> <Gold.Chemscore.DEInternal.Weighted>
1.8600

> <Gold.Chemscore.Rot.Weighted>
3.7414

> <Gold.Chemscore.Internal.Correction.Weighted>
   9.000000E+99

> <Gold.Protein.RotatedTorsions>
[ 6907 6896 6895 6894 ] final    9.49 input  -60.11 | X-H torsion
[ 7974 7965 7964 7962 ] final   32.60 input  175.53 | X-H torsion
[ 8008 7997 7996 7995 ] final    0.98 input   59.86 | X-H torsion
[ 10167 10162 10161 10158 ] final -137.39 input  -65.29 | X-H torsion
[ 10718 10713 10712 10709 ] final  139.39 input   66.30 | X-H torsion
[ 10763 10752 10751 10750 ] final  -38.37 input  -60.55 | X-H torsion
[ 11005 11000 10999 10996 ] final  -61.13 input  -57.11 | X-H torsion

> <Gold.Protein.ActiveResidues>
 VAL166  LYS551  ARG553  GLY616  TRP617  ASP618  TYR619  PRO620  LYS621  CYS622 
 ASP623  PHE694  ASN695  SER759  ASP760  ASP761  ALA762  ILE779  LEU786  VAL792 
 PHE793  MET794  SER795  GLU796  ALA797  LYS798  CYS799  TRP800  GLU811  SER814 

> <Gold.Protein.RotatedAtoms>
  151.7229  135.0890  160.0286 H   0  0  0  0  0  0  0  0  0  0  0  0  # atno 6907 bound_to 6896
  152.3590  133.6269  159.6009 H   0  0  0  0  0  0  0  0  0  0  0  0  # atno 6908 bound_to 6896
  150.7591  133.9370  159.3486 H   0  0  0  0  0  0  0  0  0  0  0  0  # atno 6909 bound_to 6896
  146.1476  139.6505  142.9121 H   0  0  0  0  0  0  0  0  0  0  0  0  # atno 7974 bound_to 7965
  154.6744  140.2619  155.6973 H   0  0  0  0  0  0  0  0  0  0  0  0  # atno 8008 bound_to 7997
  156.2672  140.2823  156.1187 H   0  0  0  0  0  0  0  0  0  0  0  0  # atno 8009 bound_to 7997
  155.1122  140.0376  157.2717 H   0  0  0  0  0  0  0  0  0  0  0  0  # atno 8010 bound_to 7997
  139.8582  143.7111  152.2652 H   0  0  0  0  0  0  0  0  0  0  0  0  # atno 10167 bound_to 10162
  157.4149  131.1032  151.0415 H   0  0  0  0  0  0  0  0  0  0  0  0  # atno 10718 bound_to 10713
  153.9116  135.6792  153.4751 H   0  0  0  0  0  0  0  0  0  0  0  0  # atno 10763 bound_to 10752
  153.1075  135.4798  154.8975 H   0  0  0  0  0  0  0  0  0  0  0  0  # atno 10764 bound_to 10752
  154.7524  135.3188  154.8489 H   0  0  0  0  0  0  0  0  0  0  0  0  # atno 10765 bound_to 10752
  141.1313  133.6627  156.5328 H   0  0  0  0  0  0  0  0  0  0  0  0  # atno 11005 bound_to 11000
  145.4901  141.0438  143.2598 LP  0  0  0  0  0  0  0  0  0  0  0  0  # atno 17320 bound_to 7965
  144.7865  139.6417  143.7132 LP  0  0  0  0  0  0  0  0  0  0  0  0  # atno 17321 bound_to 7965
  139.7399  144.7562  151.0669 LP  0  0  0  0  0  0  0  0  0  0  0  0  # atno 17342 bound_to 10162
  140.7778  143.4985  150.9802 LP  0  0  0  0  0  0  0  0  0  0  0  0  # atno 17343 bound_to 10162
  157.1367  130.6125  149.5544 LP  0  0  0  0  0  0  0  0  0  0  0  0  # atno 17370 bound_to 10713
  155.9862  130.4895  150.7067 LP  0  0  0  0  0  0  0  0  0  0  0  0  # atno 17371 bound_to 10713
  140.4202  134.7194  157.4885 LP  0  0  0  0  0  0  0  0  0  0  0  0  # atno 17394 bound_to 11000
  140.0365  134.6329  155.9036 LP  0  0  0  0  0  0  0  0  0  0  0  0  # atno 17395 bound_to 11000

$$$$
