AV-unprocessed.smi:1047|AV-procd|sdf|4580|dock2
  -GOLD-   22720 3 43D 1   1.00000     0.00000
 Structure written by MMmdl.
 58 60  0  0  0  0  0  0  0  0  4 V2000
  145.5682  134.4809  150.7513 C   0  0  0  0  0  0  0  0  0  0  0  0
  144.3385  135.3421  151.0737 C   0  0  0  0  0  0  0  0  0  0  0  0
  144.5967  136.3253  152.1555 N   0  3  1  0  0  0  0  0  0  0  0  0
  144.8490  135.6708  153.4617 C   0  0  0  0  0  0  0  0  0  0  0  0
  145.0474  136.7242  154.5646 C   0  0  0  0  0  0  0  0  0  0  0  0
  146.1185  137.5919  154.2126 O   0  0  0  0  0  0  0  0  0  0  0  0
  145.8678  138.2914  152.9983 C   0  0  1  0  0  0  0  0  0  0  0  0
  147.0047  139.2997  152.7581 C   0  0  0  0  0  0  0  0  0  0  0  0
  148.3371  138.7014  152.9836 N   0  3  0  0  0  0  0  0  0  0  0  0
  148.7369  138.6370  154.4035 C   0  0  0  0  0  0  0  0  0  0  0  0
  150.2646  138.5039  154.5453 C   0  0  2  0  0  0  0  0  0  0  0  0
  150.6287  137.1600  154.3046 O   0  0  0  0  0  0  0  0  0  0  0  0
  150.8044  138.8948  155.9356 C   0  0  0  0  0  0  0  0  0  0  0  0
  150.6893  140.3341  156.2107 N   0  0  0  0  0  0  0  0  0  0  0  0
  150.0866  141.3081  155.4751 C   0  0  0  0  0  0  0  0  0  0  0  0
  150.2525  142.4860  156.1371 N   0  3  0  0  0  0  0  0  0  0  0  0
  150.9760  142.2636  157.3102 C   0  0  0  0  0  0  0  0  0  0  0  0
  151.3900  143.1439  158.3027 C   0  0  0  0  0  0  0  0  0  0  0  0
  152.1202  142.6006  159.3834 C   0  0  0  0  0  0  0  0  0  0  0  0
  152.5897  143.5368  160.4842 C   0  0  0  0  0  0  0  0  0  0  0  0
  152.4103  141.2130  159.4435 C   0  0  0  0  0  0  0  0  0  0  0  0
  153.1952  140.6391  160.6109 C   0  0  0  0  0  0  0  0  0  0  0  0
  151.9814  140.3340  158.4232 C   0  0  0  0  0  0  0  0  0  0  0  0
  151.2634  140.8853  157.3637 C   0  0  0  0  0  0  0  0  0  0  0  0
  145.6843  137.2854  151.8418 C   0  0  0  0  0  0  0  0  0  0  0  0
  145.3730  133.8439  149.8883 H   0  0  0  0  0  0  0  0  0  0  0  0
  145.8385  133.8257  151.5788 H   0  0  0  0  0  0  0  0  0  0  0  0
  146.4335  135.1004  150.5139 H   0  0  0  0  0  0  0  0  0  0  0  0
  144.0602  135.8799  150.1664 H   0  0  0  0  0  0  0  0  0  0  0  0
  143.4861  134.7126  151.3334 H   0  0  0  0  0  0  0  0  0  0  0  0
  144.0091  135.0250  153.7214 H   0  0  0  0  0  0  0  0  0  0  0  0
  145.7323  135.0342  153.3888 H   0  0  0  0  0  0  0  0  0  0  0  0
  144.1335  137.2991  154.7233 H   0  0  0  0  0  0  0  0  0  0  0  0
  145.2842  136.2374  155.5108 H   0  0  0  0  0  0  0  0  0  0  0  0
  144.9438  138.8615  153.1144 H   0  0  0  0  0  0  0  0  0  0  0  0
  146.9477  139.6812  151.7379 H   0  0  0  0  0  0  0  0  0  0  0  0
  146.8848  140.1553  153.4241 H   0  0  0  0  0  0  0  0  0  0  0  0
  148.3361  137.7618  152.6113 H   0  0  0  0  0  0  0  0  0  0  0  0
  148.3912  139.5518  154.8851 H   0  0  0  0  0  0  0  0  0  0  0  0
  148.2327  137.8047  154.8970 H   0  0  0  0  0  0  0  0  0  0  0  0
  150.7532  139.1233  153.7918 H   0  0  0  0  0  0  0  0  0  0  0  0
  150.7380  137.0345  153.3737 H   0  0  0  0  0  0  0  0  0  0  0  0
  150.3118  138.3303  156.7274 H   0  0  0  0  0  0  0  0  0  0  0  0
  151.8649  138.6475  156.0030 H   0  0  0  0  0  0  0  0  0  0  0  0
  149.5716  141.1719  154.5348 H   0  0  0  0  0  0  0  0  0  0  0  0
  151.1648  144.1994  158.2505 H   0  0  0  0  0  0  0  0  0  0  0  0
  153.6710  143.4725  160.6096 H   0  0  0  0  0  0  0  0  0  0  0  0
  152.1150  143.2809  161.4318 H   0  0  0  0  0  0  0  0  0  0  0  0
  152.3436  144.5745  160.2574 H   0  0  0  0  0  0  0  0  0  0  0  0
  153.2700  139.5531  160.5468 H   0  0  0  0  0  0  0  0  0  0  0  0
  152.7128  140.8825  161.5577 H   0  0  0  0  0  0  0  0  0  0  0  0
  154.2077  141.0435  160.6236 H   0  0  0  0  0  0  0  0  0  0  0  0
  152.2064  139.2791  158.4735 H   0  0  0  0  0  0  0  0  0  0  0  0
  146.6080  136.7328  151.6627 H   0  0  0  0  0  0  0  0  0  0  0  0
  145.4552  137.8304  150.9265 H   0  0  0  0  0  0  0  0  0  0  0  0
  149.0272  139.2437  152.4842 H   0  0  0  0  0  0  0  0  0  0  0  0
  143.7476  136.8616  152.2661 H   0  0  0  0  0  0  0  0  0  0  0  0
  149.9017  143.3766  155.8071 H   0  0  0  0  0  0  0  0  0  0  0  0
  1  2  1  0  0  0  0
  1 26  1  0  0  0  0
  1 27  1  0  0  0  0
  1 28  1  0  0  0  0
  2  3  1  0  0  0  0
  2 29  1  0  0  0  0
  2 30  1  0  0  0  0
  3 25  1  0  0  0  0
  3  4  1  0  0  0  0
  3 57  1  0  0  0  0
  4  5  1  0  0  0  0
  4 31  1  0  0  0  0
  4 32  1  0  0  0  0
  5  6  1  0  0  0  0
  5 33  1  0  0  0  0
  5 34  1  0  0  0  0
  6  7  1  0  0  0  0
  7  8  1  0  0  0  0
  7 25  1  0  0  0  0
  7 35  1  0  0  0  0
  8  9  1  0  0  0  0
  8 36  1  0  0  0  0
  8 37  1  0  0  0  0
  9 10  1  0  0  0  0
  9 38  1  0  0  0  0
  9 56  1  0  0  0  0
 10 11  1  0  0  0  0
 10 39  1  0  0  0  0
 10 40  1  0  0  0  0
 11 12  1  0  0  0  0
 11 13  1  0  0  0  0
 11 41  1  0  0  0  0
 12 42  1  0  0  0  0
 13 14  1  0  0  0  0
 13 43  1  0  0  0  0
 13 44  1  0  0  0  0
 14 24  1  0  0  0  0
 14 15  1  0  0  0  0
 15 16  2  0  0  0  0
 15 45  1  0  0  0  0
 16 17  1  0  0  0  0
 16 58  1  0  0  0  0
 17 24  2  0  0  0  0
 17 18  1  0  0  0  0
 18 19  2  0  0  0  0
 18 46  1  0  0  0  0
 19 20  1  0  0  0  0
 19 21  1  0  0  0  0
 20 47  1  0  0  0  0
 20 48  1  0  0  0  0
 20 49  1  0  0  0  0
 21 22  1  0  0  0  0
 21 23  2  0  0  0  0
 22 50  1  0  0  0  0
 22 51  1  0  0  0  0
 22 52  1  0  0  0  0
 23 24  1  0  0  0  0
 23 53  1  0  0  0  0
 25 54  1  0  0  0  0
 25 55  1  0  0  0  0
M  CHG  1   3   1
M  CHG  1   9   1
M  CHG  1  16   1
M  END
> <s_m_source_file>
AV-unprocessed.smi

> <i_m_source_file_index>
1047

> <i_lp_mmshare_version>
43012

> <i_f3d_flags>
0

> <s_epik_input>
W0NIM11bQ0gyXU4xW0NIMl1bQ0gyXU9bQ0BIXShbQ0gyXTEpW0NIMl1bTkhdW0NIMl1bQ0BIXShbT0hdKVtDSDJdbihbY0hdbjIpYyhjMjMpW2NIXWMoW0NIM10pYyhbY0hdMylbQ0gzXQ==

> <s_epik_cmdline>
J2VwaWtfcHl0aG9uJywgJy1waCcsICc3LjAnLCAnLXRuJywgJzgnLCAnLW1hJywgJzIwMCcsICctbWV0YWxfYmluZGluZycsICctaW1hZScsICc8aW5maWxlLm1hZT4nLCAnLW9tYWUnLCAnPG91dGZpbGUubWFlPic=

> <r_epik_Ionization_Penalty>
1.6114

> <r_epik_Ionization_Penalty_Charging>
1.61139

> <r_epik_Ionization_Penalty_Neutral>
5.04732e-06

> <r_epik_State_Penalty>
1.63724

> <r_epik_Charging_Adjusted_Penalty>
3.24864

> <i_epik_Tot_Q>
3

> <i_epik_Tot_abs_Q>
3

> <r_epik_Metal_State_Penalty>
5.64594

> <b_epik_Metal_Only>
0

> <s_lp_Force_Field>
OPLS_2005

> <r_lp_Energy>
43.5462

> <b_lp_Chiralities_Consistent>
1

> <s_lp_Variant>
AV-unprocessed.smi:1047-21

> <Gold.Version>
5.8.1

> <Gold.Id.Protein>
6NUR|6NUR_protein|mol2

> <Gold.PLP.Fitness>
65.9569

> <Gold.PLP.PLP>
-48.9750

> <Gold.PLP.part.hbond>
-4.7495

> <Gold.PLP.part.metal>
0.0000

> <Gold.PLP.part.buried>
-5.1768

> <Gold.PLP.part.nonpolar>
-39.6949

> <Gold.PLP.part.repulsive>
0.3120

> <Gold.PLP.ligand.clash>
0.0000

> <Gold.PLP.ligand.torsion>
0.5891

> <Gold.PLP.Chemscore.Hbond>
5.9750

> <Gold.PLP.Chemscore.CHOScore>
0.0000

> <Gold.PLP.Chemscore.Metal>
0.0000

> <Gold.Chemscore.Hbonds>
donor molecule, donor type, donor heavy atom, donor atom, acceptor molecule, acceptor atom, score
      L1  H     9    38       P1  7948  2.00
      L1  H     9    56       P1  7957  1.00
      L1  H    12    42       P1  7949  0.41
      L1  H    16    58       P1  8028  2.00

> <Gold.PLP.Chemscore.Internal.Correction>
0.2351

> <Gold.Rescore>
     Score         DG    S(hbond)    S(metal)    S(lipo)     H(rot)  DE(clash)    DE(int)     intcor
     21.83     -24.08       3.31        0.00     125.52       2.78       0.12       2.13       ----

> <Gold.Chemscore.Fitness>
21.8261

> <Gold.Chemscore.DG>
-24.0757

> <Gold.Chemscore.ZeroCoef>
-5.4800

> <Gold.Chemscore.Hbond>
3.3052

> <Gold.Chemscore.Metal>
0.0000

> <Gold.Chemscore.Lipo>
125.5154

> <Gold.Chemscore.Internal_Hbond>
0.0000

> <Gold.Chemscore.DEClash>
0.1205

> <Gold.Chemscore.DEInternal>
2.1290

> <Gold.Chemscore.Rot>
2.7848

> <Gold.Chemscore.Internal.Correction>
   9.000000E+99

> <Gold.Chemscore.Hbonds>
donor molecule, donor type, donor heavy atom, donor atom, acceptor molecule, acceptor atom, score
      L1  H     9    38       P1  7948  0.99
      L1  H     9    56       P1  7957  0.97
      L1  H    12    42       P1  7949  0.04
      L1  H    16    58       P1  8028  1.00

> <Gold.Chemscore.Hbond.Weighted>
-11.0395

> <Gold.Chemscore.Metal.Weighted>
-0.0000

> <Gold.Chemscore.Lipo.Weighted>
-14.6853

> <Gold.Chemscore.Internal_Hbond.Weighted>
0.0000

> <Gold.Chemscore.DEClash.Weighted>
0.1205

> <Gold.Chemscore.DEInternal.Weighted>
2.1290

> <Gold.Chemscore.Rot.Weighted>
7.1291

> <Gold.Chemscore.Internal.Correction.Weighted>
   9.000000E+99

> <Gold.Protein.RotatedTorsions>
[ 6907 6896 6895 6894 ] final  162.70 input  -60.11 | X-H torsion
[ 7974 7965 7964 7962 ] final  -87.52 input  175.53 | X-H torsion
[ 8008 7997 7996 7995 ] final -138.37 input   59.86 | X-H torsion
[ 10167 10162 10161 10158 ] final  102.53 input  -65.29 | X-H torsion
[ 10718 10713 10712 10709 ] final   94.80 input   66.30 | X-H torsion
[ 10763 10752 10751 10750 ] final  177.03 input  -60.55 | X-H torsion
[ 11005 11000 10999 10996 ] final  -43.97 input  -57.11 | X-H torsion

> <Gold.Protein.ActiveResidues>
 VAL166  LYS551  ARG553  GLY616  TRP617  ASP618  TYR619  PRO620  LYS621  CYS622 
 ASP623  PHE694  ASN695  SER759  ASP760  ASP761  ALA762  ILE779  LEU786  VAL792 
 PHE793  MET794  SER795  GLU796  ALA797  LYS798  CYS799  TRP800  GLU811  SER814 

> <Gold.Protein.RotatedAtoms>
  151.9365  133.3625  159.3949 H   0  0  0  0  0  0  0  0  0  0  0  0  # atno 6907 bound_to 6896
  150.7007  134.4484  159.5334 H   0  0  0  0  0  0  0  0  0  0  0  0  # atno 6908 bound_to 6896
  152.2133  134.8481  160.0545 H   0  0  0  0  0  0  0  0  0  0  0  0  # atno 6909 bound_to 6896
  145.4654  140.9560  143.1946 H   0  0  0  0  0  0  0  0  0  0  0  0  # atno 7974 bound_to 7965
  155.4272  140.0522  157.3021 H   0  0  0  0  0  0  0  0  0  0  0  0  # atno 8008 bound_to 7997
  154.4876  140.2107  155.9579 H   0  0  0  0  0  0  0  0  0  0  0  0  # atno 8009 bound_to 7997
  156.1297  140.3174  155.8335 H   0  0  0  0  0  0  0  0  0  0  0  0  # atno 8010 bound_to 7997
  139.7342  144.7028  151.0675 H   0  0  0  0  0  0  0  0  0  0  0  0  # atno 10167 bound_to 10162
  157.6945  131.0524  150.4242 H   0  0  0  0  0  0  0  0  0  0  0  0  # atno 10718 bound_to 10713
  154.4890  135.2778  155.1512 H   0  0  0  0  0  0  0  0  0  0  0  0  # atno 10763 bound_to 10752
  154.3191  135.6213  153.5503 H   0  0  0  0  0  0  0  0  0  0  0  0  # atno 10764 bound_to 10752
  152.9885  135.5738  154.5307 H   0  0  0  0  0  0  0  0  0  0  0  0  # atno 10765 bound_to 10752
  141.0420  133.6776  156.2808 H   0  0  0  0  0  0  0  0  0  0  0  0  # atno 11005 bound_to 11000
  144.7977  139.6201  143.7085 LP  0  0  0  0  0  0  0  0  0  0  0  0  # atno 17320 bound_to 7965
  146.2427  139.6035  142.9480 LP  0  0  0  0  0  0  0  0  0  0  0  0  # atno 17321 bound_to 7965
  140.7776  143.5005  150.9778 LP  0  0  0  0  0  0  0  0  0  0  0  0  # atno 17342 bound_to 10162
  139.8693  143.7213  152.3167 LP  0  0  0  0  0  0  0  0  0  0  0  0  # atno 17343 bound_to 10162
  156.4614  130.4033  149.6574 LP  0  0  0  0  0  0  0  0  0  0  0  0  # atno 17370 bound_to 10713
  156.3688  130.7519  151.2500 LP  0  0  0  0  0  0  0  0  0  0  0  0  # atno 17371 bound_to 10713
  140.6217  134.5354  157.5548 LP  0  0  0  0  0  0  0  0  0  0  0  0  # atno 17394 bound_to 11000
  139.9283  134.8014  156.1005 LP  0  0  0  0  0  0  0  0  0  0  0  0  # atno 17395 bound_to 11000

$$$$
