AV-unprocessed.smi:1403|AV-procd|sdf|5697|dock3
  -GOLD-   22720 5323D 1   1.00000     0.00000
 Structure written by MMmdl.
 36 37  0  0  0  0  0  0  0  0  1 V2000
  152.6351  138.3441  154.3949 C   0  0  0  0  0  0  0  0  0  0  0  0
  151.9808  138.7514  155.7261 C   0  0  2  0  0  0  0  0  0  0  0  0
  150.9088  137.8133  156.0480 N   0  0  0  0  0  0  0  0  0  0  0  0
  151.0613  136.4971  156.2598 C   0  0  0  0  0  0  0  0  0  0  0  0
  152.1447  135.9184  156.1692 O   0  0  0  0  0  0  0  0  0  0  0  0
  149.7866  135.7132  156.6000 C   0  0  0  0  0  0  0  0  0  0  0  0
  149.6339  134.5016  155.7821 N   0  0  0  0  0  0  0  0  0  0  0  0
  149.4329  134.5989  154.4125 C   0  0  0  0  0  0  0  0  0  0  0  0
  149.2965  133.5236  153.6008 C   0  0  0  0  0  0  0  0  0  0  0  0
  149.3563  132.1724  154.1482 C   0  0  0  0  0  0  0  0  0  0  0  0
  149.2415  131.1371  153.4960 O   0  0  0  0  0  0  0  0  0  0  0  0
  149.5620  132.1162  155.5292 N   0  0  0  0  0  0  0  0  0  0  0  0
  149.7059  133.2202  156.3709 C   0  0  0  0  0  0  0  0  0  0  0  0
  149.8884  133.0584  157.5769 O   0  0  0  0  0  0  0  0  0  0  0  0
  151.4066  140.1810  155.6878 C   0  0  2  0  0  0  0  0  0  0  0  0
  150.4843  140.5292  156.8591 C   0  0  0  0  0  0  0  0  0  0  0  0
  149.5980  141.5927  156.2538 C   0  0  0  0  0  0  0  0  0  0  0  0
  149.3986  141.0526  154.8428 C   0  0  0  0  0  0  0  0  0  0  0  0
  150.6016  140.3606  154.5219 O   0  0  0  0  0  0  0  0  0  0  0  0
  149.6131  131.2015  155.9532 H   0  0  0  0  0  0  0  0  0  0  0  0
  153.4706  138.9982  154.1459 H   0  0  0  0  0  0  0  0  0  0  0  0
  151.9211  138.3879  153.5718 H   0  0  0  0  0  0  0  0  0  0  0  0
  153.0255  137.3270  154.4431 H   0  0  0  0  0  0  0  0  0  0  0  0
  152.7386  138.7145  156.5109 H   0  0  0  0  0  0  0  0  0  0  0  0
  149.9813  138.2013  156.1418 H   0  0  0  0  0  0  0  0  0  0  0  0
  149.7731  135.4543  157.6610 H   0  0  0  0  0  0  0  0  0  0  0  0
  148.9342  136.3787  156.4563 H   0  0  0  0  0  0  0  0  0  0  0  0
  149.3860  135.5804  153.9625 H   0  0  0  0  0  0  0  0  0  0  0  0
  149.1435  133.6640  152.5405 H   0  0  0  0  0  0  0  0  0  0  0  0
  152.2149  140.9129  155.6427 H   0  0  0  0  0  0  0  0  0  0  0  0
  149.8825  139.6661  157.1474 H   0  0  0  0  0  0  0  0  0  0  0  0
  151.0263  140.8772  157.7391 H   0  0  0  0  0  0  0  0  0  0  0  0
  148.6613  141.7322  156.7940 H   0  0  0  0  0  0  0  0  0  0  0  0
  150.1240  142.5478  156.2230 H   0  0  0  0  0  0  0  0  0  0  0  0
  148.5738  140.3392  154.8218 H   0  0  0  0  0  0  0  0  0  0  0  0
  149.1845  141.8398  154.1197 H   0  0  0  0  0  0  0  0  0  0  0  0
  1  2  1  0  0  0  0
  1 21  1  0  0  0  0
  1 22  1  0  0  0  0
  1 23  1  0  0  0  0
  2  3  1  0  0  0  0
  2 15  1  0  0  0  0
  2 24  1  0  0  0  0
  3  4  1  0  0  0  0
  3 25  1  0  0  0  0
  4  5  2  0  0  0  0
  4  6  1  0  0  0  0
  6  7  1  0  0  0  0
  6 26  1  0  0  0  0
  6 27  1  0  0  0  0
  7 13  1  0  0  0  0
  7  8  1  0  0  0  0
  8  9  2  0  0  0  0
  8 28  1  0  0  0  0
  9 10  1  0  0  0  0
  9 29  1  0  0  0  0
 10 11  2  0  0  0  0
 10 12  1  0  0  0  0
 12 20  1  0  0  0  0
 12 13  1  0  0  0  0
 13 14  2  0  0  0  0
 15 19  1  0  0  0  0
 15 16  1  0  0  0  0
 15 30  1  0  0  0  0
 16 17  1  0  0  0  0
 16 31  1  0  0  0  0
 16 32  1  0  0  0  0
 17 18  1  0  0  0  0
 17 33  1  0  0  0  0
 17 34  1  0  0  0  0
 18 19  1  0  0  0  0
 18 35  1  0  0  0  0
 18 36  1  0  0  0  0
M  END
> <s_m_source_file>
AV-unprocessed.smi

> <i_m_source_file_index>
1403

> <i_lp_mmshare_version>
43012

> <i_f3d_flags>
0

> <s_epik_input>
TzFbQ0gyXVtDSDJdW0NIMl1bQ0BIXTFbQ0BIXShbQ0gzXSlbTkhdQyg9TylbQ0gyXW4yW2NIXVtjSF1jKD1PKVtuSF1jMj1P

> <s_epik_cmdline>
J2VwaWtfcHl0aG9uJywgJy1waCcsICc3LjAnLCAnLXRuJywgJzgnLCAnLW1hJywgJzIwMCcsICctbWV0YWxfYmluZGluZycsICctaW1hZScsICc8aW5maWxlLm1hZT4nLCAnLW9tYWUnLCAnPG91dGZpbGUubWFlPic=

> <r_lp_tautomer_probability>
0.999537

> <r_epik_Ionization_Penalty>
0.00331407

> <r_epik_Ionization_Penalty_Charging>
0.00331405

> <r_epik_Ionization_Penalty_Neutral>
2.30132e-08

> <r_epik_State_Penalty>
0.00234266

> <r_epik_Charging_Adjusted_Penalty>
0.00565671

> <i_epik_Tot_Q>
0

> <i_epik_Tot_abs_Q>
0

> <r_epik_Metal_State_Penalty>
0.365604

> <b_epik_Metal_Only>
0

> <s_lp_Force_Field>
OPLS_2005

> <r_lp_Energy>
18.7727

> <b_lp_Chiralities_Consistent>
1

> <s_lp_Variant>
AV-unprocessed.smi:1403-1

> <Gold.Version>
5.8.1

> <Gold.Id.Protein>
6NUR|6NUR_protein|mol2

> <Gold.PLP.Fitness>
41.3962

> <Gold.PLP.PLP>
-30.0313

> <Gold.PLP.part.hbond>
-2.8923

> <Gold.PLP.part.metal>
0.0000

> <Gold.PLP.part.buried>
-2.1927

> <Gold.PLP.part.nonpolar>
-24.3302

> <Gold.PLP.part.repulsive>
0.2400

> <Gold.PLP.ligand.clash>
0.0000

> <Gold.PLP.ligand.torsion>
0.3276

> <Gold.PLP.Chemscore.Hbond>
3.0000

> <Gold.PLP.Chemscore.CHOScore>
1.0000

> <Gold.PLP.Chemscore.Metal>
0.0000

> <Gold.Chemscore.Hbonds>
donor molecule, donor type, donor heavy atom, donor atom, acceptor molecule, acceptor atom, score
      P1  H  6896  6907       L1    14  1.00
      P1  H  7989  7998       L1    19  1.00
      P1  H 10752 10764       L1     5  1.00
      L1  C     8    28       P1  7948  1.00

> <Gold.PLP.Chemscore.Internal.Correction>
0.0201

> <Gold.Rescore>
     Score         DG    S(hbond)    S(metal)    S(lipo)     H(rot)  DE(clash)    DE(int)     intcor
     15.60     -16.20       2.90        0.00      53.35       2.04       0.01       0.59       ----

> <Gold.Chemscore.Fitness>
15.6024

> <Gold.Chemscore.DG>
-16.2025

> <Gold.Chemscore.ZeroCoef>
-5.4800

> <Gold.Chemscore.Hbond>
2.9048

> <Gold.Chemscore.Metal>
0.0000

> <Gold.Chemscore.Lipo>
53.3475

> <Gold.Chemscore.Internal_Hbond>
0.0000

> <Gold.Chemscore.DEClash>
0.0060

> <Gold.Chemscore.DEInternal>
0.5941

> <Gold.Chemscore.Rot>
2.0395

> <Gold.Chemscore.Internal.Correction>
   9.000000E+99

> <Gold.Chemscore.Hbonds>
donor molecule, donor type, donor heavy atom, donor atom, acceptor molecule, acceptor atom, score
      P1  H  6896  6907       L1    14  0.93
      P1  H  7989  7998       L1    19  0.32
      P1  H 10752 10764       L1     5  0.96

> <Gold.Chemscore.Hbond.Weighted>
-9.7019

> <Gold.Chemscore.Metal.Weighted>
-0.0000

> <Gold.Chemscore.Lipo.Weighted>
-6.2417

> <Gold.Chemscore.Internal_Hbond.Weighted>
0.0000

> <Gold.Chemscore.DEClash.Weighted>
0.0060

> <Gold.Chemscore.DEInternal.Weighted>
0.5941

> <Gold.Chemscore.Rot.Weighted>
5.2211

> <Gold.Chemscore.Internal.Correction.Weighted>
   9.000000E+99

> <Gold.Protein.RotatedTorsions>
[ 6907 6896 6895 6894 ] final -133.31 input  -60.11 | X-H torsion
[ 7974 7965 7964 7962 ] final   48.56 input  175.53 | X-H torsion
[ 8008 7997 7996 7995 ] final   84.11 input   59.86 | X-H torsion
[ 10167 10162 10161 10158 ] final  -19.78 input  -65.29 | X-H torsion
[ 10718 10713 10712 10709 ] final  -56.73 input   66.30 | X-H torsion
[ 10763 10752 10751 10750 ] final  -30.26 input  -60.55 | X-H torsion
[ 11005 11000 10999 10996 ] final -154.15 input  -57.11 | X-H torsion

> <Gold.Protein.ActiveResidues>
 VAL166  LYS551  ARG553  GLY616  TRP617  ASP618  TYR619  PRO620  LYS621  CYS622 
 ASP623  PHE694  ASN695  SER759  ASP760  ASP761  ALA762  ILE779  LEU786  VAL792 
 PHE793  MET794  SER795  GLU796  ALA797  LYS798  CYS799  TRP800  GLU811  SER814 

> <Gold.Protein.RotatedAtoms>
  150.9725  133.6329  159.2735 H   0  0  0  0  0  0  0  0  0  0  0  0  # atno 6907 bound_to 6896
  151.3613  135.0903  159.9445 H   0  0  0  0  0  0  0  0  0  0  0  0  # atno 6908 bound_to 6896
  152.5188  133.9298  159.7629 H   0  0  0  0  0  0  0  0  0  0  0  0  # atno 6909 bound_to 6896
  146.0193  139.4632  142.9907 H   0  0  0  0  0  0  0  0  0  0  0  0  # atno 7974 bound_to 7965
  155.9327  140.3413  155.6262 H   0  0  0  0  0  0  0  0  0  0  0  0  # atno 8008 bound_to 7997
  155.7137  140.0775  157.2379 H   0  0  0  0  0  0  0  0  0  0  0  0  # atno 8009 bound_to 7997
  154.4088  140.1618  156.2312 H   0  0  0  0  0  0  0  0  0  0  0  0  # atno 8010 bound_to 7997
  140.7271  143.4785  151.0150 H   0  0  0  0  0  0  0  0  0  0  0  0  # atno 10167 bound_to 10162
  156.1266  130.4162  150.0344 H   0  0  0  0  0  0  0  0  0  0  0  0  # atno 10718 bound_to 10713
  153.7781  135.6907  153.4893 H   0  0  0  0  0  0  0  0  0  0  0  0  # atno 10763 bound_to 10752
  153.1829  135.4499  155.0050 H   0  0  0  0  0  0  0  0  0  0  0  0  # atno 10764 bound_to 10752
  154.8092  135.3370  154.7286 H   0  0  0  0  0  0  0  0  0  0  0  0  # atno 10765 bound_to 10752
  140.7004  134.3943  157.5210 H   0  0  0  0  0  0  0  0  0  0  0  0  # atno 11005 bound_to 11000
  145.7219  141.0072  143.1398 LP  0  0  0  0  0  0  0  0  0  0  0  0  # atno 17320 bound_to 7965
  144.6983  139.8880  143.7451 LP  0  0  0  0  0  0  0  0  0  0  0  0  # atno 17321 bound_to 7965
  139.8482  143.7473  152.3179 LP  0  0  0  0  0  0  0  0  0  0  0  0  # atno 17342 bound_to 10162
  139.7646  144.7496  151.0313 LP  0  0  0  0  0  0  0  0  0  0  0  0  # atno 17343 bound_to 10162
  156.8268  130.9378  151.3639 LP  0  0  0  0  0  0  0  0  0  0  0  0  # atno 17370 bound_to 10713
  157.6447  130.8834  149.9515 LP  0  0  0  0  0  0  0  0  0  0  0  0  # atno 17371 bound_to 10713
  139.8898  134.8820  156.2401 LP  0  0  0  0  0  0  0  0  0  0  0  0  # atno 17394 bound_to 11000
  141.0168  133.7064  156.1202 LP  0  0  0  0  0  0  0  0  0  0  0  0  # atno 17395 bound_to 11000

$$$$
