AV-unprocessed.smi:1073|AV-procd|sdf|4690|dock7
  -GOLD-   22720 3213D 1   1.00000     0.00000
 Structure written by MMmdl.
 44 44  0  0  0  0  0  0  0  0  1 V2000
  147.6319  127.6272  150.5839 C   0  0  0  0  0  0  0  0  0  0  0  0
  147.2644  128.9286  151.1200 N   0  0  0  0  0  0  0  0  0  0  0  0
  146.1588  129.1637  151.8409 C   0  0  0  0  0  0  0  0  0  0  0  0
  145.3344  128.2891  152.1126 O   0  0  0  0  0  0  0  0  0  0  0  0
  145.9479  130.6138  152.3095 C   0  0  1  0  0  0  0  0  0  0  0  0
  144.6978  131.1704  151.5868 C   0  0  0  0  0  0  0  0  0  0  0  0
  144.9609  132.3469  150.6182 C   0  0  0  0  0  0  0  0  0  0  0  0
  145.8082  133.4290  151.3047 C   0  0  0  0  0  0  0  0  0  0  0  0
  143.6633  132.9559  150.0615 C   0  0  0  0  0  0  0  0  0  0  0  0
  145.7132  130.6490  153.7532 N   0  0  0  0  0  0  0  0  0  0  0  0
  146.6004  130.2849  154.6920 C   0  0  0  0  0  0  0  0  0  0  0  0
  147.7247  129.8576  154.4257 O   0  0  0  0  0  0  0  0  0  0  0  0
  146.1279  130.4166  156.1469 C   0  0  0  0  0  0  0  0  0  0  0  0
  146.2147  129.1586  156.9077 N   0  0  0  0  0  0  0  0  0  0  0  0
  145.3623  128.1094  156.5110 C   0  0  0  0  0  0  0  0  0  0  0  0
  145.3372  126.9124  157.1281 C   0  0  0  0  0  0  0  0  0  0  0  0
  144.4493  125.7772  156.6425 C   0  0  0  0  0  0  0  0  0  0  0  0
  144.6663  124.6656  157.3459 F   0  0  0  0  0  0  0  0  0  0  0  0
  143.1678  126.1131  156.7843 F   0  0  0  0  0  0  0  0  0  0  0  0
  144.6682  125.5074  155.3550 F   0  0  0  0  0  0  0  0  0  0  0  0
  146.2701  126.7315  158.2229 C   0  0  0  0  0  0  0  0  0  0  0  0
  147.1005  127.7204  158.6074 C   0  0  0  0  0  0  0  0  0  0  0  0
  147.1009  129.0241  157.9396 C   0  0  0  0  0  0  0  0  0  0  0  0
  147.8517  129.9370  158.2846 O   0  0  0  0  0  0  0  0  0  0  0  0
  148.5882  127.6953  150.0658 H   0  0  0  0  0  0  0  0  0  0  0  0
  146.8833  127.2754  149.8731 H   0  0  0  0  0  0  0  0  0  0  0  0
  147.7286  126.8906  151.3825 H   0  0  0  0  0  0  0  0  0  0  0  0
  147.8923  129.6984  150.9386 H   0  0  0  0  0  0  0  0  0  0  0  0
  146.8277  131.2080  152.0571 H   0  0  0  0  0  0  0  0  0  0  0  0
  144.2135  130.3655  151.0307 H   0  0  0  0  0  0  0  0  0  0  0  0
  143.9688  131.4927  152.3331 H   0  0  0  0  0  0  0  0  0  0  0  0
  145.5439  131.9797  149.7731 H   0  0  0  0  0  0  0  0  0  0  0  0
  145.2890  133.8534  152.1646 H   0  0  0  0  0  0  0  0  0  0  0  0
  146.0371  134.2451  150.6186 H   0  0  0  0  0  0  0  0  0  0  0  0
  146.7569  133.0224  151.6565 H   0  0  0  0  0  0  0  0  0  0  0  0
  143.0096  133.2993  150.8638 H   0  0  0  0  0  0  0  0  0  0  0  0
  143.1077  132.2374  149.4593 H   0  0  0  0  0  0  0  0  0  0  0  0
  143.8773  133.8107  149.4192 H   0  0  0  0  0  0  0  0  0  0  0  0
  144.8071  130.9745  154.0572 H   0  0  0  0  0  0  0  0  0  0  0  0
  146.7098  131.1950  156.6440 H   0  0  0  0  0  0  0  0  0  0  0  0
  145.1030  130.7897  156.1386 H   0  0  0  0  0  0  0  0  0  0  0  0
  144.7336  128.3381  155.6627 H   0  0  0  0  0  0  0  0  0  0  0  0
  146.3023  125.7869  158.7456 H   0  0  0  0  0  0  0  0  0  0  0  0
  147.7824  127.5496  159.4275 H   0  0  0  0  0  0  0  0  0  0  0  0
  1  2  1  0  0  0  0
  1 25  1  0  0  0  0
  1 26  1  0  0  0  0
  1 27  1  0  0  0  0
  2  3  1  0  0  0  0
  2 28  1  0  0  0  0
  3  4  2  0  0  0  0
  3  5  1  0  0  0  0
  5  6  1  0  0  0  0
  5 10  1  0  0  0  0
  5 29  1  0  0  0  0
  6  7  1  0  0  0  0
  6 30  1  0  0  0  0
  6 31  1  0  0  0  0
  7  8  1  0  0  0  0
  7  9  1  0  0  0  0
  7 32  1  0  0  0  0
  8 33  1  0  0  0  0
  8 34  1  0  0  0  0
  8 35  1  0  0  0  0
  9 36  1  0  0  0  0
  9 37  1  0  0  0  0
  9 38  1  0  0  0  0
 10 11  1  0  0  0  0
 10 39  1  0  0  0  0
 11 12  2  0  0  0  0
 11 13  1  0  0  0  0
 13 14  1  0  0  0  0
 13 40  1  0  0  0  0
 13 41  1  0  0  0  0
 14 23  1  0  0  0  0
 14 15  1  0  0  0  0
 15 16  2  0  0  0  0
 15 42  1  0  0  0  0
 16 17  1  0  0  0  0
 16 21  1  0  0  0  0
 17 18  1  0  0  0  0
 17 19  1  0  0  0  0
 17 20  1  0  0  0  0
 21 22  2  0  0  0  0
 21 43  1  0  0  0  0
 22 23  1  0  0  0  0
 22 44  1  0  0  0  0
 23 24  2  0  0  0  0
M  END
> <s_m_source_file>
AV-unprocessed.smi

> <i_m_source_file_index>
1073

> <i_lp_mmshare_version>
43012

> <i_f3d_flags>
0

> <s_epik_input>
W0NIM11bTkhdQyg9TylbQ0BIXShbQ0gyXVtDSF0oW0NIM10pW0NIM10pW05IXUMoPU8pW0NIMl1uMVtjSF1jKEMoRikoRilGKVtjSF1bY0hdYzE9Tw==

> <s_epik_cmdline>
J2VwaWtfcHl0aG9uJywgJy1waCcsICc3LjAnLCAnLXRuJywgJzgnLCAnLW1hJywgJzIwMCcsICctbWV0YWxfYmluZGluZycsICctaW1hZScsICc8aW5maWxlLm1hZT4nLCAnLW9tYWUnLCAnPG91dGZpbGUubWFlPic=

> <r_lp_tautomer_probability>
1

> <r_epik_Ionization_Penalty>
7.02352e-08

> <r_epik_Ionization_Penalty_Charging>
1.57869e-08

> <r_epik_Ionization_Penalty_Neutral>
5.44484e-08

> <r_epik_State_Penalty>
-0

> <r_epik_Charging_Adjusted_Penalty>
1.57869e-08

> <i_epik_Tot_Q>
0

> <i_epik_Tot_abs_Q>
0

> <r_epik_Metal_State_Penalty>
-0

> <b_epik_Metal_Only>
0

> <s_lp_Force_Field>
OPLS_2005

> <r_lp_Energy>
17.6469

> <b_lp_Chiralities_Consistent>
1

> <s_lp_Variant>
AV-unprocessed.smi:1073-2

> <Gold.Version>
5.8.1

> <Gold.Id.Protein>
6NUR|6NUR_protein|mol2

> <Gold.PLP.Fitness>
35.9806

> <Gold.PLP.PLP>
-31.8213

> <Gold.PLP.part.hbond>
-1.0000

> <Gold.PLP.part.metal>
0.0000

> <Gold.PLP.part.buried>
-6.6770

> <Gold.PLP.part.nonpolar>
-24.4610

> <Gold.PLP.part.repulsive>
0.2439

> <Gold.PLP.ligand.clash>
0.0000

> <Gold.PLP.ligand.torsion>
0.9774

> <Gold.PLP.Chemscore.Hbond>
1.0000

> <Gold.PLP.Chemscore.CHOScore>
1.0000

> <Gold.PLP.Chemscore.Metal>
0.0000

> <Gold.Chemscore.Hbonds>
donor molecule, donor type, donor heavy atom, donor atom, acceptor molecule, acceptor atom, score
      L1  H     2    28       P1 10747  1.00
      L1  C    15    42       P1 10956  1.00

> <Gold.PLP.Chemscore.Internal.Correction>
0.1141

> <Gold.Rescore>
     Score         DG    S(hbond)    S(metal)    S(lipo)     H(rot)  DE(clash)    DE(int)     intcor
      7.53      -8.43       0.74        0.00      59.03       2.51       0.02       0.88       ----

> <Gold.Chemscore.Fitness>
7.5289

> <Gold.Chemscore.DG>
-8.4342

> <Gold.Chemscore.ZeroCoef>
-5.4800

> <Gold.Chemscore.Hbond>
0.7441

> <Gold.Chemscore.Metal>
0.0000

> <Gold.Chemscore.Lipo>
59.0334

> <Gold.Chemscore.Internal_Hbond>
0.0000

> <Gold.Chemscore.DEClash>
0.0234

> <Gold.Chemscore.DEInternal>
0.8818

> <Gold.Chemscore.Rot>
2.5149

> <Gold.Chemscore.Internal.Correction>
   9.000000E+99

> <Gold.Chemscore.Hbonds>
donor molecule, donor type, donor heavy atom, donor atom, acceptor molecule, acceptor atom, score
      L1  H     2    28       P1 10747  0.93

> <Gold.Chemscore.Hbond.Weighted>
-2.4854

> <Gold.Chemscore.Metal.Weighted>
-0.0000

> <Gold.Chemscore.Lipo.Weighted>
-6.9069

> <Gold.Chemscore.Internal_Hbond.Weighted>
0.0000

> <Gold.Chemscore.DEClash.Weighted>
0.0234

> <Gold.Chemscore.DEInternal.Weighted>
0.8818

> <Gold.Chemscore.Rot.Weighted>
6.4381

> <Gold.Chemscore.Internal.Correction.Weighted>
   9.000000E+99

> <Gold.Protein.RotatedTorsions>
[ 6907 6896 6895 6894 ] final -107.32 input  -60.11 | X-H torsion
[ 7974 7965 7964 7962 ] final   81.35 input  175.53 | X-H torsion
[ 8008 7997 7996 7995 ] final  112.20 input   59.86 | X-H torsion
[ 10167 10162 10161 10158 ] final -123.64 input  -65.29 | X-H torsion
[ 10718 10713 10712 10709 ] final  -90.00 input   66.30 | X-H torsion
[ 10763 10752 10751 10750 ] final -144.90 input  -60.55 | X-H torsion
[ 11005 11000 10999 10996 ] final   29.85 input  -57.11 | X-H torsion

> <Gold.Protein.ActiveResidues>
 VAL166  LYS551  ARG553  GLY616  TRP617  ASP618  TYR619  PRO620  LYS621  CYS622 
 ASP623  PHE694  ASN695  SER759  ASP760  ASP761  ALA762  ILE779  LEU786  VAL792 
 PHE793  MET794  SER795  GLU796  ALA797  LYS798  CYS799  TRP800  GLU811  SER814 

> <Gold.Protein.RotatedAtoms>
  150.7438  133.9844  159.3586 H   0  0  0  0  0  0  0  0  0  0  0  0  # atno 6907 bound_to 6896
  151.7787  135.0765  160.0380 H   0  0  0  0  0  0  0  0  0  0  0  0  # atno 6908 bound_to 6896
  152.3289  133.5899  159.5832 H   0  0  0  0  0  0  0  0  0  0  0  0  # atno 6909 bound_to 6896
  145.6394  139.2422  143.2039 H   0  0  0  0  0  0  0  0  0  0  0  0  # atno 7974 bound_to 7965
  156.2176  140.3004  155.9876 H   0  0  0  0  0  0  0  0  0  0  0  0  # atno 8008 bound_to 7997
  155.2565  140.0428  157.3010 H   0  0  0  0  0  0  0  0  0  0  0  0  # atno 8009 bound_to 7997
  154.5791  140.2370  155.8088 H   0  0  0  0  0  0  0  0  0  0  0  0  # atno 8010 bound_to 7997
  140.0013  143.5537  152.2302 H   0  0  0  0  0  0  0  0  0  0  0  0  # atno 10167 bound_to 10162
  155.9986  130.4893  150.5256 H   0  0  0  0  0  0  0  0  0  0  0  0  # atno 10718 bound_to 10713
  154.8407  135.3427  154.6420 H   0  0  0  0  0  0  0  0  0  0  0  0  # atno 10763 bound_to 10752
  153.7031  135.6968  153.5062 H   0  0  0  0  0  0  0  0  0  0  0  0  # atno 10764 bound_to 10752
  153.2508  135.4354  155.0749 H   0  0  0  0  0  0  0  0  0  0  0  0  # atno 10765 bound_to 10752
  140.3006  134.2761  155.7755 H   0  0  0  0  0  0  0  0  0  0  0  0  # atno 11005 bound_to 11000
  146.1293  140.7206  142.9420 LP  0  0  0  0  0  0  0  0  0  0  0  0  # atno 17320 bound_to 7965
  144.7163  140.4221  143.7042 LP  0  0  0  0  0  0  0  0  0  0  0  0  # atno 17321 bound_to 7965
  139.6270  144.7638  151.2618 LP  0  0  0  0  0  0  0  0  0  0  0  0  # atno 17342 bound_to 10162
  140.7417  143.6547  150.8217 LP  0  0  0  0  0  0  0  0  0  0  0  0  # atno 17343 bound_to 10162
  157.3212  131.0682  151.1930 LP  0  0  0  0  0  0  0  0  0  0  0  0  # atno 17370 bound_to 10713
  157.2843  130.6765  149.6081 LP  0  0  0  0  0  0  0  0  0  0  0  0  # atno 17371 bound_to 10713
  141.2129  133.7644  156.9761 LP  0  0  0  0  0  0  0  0  0  0  0  0  # atno 17394 bound_to 11000
  140.1112  134.9475  157.2069 LP  0  0  0  0  0  0  0  0  0  0  0  0  # atno 17395 bound_to 11000

$$$$
