AV-unprocessed.smi:2924|AV-procd|sdf|11220|dock3
  -GOLD-   2272016113D 1   1.00000     0.00000
 Structure written by MMmdl.
 29 31  0  0  0  0  0  0  0  0  1 V2000
  153.9824  140.7938  160.4022 N   0  0  0  0  0  0  0  0  0  0  0  0
  153.2901  141.6376  160.0181 C   0  0  0  0  0  0  0  0  0  0  0  0
  152.4169  142.7002  159.5344 C   0  0  0  0  0  0  0  0  0  0  0  0
  152.4109  143.9399  160.2077 C   0  0  0  0  0  0  0  0  0  0  0  0
  151.5736  144.9699  159.7415 C   0  0  0  0  0  0  0  0  0  0  0  0
  150.7706  144.7163  158.6148 C   0  0  0  0  0  0  0  0  0  0  0  0
  150.7656  143.5352  157.9627 N   0  0  0  0  0  0  0  0  0  0  0  0
  151.5714  142.5385  158.4041 C   0  0  0  0  0  0  0  0  0  0  0  0
  151.5428  141.3176  157.7056 N   0  0  0  0  0  0  0  0  0  0  0  0
  151.2853  141.2710  156.2694 C   0  0  2  0  0  0  0  0  0  0  0  0
  149.8108  141.4878  155.9205 C   0  0  0  0  0  0  0  0  0  0  0  0
  149.5064  140.2566  155.0556 C   0  0  2  0  0  0  0  0  0  0  0  0
  149.3811  138.9867  155.9072 C   0  0  0  0  0  0  0  0  0  0  0  0
  150.8355  138.7292  156.2955 C   0  0  0  0  0  0  0  0  0  0  0  0
  151.5602  139.9024  155.6135 C   0  0  1  0  0  0  0  0  0  0  0  0
  150.7671  140.0353  154.4457 O   0  0  0  0  0  0  0  0  0  0  0  0
  153.0395  144.1057  161.0709 H   0  0  0  0  0  0  0  0  0  0  0  0
  151.5477  145.9302  160.2352 H   0  0  0  0  0  0  0  0  0  0  0  0
  150.1147  145.4815  158.2266 H   0  0  0  0  0  0  0  0  0  0  0  0
  151.9688  140.5078  158.1329 H   0  0  0  0  0  0  0  0  0  0  0  0
  151.8751  142.0407  155.7696 H   0  0  0  0  0  0  0  0  0  0  0  0
  149.1553  141.5468  156.7905 H   0  0  0  0  0  0  0  0  0  0  0  0
  149.6913  142.4068  155.3459 H   0  0  0  0  0  0  0  0  0  0  0  0
  148.6848  140.4009  154.3536 H   0  0  0  0  0  0  0  0  0  0  0  0
  148.7301  139.1273  156.7707 H   0  0  0  0  0  0  0  0  0  0  0  0
  148.9910  138.1579  155.3153 H   0  0  0  0  0  0  0  0  0  0  0  0
  150.9901  138.6979  157.3742 H   0  0  0  0  0  0  0  0  0  0  0  0
  151.1739  137.7787  155.8812 H   0  0  0  0  0  0  0  0  0  0  0  0
  152.6146  139.7103  155.4129 H   0  0  0  0  0  0  0  0  0  0  0  0
  1  2  3  0  0  0  0
  2  3  1  0  0  0  0
  3  8  1  0  0  0  0
  3  4  2  0  0  0  0
  4  5  1  0  0  0  0
  4 17  1  0  0  0  0
  5  6  2  0  0  0  0
  5 18  1  0  0  0  0
  6  7  1  0  0  0  0
  6 19  1  0  0  0  0
  7  8  2  0  0  0  0
  8  9  1  0  0  0  0
  9 10  1  0  0  0  0
  9 20  1  0  0  0  0
 10 15  1  0  0  0  0
 10 11  1  0  0  0  0
 10 21  1  0  0  0  0
 11 12  1  0  0  0  0
 11 22  1  0  0  0  0
 11 23  1  0  0  0  0
 12 16  1  0  0  0  0
 12 13  1  0  0  0  0
 12 24  1  0  0  0  0
 13 14  1  0  0  0  0
 13 25  1  0  0  0  0
 13 26  1  0  0  0  0
 14 15  1  0  0  0  0
 14 27  1  0  0  0  0
 14 28  1  0  0  0  0
 15 16  1  0  0  0  0
 15 29  1  0  0  0  0
M  END
> <s_m_source_file>
AV-unprocessed.smi

> <i_m_source_file_index>
2924

> <i_lp_mmshare_version>
43012

> <i_f3d_flags>
0

> <s_epik_input>
TiNDYzFbY0hdW2NIXVtjSF1uYzFbTkhdW0NASF0oW0NIMl1bQ0BASF0yMylbQ0BASF0oTzMpW0NIMl1bQ0gyXTI=

> <s_epik_cmdline>
J2VwaWtfcHl0aG9uJywgJy1waCcsICc3LjAnLCAnLXRuJywgJzgnLCAnLW1hJywgJzIwMCcsICctbWV0YWxfYmluZGluZycsICctaW1hZScsICc8aW5maWxlLm1hZT4nLCAnLW9tYWUnLCAnPG91dGZpbGUubWFlPic=

> <r_lp_tautomer_probability>
1

> <r_epik_Ionization_Penalty>
2.11559e-05

> <r_epik_Ionization_Penalty_Charging>
0

> <r_epik_Ionization_Penalty_Neutral>
2.11559e-05

> <r_epik_State_Penalty>
-0

> <r_epik_Charging_Adjusted_Penalty>
0

> <i_epik_Tot_Q>
0

> <i_epik_Tot_abs_Q>
0

> <r_epik_Metal_State_Penalty>
-0

> <b_epik_Metal_Only>
0

> <s_lp_Force_Field>
OPLS_2005

> <r_lp_Energy>
42.6424

> <b_lp_Chiralities_Consistent>
1

> <s_lp_Variant>
AV-unprocessed.smi:2924-3

> <Gold.Version>
5.8.1

> <Gold.Id.Protein>
6NUR|6NUR_protein|mol2

> <Gold.PLP.Fitness>
38.4579

> <Gold.PLP.PLP>
-33.1730

> <Gold.PLP.part.hbond>
-1.0000

> <Gold.PLP.part.metal>
0.0000

> <Gold.PLP.part.buried>
-5.9686

> <Gold.PLP.part.nonpolar>
-27.1985

> <Gold.PLP.part.repulsive>
0.3285

> <Gold.PLP.ligand.clash>
0.0000

> <Gold.PLP.ligand.torsion>
0.3671

> <Gold.PLP.Chemscore.Hbond>
1.0000

> <Gold.PLP.Chemscore.CHOScore>
1.0031

> <Gold.PLP.Chemscore.Metal>
0.0000

> <Gold.Chemscore.Hbonds>
donor molecule, donor type, donor heavy atom, donor atom, acceptor molecule, acceptor atom, score
      P1  H  7989  7998       L1    16  0.99
      L1  C     6    19       P1  8029  1.00

> <Gold.PLP.Chemscore.Internal.Correction>
0.0099

> <Gold.Rescore>
     Score         DG    S(hbond)    S(metal)    S(lipo)     H(rot)  DE(clash)    DE(int)     intcor
     15.28     -15.65       0.94        0.00      81.93       1.00       0.01       0.36       ----

> <Gold.Chemscore.Fitness>
15.2752

> <Gold.Chemscore.DG>
-15.6461

> <Gold.Chemscore.ZeroCoef>
-5.4800

> <Gold.Chemscore.Hbond>
0.9402

> <Gold.Chemscore.Metal>
0.0000

> <Gold.Chemscore.Lipo>
81.9293

> <Gold.Chemscore.Internal_Hbond>
0.0000

> <Gold.Chemscore.DEClash>
0.0106

> <Gold.Chemscore.DEInternal>
0.3603

> <Gold.Chemscore.Rot>
1.0000

> <Gold.Chemscore.Internal.Correction>
   9.000000E+99

> <Gold.Chemscore.Hbonds>
donor molecule, donor type, donor heavy atom, donor atom, acceptor molecule, acceptor atom, score
      P1  H  7989  7998       L1    16  0.46

> <Gold.Chemscore.Hbond.Weighted>
-3.1404

> <Gold.Chemscore.Metal.Weighted>
-0.0000

> <Gold.Chemscore.Lipo.Weighted>
-9.5857

> <Gold.Chemscore.Internal_Hbond.Weighted>
0.0000

> <Gold.Chemscore.DEClash.Weighted>
0.0106

> <Gold.Chemscore.DEInternal.Weighted>
0.3603

> <Gold.Chemscore.Rot.Weighted>
2.5600

> <Gold.Chemscore.Internal.Correction.Weighted>
   9.000000E+99

> <Gold.Protein.RotatedTorsions>
[ 6907 6896 6895 6894 ] final  -87.96 input  -60.11 | X-H torsion
[ 7974 7965 7964 7962 ] final   -1.74 input  175.53 | X-H torsion
[ 8008 7997 7996 7995 ] final -176.57 input   59.86 | X-H torsion
[ 10167 10162 10161 10158 ] final  -95.27 input  -65.29 | X-H torsion
[ 10718 10713 10712 10709 ] final -160.75 input   66.30 | X-H torsion
[ 10763 10752 10751 10750 ] final  -31.62 input  -60.55 | X-H torsion
[ 11005 11000 10999 10996 ] final -158.04 input  -57.11 | X-H torsion

> <Gold.Protein.ActiveResidues>
 VAL166  LYS551  ARG553  GLY616  TRP617  ASP618  TYR619  PRO620  LYS621  CYS622 
 ASP623  PHE694  ASN695  SER759  ASP760  ASP761  ALA762  ILE779  LEU786  VAL792 
 PHE793  MET794  SER795  GLU796  ALA797  LYS798  CYS799  TRP800  GLU811  SER814 

> <Gold.Protein.RotatedAtoms>
  150.6867  134.2815  159.4629 H   0  0  0  0  0  0  0  0  0  0  0  0  # atno 6907 bound_to 6896
  152.0729  134.9519  160.0583 H   0  0  0  0  0  0  0  0  0  0  0  0  # atno 6908 bound_to 6896
  152.0902  133.4162  159.4577 H   0  0  0  0  0  0  0  0  0  0  0  0  # atno 6909 bound_to 6896
  146.2413  140.1465  142.8334 H   0  0  0  0  0  0  0  0  0  0  0  0  # atno 7974 bound_to 7965
  155.9965  140.1211  157.0589 H   0  0  0  0  0  0  0  0  0  0  0  0  # atno 8008 bound_to 7997
  154.4228  140.1115  156.5705 H   0  0  0  0  0  0  0  0  0  0  0  0  # atno 8009 bound_to 7997
  155.6272  140.3472  155.4673 H   0  0  0  0  0  0  0  0  0  0  0  0  # atno 8010 bound_to 7997
  140.3059  143.3134  152.0200 H   0  0  0  0  0  0  0  0  0  0  0  0  # atno 10167 bound_to 10162
  156.5866  130.8752  151.2879 H   0  0  0  0  0  0  0  0  0  0  0  0  # atno 10718 bound_to 10713
  153.8003  135.6890  153.4857 H   0  0  0  0  0  0  0  0  0  0  0  0  # atno 10763 bound_to 10752
  153.1693  135.4549  154.9878 H   0  0  0  0  0  0  0  0  0  0  0  0  # atno 10764 bound_to 10752
  154.8009  135.3337  154.7492 H   0  0  0  0  0  0  0  0  0  0  0  0  # atno 10765 bound_to 10752
  140.6580  134.4380  157.5235 H   0  0  0  0  0  0  0  0  0  0  0  0  # atno 11005 bound_to 11000
  145.0203  140.8788  143.5171 LP  0  0  0  0  0  0  0  0  0  0  0  0  # atno 17320 bound_to 7965
  145.1513  139.2513  143.5439 LP  0  0  0  0  0  0  0  0  0  0  0  0  # atno 17321 bound_to 7965
  139.4904  144.6421  151.6855 LP  0  0  0  0  0  0  0  0  0  0  0  0  # atno 17342 bound_to 10162
  140.5611  144.0267  150.6170 LP  0  0  0  0  0  0  0  0  0  0  0  0  # atno 17343 bound_to 10162
  157.7314  130.9699  150.1877 LP  0  0  0  0  0  0  0  0  0  0  0  0  # atno 17370 bound_to 10713
  156.2586  130.3708  149.8155 LP  0  0  0  0  0  0  0  0  0  0  0  0  # atno 17371 bound_to 10713
  139.9023  134.8528  156.1846 LP  0  0  0  0  0  0  0  0  0  0  0  0  # atno 17394 bound_to 11000
  141.0487  133.6900  156.1731 LP  0  0  0  0  0  0  0  0  0  0  0  0  # atno 17395 bound_to 11000

$$$$
