AV-unprocessed.smi:290|AV-procd|sdf|2245|dock7
  -GOLD-   2262022123D 1   1.00000     0.00000
 Structure written by MMmdl.
 59 62  0  0  0  0  0  0  0  0  2 V2000
  151.6758  139.0316  155.0969 C   0  0  0  0  0  0  0  0  0  0  0  0
  150.1796  139.2955  154.8670 C   0  0  2  0  0  0  0  0  0  0  0  0
  149.9799  140.3289  153.9032 O   0  0  0  0  0  0  0  0  0  0  0  0
  149.0172  141.2658  154.3715 C   0  0  0  0  0  0  0  0  0  0  0  0
  148.2604  140.5391  155.4778 C   0  0  0  0  0  0  0  0  0  0  0  0
  149.3477  139.6820  156.1116 C   0  0  2  0  0  0  0  0  0  0  0  0
  150.1133  140.4987  156.9821 O   0  0  0  0  0  0  0  0  0  0  0  0
  148.8430  138.4951  156.9731 C   0  0  0  0  0  0  0  0  0  0  0  0
  148.3295  137.3610  156.2200 N   0  0  0  0  0  0  0  0  0  0  0  0
  148.7584  136.0568  156.2986 C   0  0  0  0  0  0  0  0  0  0  0  0
  148.1320  135.2196  155.5188 N   0  0  0  0  0  0  0  0  0  0  0  0
  147.1798  135.9954  154.8654 C   0  0  0  0  0  0  0  0  0  0  0  0
  146.1656  135.7364  153.8938 C   0  0  0  0  0  0  0  0  0  0  0  0
  145.9011  134.5192  153.3454 N   0  0  0  0  0  0  0  0  0  0  0  0
  146.5116  133.2925  153.8456 C   0  0  0  0  0  0  0  0  0  0  0  0
  146.1353  132.1996  152.8367 C   0  0  0  0  0  0  0  0  0  0  0  0
  144.9809  132.8185  152.0285 C   0  0  2  0  0  0  0  0  0  0  0  0
  144.7235  132.2161  150.6858 N   0  3  2  0  0  0  0  0  0  0  0  0
  145.9730  131.7066  150.0629 C   0  0  0  0  0  0  0  0  0  0  0  0
  143.9682  133.1107  149.7629 C   0  0  0  0  0  0  0  0  0  0  0  0
  143.9877  132.6300  148.3004 C   0  0  0  0  0  0  0  0  0  0  0  0
  143.6652  133.6979  147.4344 O   0  0  0  0  0  0  0  0  0  0  0  0
  145.3711  134.3121  152.0051 C   0  0  2  0  0  0  0  0  0  0  0  0
  146.4270  134.6662  150.9316 C   0  0  0  0  0  0  0  0  0  0  0  0
  145.4222  136.7968  153.4801 N   0  0  0  0  0  0  0  0  0  0  0  0
  145.6331  138.0165  153.9814 C   0  0  0  0  0  0  0  0  0  0  0  0
  146.5294  138.3989  154.8906 N   0  0  0  0  0  0  0  0  0  0  0  0
  147.2920  137.3474  155.3040 C   0  0  0  0  0  0  0  0  0  0  0  0
  144.0703  132.7117  152.6221 H   0  0  0  0  0  0  0  0  0  0  0  0
  144.4721  134.9089  151.8597 H   0  0  0  0  0  0  0  0  0  0  0  0
  151.8256  138.2442  155.8360 H   0  0  0  0  0  0  0  0  0  0  0  0
  152.1944  139.9254  155.4442 H   0  0  0  0  0  0  0  0  0  0  0  0
  152.1574  138.7135  154.1722 H   0  0  0  0  0  0  0  0  0  0  0  0
  149.7473  138.4079  154.4078 H   0  0  0  0  0  0  0  0  0  0  0  0
  149.5390  142.1361  154.7715 H   0  0  0  0  0  0  0  0  0  0  0  0
  148.3632  141.6034  153.5675 H   0  0  0  0  0  0  0  0  0  0  0  0
  147.7680  141.2146  156.1784 H   0  0  0  0  0  0  0  0  0  0  0  0
  147.4923  139.9194  155.0162 H   0  0  0  0  0  0  0  0  0  0  0  0
  150.6029  141.1163  156.4609 H   0  0  0  0  0  0  0  0  0  0  0  0
  149.6478  138.1345  157.6152 H   0  0  0  0  0  0  0  0  0  0  0  0
  148.0525  138.8341  157.6442 H   0  0  0  0  0  0  0  0  0  0  0  0
  149.5615  135.7454  156.9510 H   0  0  0  0  0  0  0  0  0  0  0  0
  147.5944  133.3871  153.9387 H   0  0  0  0  0  0  0  0  0  0  0  0
  146.1015  133.0649  154.8304 H   0  0  0  0  0  0  0  0  0  0  0  0
  146.9866  131.9890  152.1880 H   0  0  0  0  0  0  0  0  0  0  0  0
  145.8573  131.2718  153.3373 H   0  0  0  0  0  0  0  0  0  0  0  0
  146.6479  132.5276  149.8180 H   0  0  0  0  0  0  0  0  0  0  0  0
  145.7714  131.1491  149.1498 H   0  0  0  0  0  0  0  0  0  0  0  0
  146.5063  131.0233  150.7223 H   0  0  0  0  0  0  0  0  0  0  0  0
  142.9222  133.1830  150.0553 H   0  0  0  0  0  0  0  0  0  0  0  0
  144.3710  134.1222  149.8319 H   0  0  0  0  0  0  0  0  0  0  0  0
  144.9885  132.2797  148.0464 H   0  0  0  0  0  0  0  0  0  0  0  0
  143.3155  131.7918  148.1241 H   0  0  0  0  0  0  0  0  0  0  0  0
  144.4583  134.1703  147.2289 H   0  0  0  0  0  0  0  0  0  0  0  0
  146.0466  134.5061  149.9232 H   0  0  0  0  0  0  0  0  0  0  0  0
  147.3346  134.0721  151.0395 H   0  0  0  0  0  0  0  0  0  0  0  0
  146.7197  135.7139  150.9950 H   0  0  0  0  0  0  0  0  0  0  0  0
  144.9931  138.7976  153.5979 H   0  0  0  0  0  0  0  0  0  0  0  0
  144.1264  131.4175  150.8493 H   0  0  0  0  0  0  0  0  0  0  0  0
  1  2  1  0  0  0  0
  1 31  1  0  0  0  0
  1 32  1  0  0  0  0
  1 33  1  0  0  0  0
  2  6  1  0  0  0  0
  2  3  1  0  0  0  0
  2 34  1  0  0  0  0
  3  4  1  0  0  0  0
  4  5  1  0  0  0  0
  4 35  1  0  0  0  0
  4 36  1  0  0  0  0
  5  6  1  0  0  0  0
  5 37  1  0  0  0  0
  5 38  1  0  0  0  0
  6  7  1  0  0  0  0
  6  8  1  0  0  0  0
  7 39  1  0  0  0  0
  8  9  1  0  0  0  0
  8 40  1  0  0  0  0
  8 41  1  0  0  0  0
  9 28  1  0  0  0  0
  9 10  1  0  0  0  0
 10 11  2  0  0  0  0
 10 42  1  0  0  0  0
 11 12  1  0  0  0  0
 12 28  2  0  0  0  0
 12 13  1  0  0  0  0
 13 14  1  0  0  0  0
 13 25  2  0  0  0  0
 14 23  1  0  0  0  0
 14 15  1  0  0  0  0
 15 16  1  0  0  0  0
 15 43  1  0  0  0  0
 15 44  1  0  0  0  0
 16 17  1  0  0  0  0
 16 45  1  0  0  0  0
 16 46  1  0  0  0  0
 17 29  1  0  0  0  0
 17 18  1  0  0  0  0
 17 23  1  0  0  0  0
 18 19  1  0  0  0  0
 18 20  1  0  0  0  0
 18 59  1  0  0  0  0
 19 47  1  0  0  0  0
 19 48  1  0  0  0  0
 19 49  1  0  0  0  0
 20 21  1  0  0  0  0
 20 50  1  0  0  0  0
 20 51  1  0  0  0  0
 21 22  1  0  0  0  0
 21 52  1  0  0  0  0
 21 53  1  0  0  0  0
 22 54  1  0  0  0  0
 23 30  1  0  0  0  0
 23 24  1  0  0  0  0
 24 55  1  0  0  0  0
 24 56  1  0  0  0  0
 24 57  1  0  0  0  0
 25 26  1  0  0  0  0
 26 27  2  0  0  0  0
 26 58  1  0  0  0  0
 27 28  1  0  0  0  0
M  CHG  1  18   1
M  END
> <s_m_source_file>
AV-unprocessed.smi

> <i_m_source_file_index>
290

> <i_lp_mmshare_version>
43012

> <i_f3d_flags>
0

> <s_epik_input>
W0NIMl0xW0NIMl1PW0NAQEhdKFtDSDNdKVtDQEBdMShbT0hdKVtDSDJdbihbY0hdbjIpYyhjMjMpbltjSF1uYzNONFtDSDJdW0NIMl1bQ0BIXShbQ0BIXTRbQ0gzXSlOKFtDSDNdKVtDSDJdW0NIMl1bT0hd

> <s_epik_cmdline>
J2VwaWtfcHl0aG9uJywgJy1waCcsICc3LjAnLCAnLXRuJywgJzgnLCAnLW1hJywgJzIwMCcsICctbWV0YWxfYmluZGluZycsICctaW1hZScsICc8aW5maWxlLm1hZT4nLCAnLW9tYWUnLCAnPG91dGZpbGUubWFlPic=

> <r_lp_tautomer_probability>
1

> <r_epik_Ionization_Penalty>
0.0036983

> <r_epik_Ionization_Penalty_Charging>
0.0032725

> <r_epik_Ionization_Penalty_Neutral>
0.000425798

> <r_epik_State_Penalty>
-0

> <r_epik_Charging_Adjusted_Penalty>
0.0032725

> <i_epik_Tot_Q>
1

> <i_epik_Tot_abs_Q>
1

> <r_epik_Metal_State_Penalty>
-0

> <b_epik_Metal_Only>
0

> <s_lp_Force_Field>
OPLS_2005

> <r_lp_Energy>
66.7181

> <b_lp_Chiralities_Consistent>
1

> <s_lp_Variant>
AV-unprocessed.smi:290-31

> <Gold.Version>
5.8.1

> <Gold.Id.Protein>
6NUR|6NUR_protein|mol2

> <Gold.PLP.Fitness>
42.2247

> <Gold.PLP.PLP>
-32.8115

> <Gold.PLP.part.hbond>
-4.7748

> <Gold.PLP.part.metal>
0.0000

> <Gold.PLP.part.buried>
-5.0397

> <Gold.PLP.part.nonpolar>
-25.0072

> <Gold.PLP.part.repulsive>
2.6579

> <Gold.PLP.ligand.clash>
0.0000

> <Gold.PLP.ligand.torsion>
1.1480

> <Gold.PLP.Chemscore.Hbond>
2.8320

> <Gold.PLP.Chemscore.CHOScore>
0.9922

> <Gold.PLP.Chemscore.Metal>
0.0000

> <Gold.Chemscore.Hbonds>
donor molecule, donor type, donor heavy atom, donor atom, acceptor molecule, acceptor atom, score
      L1  H    22    54       P1  7921  1.00
      P1  H  7989  7998       L1     3  0.75
      P1  H 10192 10197       L1    22  0.54
      L1  C    26    58       P1 10175  1.00

> <Gold.PLP.Chemscore.Internal.Correction>
0.2365

> <Gold.Rescore>
     Score         DG    S(hbond)    S(metal)    S(lipo)     H(rot)  DE(clash)    DE(int)     intcor
      9.97     -15.34       2.74        0.00      79.36       3.35       0.80       4.58       ----

> <Gold.Chemscore.Fitness>
9.9661

> <Gold.Chemscore.DG>
-15.3403

> <Gold.Chemscore.ZeroCoef>
-5.4800

> <Gold.Chemscore.Hbond>
2.7413

> <Gold.Chemscore.Metal>
0.0000

> <Gold.Chemscore.Lipo>
79.3591

> <Gold.Chemscore.Internal_Hbond>
0.0000

> <Gold.Chemscore.DEClash>
0.7990

> <Gold.Chemscore.DEInternal>
4.5752

> <Gold.Chemscore.Rot>
3.3518

> <Gold.Chemscore.Internal.Correction>
   9.000000E+99

> <Gold.Chemscore.Hbonds>
donor molecule, donor type, donor heavy atom, donor atom, acceptor molecule, acceptor atom, score
      L1  H    22    54       P1  7921  0.98
      P1  H  7989  7998       L1     3  0.36
      P1  H 10192 10197       L1    22  0.27

> <Gold.Chemscore.Hbond.Weighted>
-9.1558

> <Gold.Chemscore.Metal.Weighted>
-0.0000

> <Gold.Chemscore.Lipo.Weighted>
-9.2850

> <Gold.Chemscore.Internal_Hbond.Weighted>
0.0000

> <Gold.Chemscore.DEClash.Weighted>
0.7990

> <Gold.Chemscore.DEInternal.Weighted>
4.5752

> <Gold.Chemscore.Rot.Weighted>
8.5806

> <Gold.Chemscore.Internal.Correction.Weighted>
   9.000000E+99

> <Gold.Protein.RotatedTorsions>
[ 6907 6896 6895 6894 ] final   61.09 input  -60.11 | X-H torsion
[ 7974 7965 7964 7962 ] final   67.95 input  175.53 | X-H torsion
[ 8008 7997 7996 7995 ] final -155.65 input   59.86 | X-H torsion
[ 10167 10162 10161 10158 ] final  131.04 input  -65.29 | X-H torsion
[ 10718 10713 10712 10709 ] final -167.97 input   66.30 | X-H torsion
[ 10763 10752 10751 10750 ] final -156.91 input  -60.55 | X-H torsion
[ 11005 11000 10999 10996 ] final  -99.90 input  -57.11 | X-H torsion

> <Gold.Protein.ActiveResidues>
 VAL166  LYS551  ARG553  GLY616  TRP617  ASP618  TYR619  PRO620  LYS621  CYS622 
 ASP623  PHE694  ASN695  SER759  ASP760  ASP761  ALA762  ILE779  LEU786  VAL792 
 PHE793  MET794  SER795  GLU796  ALA797  LYS798  CYS799  TRP800  GLU811  SER814 

> <Gold.Protein.RotatedAtoms>
  152.4059  134.6208  160.0049 H   0  0  0  0  0  0  0  0  0  0  0  0  # atno 6907 bound_to 6896
  151.6399  133.3321  159.3136 H   0  0  0  0  0  0  0  0  0  0  0  0  # atno 6908 bound_to 6896
  150.7954  134.7051  159.6617 H   0  0  0  0  0  0  0  0  0  0  0  0  # atno 6909 bound_to 6896
  145.8084  139.3019  143.1113 H   0  0  0  0  0  0  0  0  0  0  0  0  # atno 7974 bound_to 7965
  155.7050  140.0771  157.2394 H   0  0  0  0  0  0  0  0  0  0  0  0  # atno 8008 bound_to 7997
  154.4067  140.1640  156.2286 H   0  0  0  0  0  0  0  0  0  0  0  0  # atno 8009 bound_to 7997
  155.9334  140.3389  155.6270 H   0  0  0  0  0  0  0  0  0  0  0  0  # atno 8010 bound_to 7997
  139.5402  144.6723  151.4651 H   0  0  0  0  0  0  0  0  0  0  0  0  # atno 10167 bound_to 10162
  156.6901  130.9156  151.3068 H   0  0  0  0  0  0  0  0  0  0  0  0  # atno 10718 bound_to 10713
  154.7677  135.3136  154.8253 H   0  0  0  0  0  0  0  0  0  0  0  0  # atno 10763 bound_to 10752
  153.8997  135.6817  153.4760 H   0  0  0  0  0  0  0  0  0  0  0  0  # atno 10764 bound_to 10752
  153.1285  135.4790  154.9245 H   0  0  0  0  0  0  0  0  0  0  0  0  # atno 10765 bound_to 10752
  141.1291  133.8357  157.1032 H   0  0  0  0  0  0  0  0  0  0  0  0  # atno 11005 bound_to 11000
  145.9803  140.8688  143.0118 LP  0  0  0  0  0  0  0  0  0  0  0  0  # atno 17320 bound_to 7965
  144.6760  140.2071  143.7381 LP  0  0  0  0  0  0  0  0  0  0  0  0  # atno 17321 bound_to 7965
  140.6628  143.8462  150.6907 LP  0  0  0  0  0  0  0  0  0  0  0  0  # atno 17342 bound_to 10162
  140.1862  143.4074  152.1897 LP  0  0  0  0  0  0  0  0  0  0  0  0  # atno 17343 bound_to 10162
  157.7012  130.9335  150.0790 LP  0  0  0  0  0  0  0  0  0  0  0  0  # atno 17370 bound_to 10713
  156.1804  130.3650  149.9044 LP  0  0  0  0  0  0  0  0  0  0  0  0  # atno 17371 bound_to 10713
  140.0320  134.9896  157.0799 LP  0  0  0  0  0  0  0  0  0  0  0  0  # atno 17394 bound_to 11000
  140.4270  134.1821  155.7166 LP  0  0  0  0  0  0  0  0  0  0  0  0  # atno 17395 bound_to 11000

$$$$
