AV-unprocessed.smi:1813|AV-procd|sdf|7345|dock7
  -GOLD-   22720 9 03D 1   1.00000     0.00000
 Structure written by MMmdl.
 39 40  0  0  0  0  0  0  0  0  3 V2000
  149.3221  132.0355  153.6693 C   0  0  0  0  0  0  0  0  0  0  0  0
  148.8460  133.2979  154.2223 N   0  5  0  0  0  0  0  0  0  0  0  0
  149.6192  134.1261  154.9748 C   0  0  0  0  0  0  0  0  0  0  0  0
  150.8059  134.0395  155.3081 O   0  0  0  0  0  0  0  0  0  0  0  0
  148.8293  135.3592  155.4283 C   0  0  0  0  0  0  0  0  0  0  0  0
  149.3620  136.5786  154.7709 N   0  3  2  0  0  0  0  0  0  0  0  0
  150.7904  136.8154  155.0996 C   0  0  0  0  0  0  0  0  0  0  0  0
  151.3590  137.9954  154.2921 C   0  0  0  0  0  0  0  0  0  0  0  0
  150.5359  139.2833  154.4930 C   0  0  2  0  0  0  0  0  0  0  0  0
  150.7076  139.8364  155.8363 N   0  0  0  0  0  0  0  0  0  0  0  0
  151.8747  139.9380  156.4892 C   0  0  0  0  0  0  0  0  0  0  0  0
  152.9486  139.5600  156.0202 O   0  0  0  0  0  0  0  0  0  0  0  0
  151.7083  140.4960  157.7013 N   0  0  0  0  0  0  0  0  0  0  0  0
  152.6945  140.7620  158.6874 C   0  0  0  0  0  0  0  0  0  0  0  0
  153.8140  140.0466  158.8473 N   0  0  0  0  0  0  0  0  0  0  0  0
  154.6011  140.5318  159.8948 C   0  0  0  0  0  0  0  0  0  0  0  0
  154.0605  141.6237  160.5273 C   0  0  0  0  0  0  0  0  0  0  0  0
  152.5338  142.0908  159.8263 S   0  0  0  0  0  0  0  0  0  0  0  0
  149.0506  138.9955  154.2147 C   0  0  0  0  0  0  0  0  0  0  0  0
  148.5337  137.7896  155.0200 C   0  0  0  0  0  0  0  0  0  0  0  0
  148.5327  131.5006  153.1419 H   0  0  0  0  0  0  0  0  0  0  0  0
  149.6949  131.3572  154.4372 H   0  0  0  0  0  0  0  0  0  0  0  0
  150.1316  132.1767  152.9524 H   0  0  0  0  0  0  0  0  0  0  0  0
  147.7554  135.2663  155.2505 H   0  0  0  0  0  0  0  0  0  0  0  0
  148.9558  135.4331  156.5093 H   0  0  0  0  0  0  0  0  0  0  0  0
  150.8937  137.0001  156.1700 H   0  0  0  0  0  0  0  0  0  0  0  0
  151.3720  135.9203  154.8761 H   0  0  0  0  0  0  0  0  0  0  0  0
  152.4044  138.1599  154.5555 H   0  0  0  0  0  0  0  0  0  0  0  0
  151.3560  137.7331  153.2332 H   0  0  0  0  0  0  0  0  0  0  0  0
  150.8747  140.0335  153.7759 H   0  0  0  0  0  0  0  0  0  0  0  0
  149.8766  140.1771  156.2977 H   0  0  0  0  0  0  0  0  0  0  0  0
  150.7667  140.7614  157.9494 H   0  0  0  0  0  0  0  0  0  0  0  0
  155.5341  140.0376  160.1229 H   0  0  0  0  0  0  0  0  0  0  0  0
  154.4670  142.1795  161.3591 H   0  0  0  0  0  0  0  0  0  0  0  0
  148.4464  139.8776  154.4308 H   0  0  0  0  0  0  0  0  0  0  0  0
  148.9190  138.7930  153.1508 H   0  0  0  0  0  0  0  0  0  0  0  0
  147.4966  137.6017  154.7416 H   0  0  0  0  0  0  0  0  0  0  0  0
  148.5334  138.0174  156.0869 H   0  0  0  0  0  0  0  0  0  0  0  0
  149.3240  136.3940  153.7785 H   0  0  0  0  0  0  0  0  0  0  0  0
  1  2  1  0  0  0  0
  1 21  1  0  0  0  0
  1 22  1  0  0  0  0
  1 23  1  0  0  0  0
  2  3  1  0  0  0  0
  3  4  2  0  0  0  0
  3  5  1  0  0  0  0
  5  6  1  0  0  0  0
  5 24  1  0  0  0  0
  5 25  1  0  0  0  0
  6 20  1  0  0  0  0
  6  7  1  0  0  0  0
  6 39  1  0  0  0  0
  7  8  1  0  0  0  0
  7 26  1  0  0  0  0
  7 27  1  0  0  0  0
  8  9  1  0  0  0  0
  8 28  1  0  0  0  0
  8 29  1  0  0  0  0
  9 10  1  0  0  0  0
  9 19  1  0  0  0  0
  9 30  1  0  0  0  0
 10 11  1  0  0  0  0
 10 31  1  0  0  0  0
 11 12  2  0  0  0  0
 11 13  1  0  0  0  0
 13 14  1  0  0  0  0
 13 32  1  0  0  0  0
 14 18  1  0  0  0  0
 14 15  2  0  0  0  0
 15 16  1  0  0  0  0
 16 17  2  0  0  0  0
 16 33  1  0  0  0  0
 17 18  1  0  0  0  0
 17 34  1  0  0  0  0
 19 20  1  0  0  0  0
 19 35  1  0  0  0  0
 19 36  1  0  0  0  0
 20 37  1  0  0  0  0
 20 38  1  0  0  0  0
M  CHG  1   2  -1
M  CHG  1   6   1
M  END
> <s_m_source_file>
AV-unprocessed.smi

> <i_m_source_file_index>
1813

> <i_lp_mmshare_version>
43012

> <i_f3d_flags>
0

> <s_epik_input>
W0NIM11bTkhdQyg9TylbQ0gyXU4xW0NIMl1bQ0gyXVtDSF0oW0NIMl1bQ0gyXTEpW05IXUMoPU8pW05IXWMybltjSF1bY0hdczI=

> <s_epik_cmdline>
J2VwaWtfcHl0aG9uJywgJy1waCcsICc3LjAnLCAnLXRuJywgJzgnLCAnLW1hJywgJzIwMCcsICctbWV0YWxfYmluZGluZycsICctaW1hZScsICc8aW5maWxlLm1hZT4nLCAnLW9tYWUnLCAnPG91dGZpbGUubWFlPic=

> <r_lp_tautomer_probability>
0.999

> <r_epik_Ionization_Penalty>
6.14232

> <r_epik_Ionization_Penalty_Charging>
6.14218

> <r_epik_Ionization_Penalty_Neutral>
0.000139308

> <r_epik_State_Penalty>
6.98503

> <r_epik_Charging_Adjusted_Penalty>
13.1272

> <i_epik_Tot_Q>
0

> <i_epik_Tot_abs_Q>
2

> <r_epik_Metal_State_Penalty>
2.95036

> <b_epik_Metal_Only>
1

> <s_lp_Force_Field>
OPLS_2005

> <r_lp_Energy>
8.34863

> <b_lp_Chiralities_Consistent>
1

> <s_lp_Variant>
AV-unprocessed.smi:1813-6

> <Gold.Version>
5.8.1

> <Gold.Id.Protein>
6NUR|6NUR_protein|mol2

> <Gold.PLP.Fitness>
43.6659

> <Gold.PLP.PLP>
-34.4738

> <Gold.PLP.part.hbond>
-3.0000

> <Gold.PLP.part.metal>
0.0000

> <Gold.PLP.part.buried>
-2.2200

> <Gold.PLP.part.nonpolar>
-27.4038

> <Gold.PLP.part.repulsive>
0.3346

> <Gold.PLP.ligand.clash>
0.0000

> <Gold.PLP.ligand.torsion>
0.4453

> <Gold.PLP.Chemscore.Hbond>
3.3440

> <Gold.PLP.Chemscore.CHOScore>
0.0000

> <Gold.PLP.Chemscore.Metal>
0.0000

> <Gold.Chemscore.Hbonds>
donor molecule, donor type, donor heavy atom, donor atom, acceptor molecule, acceptor atom, score
      L1  H     6    39       P1  7948  2.00
      P1  H  7997  8008       L1    15  0.82
      P1  H  7997  8009       L1    12  0.54

> <Gold.PLP.Chemscore.Internal.Correction>
0.0507

> <Gold.Rescore>
     Score         DG    S(hbond)    S(metal)    S(lipo)     H(rot)  DE(clash)    DE(int)     intcor
     11.02     -15.38       1.87        0.00      69.15       1.73       0.16       4.20       ----

> <Gold.Chemscore.Fitness>
11.0216

> <Gold.Chemscore.DG>
-15.3838

> <Gold.Chemscore.ZeroCoef>
-5.4800

> <Gold.Chemscore.Hbond>
1.8699

> <Gold.Chemscore.Metal>
0.0000

> <Gold.Chemscore.Lipo>
69.1474

> <Gold.Chemscore.Internal_Hbond>
0.0000

> <Gold.Chemscore.DEClash>
0.1598

> <Gold.Chemscore.DEInternal>
4.2024

> <Gold.Chemscore.Rot>
1.7312

> <Gold.Chemscore.Internal.Correction>
   9.000000E+99

> <Gold.Chemscore.Hbonds>
donor molecule, donor type, donor heavy atom, donor atom, acceptor molecule, acceptor atom, score
      L1  H     6    39       P1  7948  0.90
      P1  H  7997  8008       L1    15  0.26
      P1  H  7997  8009       L1    12  0.54

> <Gold.Chemscore.Hbond.Weighted>
-6.2454

> <Gold.Chemscore.Metal.Weighted>
-0.0000

> <Gold.Chemscore.Lipo.Weighted>
-8.0902

> <Gold.Chemscore.Internal_Hbond.Weighted>
0.0000

> <Gold.Chemscore.DEClash.Weighted>
0.1598

> <Gold.Chemscore.DEInternal.Weighted>
4.2024

> <Gold.Chemscore.Rot.Weighted>
4.4319

> <Gold.Chemscore.Internal.Correction.Weighted>
   9.000000E+99

> <Gold.Protein.RotatedTorsions>
[ 6907 6896 6895 6894 ] final   89.86 input  -60.11 | X-H torsion
[ 7974 7965 7964 7962 ] final  135.22 input  175.53 | X-H torsion
[ 8008 7997 7996 7995 ] final -120.85 input   59.86 | X-H torsion
[ 10167 10162 10161 10158 ] final   30.00 input  -65.29 | X-H torsion
[ 10718 10713 10712 10709 ] final  177.12 input   66.30 | X-H torsion
[ 10763 10752 10751 10750 ] final   -2.69 input  -60.55 | X-H torsion
[ 11005 11000 10999 10996 ] final -165.34 input  -57.11 | X-H torsion

> <Gold.Protein.ActiveResidues>
 VAL166  LYS551  ARG553  GLY616  TRP617  ASP618  TYR619  PRO620  LYS621  CYS622 
 ASP623  PHE694  ASN695  SER759  ASP760  ASP761  ALA762  ILE779  LEU786  VAL792 
 PHE793  MET794  SER795  GLU796  ALA797  LYS798  CYS799  TRP800  GLU811  SER814 

> <Gold.Protein.RotatedAtoms>
  152.5440  134.1902  159.8670 H   0  0  0  0  0  0  0  0  0  0  0  0  # atno 6907 bound_to 6896
  151.1898  133.4667  159.2602 H   0  0  0  0  0  0  0  0  0  0  0  0  # atno 6908 bound_to 6896
  151.1095  135.0030  159.8542 H   0  0  0  0  0  0  0  0  0  0  0  0  # atno 6909 bound_to 6896
  144.9685  139.4631  143.5444 H   0  0  0  0  0  0  0  0  0  0  0  0  # atno 7974 bound_to 7965
  155.1385  140.0401  157.2792 H   0  0  0  0  0  0  0  0  0  0  0  0  # atno 8008 bound_to 7997
  154.6491  140.2565  155.7208 H   0  0  0  0  0  0  0  0  0  0  0  0  # atno 8009 bound_to 7997
  156.2568  140.2840  156.0916 H   0  0  0  0  0  0  0  0  0  0  0  0  # atno 8010 bound_to 7997
  140.4716  144.0753  150.6239 H   0  0  0  0  0  0  0  0  0  0  0  0  # atno 10167 bound_to 10162
  156.9101  130.9907  151.3022 H   0  0  0  0  0  0  0  0  0  0  0  0  # atno 10718 bound_to 10713
  153.3614  135.6990  153.6709 H   0  0  0  0  0  0  0  0  0  0  0  0  # atno 10763 bound_to 10752
  153.5397  135.3575  155.2713 H   0  0  0  0  0  0  0  0  0  0  0  0  # atno 10764 bound_to 10752
  154.8668  135.4200  154.2872 H   0  0  0  0  0  0  0  0  0  0  0  0  # atno 10765 bound_to 10752
  140.5767  134.5182  157.5171 H   0  0  0  0  0  0  0  0  0  0  0  0  # atno 11005 bound_to 11000
  146.3375  139.8882  142.8813 LP  0  0  0  0  0  0  0  0  0  0  0  0  # atno 17320 bound_to 7965
  145.2594  141.0071  143.3835 LP  0  0  0  0  0  0  0  0  0  0  0  0  # atno 17321 bound_to 7965
  140.3969  143.2723  151.9994 LP  0  0  0  0  0  0  0  0  0  0  0  0  # atno 17342 bound_to 10162
  139.4819  144.6030  151.7571 LP  0  0  0  0  0  0  0  0  0  0  0  0  # atno 17343 bound_to 10162
  157.5973  130.8487  149.8748 LP  0  0  0  0  0  0  0  0  0  0  0  0  # atno 17370 bound_to 10713
  156.0540  130.3712  150.1134 LP  0  0  0  0  0  0  0  0  0  0  0  0  # atno 17371 bound_to 10713
  139.9336  134.7917  156.0863 LP  0  0  0  0  0  0  0  0  0  0  0  0  # atno 17394 bound_to 11000
  141.1022  133.6673  156.2780 LP  0  0  0  0  0  0  0  0  0  0  0  0  # atno 17395 bound_to 11000

$$$$
