AV-unprocessed.smi:833|AV-procd|sdf|3882|dock3
  -GOLD-   22720 1333D 1   1.00000     0.00000
 Structure written by MMmdl.
 40 41  0  0  0  0  0  0  0  0  2 V2000
  145.8974  134.7182  151.4797 C   0  0  0  0  0  0  0  0  0  0  0  0
  144.9274  135.8440  151.0966 C   0  0  2  0  0  0  0  0  0  0  0  0
  145.6873  136.8240  150.4198 O   0  0  0  0  0  0  0  0  0  0  0  0
  144.2632  136.4827  152.3336 C   0  0  0  0  0  0  0  0  0  0  0  0
  144.7700  137.8259  152.5946 N   0  0  0  0  0  0  0  0  0  0  0  0
  145.9199  138.1074  153.2223 C   0  0  0  0  0  0  0  0  0  0  0  0
  146.6892  137.2495  153.6545 O   0  0  0  0  0  0  0  0  0  0  0  0
  146.1254  139.4330  153.2937 N   0  0  0  0  0  0  0  0  0  0  0  0
  147.2641  140.1087  153.8158 C   0  0  0  0  0  0  0  0  0  0  0  0
  148.5151  139.4493  153.9296 C   0  0  0  0  0  0  0  0  0  0  0  0
  149.6102  140.1141  154.5122 C   0  0  0  0  0  0  0  0  0  0  0  0
  149.4345  141.4241  154.9892 C   0  0  0  0  0  0  0  0  0  0  0  0
  148.2290  142.0196  154.8786 N   0  3  0  0  0  0  0  0  0  0  0  0
  147.1409  141.4386  154.3140 C   0  0  0  0  0  0  0  0  0  0  0  0
  145.9463  142.1932  154.2581 N   0  0  0  0  0  0  0  0  0  0  0  0
  145.1770  142.4501  155.4704 C   0  0  0  0  0  0  0  0  0  0  0  0
  144.2033  143.5639  155.0954 C   0  0  0  0  0  0  0  0  0  0  0  0
  145.0215  144.3984  154.1146 C   0  0  0  0  0  0  0  0  0  0  0  0
  145.8807  143.3608  153.3849 C   0  0  0  0  0  0  0  0  0  0  0  0
  145.3753  133.9069  151.9874 H   0  0  0  0  0  0  0  0  0  0  0  0
  146.6816  135.0779  152.1468 H   0  0  0  0  0  0  0  0  0  0  0  0
  146.3785  134.2954  150.5969 H   0  0  0  0  0  0  0  0  0  0  0  0
  144.1720  135.4447  150.4183 H   0  0  0  0  0  0  0  0  0  0  0  0
  145.1402  137.5813  150.2744 H   0  0  0  0  0  0  0  0  0  0  0  0
  143.1946  136.5997  152.1502 H   0  0  0  0  0  0  0  0  0  0  0  0
  144.3476  135.8441  153.2152 H   0  0  0  0  0  0  0  0  0  0  0  0
  144.2007  138.5942  152.2708 H   0  0  0  0  0  0  0  0  0  0  0  0
  145.4525  140.0144  152.8160 H   0  0  0  0  0  0  0  0  0  0  0  0
  148.6461  138.4304  153.5976 H   0  0  0  0  0  0  0  0  0  0  0  0
  150.5668  139.6205  154.6032 H   0  0  0  0  0  0  0  0  0  0  0  0
  150.2134  142.0089  155.4570 H   0  0  0  0  0  0  0  0  0  0  0  0
  144.6558  141.5546  155.8098 H   0  0  0  0  0  0  0  0  0  0  0  0
  145.8321  142.7929  156.2724 H   0  0  0  0  0  0  0  0  0  0  0  0
  143.3311  143.1454  154.5915 H   0  0  0  0  0  0  0  0  0  0  0  0
  143.8567  144.1342  155.9578 H   0  0  0  0  0  0  0  0  0  0  0  0
  144.4038  144.9890  153.4376 H   0  0  0  0  0  0  0  0  0  0  0  0
  145.6647  145.0850  154.6669 H   0  0  0  0  0  0  0  0  0  0  0  0
  146.8690  143.7588  153.1510 H   0  0  0  0  0  0  0  0  0  0  0  0
  145.4004  143.0714  152.4499 H   0  0  0  0  0  0  0  0  0  0  0  0
  148.1330  142.9702  155.2357 H   0  0  0  0  0  0  0  0  0  0  0  0
  1  2  1  0  0  0  0
  1 20  1  0  0  0  0
  1 21  1  0  0  0  0
  1 22  1  0  0  0  0
  2  3  1  0  0  0  0
  2  4  1  0  0  0  0
  2 23  1  0  0  0  0
  3 24  1  0  0  0  0
  4  5  1  0  0  0  0
  4 25  1  0  0  0  0
  4 26  1  0  0  0  0
  5  6  1  0  0  0  0
  5 27  1  0  0  0  0
  6  7  2  0  0  0  0
  6  8  1  0  0  0  0
  8  9  1  0  0  0  0
  8 28  1  0  0  0  0
  9 14  1  0  0  0  0
  9 10  2  0  0  0  0
 10 11  1  0  0  0  0
 10 29  1  0  0  0  0
 11 12  2  0  0  0  0
 11 30  1  0  0  0  0
 12 13  1  0  0  0  0
 12 31  1  0  0  0  0
 13 14  2  0  0  0  0
 13 40  1  0  0  0  0
 14 15  1  0  0  0  0
 15 19  1  0  0  0  0
 15 16  1  0  0  0  0
 16 17  1  0  0  0  0
 16 32  1  0  0  0  0
 16 33  1  0  0  0  0
 17 18  1  0  0  0  0
 17 34  1  0  0  0  0
 17 35  1  0  0  0  0
 18 19  1  0  0  0  0
 18 36  1  0  0  0  0
 18 37  1  0  0  0  0
 19 38  1  0  0  0  0
 19 39  1  0  0  0  0
M  CHG  1  13   1
M  END
> <s_m_source_file>
AV-unprocessed.smi

> <i_m_source_file_index>
833

> <i_lp_mmshare_version>
43012

> <i_f3d_flags>
0

> <s_epik_input>
W0NIM11bQ0BIXShbT0hdKVtDSDJdW05IXUMoPU8pW05IXWMxW2NIXVtjSF1bY0hdbmMxTjJbQ0gyXVtDSDJdW0NIMl1bQ0gyXTI=

> <s_epik_cmdline>
J2VwaWtfcHl0aG9uJywgJy1waCcsICc3LjAnLCAnLXRuJywgJzgnLCAnLW1hJywgJzIwMCcsICctbWV0YWxfYmluZGluZycsICctaW1hZScsICc8aW5maWxlLm1hZT4nLCAnLW9tYWUnLCAnPG91dGZpbGUubWFlPic=

> <r_lp_tautomer_probability>
0.999994

> <r_epik_Ionization_Penalty>
1.11387

> <r_epik_Ionization_Penalty_Charging>
1.11385

> <r_epik_Ionization_Penalty_Neutral>
1.95796e-05

> <r_epik_State_Penalty>
1.17209

> <r_epik_Charging_Adjusted_Penalty>
2.28594

> <i_epik_Tot_Q>
1

> <i_epik_Tot_abs_Q>
1

> <r_epik_Metal_State_Penalty>
1.25763

> <b_epik_Metal_Only>
0

> <s_lp_Force_Field>
OPLS_2005

> <r_lp_Energy>
38.091

> <b_lp_Chiralities_Consistent>
1

> <s_lp_Variant>
AV-unprocessed.smi:833-3

> <Gold.Version>
5.8.1

> <Gold.Id.Protein>
6NUR|6NUR_protein|mol2

> <Gold.PLP.Fitness>
46.9122

> <Gold.PLP.PLP>
-33.8356

> <Gold.PLP.part.hbond>
-4.9600

> <Gold.PLP.part.metal>
0.0000

> <Gold.PLP.part.buried>
-6.7504

> <Gold.PLP.part.nonpolar>
-23.9377

> <Gold.PLP.part.repulsive>
0.8571

> <Gold.PLP.ligand.clash>
0.0000

> <Gold.PLP.ligand.torsion>
1.1556

> <Gold.PLP.Chemscore.Hbond>
4.9920

> <Gold.PLP.Chemscore.CHOScore>
0.0000

> <Gold.PLP.Chemscore.Metal>
0.0000

> <Gold.Chemscore.Hbonds>
donor molecule, donor type, donor heavy atom, donor atom, acceptor molecule, acceptor atom, score
      L1  H     3    24       P1 10171  1.00
      L1  H     5    27       P1 10175  0.99
      L1  H     8    28       P1 10175  1.00
      L1  H    13    40       P1  8028  2.00

> <Gold.PLP.Chemscore.Internal.Correction>
0.4118

> <Gold.Rescore>
     Score         DG    S(hbond)    S(metal)    S(lipo)     H(rot)  DE(clash)    DE(int)     intcor
     17.52     -20.10       3.78        0.00      62.20       2.06       0.14       2.44       ----

> <Gold.Chemscore.Fitness>
17.5177

> <Gold.Chemscore.DG>
-20.1026

> <Gold.Chemscore.ZeroCoef>
-5.4800

> <Gold.Chemscore.Hbond>
3.7809

> <Gold.Chemscore.Metal>
0.0000

> <Gold.Chemscore.Lipo>
62.2008

> <Gold.Chemscore.Internal_Hbond>
0.0000

> <Gold.Chemscore.DEClash>
0.1410

> <Gold.Chemscore.DEInternal>
2.4439

> <Gold.Chemscore.Rot>
2.0637

> <Gold.Chemscore.Internal.Correction>
   9.000000E+99

> <Gold.Chemscore.Hbonds>
donor molecule, donor type, donor heavy atom, donor atom, acceptor molecule, acceptor atom, score
      L1  H     3    24       P1 10171  1.00
      L1  H     5    27       P1 10175  0.93
      L1  H     8    28       P1 10175  0.93
      L1  H    13    40       P1  8028  0.92

> <Gold.Chemscore.Hbond.Weighted>
-12.6283

> <Gold.Chemscore.Metal.Weighted>
-0.0000

> <Gold.Chemscore.Lipo.Weighted>
-7.2775

> <Gold.Chemscore.Internal_Hbond.Weighted>
0.0000

> <Gold.Chemscore.DEClash.Weighted>
0.1410

> <Gold.Chemscore.DEInternal.Weighted>
2.4439

> <Gold.Chemscore.Rot.Weighted>
5.2832

> <Gold.Chemscore.Internal.Correction.Weighted>
   9.000000E+99

> <Gold.Protein.RotatedTorsions>
[ 6907 6896 6895 6894 ] final   78.11 input  -60.11 | X-H torsion
[ 7974 7965 7964 7962 ] final    4.78 input  175.53 | X-H torsion
[ 8008 7997 7996 7995 ] final  131.01 input   59.86 | X-H torsion
[ 10167 10162 10161 10158 ] final   99.31 input  -65.29 | X-H torsion
[ 10718 10713 10712 10709 ] final  104.09 input   66.30 | X-H torsion
[ 10763 10752 10751 10750 ] final   -5.59 input  -60.55 | X-H torsion
[ 11005 11000 10999 10996 ] final  -70.98 input  -57.11 | X-H torsion

> <Gold.Protein.ActiveResidues>
 VAL166  LYS551  ARG553  GLY616  TRP617  ASP618  TYR619  PRO620  LYS621  CYS622 
 ASP623  PHE694  ASN695  SER759  ASP760  ASP761  ALA762  ILE779  LEU786  VAL792 
 PHE793  MET794  SER795  GLU796  ALA797  LYS798  CYS799  TRP800  GLU811  SER814 

> <Gold.Protein.RotatedAtoms>
  152.5146  134.3714  159.9319 H   0  0  0  0  0  0  0  0  0  0  0  0  # atno 6907 bound_to 6896
  151.3669  133.3863  159.2703 H   0  0  0  0  0  0  0  0  0  0  0  0  # atno 6908 bound_to 6896
  150.9608  134.9016  159.7788 H   0  0  0  0  0  0  0  0  0  0  0  0  # atno 6909 bound_to 6896
  146.2443  140.0483  142.8377 H   0  0  0  0  0  0  0  0  0  0  0  0  # atno 7974 bound_to 7965
  156.2963  140.2582  156.2856 H   0  0  0  0  0  0  0  0  0  0  0  0  # atno 8008 bound_to 7997
  154.9559  140.0393  157.2185 H   0  0  0  0  0  0  0  0  0  0  0  0  # atno 8009 bound_to 7997
  154.7992  140.2825  155.5939 H   0  0  0  0  0  0  0  0  0  0  0  0  # atno 8010 bound_to 7997
  139.7629  144.6948  151.0266 H   0  0  0  0  0  0  0  0  0  0  0  0  # atno 10167 bound_to 10162
  157.6751  131.0795  150.5654 H   0  0  0  0  0  0  0  0  0  0  0  0  # atno 10718 bound_to 10713
  153.4006  135.7005  153.6429 H   0  0  0  0  0  0  0  0  0  0  0  0  # atno 10763 bound_to 10752
  153.4964  135.3661  155.2518 H   0  0  0  0  0  0  0  0  0  0  0  0  # atno 10764 bound_to 10752
  154.8710  135.4101  154.3340 H   0  0  0  0  0  0  0  0  0  0  0  0  # atno 10765 bound_to 10752
  141.1584  133.6805  156.6836 H   0  0  0  0  0  0  0  0  0  0  0  0  # atno 11005 bound_to 11000
  145.1007  140.9344  143.4714 LP  0  0  0  0  0  0  0  0  0  0  0  0  # atno 17320 bound_to 7965
  145.0675  139.3057  143.5849 LP  0  0  0  0  0  0  0  0  0  0  0  0  # atno 17321 bound_to 7965
  140.7808  143.4676  151.0190 LP  0  0  0  0  0  0  0  0  0  0  0  0  # atno 17342 bound_to 10162
  139.8362  143.7625  152.3180 LP  0  0  0  0  0  0  0  0  0  0  0  0  # atno 17343 bound_to 10162
  156.5956  130.4341  149.5918 LP  0  0  0  0  0  0  0  0  0  0  0  0  # atno 17370 bound_to 10713
  156.2548  130.6928  151.1677 LP  0  0  0  0  0  0  0  0  0  0  0  0  # atno 17371 bound_to 10713
  140.3084  134.8106  157.4156 LP  0  0  0  0  0  0  0  0  0  0  0  0  # atno 17394 bound_to 11000
  140.1200  134.5232  155.8192 LP  0  0  0  0  0  0  0  0  0  0  0  0  # atno 17395 bound_to 11000

$$$$
