AV-unprocessed.smi:1586|AV-procd|sdf|6378|dock2
  -GOLD-   22720 7 03D 1   1.00000     0.00000
 Structure written by MMmdl.
 46 47  0  0  0  0  0  0  0  0  1 V2000
  152.7711  143.8855  158.6436 C   0  0  0  0  0  0  0  0  0  0  0  0
  151.5500  143.0634  159.0798 C   0  0  0  0  0  0  0  0  0  0  0  0
  151.1970  141.9627  158.1852 N   0  0  0  0  0  0  0  0  0  0  0  0
  150.8441  142.4619  156.8597 C   0  0  0  0  0  0  0  0  0  0  0  0
  150.4454  141.3195  155.9088 C   0  0  0  0  0  0  0  0  0  0  0  0
  151.5242  140.3352  155.7308 N   0  0  0  0  0  0  0  0  0  0  0  0
  151.1476  139.2377  154.8091 C   0  0  1  0  0  0  0  0  0  0  0  0
  152.2500  138.1538  154.6927 C   0  0  0  0  0  0  0  0  0  0  0  0
  149.8000  138.5585  155.1868 C   0  0  0  0  0  0  0  0  0  0  0  0
  149.6327  137.2388  154.5818 N   0  0  0  0  0  0  0  0  0  0  0  0
  149.9982  136.0730  155.1363 C   0  0  0  0  0  0  0  0  0  0  0  0
  150.5240  135.9790  156.2456 O   0  0  0  0  0  0  0  0  0  0  0  0
  149.7241  135.0405  154.3210 N   0  0  0  0  0  0  0  0  0  0  0  0
  150.0016  133.6674  154.5420 C   0  0  0  0  0  0  0  0  0  0  0  0
  149.4174  132.6654  153.7225 C   0  0  0  0  0  0  0  0  0  0  0  0
  149.9264  131.5082  154.2416 C   0  0  0  0  0  0  0  0  0  0  0  0
  149.7508  130.0724  153.8834 C   0  0  0  0  0  0  0  0  0  0  0  0
  150.7488  131.7809  155.2907 O   0  0  0  0  0  0  0  0  0  0  0  0
  150.7938  133.1675  155.4780 N   0  0  0  0  0  0  0  0  0  0  0  0
  151.8988  139.8548  157.0702 C   0  0  0  0  0  0  0  0  0  0  0  0
  152.2870  141.0019  158.0222 C   0  0  0  0  0  0  0  0  0  0  0  0
  153.0306  144.6189  159.4070 H   0  0  0  0  0  0  0  0  0  0  0  0
  152.5857  144.4333  157.7201 H   0  0  0  0  0  0  0  0  0  0  0  0
  153.6410  143.2463  158.4900 H   0  0  0  0  0  0  0  0  0  0  0  0
  151.7676  142.6565  160.0681 H   0  0  0  0  0  0  0  0  0  0  0  0
  150.6928  143.7254  159.2110 H   0  0  0  0  0  0  0  0  0  0  0  0
  150.0132  143.1637  156.9393 H   0  0  0  0  0  0  0  0  0  0  0  0
  151.6807  143.0176  156.4325 H   0  0  0  0  0  0  0  0  0  0  0  0
  149.5449  140.8270  156.2792 H   0  0  0  0  0  0  0  0  0  0  0  0
  150.1854  141.7814  154.9585 H   0  0  0  0  0  0  0  0  0  0  0  0
  151.0187  139.6660  153.8138 H   0  0  0  0  0  0  0  0  0  0  0  0
  151.9626  137.3358  154.0341 H   0  0  0  0  0  0  0  0  0  0  0  0
  152.4838  137.7235  155.6670 H   0  0  0  0  0  0  0  0  0  0  0  0
  153.1724  138.5415  154.2638 H   0  0  0  0  0  0  0  0  0  0  0  0
  149.6915  138.5171  156.2721 H   0  0  0  0  0  0  0  0  0  0  0  0
  148.9530  139.1336  154.8179 H   0  0  0  0  0  0  0  0  0  0  0  0
  149.2102  137.2147  153.6653 H   0  0  0  0  0  0  0  0  0  0  0  0
  149.2851  135.2621  153.4397 H   0  0  0  0  0  0  0  0  0  0  0  0
  148.7386  132.7743  152.8895 H   0  0  0  0  0  0  0  0  0  0  0  0
  149.2702  129.9696  152.9105 H   0  0  0  0  0  0  0  0  0  0  0  0
  149.1321  129.5636  154.6226 H   0  0  0  0  0  0  0  0  0  0  0  0
  150.7138  129.5633  153.8392 H   0  0  0  0  0  0  0  0  0  0  0  0
  151.0813  139.2765  157.5034 H   0  0  0  0  0  0  0  0  0  0  0  0
  152.7606  139.1931  157.0145 H   0  0  0  0  0  0  0  0  0  0  0  0
  153.1782  141.5055  157.6441 H   0  0  0  0  0  0  0  0  0  0  0  0
  152.5572  140.5724  158.9864 H   0  0  0  0  0  0  0  0  0  0  0  0
  1  2  1  0  0  0  0
  1 22  1  0  0  0  0
  1 23  1  0  0  0  0
  1 24  1  0  0  0  0
  2  3  1  0  0  0  0
  2 25  1  0  0  0  0
  2 26  1  0  0  0  0
  3 21  1  0  0  0  0
  3  4  1  0  0  0  0
  4  5  1  0  0  0  0
  4 27  1  0  0  0  0
  4 28  1  0  0  0  0
  5  6  1  0  0  0  0
  5 29  1  0  0  0  0
  5 30  1  0  0  0  0
  6  7  1  0  0  0  0
  6 20  1  0  0  0  0
  7  8  1  0  0  0  0
  7  9  1  0  0  0  0
  7 31  1  0  0  0  0
  8 32  1  0  0  0  0
  8 33  1  0  0  0  0
  8 34  1  0  0  0  0
  9 10  1  0  0  0  0
  9 35  1  0  0  0  0
  9 36  1  0  0  0  0
 10 11  1  0  0  0  0
 10 37  1  0  0  0  0
 11 12  2  0  0  0  0
 11 13  1  0  0  0  0
 13 14  1  0  0  0  0
 13 38  1  0  0  0  0
 14 19  2  0  0  0  0
 14 15  1  0  0  0  0
 15 16  2  0  0  0  0
 15 39  1  0  0  0  0
 16 17  1  0  0  0  0
 16 18  1  0  0  0  0
 17 40  1  0  0  0  0
 17 41  1  0  0  0  0
 17 42  1  0  0  0  0
 18 19  1  0  0  0  0
 20 21  1  0  0  0  0
 20 43  1  0  0  0  0
 20 44  1  0  0  0  0
 21 45  1  0  0  0  0
 21 46  1  0  0  0  0
M  END
> <s_m_source_file>
AV-unprocessed.smi

> <i_m_source_file_index>
1586

> <i_lp_mmshare_version>
43012

> <i_f3d_flags>
0

> <s_epik_input>
W0NIM11bQ0gyXU4xW0NIMl1bQ0gyXU4oW0NIMl1bQ0gyXTEpW0NASF0oW0NIM10pW0NIMl1bTkhdQyg9TylbTkhdYzJbY0hdYyhbQ0gzXSlvbjI=

> <s_epik_cmdline>
J2VwaWtfcHl0aG9uJywgJy1waCcsICc3LjAnLCAnLXRuJywgJzgnLCAnLW1hJywgJzIwMCcsICctbWV0YWxfYmluZGluZycsICctaW1hZScsICc8aW5maWxlLm1hZT4nLCAnLW9tYWUnLCAnPG91dGZpbGUubWFlPic=

> <r_epik_Ionization_Penalty>
2.42597

> <r_epik_Ionization_Penalty_Charging>
0

> <r_epik_Ionization_Penalty_Neutral>
2.42597

> <r_epik_State_Penalty>
1.76326

> <r_epik_Charging_Adjusted_Penalty>
1.76326

> <i_epik_Tot_Q>
0

> <i_epik_Tot_abs_Q>
0

> <r_epik_Metal_State_Penalty>
1.7742

> <b_epik_Metal_Only>
0

> <s_lp_Force_Field>
OPLS_2005

> <r_lp_Energy>
39.6445

> <b_lp_Chiralities_Consistent>
1

> <s_lp_Variant>
AV-unprocessed.smi:1586-6

> <Gold.Version>
5.8.1

> <Gold.Id.Protein>
6NUR|6NUR_protein|mol2

> <Gold.PLP.Fitness>
43.2986

> <Gold.PLP.PLP>
-38.3160

> <Gold.PLP.part.hbond>
-2.7119

> <Gold.PLP.part.metal>
0.0000

> <Gold.PLP.part.buried>
-4.1942

> <Gold.PLP.part.nonpolar>
-31.7894

> <Gold.PLP.part.repulsive>
0.1079

> <Gold.PLP.ligand.clash>
0.0000

> <Gold.PLP.ligand.torsion>
0.4968

> <Gold.PLP.Chemscore.Hbond>
1.9760

> <Gold.PLP.Chemscore.CHOScore>
0.0000

> <Gold.PLP.Chemscore.Metal>
0.0000

> <Gold.Chemscore.Hbonds>
donor molecule, donor type, donor heavy atom, donor atom, acceptor molecule, acceptor atom, score
      L1  H    10    37       P1  7948  0.92
      L1  H    13    38       P1  7948  0.90

> <Gold.PLP.Chemscore.Internal.Correction>
0.0481

> <Gold.Rescore>
     Score         DG    S(hbond)    S(metal)    S(lipo)     H(rot)  DE(clash)    DE(int)     intcor
     14.94     -16.80       1.56        0.00      89.92       1.72       0.13       1.73       ----

> <Gold.Chemscore.Fitness>
14.9411

> <Gold.Chemscore.DG>
-16.7984

> <Gold.Chemscore.ZeroCoef>
-5.4800

> <Gold.Chemscore.Hbond>
1.5555

> <Gold.Chemscore.Metal>
0.0000

> <Gold.Chemscore.Lipo>
89.9214

> <Gold.Chemscore.Internal_Hbond>
0.0000

> <Gold.Chemscore.DEClash>
0.1289

> <Gold.Chemscore.DEInternal>
1.7284

> <Gold.Chemscore.Rot>
1.7178

> <Gold.Chemscore.Internal.Correction>
   9.000000E+99

> <Gold.Chemscore.Hbonds>
donor molecule, donor type, donor heavy atom, donor atom, acceptor molecule, acceptor atom, score
      L1  H    10    37       P1  7948  0.82
      L1  H    13    38       P1  7948  0.18

> <Gold.Chemscore.Hbond.Weighted>
-5.1953

> <Gold.Chemscore.Metal.Weighted>
-0.0000

> <Gold.Chemscore.Lipo.Weighted>
-10.5208

> <Gold.Chemscore.Internal_Hbond.Weighted>
0.0000

> <Gold.Chemscore.DEClash.Weighted>
0.1289

> <Gold.Chemscore.DEInternal.Weighted>
1.7284

> <Gold.Chemscore.Rot.Weighted>
4.3976

> <Gold.Chemscore.Internal.Correction.Weighted>
   9.000000E+99

> <Gold.Protein.RotatedTorsions>
[ 6907 6896 6895 6894 ] final -161.47 input  -60.11 | X-H torsion
[ 7974 7965 7964 7962 ] final  -66.61 input  175.53 | X-H torsion
[ 8008 7997 7996 7995 ] final -168.65 input   59.86 | X-H torsion
[ 10167 10162 10161 10158 ] final   67.68 input  -65.29 | X-H torsion
[ 10718 10713 10712 10709 ] final -120.60 input   66.30 | X-H torsion
[ 10763 10752 10751 10750 ] final  -49.32 input  -60.55 | X-H torsion
[ 11005 11000 10999 10996 ] final -172.07 input  -57.11 | X-H torsion

> <Gold.Protein.ActiveResidues>
 VAL166  LYS551  ARG553  GLY616  TRP617  ASP618  TYR619  PRO620  LYS621  CYS622 
 ASP623  PHE694  ASN695  SER759  ASP760  ASP761  ALA762  ILE779  LEU786  VAL792 
 PHE793  MET794  SER795  GLU796  ALA797  LYS798  CYS799  TRP800  GLU811  SER814 

> <Gold.Protein.RotatedAtoms>
  151.3651  133.3875  159.2693 H   0  0  0  0  0  0  0  0  0  0  0  0  # atno 6907 bound_to 6896
  150.9695  134.9071  159.7789 H   0  0  0  0  0  0  0  0  0  0  0  0  # atno 6908 bound_to 6896
  152.5179  134.3613  159.9338 H   0  0  0  0  0  0  0  0  0  0  0  0  # atno 6909 bound_to 6896
  145.7397  140.8959  143.0536 H   0  0  0  0  0  0  0  0  0  0  0  0  # atno 7974 bound_to 7965
  155.8944  140.1030  157.1396 H   0  0  0  0  0  0  0  0  0  0  0  0  # atno 8008 bound_to 7997
  154.4018  140.1304  156.4420 H   0  0  0  0  0  0  0  0  0  0  0  0  # atno 8009 bound_to 7997
  155.7497  140.3465  155.5146 H   0  0  0  0  0  0  0  0  0  0  0  0  # atno 8010 bound_to 7997
  140.0869  144.5022  150.7124 H   0  0  0  0  0  0  0  0  0  0  0  0  # atno 10167 bound_to 10162
  156.1271  130.6367  150.9561 H   0  0  0  0  0  0  0  0  0  0  0  0  # atno 10718 bound_to 10713
  154.0922  135.6575  153.4854 H   0  0  0  0  0  0  0  0  0  0  0  0  # atno 10763 bound_to 10752
  153.0317  135.5205  154.7369 H   0  0  0  0  0  0  0  0  0  0  0  0  # atno 10764 bound_to 10752
  154.6496  135.2999  154.9972 H   0  0  0  0  0  0  0  0  0  0  0  0  # atno 10765 bound_to 10752
  140.5012  134.5892  157.4988 H   0  0  0  0  0  0  0  0  0  0  0  0  # atno 11005 bound_to 11000
  144.6873  139.9443  143.7476 LP  0  0  0  0  0  0  0  0  0  0  0  0  # atno 17320 bound_to 7965
  146.0460  139.3466  143.0668 LP  0  0  0  0  0  0  0  0  0  0  0  0  # atno 17321 bound_to 7965
  140.7049  143.2460  151.4757 LP  0  0  0  0  0  0  0  0  0  0  0  0  # atno 17342 bound_to 10162
  139.5747  144.1847  152.1886 LP  0  0  0  0  0  0  0  0  0  0  0  0  # atno 17343 bound_to 10162
  157.6452  131.0905  150.8168 LP  0  0  0  0  0  0  0  0  0  0  0  0  # atno 17370 bound_to 10713
  156.8257  130.4999  149.5337 LP  0  0  0  0  0  0  0  0  0  0  0  0  # atno 17371 bound_to 10713
  139.9712  134.7289  156.0037 LP  0  0  0  0  0  0  0  0  0  0  0  0  # atno 17394 bound_to 11000
  141.1435  133.6560  156.3798 LP  0  0  0  0  0  0  0  0  0  0  0  0  # atno 17395 bound_to 11000

$$$$
