#       Name:                AV-unprocessed.smi:1045
#       Creating user name   scv26
#       Creation time:       Fri Mar 27 02:57:19 2020


#       File generated by GOLD software.
#

@<TRIPOS>MOLECULE
AV-unprocessed.smi:1045
    48    49     1
SMALL
NO_CHARGES


@<TRIPOS>ATOM
      1 ****        -5.4443   4.9569  -1.7975 C.3            1 S1                 0.0000
      2 ****        -4.0282   4.9158  -1.8298 O.3            1 S1                 0.0000
      3 ****        -3.5230   3.5919  -1.8894 C.3            1 S1                 0.0000
      4 ****        -1.9870   3.6287  -1.9315 C.3            1 S1                 0.0000
      5 ****        -1.4557   4.2797  -3.2171 C.3            1 S1                 0.0000
      6 ****        -1.4644   2.2674  -1.8301 N.am           1 S1                 0.0000
      7 ****        -0.7424   1.7755  -0.8126 C.2            1 S1                 0.0000
      8 ****        -0.4303   2.4283   0.1828 O.2            1 S1                 0.0000
      9 ****        -0.4296   0.4843  -1.0191 N.am           1 S1                 0.0000
     10 ****         0.3607  -0.3740  -0.2067 C.ar           1 S1                 0.0000
     11 ****         0.2335  -1.7667  -0.3998 C.ar           1 S1                 0.0000
     12 ****         1.0128  -2.6550   0.3697 C.ar           1 S1                 0.0000
     13 ****         1.9225  -2.1352   1.3198 C.ar           1 S1                 0.0000
     14 ****         2.7442  -2.9290   2.1326 N.3            1 S1                 0.0000
     15 ****         3.6439  -3.8224   1.4219 C.3            1 S1                 0.0000
     16 ****         4.1144  -4.8415   2.4627 C.3            1 S1                 0.0000
     17 ****         3.0433  -4.8066   3.5593 C.3            1 S1                 0.0000
     18 ****         2.0308  -3.7588   3.0883 C.3            1 S1                 0.0000
     19 ****         2.0216  -0.7966   1.4690 N.pl3          1 S1                 1.0000
     20 ****         1.2927   0.0883   0.7547 C.ar           1 S1                 0.0000
     21 ****        -5.7796   5.9927  -1.7442 H              1 S1                 0.0000
     22 ****        -5.8361   4.4317  -0.9255 H              1 S1                 0.0000
     23 ****        -5.8721   4.5111  -2.6965 H              1 S1                 0.0000
     24 ****        -3.8571   3.0403  -1.0088 H              1 S1                 0.0000
     25 ****        -3.9158   3.0754  -2.7670 H              1 S1                 0.0000
     26 ****        -1.6416   4.2273  -1.0869 H              1 S1                 0.0000
     27 ****        -1.8101   5.3061  -3.3155 H              1 S1                 0.0000
     28 ****        -1.7769   3.7315  -4.1034 H              1 S1                 0.0000
     29 ****        -0.3656   4.3094  -3.2193 H              1 S1                 0.0000
     30 ****        -1.6731   1.6508  -2.6018 H              1 S1                 0.0000
     31 ****        -0.8325   0.0567  -1.8401 H              1 S1                 0.0000
     32 ****        -0.4605  -2.1571  -1.1298 H              1 S1                 0.0000
     33 ****         0.9082  -3.7208   0.2273 H              1 S1                 0.0000
     34 ****         3.1229  -4.3313   0.6102 H              1 S1                 0.0000
     35 ****         4.4826  -3.2740   0.9918 H              1 S1                 0.0000
     36 ****         4.2328  -5.8347   2.0284 H              1 S1                 0.0000
     37 ****         5.0783  -4.5430   2.8766 H              1 S1                 0.0000
     38 ****         2.5723  -5.7784   3.7108 H              1 S1                 0.0000
     39 ****         3.4913  -4.5041   4.5068 H              1 S1                 0.0000
     40 ****         1.6536  -3.1639   3.9206 H              1 S1                 0.0000
     41 ****         1.1804  -4.2464   2.6101 H              1 S1                 0.0000
     42 ****         1.4987   1.1249   0.9748 H              1 S1                 0.0000
     43 ****         2.6844  -0.4338   2.1548 H              1 S1                 0.0000
     44 ****        -3.6759   5.3563  -1.0041 LP             1 S1                 0.0000
     45 ****        -3.7114   5.4162  -2.6356 LP             1 S1                 0.0000
     46 ****        -0.7175   3.3826   0.2651 LP             1 S1                 0.0000
     47 ****         0.1105   2.0044   0.9093 LP             1 S1                 0.0000
     48 ****         3.2688  -2.2195   2.6031 LP             1 S1                 0.0000
@<TRIPOS>BOND
    1    1    2 1     
    2    1   21 1     
    3    1   22 1     
    4    1   23 1     
    5    2    3 1     
    6    3    4 1     
    7    3   24 1     
    8    3   25 1     
    9    4    5 1     
   10    4    6 1     
   11    4   26 1     
   12    5   27 1     
   13    5   28 1     
   14    5   29 1     
   15    6    7 am    
   16    6   30 1     
   17    7    8 2     
   18    7    9 am    
   19    9   10 1     
   20    9   31 1     
   21   10   20 ar    
   22   10   11 ar    
   23   11   12 ar    
   24   11   32 1     
   25   12   13 ar    
   26   12   33 1     
   27   13   14 1     
   28   13   19 ar    
   29   14   18 1     
   30   14   15 1     
   31   15   16 1     
   32   15   34 1     
   33   15   35 1     
   34   16   17 1     
   35   16   36 1     
   36   16   37 1     
   37   17   18 1     
   38   17   38 1     
   39   17   39 1     
   40   18   40 1     
   41   18   41 1     
   42   19   20 ar    
   43   19   43 1     
   44   20   42 1     
   45    2   44 1     
   46    2   45 1     
   47    8   46 1     
   48    8   47 1     
   49   14   48 1     
@<TRIPOS>SUBSTRUCTURE
      1 S1             1
@<TRIPOS>SET
LONE_PAIRS      STATIC     ATOMS    <user>   **** ""
5 44 45 46 47 48
DONOR_HYDROGENS      STATIC     ATOMS    <user>   **** ""
3 30 31 43
ATOM$BLUE        STATIC     ATOMS    COLORGROUP SYSTEM
5 44 45 46 47 48
ATOM$RED        STATIC     ATOMS    COLORGROUP SYSTEM
3 30 31 43
