AV-unprocessed.smi:88|AV-procd|sdf|824|dock3
  -GOLD-   2262017233D 1   1.00000     0.00000
 Structure written by MMmdl.
 56 60  0  0  0  0  0  0  0  0  1 V2000
  150.8282  130.5532  154.9302 C   0  0  0  0  0  0  0  0  0  0  0  0
  150.0012  131.2759  155.8992 N   0  0  0  0  0  0  0  0  0  0  0  0
  149.2087  130.6882  156.8104 C   0  0  0  0  0  0  0  0  0  0  0  0
  149.0437  129.4800  156.9693 O   0  0  0  0  0  0  0  0  0  0  0  0
  148.6186  131.6394  157.5322 N   0  0  0  0  0  0  0  0  0  0  0  0
  148.9949  132.9776  157.1403 C   0  0  0  0  0  0  0  0  0  0  0  0
  149.9760  132.7429  155.9714 C   0  0  0  0  0  0  0  0  0  0  0  0
  151.3808  133.3214  156.2763 C   0  0  0  0  0  0  0  0  0  0  0  0
  151.3748  134.8606  156.2854 C   0  0  0  0  0  0  0  0  0  0  0  0
  150.8272  135.3835  155.0368 N   0  0  0  0  0  0  0  0  0  0  0  0
  150.9663  136.7193  154.9071 C   0  0  0  0  0  0  0  0  0  0  0  0
  152.2071  137.2334  155.0872 N   0  0  0  0  0  0  0  0  0  0  0  0
  152.4067  138.5499  154.9706 C   0  0  0  0  0  0  0  0  0  0  0  0
  151.5213  139.5077  154.6843 N   0  0  0  0  0  0  0  0  0  0  0  0
  150.2717  138.9904  154.5036 C   0  0  0  0  0  0  0  0  0  0  0  0
  149.9073  137.6179  154.5957 C   0  0  0  0  0  0  0  0  0  0  0  0
  148.5474  137.4701  154.3496 N   0  0  0  0  0  0  0  0  0  0  0  0
  148.1314  138.6869  154.1260 C   0  0  0  0  0  0  0  0  0  0  0  0
  149.0999  139.6624  154.2030 N   0  0  0  0  0  0  0  0  0  0  0  0
  148.9151  141.0913  154.0011 C   0  0  0  0  0  0  0  0  0  0  0  0
  147.8437  141.7210  154.9250 C   0  0  0  0  0  0  0  0  0  0  0  0
  147.8012  143.1104  154.6466 O   0  0  0  0  0  0  0  0  0  0  0  0
  146.4351  141.1315  154.6923 C   0  0  0  0  0  0  0  0  0  0  0  0
  145.4242  141.6098  155.7497 C   0  0  0  0  0  0  0  0  0  0  0  0
  145.9048  141.3193  157.0566 O   0  0  0  0  0  0  0  0  0  0  0  0
  147.1179  141.9972  157.3601 C   0  0  0  0  0  0  0  0  0  0  0  0
  148.2318  141.5328  156.4052 C   0  0  0  0  0  0  0  0  0  0  0  0
  149.4895  134.9063  154.6981 C   0  0  0  0  0  0  0  0  0  0  0  0
  149.4542  133.3681  154.6531 C   0  0  0  0  0  0  0  0  0  0  0  0
  150.6897  129.4733  154.9943 H   0  0  0  0  0  0  0  0  0  0  0  0
  151.8860  130.7514  155.0992 H   0  0  0  0  0  0  0  0  0  0  0  0
  150.5832  130.8458  153.9102 H   0  0  0  0  0  0  0  0  0  0  0  0
  147.9722  131.4555  158.2858 H   0  0  0  0  0  0  0  0  0  0  0  0
  148.1050  133.5355  156.8473 H   0  0  0  0  0  0  0  0  0  0  0  0
  149.4535  133.4890  157.9872 H   0  0  0  0  0  0  0  0  0  0  0  0
  151.7529  132.9440  157.2295 H   0  0  0  0  0  0  0  0  0  0  0  0
  152.0931  132.9935  155.5189 H   0  0  0  0  0  0  0  0  0  0  0  0
  150.7899  135.2286  157.1285 H   0  0  0  0  0  0  0  0  0  0  0  0
  152.3921  135.2304  156.4213 H   0  0  0  0  0  0  0  0  0  0  0  0
  153.4216  138.8833  155.1296 H   0  0  0  0  0  0  0  0  0  0  0  0
  147.0982  138.9096  153.9017 H   0  0  0  0  0  0  0  0  0  0  0  0
  149.8771  141.5810  154.1575 H   0  0  0  0  0  0  0  0  0  0  0  0
  148.6588  141.2575  152.9537 H   0  0  0  0  0  0  0  0  0  0  0  0
  147.8660  143.5823  155.4630 H   0  0  0  0  0  0  0  0  0  0  0  0
  146.0669  141.3808  153.6963 H   0  0  0  0  0  0  0  0  0  0  0  0
  146.4910  140.0430  154.7343 H   0  0  0  0  0  0  0  0  0  0  0  0
  145.2282  142.6787  155.6519 H   0  0  0  0  0  0  0  0  0  0  0  0
  144.4705  141.1013  155.6073 H   0  0  0  0  0  0  0  0  0  0  0  0
  146.9715  143.0767  157.3009 H   0  0  0  0  0  0  0  0  0  0  0  0
  147.3948  141.7739  158.3905 H   0  0  0  0  0  0  0  0  0  0  0  0
  148.4271  140.4765  156.5948 H   0  0  0  0  0  0  0  0  0  0  0  0
  149.1608  142.0592  156.6285 H   0  0  0  0  0  0  0  0  0  0  0  0
  148.7698  135.2782  155.4277 H   0  0  0  0  0  0  0  0  0  0  0  0
  149.1922  135.3081  153.7285 H   0  0  0  0  0  0  0  0  0  0  0  0
  150.0704  133.0443  153.8143 H   0  0  0  0  0  0  0  0  0  0  0  0
  148.4418  133.0235  154.4391 H   0  0  0  0  0  0  0  0  0  0  0  0
  1  2  1  0  0  0  0
  1 30  1  0  0  0  0
  1 31  1  0  0  0  0
  1 32  1  0  0  0  0
  2  7  1  0  0  0  0
  2  3  1  0  0  0  0
  3  4  2  0  0  0  0
  3  5  1  0  0  0  0
  5  6  1  0  0  0  0
  5 33  1  0  0  0  0
  6  7  1  0  0  0  0
  6 34  1  0  0  0  0
  6 35  1  0  0  0  0
  7 29  1  0  0  0  0
  7  8  1  0  0  0  0
  8  9  1  0  0  0  0
  8 36  1  0  0  0  0
  8 37  1  0  0  0  0
  9 10  1  0  0  0  0
  9 38  1  0  0  0  0
  9 39  1  0  0  0  0
 10 11  1  0  0  0  0
 10 28  1  0  0  0  0
 11 16  1  0  0  0  0
 11 12  2  0  0  0  0
 12 13  1  0  0  0  0
 13 14  2  0  0  0  0
 13 40  1  0  0  0  0
 14 15  1  0  0  0  0
 15 19  1  0  0  0  0
 15 16  2  0  0  0  0
 16 17  1  0  0  0  0
 17 18  2  0  0  0  0
 18 19  1  0  0  0  0
 18 41  1  0  0  0  0
 19 20  1  0  0  0  0
 20 21  1  0  0  0  0
 20 42  1  0  0  0  0
 20 43  1  0  0  0  0
 21 27  1  0  0  0  0
 21 22  1  0  0  0  0
 21 23  1  0  0  0  0
 22 44  1  0  0  0  0
 23 24  1  0  0  0  0
 23 45  1  0  0  0  0
 23 46  1  0  0  0  0
 24 25  1  0  0  0  0
 24 47  1  0  0  0  0
 24 48  1  0  0  0  0
 25 26  1  0  0  0  0
 26 27  1  0  0  0  0
 26 49  1  0  0  0  0
 26 50  1  0  0  0  0
 27 51  1  0  0  0  0
 27 52  1  0  0  0  0
 28 29  1  0  0  0  0
 28 53  1  0  0  0  0
 28 54  1  0  0  0  0
 29 55  1  0  0  0  0
 29 56  1  0  0  0  0
M  END
> <s_m_source_file>
AV-unprocessed.smi

> <i_m_source_file_index>
88

> <i_lp_mmshare_version>
43012

> <i_f3d_flags>
0

> <s_epik_input>
W0NIMl0xW05IXUMoPU8pTihbQ0gzXSlDMTJbQ0gyXVtDSDJdTihbQ0gyXVtDSDJdMiljKG5bY0hdbjMpYyhjMzQpbltjSF1uNFtDSDJdQzUoW09IXSlbQ0gyXVtDSDJdT1tDSDJdW0NIMl01

> <s_epik_cmdline>
J2VwaWtfcHl0aG9uJywgJy1waCcsICc3LjAnLCAnLXRuJywgJzgnLCAnLW1hJywgJzIwMCcsICctbWV0YWxfYmluZGluZycsICctaW1hZScsICc8aW5maWxlLm1hZT4nLCAnLW9tYWUnLCAnPG91dGZpbGUubWFlPic=

> <r_lp_tautomer_probability>
1

> <r_epik_Ionization_Penalty>
0.00363326

> <r_epik_Ionization_Penalty_Charging>
0

> <r_epik_Ionization_Penalty_Neutral>
0.00363326

> <r_epik_State_Penalty>
0.00246926

> <r_epik_Charging_Adjusted_Penalty>
0.00246926

> <i_epik_Tot_Q>
0

> <i_epik_Tot_abs_Q>
0

> <r_epik_Metal_State_Penalty>
-0

> <b_epik_Metal_Only>
0

> <s_lp_Force_Field>
OPLS_2005

> <r_lp_Energy>
63.3868

> <b_lp_Chiralities_Consistent>
1

> <s_lp_Variant>
AV-unprocessed.smi:88-1

> <Gold.Version>
5.8.1

> <Gold.Id.Protein>
6NUR|6NUR_protein|mol2

> <Gold.PLP.Fitness>
40.7724

> <Gold.PLP.PLP>
-34.4641

> <Gold.PLP.part.hbond>
-3.8655

> <Gold.PLP.part.metal>
0.0000

> <Gold.PLP.part.buried>
-0.1298

> <Gold.PLP.part.nonpolar>
-32.7257

> <Gold.PLP.part.repulsive>
2.0219

> <Gold.PLP.ligand.clash>
0.1642

> <Gold.PLP.ligand.torsion>
0.1131

> <Gold.PLP.Chemscore.Hbond>
2.1680

> <Gold.PLP.Chemscore.CHOScore>
0.0000

> <Gold.PLP.Chemscore.Metal>
0.0000

> <Gold.Chemscore.Hbonds>
donor molecule, donor type, donor heavy atom, donor atom, acceptor molecule, acceptor atom, score
      L1  H    22    44       P1  8028  0.38
      P1  H  7989  7998       L1    14  1.00
      P1  H  8022  8030       L1    22  0.41
      P1  H 10752 10765       L1    12  0.47

> <Gold.PLP.Chemscore.Internal.Correction>
0.1947

> <Gold.Rescore>
     Score         DG    S(hbond)    S(metal)    S(lipo)     H(rot)  DE(clash)    DE(int)     intcor
      9.38     -12.01       1.50        0.00      60.74       2.18       1.05       1.58       ----

> <Gold.Chemscore.Fitness>
9.3791

> <Gold.Chemscore.DG>
-12.0050

> <Gold.Chemscore.ZeroCoef>
-5.4800

> <Gold.Chemscore.Hbond>
1.4995

> <Gold.Chemscore.Metal>
0.0000

> <Gold.Chemscore.Lipo>
60.7438

> <Gold.Chemscore.Internal_Hbond>
0.0000

> <Gold.Chemscore.DEClash>
1.0479

> <Gold.Chemscore.DEInternal>
1.5780

> <Gold.Chemscore.Rot>
2.1838

> <Gold.Chemscore.Internal.Correction>
   9.000000E+99

> <Gold.Chemscore.Hbonds>
donor molecule, donor type, donor heavy atom, donor atom, acceptor molecule, acceptor atom, score
      L1  H    22    44       P1  8028  0.08
      P1  H  7989  7998       L1    14  0.50
      P1  H  8022  8030       L1    22  0.02
      P1  H 10752 10765       L1    12  0.04

> <Gold.Chemscore.Hbond.Weighted>
-5.0085

> <Gold.Chemscore.Metal.Weighted>
-0.0000

> <Gold.Chemscore.Lipo.Weighted>
-7.1070

> <Gold.Chemscore.Internal_Hbond.Weighted>
0.0000

> <Gold.Chemscore.DEClash.Weighted>
1.0479

> <Gold.Chemscore.DEInternal.Weighted>
1.5780

> <Gold.Chemscore.Rot.Weighted>
5.5905

> <Gold.Chemscore.Internal.Correction.Weighted>
   9.000000E+99

> <Gold.Protein.RotatedTorsions>
[ 6907 6896 6895 6894 ] final  -55.06 input  -60.11 | X-H torsion
[ 7974 7965 7964 7962 ] final  150.47 input  175.53 | X-H torsion
[ 8008 7997 7996 7995 ] final    6.22 input   59.86 | X-H torsion
[ 10167 10162 10161 10158 ] final  -16.34 input  -65.29 | X-H torsion
[ 10718 10713 10712 10709 ] final -109.31 input   66.30 | X-H torsion
[ 10763 10752 10751 10750 ] final -163.70 input  -60.55 | X-H torsion
[ 11005 11000 10999 10996 ] final  173.98 input  -57.11 | X-H torsion

> <Gold.Protein.ActiveResidues>
 VAL166  LYS551  ARG553  GLY616  TRP617  ASP618  TYR619  PRO620  LYS621  CYS622 
 ASP623  PHE694  ASN695  SER759  ASP760  ASP761  ALA762  ILE779  LEU786  VAL792 
 PHE793  MET794  SER795  GLU796  ALA797  LYS798  CYS799  TRP800  GLU811  SER814 

> <Gold.Protein.RotatedAtoms>
  150.8284  134.7526  159.6832 H   0  0  0  0  0  0  0  0  0  0  0  0  # atno 6907 bound_to 6896
  152.4392  134.5622  159.9907 H   0  0  0  0  0  0  0  0  0  0  0  0  # atno 6908 bound_to 6896
  151.5789  133.3343  159.3040 H   0  0  0  0  0  0  0  0  0  0  0  0  # atno 6909 bound_to 6896
  144.8362  139.6412  143.6037 H   0  0  0  0  0  0  0  0  0  0  0  0  # atno 7974 bound_to 7965
  154.7383  140.2744  155.6396 H   0  0  0  0  0  0  0  0  0  0  0  0  # atno 8008 bound_to 7997
  156.2867  140.2702  156.2028 H   0  0  0  0  0  0  0  0  0  0  0  0  # atno 8009 bound_to 7997
  155.0292  140.0371  157.2457 H   0  0  0  0  0  0  0  0  0  0  0  0  # atno 8010 bound_to 7997
  140.7232  143.5126  150.9731 H   0  0  0  0  0  0  0  0  0  0  0  0  # atno 10167 bound_to 10162
  156.0531  130.5757  150.8083 H   0  0  0  0  0  0  0  0  0  0  0  0  # atno 10718 bound_to 10713
  154.7098  135.3004  154.9215 H   0  0  0  0  0  0  0  0  0  0  0  0  # atno 10763 bound_to 10752
  154.0121  135.6693  153.4770 H   0  0  0  0  0  0  0  0  0  0  0  0  # atno 10764 bound_to 10752
  153.0746  135.5042  154.8289 H   0  0  0  0  0  0  0  0  0  0  0  0  # atno 10765 bound_to 10752
  140.3464  134.7233  157.4238 H   0  0  0  0  0  0  0  0  0  0  0  0  # atno 11005 bound_to 11000
  146.2660  139.6522  142.9329 LP  0  0  0  0  0  0  0  0  0  0  0  0  # atno 17320 bound_to 7965
  145.4790  141.0437  143.2656 LP  0  0  0  0  0  0  0  0  0  0  0  0  # atno 17321 bound_to 7965
  139.8840  143.7036  152.3153 LP  0  0  0  0  0  0  0  0  0  0  0  0  # atno 17342 bound_to 10162
  139.7328  144.7578  151.0775 LP  0  0  0  0  0  0  0  0  0  0  0  0  # atno 17343 bound_to 10162
  157.5475  131.0943  150.9742 LP  0  0  0  0  0  0  0  0  0  0  0  0  # atno 17370 bound_to 10713
  157.0009  130.5599  149.5311 LP  0  0  0  0  0  0  0  0  0  0  0  0  # atno 17371 bound_to 10713
  140.0739  134.5824  155.8612 LP  0  0  0  0  0  0  0  0  0  0  0  0  # atno 17394 bound_to 11000
  141.2024  133.6625  156.6006 LP  0  0  0  0  0  0  0  0  0  0  0  0  # atno 17395 bound_to 11000

$$$$
