AV-unprocessed.smi:3338|AV-procd|sdf|12869|dock7
  -GOLD-   2272019273D 1   1.00000     0.00000
 Structure written by MMmdl.
 44 45  0  0  0  0  0  0  0  0  2 V2000
  144.9848  132.9735  150.1028 C   0  0  0  0  0  0  0  0  0  0  0  0
  145.8325  133.8645  151.0217 C   0  0  2  0  0  0  0  0  0  0  0  0
  146.0834  133.1917  152.3815 C   0  0  0  0  0  0  0  0  0  0  0  0
  146.9101  134.1139  153.2856 C   0  0  0  0  0  0  0  0  0  0  0  0
  146.2387  135.4886  153.4305 C   0  0  0  0  0  0  0  0  0  0  0  0
  146.0112  136.1169  152.1032 N   0  3  2  0  0  0  0  0  0  0  0  0
  145.4873  137.5008  152.2223 C   0  0  0  0  0  0  0  0  0  0  0  0
  146.5603  138.5658  151.9220 C   0  0  0  0  0  0  0  0  0  0  0  0
  147.7388  138.3797  152.7594 N   0  0  0  0  0  0  0  0  0  0  0  0
  148.2622  139.3145  153.5693 C   0  0  0  0  0  0  0  0  0  0  0  0
  147.7611  140.4310  153.7099 O   0  0  0  0  0  0  0  0  0  0  0  0
  149.5447  138.9225  154.3242 C   0  0  2  0  0  0  0  0  0  0  0  0
  149.4272  137.5695  155.0546 C   0  0  0  0  0  0  0  0  0  0  0  0
  149.9557  139.9873  155.2330 N   0  0  0  0  0  0  0  0  0  0  0  0
  150.2496  139.8901  156.5780 C   0  0  0  0  0  0  0  0  0  0  0  0
  150.6066  141.1347  157.0115 C   0  0  0  0  0  0  0  0  0  0  0  0
  150.5029  141.9415  155.8446 C   0  0  0  0  0  0  0  0  0  0  0  0
  150.1185  141.2534  154.7823 N   0  0  0  0  0  0  0  0  0  0  0  0
  145.1834  135.2490  151.2227 C   0  0  0  0  0  0  0  0  0  0  0  0
  144.0002  132.7836  150.5312 H   0  0  0  0  0  0  0  0  0  0  0  0
  145.4666  132.0096  149.9368 H   0  0  0  0  0  0  0  0  0  0  0  0
  144.8392  133.4400  149.1279 H   0  0  0  0  0  0  0  0  0  0  0  0
  146.7977  134.0126  150.5348 H   0  0  0  0  0  0  0  0  0  0  0  0
  145.1329  132.9604  152.8648 H   0  0  0  0  0  0  0  0  0  0  0  0
  146.6033  132.2427  152.2453 H   0  0  0  0  0  0  0  0  0  0  0  0
  147.0378  133.6561  154.2669 H   0  0  0  0  0  0  0  0  0  0  0  0
  147.9108  134.2362  152.8687 H   0  0  0  0  0  0  0  0  0  0  0  0
  145.2875  135.3912  153.9564 H   0  0  0  0  0  0  0  0  0  0  0  0
  146.8746  136.1314  154.0407 H   0  0  0  0  0  0  0  0  0  0  0  0
  144.6206  137.6273  151.5716 H   0  0  0  0  0  0  0  0  0  0  0  0
  145.1287  137.6550  153.2412 H   0  0  0  0  0  0  0  0  0  0  0  0
  146.8429  138.5393  150.8681 H   0  0  0  0  0  0  0  0  0  0  0  0
  146.1815  139.5683  152.1174 H   0  0  0  0  0  0  0  0  0  0  0  0
  148.2061  137.4860  152.7026 H   0  0  0  0  0  0  0  0  0  0  0  0
  150.3302  138.8177  153.5740 H   0  0  0  0  0  0  0  0  0  0  0  0
  149.1808  136.7658  154.3599 H   0  0  0  0  0  0  0  0  0  0  0  0
  148.6572  137.5885  155.8269 H   0  0  0  0  0  0  0  0  0  0  0  0
  150.3695  137.3056  155.5356 H   0  0  0  0  0  0  0  0  0  0  0  0
  150.1812  138.9529  157.1102 H   0  0  0  0  0  0  0  0  0  0  0  0
  150.8973  141.4250  158.0105 H   0  0  0  0  0  0  0  0  0  0  0  0
  150.6964  142.9986  155.7382 H   0  0  0  0  0  0  0  0  0  0  0  0
  145.0532  135.7205  150.2491 H   0  0  0  0  0  0  0  0  0  0  0  0
  144.1870  135.1397  151.6543 H   0  0  0  0  0  0  0  0  0  0  0  0
  146.9214  136.1936  151.6720 H   0  0  0  0  0  0  0  0  0  0  0  0
  1  2  1  0  0  0  0
  1 20  1  0  0  0  0
  1 21  1  0  0  0  0
  1 22  1  0  0  0  0
  2 19  1  0  0  0  0
  2  3  1  0  0  0  0
  2 23  1  0  0  0  0
  3  4  1  0  0  0  0
  3 24  1  0  0  0  0
  3 25  1  0  0  0  0
  4  5  1  0  0  0  0
  4 26  1  0  0  0  0
  4 27  1  0  0  0  0
  5  6  1  0  0  0  0
  5 28  1  0  0  0  0
  5 29  1  0  0  0  0
  6  7  1  0  0  0  0
  6 19  1  0  0  0  0
  6 44  1  0  0  0  0
  7  8  1  0  0  0  0
  7 30  1  0  0  0  0
  7 31  1  0  0  0  0
  8  9  1  0  0  0  0
  8 32  1  0  0  0  0
  8 33  1  0  0  0  0
  9 10  1  0  0  0  0
  9 34  1  0  0  0  0
 10 11  2  0  0  0  0
 10 12  1  0  0  0  0
 12 13  1  0  0  0  0
 12 14  1  0  0  0  0
 12 35  1  0  0  0  0
 13 36  1  0  0  0  0
 13 37  1  0  0  0  0
 13 38  1  0  0  0  0
 14 18  1  0  0  0  0
 14 15  1  0  0  0  0
 15 16  2  0  0  0  0
 15 39  1  0  0  0  0
 16 17  1  0  0  0  0
 16 40  1  0  0  0  0
 17 18  2  0  0  0  0
 17 41  1  0  0  0  0
 19 42  1  0  0  0  0
 19 43  1  0  0  0  0
M  CHG  1   6   1
M  END
> <s_m_source_file>
AV-unprocessed.smi

> <i_m_source_file_index>
3338

> <i_lp_mmshare_version>
43012

> <i_f3d_flags>
0

> <s_epik_input>
W0NIM11bQ0BASF0xW0NIMl1bQ0gyXVtDSDJdTihbQ0gyXTEpW0NIMl1bQ0gyXVtOSF1DKD1PKVtDQEhdKFtDSDNdKW4yW2NIXVtjSF1bY0hdbjI=

> <s_epik_cmdline>
J2VwaWtfcHl0aG9uJywgJy1waCcsICc3LjAnLCAnLXRuJywgJzgnLCAnLW1hJywgJzIwMCcsICctbWV0YWxfYmluZGluZycsICctaW1hZScsICc8aW5maWxlLm1hZT4nLCAnLW9tYWUnLCAnPG91dGZpbGUubWFlPic=

> <r_lp_tautomer_probability>
1

> <r_epik_Ionization_Penalty>
0.00225707

> <r_epik_Ionization_Penalty_Charging>
0.00223709

> <r_epik_Ionization_Penalty_Neutral>
1.99775e-05

> <r_epik_State_Penalty>
0.00153978

> <r_epik_Charging_Adjusted_Penalty>
0.00377687

> <i_epik_Tot_Q>
1

> <i_epik_Tot_abs_Q>
1

> <r_epik_Metal_State_Penalty>
-0

> <b_epik_Metal_Only>
0

> <s_lp_Force_Field>
OPLS_2005

> <r_lp_Energy>
19.7834

> <b_lp_Chiralities_Consistent>
1

> <s_lp_Variant>
AV-unprocessed.smi:3338-1

> <Gold.Version>
5.8.1

> <Gold.Id.Protein>
6NUR|6NUR_protein|mol2

> <Gold.PLP.Fitness>
41.9724

> <Gold.PLP.PLP>
-30.2486

> <Gold.PLP.part.hbond>
-4.0000

> <Gold.PLP.part.metal>
0.0000

> <Gold.PLP.part.buried>
0.0871

> <Gold.PLP.part.nonpolar>
-26.8887

> <Gold.PLP.part.repulsive>
0.3614

> <Gold.PLP.ligand.clash>
0.0000

> <Gold.PLP.ligand.torsion>
0.8551

> <Gold.PLP.Chemscore.Hbond>
3.5335

> <Gold.PLP.Chemscore.CHOScore>
0.9009

> <Gold.PLP.Chemscore.Metal>
0.0000

> <Gold.Chemscore.Hbonds>
donor molecule, donor type, donor heavy atom, donor atom, acceptor molecule, acceptor atom, score
      L1  H     6    44       P1  7948  2.00
      L1  H     9    34       P1  7948  1.00
      P1  H  7989  7998       L1    18  0.49
      L1  C    17    41       P1  8028  0.88

> <Gold.PLP.Chemscore.Internal.Correction>
0.1310

> <Gold.Rescore>
     Score         DG    S(hbond)    S(metal)    S(lipo)     H(rot)  DE(clash)    DE(int)     intcor
     14.74     -17.32       2.36        0.00      72.17       1.76       0.26       2.32       ----

> <Gold.Chemscore.Fitness>
14.7411

> <Gold.Chemscore.DG>
-17.3215

> <Gold.Chemscore.ZeroCoef>
-5.4800

> <Gold.Chemscore.Hbond>
2.3638

> <Gold.Chemscore.Metal>
0.0000

> <Gold.Chemscore.Lipo>
72.1741

> <Gold.Chemscore.Internal_Hbond>
0.0000

> <Gold.Chemscore.DEClash>
0.2595

> <Gold.Chemscore.DEInternal>
2.3210

> <Gold.Chemscore.Rot>
1.7570

> <Gold.Chemscore.Internal.Correction>
   9.000000E+99

> <Gold.Chemscore.Hbonds>
donor molecule, donor type, donor heavy atom, donor atom, acceptor molecule, acceptor atom, score
      L1  H     6    44       P1  7948  0.91
      L1  H     9    34       P1  7948  0.96
      P1  H  7989  7998       L1    18  0.08

> <Gold.Chemscore.Hbond.Weighted>
-7.8950

> <Gold.Chemscore.Metal.Weighted>
-0.0000

> <Gold.Chemscore.Lipo.Weighted>
-8.4444

> <Gold.Chemscore.Internal_Hbond.Weighted>
0.0000

> <Gold.Chemscore.DEClash.Weighted>
0.2595

> <Gold.Chemscore.DEInternal.Weighted>
2.3210

> <Gold.Chemscore.Rot.Weighted>
4.4979

> <Gold.Chemscore.Internal.Correction.Weighted>
   9.000000E+99

> <Gold.Protein.RotatedTorsions>
[ 6907 6896 6895 6894 ] final   98.26 input  -60.11 | X-H torsion
[ 7974 7965 7964 7962 ] final -152.39 input  175.53 | X-H torsion
[ 8008 7997 7996 7995 ] final  162.55 input   59.86 | X-H torsion
[ 10167 10162 10161 10158 ] final  -75.07 input  -65.29 | X-H torsion
[ 10718 10713 10712 10709 ] final   82.66 input   66.30 | X-H torsion
[ 10763 10752 10751 10750 ] final  167.76 input  -60.55 | X-H torsion
[ 11005 11000 10999 10996 ] final  -18.21 input  -57.11 | X-H torsion

> <Gold.Protein.ActiveResidues>
 VAL166  LYS551  ARG553  GLY616  TRP617  ASP618  TYR619  PRO620  LYS621  CYS622 
 ASP623  PHE694  ASN695  SER759  ASP760  ASP761  ALA762  ILE779  LEU786  VAL792 
 PHE793  MET794  SER795  GLU796  ALA797  LYS798  CYS799  TRP800  GLU811  SER814 

> <Gold.Protein.RotatedAtoms>
  152.5412  134.0607  159.8150 H   0  0  0  0  0  0  0  0  0  0  0  0  # atno 6907 bound_to 6896
  151.0736  133.5439  159.2632 H   0  0  0  0  0  0  0  0  0  0  0  0  # atno 6908 bound_to 6896
  151.2293  135.0556  159.9035 H   0  0  0  0  0  0  0  0  0  0  0  0  # atno 6909 bound_to 6896
  144.7797  140.4669  143.5848 H   0  0  0  0  0  0  0  0  0  0  0  0  # atno 7974 bound_to 7965
  156.2023  140.1747  156.7874 H   0  0  0  0  0  0  0  0  0  0  0  0  # atno 8008 bound_to 7997
  154.5608  140.0700  156.8846 H   0  0  0  0  0  0  0  0  0  0  0  0  # atno 8009 bound_to 7997
  155.2852  140.3351  155.4258 H   0  0  0  0  0  0  0  0  0  0  0  0  # atno 8010 bound_to 7997
  140.4974  143.2368  151.7809 H   0  0  0  0  0  0  0  0  0  0  0  0  # atno 10167 bound_to 10162
  157.6862  131.0057  150.2407 H   0  0  0  0  0  0  0  0  0  0  0  0  # atno 10718 bound_to 10713
  154.3586  135.2753  155.2332 H   0  0  0  0  0  0  0  0  0  0  0  0  # atno 10763 bound_to 10752
  154.4530  135.5926  153.6208 H   0  0  0  0  0  0  0  0  0  0  0  0  # atno 10764 bound_to 10752
  152.9845  135.6046  154.3804 H   0  0  0  0  0  0  0  0  0  0  0  0  # atno 10765 bound_to 10752
  140.8246  133.8043  155.9694 H   0  0  0  0  0  0  0  0  0  0  0  0  # atno 11005 bound_to 11000
  145.6085  139.1511  143.3089 LP  0  0  0  0  0  0  0  0  0  0  0  0  # atno 17320 bound_to 7965
  146.1998  140.6202  142.9107 LP  0  0  0  0  0  0  0  0  0  0  0  0  # atno 17321 bound_to 7965
  139.4864  144.4568  151.9588 LP  0  0  0  0  0  0  0  0  0  0  0  0  # atno 17342 bound_to 10162
  140.3657  144.2918  150.5927 LP  0  0  0  0  0  0  0  0  0  0  0  0  # atno 17343 bound_to 10162
  156.3022  130.3760  149.7739 LP  0  0  0  0  0  0  0  0  0  0  0  0  # atno 17370 bound_to 10713
  156.5366  130.8281  151.3255 LP  0  0  0  0  0  0  0  0  0  0  0  0  # atno 17371 bound_to 10713
  140.9063  134.2316  157.5012 LP  0  0  0  0  0  0  0  0  0  0  0  0  # atno 17394 bound_to 11000
  139.8707  134.9730  156.4792 LP  0  0  0  0  0  0  0  0  0  0  0  0  # atno 17395 bound_to 11000

$$$$
