AV-unprocessed.smi:763|AV-procd|sdf|3635|dock3
  -GOLD-   22720 1 33D 1   1.00000     0.00000
 Structure written by MMmdl.
 44 45  0  0  0  0  0  0  0  0  1 V2000
  156.6396  138.3510  159.4885 C   0  0  0  0  0  0  0  0  0  0  0  0
  155.5955  139.3113  159.5146 O   0  0  0  0  0  0  0  0  0  0  0  0
  155.1440  139.6364  160.8221 C   0  0  0  0  0  0  0  0  0  0  0  0
  154.1381  140.7961  160.8114 C   0  0  0  0  0  0  0  0  0  0  0  0
  153.2541  140.5986  159.7144 O   0  0  0  0  0  0  0  0  0  0  0  0
  152.6499  141.6916  159.1278 C   0  0  0  0  0  0  0  0  0  0  0  0
  152.8981  142.9144  159.6629 N   0  0  0  0  0  0  0  0  0  0  0  0
  152.2949  143.9929  159.1233 C   0  0  0  0  0  0  0  0  0  0  0  0
  151.4121  143.9145  158.0314 C   0  0  0  0  0  0  0  0  0  0  0  0
  151.1545  142.6493  157.4735 C   0  0  0  0  0  0  0  0  0  0  0  0
  151.7850  141.5110  158.0166 C   0  0  0  0  0  0  0  0  0  0  0  0
  151.5146  140.2663  157.4327 N   0  0  0  0  0  0  0  0  0  0  0  0
  150.4919  139.8774  156.0838 S   0  0  0  0  0  0  0  0  0  0  0  0
  149.3882  140.8499  156.1272 O   0  0  0  0  0  0  0  0  0  0  0  0
  151.3909  139.8080  154.9218 O   0  0  0  0  0  0  0  0  0  0  0  0
  149.8614  138.1833  156.5551 C   0  0  1  0  0  0  0  0  0  0  0  0
  149.0579  138.2434  157.8705 C   0  0  0  0  0  0  0  0  0  0  0  0
  147.6940  138.9301  157.6800 C   0  0  0  0  0  0  0  0  0  0  0  0
  146.8631  138.2160  156.6014 C   0  0  0  0  0  0  0  0  0  0  0  0
  147.6227  138.1301  155.2674 C   0  0  0  0  0  0  0  0  0  0  0  0
  149.0142  137.4912  155.4582 C   0  0  1  0  0  0  0  0  0  0  0  0
  149.7138  137.4382  154.2322 O   0  0  0  0  0  0  0  0  0  0  0  0
  156.9666  138.1994  158.4600 H   0  0  0  0  0  0  0  0  0  0  0  0
  156.3138  137.3863  159.8767 H   0  0  0  0  0  0  0  0  0  0  0  0
  157.5011  138.6882  160.0662 H   0  0  0  0  0  0  0  0  0  0  0  0
  154.7305  138.7610  161.3254 H   0  0  0  0  0  0  0  0  0  0  0  0
  156.0197  139.9370  161.3982 H   0  0  0  0  0  0  0  0  0  0  0  0
  153.5783  140.8054  161.7481 H   0  0  0  0  0  0  0  0  0  0  0  0
  154.6548  141.7512  160.7110 H   0  0  0  0  0  0  0  0  0  0  0  0
  152.5198  144.9462  159.5783 H   0  0  0  0  0  0  0  0  0  0  0  0
  150.9460  144.8025  157.6311 H   0  0  0  0  0  0  0  0  0  0  0  0
  150.4835  142.5569  156.6320 H   0  0  0  0  0  0  0  0  0  0  0  0
  151.7994  139.4747  157.9903 H   0  0  0  0  0  0  0  0  0  0  0  0
  150.7481  137.5781  156.7453 H   0  0  0  0  0  0  0  0  0  0  0  0
  148.8958  137.2292  158.2373 H   0  0  0  0  0  0  0  0  0  0  0  0
  149.6303  138.7501  158.6474 H   0  0  0  0  0  0  0  0  0  0  0  0
  147.1475  138.9335  158.6235 H   0  0  0  0  0  0  0  0  0  0  0  0
  147.8361  139.9755  157.4041 H   0  0  0  0  0  0  0  0  0  0  0  0
  146.6139  137.2103  156.9424 H   0  0  0  0  0  0  0  0  0  0  0  0
  145.9155  138.7356  156.4565 H   0  0  0  0  0  0  0  0  0  0  0  0
  147.0406  137.5419  154.5572 H   0  0  0  0  0  0  0  0  0  0  0  0
  147.7002  139.1255  154.8340 H   0  0  0  0  0  0  0  0  0  0  0  0
  148.8598  136.4555  155.7637 H   0  0  0  0  0  0  0  0  0  0  0  0
  149.1535  137.0414  153.5830 H   0  0  0  0  0  0  0  0  0  0  0  0
  1  2  1  0  0  0  0
  1 23  1  0  0  0  0
  1 24  1  0  0  0  0
  1 25  1  0  0  0  0
  2  3  1  0  0  0  0
  3  4  1  0  0  0  0
  3 26  1  0  0  0  0
  3 27  1  0  0  0  0
  4  5  1  0  0  0  0
  4 28  1  0  0  0  0
  4 29  1  0  0  0  0
  5  6  1  0  0  0  0
  6 11  1  0  0  0  0
  6  7  2  0  0  0  0
  7  8  1  0  0  0  0
  8  9  2  0  0  0  0
  8 30  1  0  0  0  0
  9 10  1  0  0  0  0
  9 31  1  0  0  0  0
 10 11  2  0  0  0  0
 10 32  1  0  0  0  0
 11 12  1  0  0  0  0
 12 13  1  0  0  0  0
 12 33  1  0  0  0  0
 13 14  2  0  0  0  0
 13 15  2  0  0  0  0
 13 16  1  0  0  0  0
 16 21  1  0  0  0  0
 16 17  1  0  0  0  0
 16 34  1  0  0  0  0
 17 18  1  0  0  0  0
 17 35  1  0  0  0  0
 17 36  1  0  0  0  0
 18 19  1  0  0  0  0
 18 37  1  0  0  0  0
 18 38  1  0  0  0  0
 19 20  1  0  0  0  0
 19 39  1  0  0  0  0
 19 40  1  0  0  0  0
 20 21  1  0  0  0  0
 20 41  1  0  0  0  0
 20 42  1  0  0  0  0
 21 22  1  0  0  0  0
 21 43  1  0  0  0  0
 22 44  1  0  0  0  0
M  END
> <s_m_source_file>
AV-unprocessed.smi

> <i_m_source_file_index>
763

> <i_lp_mmshare_version>
43012

> <i_f3d_flags>
0

> <s_epik_input>
W0NIM11PW0NIMl1bQ0gyXU9jMW5bY0hdW2NIXVtjSF1jMVtOSF1TKD1PKSg9TylbQ0BASF0yW0NIMl1bQ0gyXVtDSDJdW0NIMl1bQ0BIXTJbT0hd

> <s_epik_cmdline>
J2VwaWtfcHl0aG9uJywgJy1waCcsICc3LjAnLCAnLXRuJywgJzgnLCAnLW1hJywgJzIwMCcsICctbWV0YWxfYmluZGluZycsICctaW1hZScsICc8aW5maWxlLm1hZT4nLCAnLW9tYWUnLCAnPG91dGZpbGUubWFlPic=

> <r_epik_Ionization_Penalty>
0.124685

> <r_epik_Ionization_Penalty_Charging>
0

> <r_epik_Ionization_Penalty_Neutral>
0.124685

> <r_epik_State_Penalty>
0.114154

> <r_epik_Charging_Adjusted_Penalty>
0.114154

> <i_epik_Tot_Q>
0

> <i_epik_Tot_abs_Q>
0

> <r_epik_Metal_State_Penalty>
0.443785

> <b_epik_Metal_Only>
0

> <s_lp_Force_Field>
OPLS_2005

> <r_lp_Energy>
7.3887

> <b_lp_Chiralities_Consistent>
1

> <s_lp_Variant>
AV-unprocessed.smi:763-2

> <Gold.Version>
5.8.1

> <Gold.Id.Protein>
6NUR|6NUR_protein|mol2

> <Gold.PLP.Fitness>
40.0173

> <Gold.PLP.PLP>
-31.6374

> <Gold.PLP.part.hbond>
-3.7059

> <Gold.PLP.part.metal>
0.0000

> <Gold.PLP.part.buried>
-7.1415

> <Gold.PLP.part.nonpolar>
-22.1636

> <Gold.PLP.part.repulsive>
0.2235

> <Gold.PLP.ligand.clash>
0.0000

> <Gold.PLP.ligand.torsion>
1.0163

> <Gold.PLP.Chemscore.Hbond>
3.0000

> <Gold.PLP.Chemscore.CHOScore>
0.0000

> <Gold.PLP.Chemscore.Metal>
0.0000

> <Gold.Chemscore.Hbonds>
donor molecule, donor type, donor heavy atom, donor atom, acceptor molecule, acceptor atom, score
      L1  H    22    44       P1  7948  0.96
      P1  H  7989  7998       L1    15  1.00
      P1  H  7997  8010       L1     2  0.32

> <Gold.PLP.Chemscore.Internal.Correction>
1.4125

> <Gold.Rescore>
     Score         DG    S(hbond)    S(metal)    S(lipo)     H(rot)  DE(clash)    DE(int)     intcor
     16.81     -18.03       2.84        0.00      78.66       2.41       0.03       1.19       ----

> <Gold.Chemscore.Fitness>
16.8079

> <Gold.Chemscore.DG>
-18.0277

> <Gold.Chemscore.ZeroCoef>
-5.4800

> <Gold.Chemscore.Hbond>
2.8448

> <Gold.Chemscore.Metal>
0.0000

> <Gold.Chemscore.Lipo>
78.6613

> <Gold.Chemscore.Internal_Hbond>
0.0000

> <Gold.Chemscore.DEClash>
0.0262

> <Gold.Chemscore.DEInternal>
1.1936

> <Gold.Chemscore.Rot>
2.4052

> <Gold.Chemscore.Internal.Correction>
   9.000000E+99

> <Gold.Chemscore.Hbonds>
donor molecule, donor type, donor heavy atom, donor atom, acceptor molecule, acceptor atom, score
      L1  H    22    44       P1  7948  0.92
      P1  H  7989  7998       L1    15  1.00
      P1  H  7997  8010       L1     2  0.10

> <Gold.Chemscore.Hbond.Weighted>
-9.5017

> <Gold.Chemscore.Metal.Weighted>
-0.0000

> <Gold.Chemscore.Lipo.Weighted>
-9.2034

> <Gold.Chemscore.Internal_Hbond.Weighted>
0.0000

> <Gold.Chemscore.DEClash.Weighted>
0.0262

> <Gold.Chemscore.DEInternal.Weighted>
1.1936

> <Gold.Chemscore.Rot.Weighted>
6.1574

> <Gold.Chemscore.Internal.Correction.Weighted>
   9.000000E+99

> <Gold.Protein.RotatedTorsions>
[ 6907 6896 6895 6894 ] final  104.66 input  -60.11 | X-H torsion
[ 7974 7965 7964 7962 ] final   18.40 input  175.53 | X-H torsion
[ 8008 7997 7996 7995 ] final  -29.63 input   59.86 | X-H torsion
[ 10167 10162 10161 10158 ] final -138.49 input  -65.29 | X-H torsion
[ 10718 10713 10712 10709 ] final  167.18 input   66.30 | X-H torsion
[ 10763 10752 10751 10750 ] final -100.23 input  -60.55 | X-H torsion
[ 11005 11000 10999 10996 ] final  129.00 input  -57.11 | X-H torsion

> <Gold.Protein.ActiveResidues>
 VAL166  LYS551  ARG553  GLY616  TRP617  ASP618  TYR619  PRO620  LYS621  CYS622 
 ASP623  PHE694  ASN695  SER759  ASP760  ASP761  ALA762  ILE779  LEU786  VAL792 
 PHE793  MET794  SER795  GLU796  ALA797  LYS798  CYS799  TRP800  GLU811  SER814 

> <Gold.Protein.RotatedAtoms>
  152.5257  133.9644  159.7731 H   0  0  0  0  0  0  0  0  0  0  0  0  # atno 6907 bound_to 6896
  150.9928  133.6124  159.2713 H   0  0  0  0  0  0  0  0  0  0  0  0  # atno 6908 bound_to 6896
  151.3262  135.0837  159.9376 H   0  0  0  0  0  0  0  0  0  0  0  0  # atno 6909 bound_to 6896
  146.2186  139.8462  142.8631 H   0  0  0  0  0  0  0  0  0  0  0  0  # atno 7974 bound_to 7965
  154.4282  140.1813  156.1278 H   0  0  0  0  0  0  0  0  0  0  0  0  # atno 8008 bound_to 7997
  156.0092  140.3352  155.6898 H   0  0  0  0  0  0  0  0  0  0  0  0  # atno 8009 bound_to 7997
  155.6135  140.0652  157.2690 H   0  0  0  0  0  0  0  0  0  0  0  0  # atno 8010 bound_to 7997
  139.8473  143.7244  152.2660 H   0  0  0  0  0  0  0  0  0  0  0  0  # atno 10167 bound_to 10162
  157.0552  131.0324  151.2666 H   0  0  0  0  0  0  0  0  0  0  0  0  # atno 10718 bound_to 10713
  154.7562  135.4942  153.9380 H   0  0  0  0  0  0  0  0  0  0  0  0  # atno 10763 bound_to 10752
  153.1199  135.6729  153.9361 H   0  0  0  0  0  0  0  0  0  0  0  0  # atno 10764 bound_to 10752
  153.9096  135.3100  155.3427 H   0  0  0  0  0  0  0  0  0  0  0  0  # atno 10765 bound_to 10752
  139.9591  134.9606  156.9084 H   0  0  0  0  0  0  0  0  0  0  0  0  # atno 11005 bound_to 11000
  145.2848  141.0149  143.3697 LP  0  0  0  0  0  0  0  0  0  0  0  0  # atno 17320 bound_to 7965
  144.9122  139.4514  143.6581 LP  0  0  0  0  0  0  0  0  0  0  0  0  # atno 17321 bound_to 7965
  139.7500  144.7537  151.0521 LP  0  0  0  0  0  0  0  0  0  0  0  0  # atno 17342 bound_to 10162
  140.7791  143.4871  150.9942 LP  0  0  0  0  0  0  0  0  0  0  0  0  # atno 17343 bound_to 10162
  157.4998  130.7873  149.7593 LP  0  0  0  0  0  0  0  0  0  0  0  0  # atno 17370 bound_to 10713
  155.9995  130.3888  150.2661 LP  0  0  0  0  0  0  0  0  0  0  0  0  # atno 17371 bound_to 10713
  140.5541  134.0599  155.7378 LP  0  0  0  0  0  0  0  0  0  0  0  0  # atno 17394 bound_to 11000
  141.1266  133.9372  157.2622 LP  0  0  0  0  0  0  0  0  0  0  0  0  # atno 17395 bound_to 11000

$$$$
