AV-unprocessed.smi:1576|AV-procd|sdf|6348|dock4
  -GOLD-   22720 6563D 1   1.00000     0.00000
 Structure written by MMmdl.
 45 47  0  0  0  0  0  0  0  0  3 V2000
  151.5891  136.0500  158.0923 O   0  0  0  0  0  0  0  0  0  0  0  0
  151.4445  136.1761  156.8711 C   0  0  0  0  0  0  0  0  0  0  0  0
  151.3673  137.3996  156.3180 N   0  0  0  0  0  0  0  0  0  0  0  0
  151.3664  138.6708  156.9520 C   0  0  0  0  0  0  0  0  0  0  0  0
  151.3136  139.8169  156.1306 C   0  0  0  0  0  0  0  0  0  0  0  0
  151.2879  141.0979  156.7187 C   0  0  0  0  0  0  0  0  0  0  0  0
  151.3036  141.2125  158.1275 C   0  0  0  0  0  0  0  0  0  0  0  0
  151.2791  142.4406  158.8010 N   0  0  0  0  0  0  0  0  0  0  0  0
  152.5081  143.2100  158.6244 C   0  0  0  0  0  0  0  0  0  0  0  0
  152.5106  144.4542  159.5300 C   0  0  0  0  0  0  0  0  0  0  0  0
  151.2483  145.3017  159.3032 C   0  0  0  0  0  0  0  0  0  0  0  0
  149.9895  144.4358  159.4722 C   0  0  0  0  0  0  0  0  0  0  0  0
  150.0512  143.1951  158.5648 C   0  0  0  0  0  0  0  0  0  0  0  0
  151.3373  140.0919  158.8808 N   0  3  0  0  0  0  0  0  0  0  0  0
  151.3640  138.8472  158.3568 C   0  0  0  0  0  0  0  0  0  0  0  0
  151.3717  135.1889  155.9383 N   0  5  0  0  0  0  0  0  0  0  0  0
  150.2635  134.2383  155.8085 C   0  0  1  0  0  0  0  0  0  0  0  0
  149.7813  134.1564  154.3466 C   0  0  0  0  0  0  0  0  0  0  0  0
  148.8861  132.9186  154.1935 C   0  0  0  0  0  0  0  0  0  0  0  0
  149.5540  131.6742  155.3646 S   0  0  0  0  0  0  0  0  0  0  0  0
  148.4788  131.2471  156.2738 O   0  0  0  0  0  0  0  0  0  0  0  0
  150.3521  130.6836  154.6255 O   0  0  0  0  0  0  0  0  0  0  0  0
  150.6868  132.8247  156.2391 C   0  0  0  0  0  0  0  0  0  0  0  0
  151.3548  137.4143  155.3086 H   0  0  0  0  0  0  0  0  0  0  0  0
  151.2984  139.7180  155.0549 H   0  0  0  0  0  0  0  0  0  0  0  0
  151.2546  141.9771  156.0926 H   0  0  0  0  0  0  0  0  0  0  0  0
  153.3712  142.5835  158.8541 H   0  0  0  0  0  0  0  0  0  0  0  0
  152.6020  143.5138  157.5807 H   0  0  0  0  0  0  0  0  0  0  0  0
  152.5597  144.1455  160.5752 H   0  0  0  0  0  0  0  0  0  0  0  0
  153.4025  145.0521  159.3418 H   0  0  0  0  0  0  0  0  0  0  0  0
  151.2261  146.1405  159.9993 H   0  0  0  0  0  0  0  0  0  0  0  0
  151.2681  145.7285  158.2997 H   0  0  0  0  0  0  0  0  0  0  0  0
  149.8992  144.1225  160.5132 H   0  0  0  0  0  0  0  0  0  0  0  0
  149.0979  145.0210  159.2466 H   0  0  0  0  0  0  0  0  0  0  0  0
  150.0049  143.5010  157.5187 H   0  0  0  0  0  0  0  0  0  0  0  0
  149.1859  142.5571  158.7500 H   0  0  0  0  0  0  0  0  0  0  0  0
  151.3681  138.0467  159.0815 H   0  0  0  0  0  0  0  0  0  0  0  0
  149.4038  134.5300  156.4140 H   0  0  0  0  0  0  0  0  0  0  0  0
  149.2599  135.0639  154.0406 H   0  0  0  0  0  0  0  0  0  0  0  0
  150.6421  134.0462  153.6851 H   0  0  0  0  0  0  0  0  0  0  0  0
  147.8560  133.1369  154.4789 H   0  0  0  0  0  0  0  0  0  0  0  0
  148.8872  132.5200  153.1794 H   0  0  0  0  0  0  0  0  0  0  0  0
  151.7034  132.5974  155.9163 H   0  0  0  0  0  0  0  0  0  0  0  0
  150.6209  132.6732  157.3165 H   0  0  0  0  0  0  0  0  0  0  0  0
  151.3384  140.1886  159.8962 H   0  0  0  0  0  0  0  0  0  0  0  0
  1  2  2  0  0  0  0
  2  3  1  0  0  0  0
  2 16  1  0  0  0  0
  3  4  1  0  0  0  0
  3 24  1  0  0  0  0
  4 15  1  0  0  0  0
  4  5  2  0  0  0  0
  5  6  1  0  0  0  0
  5 25  1  0  0  0  0
  6  7  2  0  0  0  0
  6 26  1  0  0  0  0
  7  8  1  0  0  0  0
  7 14  1  0  0  0  0
  8 13  1  0  0  0  0
  8  9  1  0  0  0  0
  9 10  1  0  0  0  0
  9 27  1  0  0  0  0
  9 28  1  0  0  0  0
 10 11  1  0  0  0  0
 10 29  1  0  0  0  0
 10 30  1  0  0  0  0
 11 12  1  0  0  0  0
 11 31  1  0  0  0  0
 11 32  1  0  0  0  0
 12 13  1  0  0  0  0
 12 33  1  0  0  0  0
 12 34  1  0  0  0  0
 13 35  1  0  0  0  0
 13 36  1  0  0  0  0
 14 15  2  0  0  0  0
 14 45  1  0  0  0  0
 15 37  1  0  0  0  0
 16 17  1  0  0  0  0
 17 23  1  0  0  0  0
 17 18  1  0  0  0  0
 17 38  1  0  0  0  0
 18 19  1  0  0  0  0
 18 39  1  0  0  0  0
 18 40  1  0  0  0  0
 19 20  1  0  0  0  0
 19 41  1  0  0  0  0
 19 42  1  0  0  0  0
 20 21  2  0  0  0  0
 20 22  2  0  0  0  0
 20 23  1  0  0  0  0
 23 43  1  0  0  0  0
 23 44  1  0  0  0  0
M  CHG  1  14   1
M  CHG  1  16  -1
M  END
> <s_m_source_file>
AV-unprocessed.smi

> <i_m_source_file_index>
1576

> <i_lp_mmshare_version>
43012

> <i_f3d_flags>
0

> <s_epik_input>
Tz1TMSg9TylbQ0gyXVtDSDJdW0NASF0oW0NIMl0xKVtOSF1DKD1PKVtOSF1jMltjSF1bY0hdYyhuW2NIXTIpTjNbQ0gyXVtDSDJdW0NIMl1bQ0gyXVtDSDJdMw==

> <s_epik_cmdline>
J2VwaWtfcHl0aG9uJywgJy1waCcsICc3LjAnLCAnLXRuJywgJzgnLCAnLW1hJywgJzIwMCcsICctbWV0YWxfYmluZGluZycsICctaW1hZScsICc8aW5maWxlLm1hZT4nLCAnLW9tYWUnLCAnPG91dGZpbGUubWFlPic=

> <r_lp_tautomer_probability>
0.999994

> <r_epik_Ionization_Penalty>
8.26491

> <r_epik_Ionization_Penalty_Charging>
8.26491

> <r_epik_Ionization_Penalty_Neutral>
3.15169e-06

> <r_epik_State_Penalty>
7.8977

> <r_epik_Charging_Adjusted_Penalty>
16.1626

> <i_epik_Tot_Q>
0

> <i_epik_Tot_abs_Q>
2

> <r_epik_Metal_State_Penalty>
3.88896

> <b_epik_Metal_Only>
1

> <s_lp_Force_Field>
OPLS_2005

> <r_lp_Energy>
27.2537

> <b_lp_Chiralities_Consistent>
1

> <s_lp_Variant>
AV-unprocessed.smi:1576-6

> <Gold.Version>
5.8.1

> <Gold.Id.Protein>
6NUR|6NUR_protein|mol2

> <Gold.PLP.Fitness>
42.4171

> <Gold.PLP.PLP>
-37.0879

> <Gold.PLP.part.hbond>
-2.0000

> <Gold.PLP.part.metal>
0.0000

> <Gold.PLP.part.buried>
-6.0049

> <Gold.PLP.part.nonpolar>
-30.2393

> <Gold.PLP.part.repulsive>
0.3383

> <Gold.PLP.ligand.clash>
0.0000

> <Gold.PLP.ligand.torsion>
0.8320

> <Gold.PLP.Chemscore.Hbond>
2.2816

> <Gold.PLP.Chemscore.CHOScore>
0.0000

> <Gold.PLP.Chemscore.Metal>
0.0000

> <Gold.Chemscore.Hbonds>
donor molecule, donor type, donor heavy atom, donor atom, acceptor molecule, acceptor atom, score
      P1  H  6896  6909       L1     1  0.31
      P1  H 10752 10764       L1    16  2.00

> <Gold.PLP.Chemscore.Internal.Correction>
0.1484

> <Gold.Rescore>
     Score         DG    S(hbond)    S(metal)    S(lipo)     H(rot)  DE(clash)    DE(int)     intcor
     14.65     -17.19       1.04        0.00      97.33       1.24       0.32       2.21       ----

> <Gold.Chemscore.Fitness>
14.6545

> <Gold.Chemscore.DG>
-17.1864

> <Gold.Chemscore.ZeroCoef>
-5.4800

> <Gold.Chemscore.Hbond>
1.0433

> <Gold.Chemscore.Metal>
0.0000

> <Gold.Chemscore.Lipo>
97.3298

> <Gold.Chemscore.Internal_Hbond>
0.0000

> <Gold.Chemscore.DEClash>
0.3220

> <Gold.Chemscore.DEInternal>
2.2099

> <Gold.Chemscore.Rot>
1.2366

> <Gold.Chemscore.Internal.Correction>
   9.000000E+99

> <Gold.Chemscore.Hbonds>
donor molecule, donor type, donor heavy atom, donor atom, acceptor molecule, acceptor atom, score
      P1  H  6896  6909       L1     1  0.29
      P1  H 10752 10764       L1    16  0.32

> <Gold.Chemscore.Hbond.Weighted>
-3.4845

> <Gold.Chemscore.Metal.Weighted>
-0.0000

> <Gold.Chemscore.Lipo.Weighted>
-11.3876

> <Gold.Chemscore.Internal_Hbond.Weighted>
0.0000

> <Gold.Chemscore.DEClash.Weighted>
0.3220

> <Gold.Chemscore.DEInternal.Weighted>
2.2099

> <Gold.Chemscore.Rot.Weighted>
3.1657

> <Gold.Chemscore.Internal.Correction.Weighted>
   9.000000E+99

> <Gold.Protein.RotatedTorsions>
[ 6907 6896 6895 6894 ] final   87.15 input  -60.11 | X-H torsion
[ 7974 7965 7964 7962 ] final   57.69 input  175.53 | X-H torsion
[ 8008 7997 7996 7995 ] final  -81.86 input   59.86 | X-H torsion
[ 10167 10162 10161 10158 ] final -126.63 input  -65.29 | X-H torsion
[ 10718 10713 10712 10709 ] final  116.76 input   66.30 | X-H torsion
[ 10763 10752 10751 10750 ] final  -42.48 input  -60.55 | X-H torsion
[ 11005 11000 10999 10996 ] final   26.90 input  -57.11 | X-H torsion

> <Gold.Protein.ActiveResidues>
 VAL166  LYS551  ARG553  GLY616  TRP617  ASP618  TYR619  PRO620  LYS621  CYS622 
 ASP623  PHE694  ASN695  SER759  ASP760  ASP761  ALA762  ILE779  LEU786  VAL792 
 PHE793  MET794  SER795  GLU796  ALA797  LYS798  CYS799  TRP800  GLU811  SER814 

> <Gold.Protein.RotatedAtoms>
  152.5406  134.2321  159.8828 H   0  0  0  0  0  0  0  0  0  0  0  0  # atno 6907 bound_to 6896
  151.2293  133.4452  159.2611 H   0  0  0  0  0  0  0  0  0  0  0  0  # atno 6908 bound_to 6896
  151.0731  134.9824  159.8374 H   0  0  0  0  0  0  0  0  0  0  0  0  # atno 6909 bound_to 6896
  145.9263  139.3771  143.0448 H   0  0  0  0  0  0  0  0  0  0  0  0  # atno 7974 bound_to 7965
  154.6026  140.0641  156.9389 H   0  0  0  0  0  0  0  0  0  0  0  0  # atno 8008 bound_to 7997
  155.2106  140.3322  155.4311 H   0  0  0  0  0  0  0  0  0  0  0  0  # atno 8009 bound_to 7997
  156.2328  140.1849  156.7182 H   0  0  0  0  0  0  0  0  0  0  0  0  # atno 8010 bound_to 7997
  139.9694  143.5862  152.2418 H   0  0  0  0  0  0  0  0  0  0  0  0  # atno 10167 bound_to 10162
  157.6140  131.1029  150.7518 H   0  0  0  0  0  0  0  0  0  0  0  0  # atno 10718 bound_to 10713
  153.9797  135.6718  153.4749 H   0  0  0  0  0  0  0  0  0  0  0  0  # atno 10763 bound_to 10752
  153.0754  135.4951  154.8389 H   0  0  0  0  0  0  0  0  0  0  0  0  # atno 10764 bound_to 10752
  154.7171  135.3109  154.9067 H   0  0  0  0  0  0  0  0  0  0  0  0  # atno 10765 bound_to 10752
  140.3321  134.2426  155.7701 H   0  0  0  0  0  0  0  0  0  0  0  0  # atno 11005 bound_to 11000
  145.8484  140.9542  143.0762 LP  0  0  0  0  0  0  0  0  0  0  0  0  # atno 17320 bound_to 7965
  144.6759  140.0375  143.7481 LP  0  0  0  0  0  0  0  0  0  0  0  0  # atno 17321 bound_to 7965
  139.6493  144.7660  151.2181 LP  0  0  0  0  0  0  0  0  0  0  0  0  # atno 17342 bound_to 10162
  140.7527  143.6188  150.8534 LP  0  0  0  0  0  0  0  0  0  0  0  0  # atno 17343 bound_to 10162
  156.7889  130.4883  149.5388 LP  0  0  0  0  0  0  0  0  0  0  0  0  # atno 17370 bound_to 10713
  156.1254  130.6140  151.0256 LP  0  0  0  0  0  0  0  0  0  0  0  0  # atno 17371 bound_to 10713
  141.2061  133.7843  157.0198 LP  0  0  0  0  0  0  0  0  0  0  0  0  # atno 17394 bound_to 11000
  140.0852  134.9625  157.1688 LP  0  0  0  0  0  0  0  0  0  0  0  0  # atno 17395 bound_to 11000

$$$$
