#       Name:                AV-unprocessed.smi:213
#       Creating user name   scv26
#       Creation time:       Thu Mar 26 20:00:16 2020


#       File generated by GOLD software.
#

@<TRIPOS>MOLECULE
AV-unprocessed.smi:213
    68    71     1
SMALL
NO_CHARGES


@<TRIPOS>ATOM
      1 ****        -3.2709  -0.7053   0.2920 C.3            1 S1                 0.0000
      2 ****        -2.6444  -0.3545  -1.0701 C.3            1 S1                 0.0000
      3 ****        -3.6811  -0.3605  -2.2160 C.3            1 S1                 0.0000
      4 ****        -4.2924  -1.6965  -2.4349 N.4            1 S1                 1.0000
      5 ****        -5.5980  -1.6152  -3.1327 C.3            1 S1                 0.0000
      6 ****        -6.2181  -3.0150  -3.2810 C.3            1 S1                 0.0000
      7 ****        -5.3145  -3.8659  -3.9749 O.3            1 S1                 0.0000
      8 ****        -4.0876  -4.0236  -3.2736 C.3            1 S1                 0.0000
      9 ****        -3.3967  -2.6573  -3.1261 C.3            1 S1                 0.0000
     10 ****        -1.9344   0.9289  -1.0005 N.pl3          1 S1                 0.0000
     11 ****        -2.6484   2.1594  -0.6708 C.3            1 S1                 0.0000
     12 ****        -0.5917   0.8977  -0.7966 C.ar           1 S1                 0.0000
     13 ****         0.1594   0.1402  -1.6386 N.ar           1 S1                 0.0000
     14 ****         1.4861   0.0783  -1.4933 C.ar           1 S1                 0.0000
     15 ****         2.2547   0.6827  -0.5863 N.ar           1 S1                 0.0000
     16 ****         1.5088   1.4414   0.2661 C.ar           1 S1                 0.0000
     17 ****         0.0942   1.6072   0.2340 C.ar           1 S1                 0.0000
     18 ****        -0.2995   2.4465   1.2716 N.2            1 S1                 0.0000
     19 ****         0.8143   2.7621   1.8741 C.2            1 S1                 0.0000
     20 ****         1.9483   2.1987   1.3366 N.pl3          1 S1                 0.0000
     21 ****         3.3133   2.3669   1.8032 C.3            1 S1                 0.0000
     22 ****         3.8182   1.1421   2.5913 C.3            1 S1                 0.0000
     23 ****         2.9966   0.9501   3.7276 O.3            1 S1                 0.0000
     24 ****         5.2778   1.3040   3.0540 C.3            1 S1                 0.0000
     25 ****         5.8538   0.0827   3.7753 C.3            1 S1                 0.0000
     26 ****         7.3496   0.1710   3.5098 C.3            1 S1                 0.0000
     27 ****         7.4728   1.2332   2.4151 C.3            1 S1                 0.0000
     28 ****         6.1483   1.4210   1.9391 O.3            1 S1                 0.0000
     29 ****        -3.7063  -1.7045   0.2826 H              1 S1                 0.0000
     30 ****        -4.0598  -0.0043   0.5654 H              1 S1                 0.0000
     31 ****        -2.5204  -0.6872   1.0832 H              1 S1                 0.0000
     32 ****        -1.9176  -1.1371  -1.2803 H              1 S1                 0.0000
     33 ****        -4.4721   0.3517  -1.9797 H              1 S1                 0.0000
     34 ****        -3.2262  -0.0165  -3.1466 H              1 S1                 0.0000
     35 ****        -6.2793  -0.9725  -2.5739 H              1 S1                 0.0000
     36 ****        -5.4604  -1.1609  -4.1153 H              1 S1                 0.0000
     37 ****        -6.4610  -3.4394  -2.3053 H              1 S1                 0.0000
     38 ****        -7.1502  -2.9556  -3.8433 H              1 S1                 0.0000
     39 ****        -4.2675  -4.4771  -2.2974 H              1 S1                 0.0000
     40 ****        -3.4488  -4.7096  -3.8301 H              1 S1                 0.0000
     41 ****        -3.1304  -2.2679  -4.1100 H              1 S1                 0.0000
     42 ****        -2.4678  -2.7855  -2.5720 H              1 S1                 0.0000
     43 ****        -2.0431   3.0365  -0.9025 H              1 S1                 0.0000
     44 ****        -2.9035   2.1866   0.3887 H              1 S1                 0.0000
     45 ****        -3.5712   2.2457  -1.2424 H              1 S1                 0.0000
     46 ****         2.0066  -0.5438  -2.2065 H              1 S1                 0.0000
     47 ****         0.8378   3.4126   2.7364 H              1 S1                 0.0000
     48 ****         3.9462   2.5458   0.9331 H              1 S1                 0.0000
     49 ****         3.3663   3.2671   2.4172 H              1 S1                 0.0000
     50 ****         3.7377   0.2528   1.9646 H              1 S1                 0.0000
     51 ****         3.0703   1.7111   4.2828 H              1 S1                 0.0000
     52 ****         5.3861   2.1925   3.6796 H              1 S1                 0.0000
     53 ****         5.6131   0.0739   4.8387 H              1 S1                 0.0000
     54 ****         5.4616  -0.8360   3.3368 H              1 S1                 0.0000
     55 ****         7.9030   0.4672   4.4015 H              1 S1                 0.0000
     56 ****         7.7379  -0.7923   3.1775 H              1 S1                 0.0000
     57 ****         7.8402   2.1723   2.8316 H              1 S1                 0.0000
     58 ****         8.1440   0.9323   1.6105 H              1 S1                 0.0000
     59 ****        -4.4851  -2.0767  -1.5191 H              1 S1                 0.0000
     60 ****        -5.1243  -3.4709  -4.8737 LP             1 S1                 0.0000
     61 ****        -5.7393  -4.7640  -4.0887 LP             1 S1                 0.0000
     62 ****        -0.2841  -0.3746  -2.3723 LP             1 S1                 0.0000
     63 ****         3.2493   0.5912  -0.5378 LP             1 S1                 0.0000
     64 ****        -1.2265   2.7413   1.5033 LP             1 S1                 0.0000
     65 ****         3.2966   0.1375   4.2274 LP             1 S1                 0.0000
     66 ****         2.0459   0.8327   3.4405 LP             1 S1                 0.0000
     67 ****         6.0579   2.3282   1.5282 LP             1 S1                 0.0000
     68 ****         5.9274   0.7230   1.2579 LP             1 S1                 0.0000
@<TRIPOS>BOND
    1    1    2 1     
    2    1   29 1     
    3    1   30 1     
    4    1   31 1     
    5    2    3 1     
    6    2   10 1     
    7    2   32 1     
    8    3    4 1     
    9    3   33 1     
   10    3   34 1     
   11    4    9 1     
   12    4    5 1     
   13    4   59 1     
   14    5    6 1     
   15    5   35 1     
   16    5   36 1     
   17    6    7 1     
   18    6   37 1     
   19    6   38 1     
   20    7    8 1     
   21    8    9 1     
   22    8   39 1     
   23    8   40 1     
   24    9   41 1     
   25    9   42 1     
   26   10   11 1     
   27   10   12 1     
   28   11   43 1     
   29   11   44 1     
   30   11   45 1     
   31   12   17 ar    
   32   12   13 ar    
   33   13   14 ar    
   34   14   15 ar    
   35   14   46 1     
   36   15   16 ar    
   37   16   20 1     
   38   16   17 ar    
   39   17   18 1     
   40   18   19 2     
   41   19   20 1     
   42   19   47 1     
   43   20   21 1     
   44   21   22 1     
   45   21   48 1     
   46   21   49 1     
   47   22   23 1     
   48   22   24 1     
   49   22   50 1     
   50   23   51 1     
   51   24   28 1     
   52   24   25 1     
   53   24   52 1     
   54   25   26 1     
   55   25   53 1     
   56   25   54 1     
   57   26   27 1     
   58   26   55 1     
   59   26   56 1     
   60   27   28 1     
   61   27   57 1     
   62   27   58 1     
   63    7   60 1     
   64    7   61 1     
   65   13   62 1     
   66   15   63 1     
   67   18   64 1     
   68   23   65 1     
   69   23   66 1     
   70   28   67 1     
   71   28   68 1     
@<TRIPOS>SUBSTRUCTURE
      1 S1             1
@<TRIPOS>SET
LONE_PAIRS      STATIC     ATOMS    <user>   **** ""
9 60 61 62 63 64 65 66 67 68
DONOR_HYDROGENS      STATIC     ATOMS    <user>   **** ""
2 59 51
ATOM$BLUE        STATIC     ATOMS    COLORGROUP SYSTEM
9 60 61 62 63 64 65 66 67 68
ATOM$RED        STATIC     ATOMS    COLORGROUP SYSTEM
2 59 51
