AV-unprocessed.smi:2895|AV-procd|sdf|11130|dock7
  -GOLD-   2272016 03D 1   1.00000     0.00000
 Structure written by MMmdl.
 53 56  0  0  0  0  0  0  0  0  2 V2000
  150.0703  132.2039  154.6993 O   0  0  0  0  0  0  0  0  0  0  0  0
  149.2247  133.0667  154.4603 C   0  0  0  0  0  0  0  0  0  0  0  0
  149.2944  134.2977  154.9955 N   0  0  0  0  0  0  0  0  0  0  0  0
  150.3417  134.7673  155.8956 C   0  0  0  0  0  0  0  0  0  0  0  0
  149.9714  136.1062  156.5563 C   0  0  0  0  0  0  0  0  0  0  0  0
  150.5147  137.2938  155.7855 C   0  0  0  0  0  0  0  0  0  0  0  0
  151.8700  137.6654  155.9012 C   0  0  0  0  0  0  0  0  0  0  0  0
  152.3287  138.7737  155.1610 C   0  0  0  0  0  0  0  0  0  0  0  0
  151.5345  139.5010  154.3459 N   0  0  0  0  0  0  0  0  0  0  0  0
  150.2374  139.1398  154.2412 C   0  0  0  0  0  0  0  0  0  0  0  0
  149.6791  138.0479  154.9359 C   0  0  0  0  0  0  0  0  0  0  0  0
  148.1656  132.8594  153.6361 N   0  0  0  0  0  0  0  0  0  0  0  0
  147.2714  133.8896  153.0831 C   0  0  0  0  0  0  0  0  0  0  0  0
  145.8515  133.6999  153.6570 C   0  0  0  0  0  0  0  0  0  0  0  0
  145.3178  132.3268  153.4092 N   0  3  0  0  0  0  0  0  0  0  0  0
  144.8252  132.1169  152.0094 C   0  0  2  0  0  0  0  0  0  0  0  0
  145.9576  132.2092  150.9498 C   0  0  0  0  0  0  0  0  0  0  0  0
  145.4215  133.2226  149.9269 C   0  0  1  0  0  0  0  0  0  0  0  0
  144.2212  132.6225  149.1751 C   0  0  0  0  0  0  0  0  0  0  0  0
  143.1136  132.6457  150.2428 C   0  0  0  0  0  0  0  0  0  0  0  0
  143.8413  133.2022  151.4822 C   0  0  2  0  0  0  0  0  0  0  0  0
  144.7597  134.2391  150.8451 C   0  0  0  0  0  0  0  0  0  0  0  0
  146.2881  131.3014  153.8937 C   0  0  0  0  0  0  0  0  0  0  0  0
  147.6955  131.5103  153.3006 C   0  0  0  0  0  0  0  0  0  0  0  0
  148.5743  134.9620  154.7524 H   0  0  0  0  0  0  0  0  0  0  0  0
  150.5472  134.0083  156.6525 H   0  0  0  0  0  0  0  0  0  0  0  0
  151.2574  134.8828  155.3150 H   0  0  0  0  0  0  0  0  0  0  0  0
  148.8874  136.1946  156.6389 H   0  0  0  0  0  0  0  0  0  0  0  0
  150.3618  136.1495  157.5737 H   0  0  0  0  0  0  0  0  0  0  0  0
  152.5453  137.1141  156.5394 H   0  0  0  0  0  0  0  0  0  0  0  0
  153.3612  139.0838  155.2255 H   0  0  0  0  0  0  0  0  0  0  0  0
  149.6257  139.7383  153.5827 H   0  0  0  0  0  0  0  0  0  0  0  0
  148.6349  137.7991  154.8160 H   0  0  0  0  0  0  0  0  0  0  0  0
  147.5967  134.9113  153.2775 H   0  0  0  0  0  0  0  0  0  0  0  0
  147.2590  133.7986  151.9964 H   0  0  0  0  0  0  0  0  0  0  0  0
  145.8844  133.8547  154.7364 H   0  0  0  0  0  0  0  0  0  0  0  0
  145.1920  134.4766  153.2747 H   0  0  0  0  0  0  0  0  0  0  0  0
  144.3481  131.1380  151.9557 H   0  0  0  0  0  0  0  0  0  0  0  0
  146.8827  132.6067  151.3686 H   0  0  0  0  0  0  0  0  0  0  0  0
  146.1853  131.2421  150.5001 H   0  0  0  0  0  0  0  0  0  0  0  0
  146.1914  133.6283  149.2699 H   0  0  0  0  0  0  0  0  0  0  0  0
  143.9443  133.2422  148.3211 H   0  0  0  0  0  0  0  0  0  0  0  0
  144.4259  131.6160  148.8079 H   0  0  0  0  0  0  0  0  0  0  0  0
  142.3069  133.3138  149.9383 H   0  0  0  0  0  0  0  0  0  0  0  0
  142.6788  131.6608  150.4169 H   0  0  0  0  0  0  0  0  0  0  0  0
  143.1377  133.6144  152.2008 H   0  0  0  0  0  0  0  0  0  0  0  0
  145.4498  134.7014  151.5533 H   0  0  0  0  0  0  0  0  0  0  0  0
  144.2224  135.0215  150.3061 H   0  0  0  0  0  0  0  0  0  0  0  0
  146.3500  131.3939  154.9791 H   0  0  0  0  0  0  0  0  0  0  0  0
  145.9508  130.2834  153.7217 H   0  0  0  0  0  0  0  0  0  0  0  0
  147.6793  131.3928  152.2167 H   0  0  0  0  0  0  0  0  0  0  0  0
  148.3598  130.7266  153.6673 H   0  0  0  0  0  0  0  0  0  0  0  0
  144.4973  132.2336  153.9908 H   0  0  0  0  0  0  0  0  0  0  0  0
  1  2  2  0  0  0  0
  2  3  1  0  0  0  0
  2 12  1  0  0  0  0
  3  4  1  0  0  0  0
  3 25  1  0  0  0  0
  4  5  1  0  0  0  0
  4 26  1  0  0  0  0
  4 27  1  0  0  0  0
  5  6  1  0  0  0  0
  5 28  1  0  0  0  0
  5 29  1  0  0  0  0
  6 11  1  0  0  0  0
  6  7  2  0  0  0  0
  7  8  1  0  0  0  0
  7 30  1  0  0  0  0
  8  9  2  0  0  0  0
  8 31  1  0  0  0  0
  9 10  1  0  0  0  0
 10 11  2  0  0  0  0
 10 32  1  0  0  0  0
 11 33  1  0  0  0  0
 12 24  1  0  0  0  0
 12 13  1  0  0  0  0
 13 14  1  0  0  0  0
 13 34  1  0  0  0  0
 13 35  1  0  0  0  0
 14 15  1  0  0  0  0
 14 36  1  0  0  0  0
 14 37  1  0  0  0  0
 15 16  1  0  0  0  0
 15 23  1  0  0  0  0
 15 53  1  0  0  0  0
 16 21  1  0  0  0  0
 16 17  1  0  0  0  0
 16 38  1  0  0  0  0
 17 18  1  0  0  0  0
 17 39  1  0  0  0  0
 17 40  1  0  0  0  0
 18 22  1  0  0  0  0
 18 19  1  0  0  0  0
 18 41  1  0  0  0  0
 19 20  1  0  0  0  0
 19 42  1  0  0  0  0
 19 43  1  0  0  0  0
 20 21  1  0  0  0  0
 20 44  1  0  0  0  0
 20 45  1  0  0  0  0
 21 22  1  0  0  0  0
 21 46  1  0  0  0  0
 22 47  1  0  0  0  0
 22 48  1  0  0  0  0
 23 24  1  0  0  0  0
 23 49  1  0  0  0  0
 23 50  1  0  0  0  0
 24 51  1  0  0  0  0
 24 52  1  0  0  0  0
M  CHG  1  15   1
M  END
> <s_m_source_file>
AV-unprocessed.smi

> <i_m_source_file_index>
2895

> <i_lp_mmshare_version>
43012

> <i_f3d_flags>
0

> <s_epik_input>
W0NIMl0xW0NIMl1bQ0BASF0oW0NIMl0yKVtDQEBIXShbQ0gyXVtDQEhdMTIpTihbQ0gyXVtDSDJdMylbQ0gyXVtDSDJdTjNDKD1PKVtOSF1bQ0gyXVtDSDJdYzRbY0hdW2NIXW5bY0hdW2NIXTQ=

> <s_epik_cmdline>
J2VwaWtfcHl0aG9uJywgJy1waCcsICc3LjAnLCAnLXRuJywgJzgnLCAnLW1hJywgJzIwMCcsICctbWV0YWxfYmluZGluZycsICctaW1hZScsICc8aW5maWxlLm1hZT4nLCAnLW9tYWUnLCAnPG91dGZpbGUubWFlPic=

> <r_epik_Ionization_Penalty>
0.0566172

> <r_epik_Ionization_Penalty_Charging>
0.00262064

> <r_epik_Ionization_Penalty_Neutral>
0.0539965

> <r_epik_State_Penalty>
0.0463959

> <r_epik_Charging_Adjusted_Penalty>
0.0490165

> <i_epik_Tot_Q>
1

> <i_epik_Tot_abs_Q>
1

> <r_epik_Metal_State_Penalty>
0.0424856

> <b_epik_Metal_Only>
0

> <s_lp_Force_Field>
OPLS_2005

> <r_lp_Energy>
100.404

> <b_lp_Chiralities_Consistent>
1

> <s_lp_Variant>
AV-unprocessed.smi:2895-3

> <Gold.Version>
5.8.1

> <Gold.Id.Protein>
6NUR|6NUR_protein|mol2

> <Gold.PLP.Fitness>
47.0824

> <Gold.PLP.PLP>
-36.4679

> <Gold.PLP.part.hbond>
-2.0000

> <Gold.PLP.part.metal>
0.0000

> <Gold.PLP.part.buried>
0.7220

> <Gold.PLP.part.nonpolar>
-35.2058

> <Gold.PLP.part.repulsive>
0.1356

> <Gold.PLP.ligand.clash>
0.0000

> <Gold.PLP.ligand.torsion>
0.7020

> <Gold.PLP.Chemscore.Hbond>
2.9825

> <Gold.PLP.Chemscore.CHOScore>
1.0000

> <Gold.PLP.Chemscore.Metal>
0.0000

> <Gold.Chemscore.Hbonds>
donor molecule, donor type, donor heavy atom, donor atom, acceptor molecule, acceptor atom, score
      L1  H    15    53       P1 10957  1.90
      P1  H  7989  7998       L1     9  1.00
      L1  C    10    32       P1  7957  1.00

> <Gold.PLP.Chemscore.Internal.Correction>
0.0710

> <Gold.Rescore>
     Score         DG    S(hbond)    S(metal)    S(lipo)     H(rot)  DE(clash)    DE(int)     intcor
     14.81     -18.32       1.14        0.00     107.15       1.37       0.17       3.35       ----

> <Gold.Chemscore.Fitness>
14.8123

> <Gold.Chemscore.DG>
-18.3244

> <Gold.Chemscore.ZeroCoef>
-5.4800

> <Gold.Chemscore.Hbond>
1.1444

> <Gold.Chemscore.Metal>
0.0000

> <Gold.Chemscore.Lipo>
107.1548

> <Gold.Chemscore.Internal_Hbond>
0.0000

> <Gold.Chemscore.DEClash>
0.1653

> <Gold.Chemscore.DEInternal>
3.3468

> <Gold.Chemscore.Rot>
1.3731

> <Gold.Chemscore.Internal.Correction>
   9.000000E+99

> <Gold.Chemscore.Hbonds>
donor molecule, donor type, donor heavy atom, donor atom, acceptor molecule, acceptor atom, score
      L1  H    15    53       P1 10957  0.20
      P1  H  7989  7998       L1     9  0.49

> <Gold.Chemscore.Hbond.Weighted>
-3.8224

> <Gold.Chemscore.Metal.Weighted>
-0.0000

> <Gold.Chemscore.Lipo.Weighted>
-12.5371

> <Gold.Chemscore.Internal_Hbond.Weighted>
0.0000

> <Gold.Chemscore.DEClash.Weighted>
0.1653

> <Gold.Chemscore.DEInternal.Weighted>
3.3468

> <Gold.Chemscore.Rot.Weighted>
3.5152

> <Gold.Chemscore.Internal.Correction.Weighted>
   9.000000E+99

> <Gold.Protein.RotatedTorsions>
[ 6907 6896 6895 6894 ] final  115.08 input  -60.11 | X-H torsion
[ 7974 7965 7964 7962 ] final -148.71 input  175.53 | X-H torsion
[ 8008 7997 7996 7995 ] final -152.09 input   59.86 | X-H torsion
[ 10167 10162 10161 10158 ] final  116.83 input  -65.29 | X-H torsion
[ 10718 10713 10712 10709 ] final   26.66 input   66.30 | X-H torsion
[ 10763 10752 10751 10750 ] final  -65.91 input  -60.55 | X-H torsion
[ 11005 11000 10999 10996 ] final  -91.63 input  -57.11 | X-H torsion

> <Gold.Protein.ActiveResidues>
 VAL166  LYS551  ARG553  GLY616  TRP617  ASP618  TYR619  PRO620  LYS621  CYS622 
 ASP623  PHE694  ASN695  SER759  ASP760  ASP761  ALA762  ILE779  LEU786  VAL792 
 PHE793  MET794  SER795  GLU796  ALA797  LYS798  CYS799  TRP800  GLU811  SER814 

> <Gold.Protein.RotatedAtoms>
  152.4763  133.8147  159.7021 H   0  0  0  0  0  0  0  0  0  0  0  0  # atno 6907 bound_to 6896
  150.8782  133.7399  159.2946 H   0  0  0  0  0  0  0  0  0  0  0  0  # atno 6908 bound_to 6896
  151.4911  135.1061  159.9856 H   0  0  0  0  0  0  0  0  0  0  0  0  # atno 6909 bound_to 6896
  144.8012  140.5160  143.5706 H   0  0  0  0  0  0  0  0  0  0  0  0  # atno 7974 bound_to 7965
  155.6497  140.0710  157.2591 H   0  0  0  0  0  0  0  0  0  0  0  0  # atno 8008 bound_to 7997
  154.4165  140.1735  156.1711 H   0  0  0  0  0  0  0  0  0  0  0  0  # atno 8009 bound_to 7997
  155.9787  140.3355  155.6646 H   0  0  0  0  0  0  0  0  0  0  0  0  # atno 8010 bound_to 7997
  139.6220  144.7102  151.2615 H   0  0  0  0  0  0  0  0  0  0  0  0  # atno 10167 bound_to 10162
  157.2098  130.6929  149.6223 H   0  0  0  0  0  0  0  0  0  0  0  0  # atno 10718 bound_to 10713
  154.3521  135.6134  153.5648 H   0  0  0  0  0  0  0  0  0  0  0  0  # atno 10763 bound_to 10752
  152.9798  135.5795  154.4731 H   0  0  0  0  0  0  0  0  0  0  0  0  # atno 10764 bound_to 10752
  154.4454  135.2851  155.1795 H   0  0  0  0  0  0  0  0  0  0  0  0  # atno 10765 bound_to 10752
  141.1540  133.7768  156.9906 H   0  0  0  0  0  0  0  0  0  0  0  0  # atno 11005 bound_to 11000
  145.5548  139.1477  143.3374 LP  0  0  0  0  0  0  0  0  0  0  0  0  # atno 17320 bound_to 7965
  146.2294  140.5686  142.8982 LP  0  0  0  0  0  0  0  0  0  0  0  0  # atno 17321 bound_to 7965
  140.7387  143.6638  150.8141 LP  0  0  0  0  0  0  0  0  0  0  0  0  # atno 17342 bound_to 10162
  140.0250  143.5502  152.2784 LP  0  0  0  0  0  0  0  0  0  0  0  0  # atno 17343 bound_to 10162
  155.9692  130.4555  150.5889 LP  0  0  0  0  0  0  0  0  0  0  0  0  # atno 17370 bound_to 10713
  157.3684  131.0761  151.1578 LP  0  0  0  0  0  0  0  0  0  0  0  0  # atno 17371 bound_to 10713
  140.1005  134.9538  157.1916 LP  0  0  0  0  0  0  0  0  0  0  0  0  # atno 17394 bound_to 11000
  140.3325  134.2794  155.7225 LP  0  0  0  0  0  0  0  0  0  0  0  0  # atno 17395 bound_to 11000

$$$$
