AV-unprocessed.smi:787|AV-procd|sdf|3727|dock6
  -GOLD-   22720 1153D 1   1.00000     0.00000
 Structure written by MMmdl.
 47 49  0  0  0  0  0  0  0  0  2 V2000
  147.2723  141.1977  156.5749 C   0  0  0  0  0  0  0  0  0  0  0  0
  148.4764  141.9946  156.4029 N   0  0  0  0  0  0  0  0  0  0  0  0
  149.7385  141.3846  156.3814 C   0  0  0  0  0  0  0  0  0  0  0  0
  150.7060  141.8049  157.2289 N   0  0  0  0  0  0  0  0  0  0  0  0
  151.8937  141.1877  157.1807 C   0  0  0  0  0  0  0  0  0  0  0  0
  152.2897  140.1779  156.3904 N   0  0  0  0  0  0  0  0  0  0  0  0
  151.3396  139.7562  155.5450 C   0  0  0  0  0  0  0  0  0  0  0  0
  151.4701  138.7346  154.6202 N   0  0  0  0  0  0  0  0  0  0  0  0
  150.2668  138.7263  154.0536 C   0  0  0  0  0  0  0  0  0  0  0  0
  149.3683  139.6325  154.4877 N   0  0  0  0  0  0  0  0  0  0  0  0
  148.0120  139.8099  153.9981 C   0  0  0  0  0  0  0  0  0  0  0  0
  147.4632  138.5536  153.2917 C   0  0  2  0  0  0  0  0  0  0  0  0
  147.7025  138.6951  151.9065 O   0  0  0  0  0  0  0  0  0  0  0  0
  145.9538  138.3122  153.5172 C   0  0  0  0  0  0  0  0  0  0  0  0
  145.5688  136.9123  153.2093 N   0  3  2  0  0  0  0  0  0  0  0  0
  146.3780  135.9274  153.9635 C   0  0  0  0  0  0  0  0  0  0  0  0
  145.5321  136.6235  151.7526 C   0  0  0  0  0  0  0  0  0  0  0  0
  145.1193  135.1883  151.4858 C   0  0  0  0  0  0  0  0  0  0  0  0
  143.8367  134.7301  151.8554 C   0  0  0  0  0  0  0  0  0  0  0  0
  143.4616  133.3967  151.5996 C   0  0  0  0  0  0  0  0  0  0  0  0
  144.3669  132.5171  150.9754 C   0  0  0  0  0  0  0  0  0  0  0  0
  145.6486  132.9704  150.6081 C   0  0  0  0  0  0  0  0  0  0  0  0
  146.0247  134.3034  150.8634 C   0  0  0  0  0  0  0  0  0  0  0  0
  150.0343  140.3323  155.4920 C   0  0  0  0  0  0  0  0  0  0  0  0
  146.3937  141.8423  156.5534 H   0  0  0  0  0  0  0  0  0  0  0  0
  147.2882  140.6738  157.5310 H   0  0  0  0  0  0  0  0  0  0  0  0
  147.1765  140.4638  155.7740 H   0  0  0  0  0  0  0  0  0  0  0  0
  148.3880  142.9856  156.2302 H   0  0  0  0  0  0  0  0  0  0  0  0
  152.6359  141.5535  157.8748 H   0  0  0  0  0  0  0  0  0  0  0  0
  150.0282  138.0262  153.2661 H   0  0  0  0  0  0  0  0  0  0  0  0
  147.3735  140.0763  154.8423 H   0  0  0  0  0  0  0  0  0  0  0  0
  148.0014  140.6652  153.3213 H   0  0  0  0  0  0  0  0  0  0  0  0
  148.0317  137.6890  153.6294 H   0  0  0  0  0  0  0  0  0  0  0  0
  148.2978  139.4173  151.7717 H   0  0  0  0  0  0  0  0  0  0  0  0
  145.6620  138.5304  154.5453 H   0  0  0  0  0  0  0  0  0  0  0  0
  145.3929  139.0073  152.8902 H   0  0  0  0  0  0  0  0  0  0  0  0
  147.4286  135.9825  153.6753 H   0  0  0  0  0  0  0  0  0  0  0  0
  146.0272  134.9109  153.7843 H   0  0  0  0  0  0  0  0  0  0  0  0
  146.3076  136.1102  155.0361 H   0  0  0  0  0  0  0  0  0  0  0  0
  144.8168  137.2690  151.2430 H   0  0  0  0  0  0  0  0  0  0  0  0
  146.5015  136.8372  151.2994 H   0  0  0  0  0  0  0  0  0  0  0  0
  143.1359  135.3986  152.3335 H   0  0  0  0  0  0  0  0  0  0  0  0
  142.4791  133.0481  151.8823 H   0  0  0  0  0  0  0  0  0  0  0  0
  144.0787  131.4949  150.7792 H   0  0  0  0  0  0  0  0  0  0  0  0
  146.3430  132.2951  150.1301 H   0  0  0  0  0  0  0  0  0  0  0  0
  147.0089  134.6453  150.5776 H   0  0  0  0  0  0  0  0  0  0  0  0
  144.6208  136.8142  153.5455 H   0  0  0  0  0  0  0  0  0  0  0  0
  1  2  1  0  0  0  0
  1 25  1  0  0  0  0
  1 26  1  0  0  0  0
  1 27  1  0  0  0  0
  2  3  1  0  0  0  0
  2 28  1  0  0  0  0
  3 24  1  0  0  0  0
  3  4  2  0  0  0  0
  4  5  1  0  0  0  0
  5  6  2  0  0  0  0
  5 29  1  0  0  0  0
  6  7  1  0  0  0  0
  7 24  2  0  0  0  0
  7  8  1  0  0  0  0
  8  9  2  0  0  0  0
  9 10  1  0  0  0  0
  9 30  1  0  0  0  0
 10 11  1  0  0  0  0
 10 24  1  0  0  0  0
 11 12  1  0  0  0  0
 11 31  1  0  0  0  0
 11 32  1  0  0  0  0
 12 13  1  0  0  0  0
 12 14  1  0  0  0  0
 12 33  1  0  0  0  0
 13 34  1  0  0  0  0
 14 15  1  0  0  0  0
 14 35  1  0  0  0  0
 14 36  1  0  0  0  0
 15 16  1  0  0  0  0
 15 17  1  0  0  0  0
 15 47  1  0  0  0  0
 16 37  1  0  0  0  0
 16 38  1  0  0  0  0
 16 39  1  0  0  0  0
 17 18  1  0  0  0  0
 17 40  1  0  0  0  0
 17 41  1  0  0  0  0
 18 23  1  0  0  0  0
 18 19  2  0  0  0  0
 19 20  1  0  0  0  0
 19 42  1  0  0  0  0
 20 21  2  0  0  0  0
 20 43  1  0  0  0  0
 21 22  1  0  0  0  0
 21 44  1  0  0  0  0
 22 23  2  0  0  0  0
 22 45  1  0  0  0  0
 23 46  1  0  0  0  0
M  CHG  1  15   1
M  END
> <s_m_source_file>
AV-unprocessed.smi

> <i_m_source_file_index>
787

> <i_lp_mmshare_version>
43012

> <i_f3d_flags>
0

> <s_epik_input>
bjFbY0hdbmMoW05IXVtDSDNdKWMoYzEyKW4oW2NIXW4yKVtDSDJdW0NASF0oW09IXSlbQ0gyXU4oW0NIM10pW0NIMl1jM1tjSF1bY0hdW2NIXVtjSF1bY0hdMw==

> <s_epik_cmdline>
J2VwaWtfcHl0aG9uJywgJy1waCcsICc3LjAnLCAnLXRuJywgJzgnLCAnLW1hJywgJzIwMCcsICctbWV0YWxfYmluZGluZycsICctaW1hZScsICc8aW5maWxlLm1hZT4nLCAnLW9tYWUnLCAnPG91dGZpbGUubWFlPic=

> <r_lp_tautomer_probability>
0.999987

> <r_epik_Ionization_Penalty>
0.0526284

> <r_epik_Ionization_Penalty_Charging>
0.0475377

> <r_epik_Ionization_Penalty_Neutral>
0.00509065

> <r_epik_State_Penalty>
0.0404888

> <r_epik_Charging_Adjusted_Penalty>
0.0880265

> <i_epik_Tot_Q>
1

> <i_epik_Tot_abs_Q>
1

> <r_epik_Metal_State_Penalty>
0.040507

> <b_epik_Metal_Only>
0

> <s_lp_Force_Field>
OPLS_2005

> <r_lp_Energy>
15.7703

> <b_lp_Chiralities_Consistent>
1

> <s_lp_Variant>
AV-unprocessed.smi:787-3

> <Gold.Version>
5.8.1

> <Gold.Id.Protein>
6NUR|6NUR_protein|mol2

> <Gold.PLP.Fitness>
48.5138

> <Gold.PLP.PLP>
-38.4655

> <Gold.PLP.part.hbond>
-4.3154

> <Gold.PLP.part.metal>
0.0000

> <Gold.PLP.part.buried>
-4.8307

> <Gold.PLP.part.nonpolar>
-29.2123

> <Gold.PLP.part.repulsive>
0.1771

> <Gold.PLP.ligand.clash>
0.0000

> <Gold.PLP.ligand.torsion>
1.5149

> <Gold.PLP.Chemscore.Hbond>
3.2439

> <Gold.PLP.Chemscore.CHOScore>
1.0000

> <Gold.PLP.Chemscore.Metal>
0.0000

> <Gold.Chemscore.Hbonds>
donor molecule, donor type, donor heavy atom, donor atom, acceptor molecule, acceptor atom, score
      L1  H     2    28       P1  8028  1.00
      L1  H    13    34       P1  7957  1.00
      P1  H  7954  7966       L1    13  0.25
      P1  H  7997  8009       L1     6  0.98
      L1  C     9    30       P1  7948  1.00
      L1  C     9    30       P1  7957  0.01

> <Gold.PLP.Chemscore.Internal.Correction>
0.3462

> <Gold.Rescore>
     Score         DG    S(hbond)    S(metal)    S(lipo)     H(rot)  DE(clash)    DE(int)     intcor
     10.41     -13.20       2.42        0.00      66.76       3.19       0.18       2.62       ----

> <Gold.Chemscore.Fitness>
10.4056

> <Gold.Chemscore.DG>
-13.2029

> <Gold.Chemscore.ZeroCoef>
-5.4800

> <Gold.Chemscore.Hbond>
2.4208

> <Gold.Chemscore.Metal>
0.0000

> <Gold.Chemscore.Lipo>
66.7615

> <Gold.Chemscore.Internal_Hbond>
0.0000

> <Gold.Chemscore.DEClash>
0.1761

> <Gold.Chemscore.DEInternal>
2.6212

> <Gold.Chemscore.Rot>
3.1928

> <Gold.Chemscore.Internal.Correction>
   9.000000E+99

> <Gold.Chemscore.Hbonds>
donor molecule, donor type, donor heavy atom, donor atom, acceptor molecule, acceptor atom, score
      L1  H     2    28       P1  8028  0.85
      L1  H    13    34       P1  7957  0.90
      P1  H  7954  7966       L1    13  0.01
      P1  H  7997  8009       L1     6  0.54

> <Gold.Chemscore.Hbond.Weighted>
-8.0854

> <Gold.Chemscore.Metal.Weighted>
-0.0000

> <Gold.Chemscore.Lipo.Weighted>
-7.8111

> <Gold.Chemscore.Internal_Hbond.Weighted>
0.0000

> <Gold.Chemscore.DEClash.Weighted>
0.1761

> <Gold.Chemscore.DEInternal.Weighted>
2.6212

> <Gold.Chemscore.Rot.Weighted>
8.1736

> <Gold.Chemscore.Internal.Correction.Weighted>
   9.000000E+99

> <Gold.Protein.RotatedTorsions>
[ 6907 6896 6895 6894 ] final  -86.12 input  -60.11 | X-H torsion
[ 7974 7965 7964 7962 ] final  154.11 input  175.53 | X-H torsion
[ 8008 7997 7996 7995 ] final -168.32 input   59.86 | X-H torsion
[ 10167 10162 10161 10158 ] final -140.30 input  -65.29 | X-H torsion
[ 10718 10713 10712 10709 ] final   -5.48 input   66.30 | X-H torsion
[ 10763 10752 10751 10750 ] final -143.96 input  -60.55 | X-H torsion
[ 11005 11000 10999 10996 ] final  177.28 input  -57.11 | X-H torsion

> <Gold.Protein.ActiveResidues>
 VAL166  LYS551  ARG553  GLY616  TRP617  ASP618  TYR619  PRO620  LYS621  CYS622 
 ASP623  PHE694  ASN695  SER759  ASP760  ASP761  ALA762  ILE779  LEU786  VAL792 
 PHE793  MET794  SER795  GLU796  ALA797  LYS798  CYS799  TRP800  GLU811  SER814 

> <Gold.Protein.RotatedAtoms>
  150.6868  134.3099  159.4741 H   0  0  0  0  0  0  0  0  0  0  0  0  # atno 6907 bound_to 6896
  152.0986  134.9355  160.0579 H   0  0  0  0  0  0  0  0  0  0  0  0  # atno 6908 bound_to 6896
  152.0643  133.4042  159.4468 H   0  0  0  0  0  0  0  0  0  0  0  0  # atno 6909 bound_to 6896
  144.8110  139.6890  143.6141 H   0  0  0  0  0  0  0  0  0  0  0  0  # atno 7974 bound_to 7965
  155.8897  140.1023  157.1427 H   0  0  0  0  0  0  0  0  0  0  0  0  # atno 8008 bound_to 7997
  154.4013  140.1313  156.4364 H   0  0  0  0  0  0  0  0  0  0  0  0  # atno 8009 bound_to 7997
  155.7547  140.3464  155.5170 H   0  0  0  0  0  0  0  0  0  0  0  0  # atno 8010 bound_to 7997
  139.8295  143.7465  152.2666 H   0  0  0  0  0  0  0  0  0  0  0  0  # atno 10167 bound_to 10162
  156.7459  130.5224  149.5814 H   0  0  0  0  0  0  0  0  0  0  0  0  # atno 10718 bound_to 10713
  154.8448  135.3453  154.6271 H   0  0  0  0  0  0  0  0  0  0  0  0  # atno 10763 bound_to 10752
  153.6880  135.6976  153.5103 H   0  0  0  0  0  0  0  0  0  0  0  0  # atno 10764 bound_to 10752
  153.2617  135.4321  155.0856 H   0  0  0  0  0  0  0  0  0  0  0  0  # atno 10765 bound_to 10752
  140.3824  134.6935  157.4459 H   0  0  0  0  0  0  0  0  0  0  0  0  # atno 11005 bound_to 11000
  146.2408  139.5998  142.9492 LP  0  0  0  0  0  0  0  0  0  0  0  0  # atno 17320 bound_to 7965
  145.5324  141.0426  143.2375 LP  0  0  0  0  0  0  0  0  0  0  0  0  # atno 17321 bound_to 7965
  139.7669  144.7489  151.0282 LP  0  0  0  0  0  0  0  0  0  0  0  0  # atno 17342 bound_to 10162
  140.7807  143.4688  151.0174 LP  0  0  0  0  0  0  0  0  0  0  0  0  # atno 17343 bound_to 10162
  156.1433  130.6260  151.0497 LP  0  0  0  0  0  0  0  0  0  0  0  0  # atno 17370 bound_to 10713
  157.6798  131.0841  150.7399 LP  0  0  0  0  0  0  0  0  0  0  0  0  # atno 17371 bound_to 10713
  140.0468  134.6187  155.8911 LP  0  0  0  0  0  0  0  0  0  0  0  0  # atno 17394 bound_to 11000
  141.1919  133.6573  156.5477 LP  0  0  0  0  0  0  0  0  0  0  0  0  # atno 17395 bound_to 11000

$$$$
