AV-unprocessed.smi:226|AV-procd|sdf|1725|dock1
  -GOLD-   2262020203D 1   1.00000     0.00000
 Structure written by MMmdl.
 54 58  0  0  0  0  0  0  0  0  1 V2000
  150.5871  140.1342  155.0666 O   0  0  0  0  0  0  0  0  0  0  0  0
  149.7381  139.4165  154.5355 C   0  0  0  0  0  0  0  0  0  0  0  0
  149.8841  138.0926  154.3815 N   0  0  0  0  0  0  0  0  0  0  0  0
  151.0069  137.3258  154.8130 C   0  0  0  0  0  0  0  0  0  0  0  0
  150.7516  136.1741  155.7610 C   0  0  0  0  0  0  0  0  0  0  0  0
  151.4058  137.4295  156.2689 C   0  0  0  0  0  0  0  0  0  0  0  0
  148.4252  140.0140  153.9969 C   0  0  2  0  0  0  0  0  0  0  0  0
  148.3831  141.5421  154.1728 C   0  0  0  0  0  0  0  0  0  0  0  0
  147.7294  141.7521  155.5374 C   0  0  0  0  0  0  0  0  0  0  0  0
  146.7242  140.6039  155.6199 C   0  0  0  0  0  0  0  0  0  0  0  0
  147.2577  139.5585  154.7520 N   0  0  0  0  0  0  0  0  0  0  0  0
  146.6627  138.3395  154.6246 C   0  0  0  0  0  0  0  0  0  0  0  0
  146.4480  137.6197  155.7580 N   0  0  0  0  0  0  0  0  0  0  0  0
  145.8707  136.4172  155.7072 C   0  0  0  0  0  0  0  0  0  0  0  0
  145.4359  135.7475  154.6406 N   0  0  0  0  0  0  0  0  0  0  0  0
  145.6449  136.4555  153.4948 C   0  0  0  0  0  0  0  0  0  0  0  0
  146.2379  137.7489  153.3941 C   0  0  0  0  0  0  0  0  0  0  0  0
  146.2528  138.1418  152.0592 N   0  0  0  0  0  0  0  0  0  0  0  0
  145.7058  137.1481  151.4161 C   0  0  0  0  0  0  0  0  0  0  0  0
  145.3375  136.0793  152.1987 N   0  0  0  0  0  0  0  0  0  0  0  0
  144.6817  134.8803  151.7637 C   0  0  0  0  0  0  0  0  0  0  0  0
  145.2094  133.5016  152.1706 C   0  0  0  0  0  0  0  0  0  0  0  0
  144.8234  132.9305  150.7883 C   0  0  0  0  0  0  0  0  0  0  0  0
  145.9049  132.0740  150.1117 C   0  0  0  0  0  0  0  0  0  0  0  0
  147.2025  132.5141  150.4580 O   0  0  0  0  0  0  0  0  0  0  0  0
  143.4972  132.1431  150.6956 C   0  0  0  0  0  0  0  0  0  0  0  0
  143.0006  132.0364  149.3766 O   0  0  0  0  0  0  0  0  0  0  0  0
  144.7819  134.4002  150.3120 C   0  0  0  0  0  0  0  0  0  0  0  0
  149.1341  137.5862  153.9333 H   0  0  0  0  0  0  0  0  0  0  0  0
  151.8222  137.1890  154.1038 H   0  0  0  0  0  0  0  0  0  0  0  0
  149.7246  135.9835  156.0666 H   0  0  0  0  0  0  0  0  0  0  0  0
  151.3767  135.2898  155.6546 H   0  0  0  0  0  0  0  0  0  0  0  0
  152.4678  137.3848  156.5012 H   0  0  0  0  0  0  0  0  0  0  0  0
  150.8154  138.0783  156.9134 H   0  0  0  0  0  0  0  0  0  0  0  0
  148.3155  139.7791  152.9377 H   0  0  0  0  0  0  0  0  0  0  0  0
  149.3627  142.0175  154.1027 H   0  0  0  0  0  0  0  0  0  0  0  0
  147.7539  141.9809  153.3971 H   0  0  0  0  0  0  0  0  0  0  0  0
  148.4777  141.6481  156.3243 H   0  0  0  0  0  0  0  0  0  0  0  0
  147.2640  142.7325  155.6428 H   0  0  0  0  0  0  0  0  0  0  0  0
  146.6034  140.2612  156.6485 H   0  0  0  0  0  0  0  0  0  0  0  0
  145.7497  140.9194  155.2444 H   0  0  0  0  0  0  0  0  0  0  0  0
  145.7402  135.9202  156.6572 H   0  0  0  0  0  0  0  0  0  0  0  0
  145.5617  137.1679  150.3456 H   0  0  0  0  0  0  0  0  0  0  0  0
  143.6382  134.9923  152.0604 H   0  0  0  0  0  0  0  0  0  0  0  0
  146.2874  133.5066  152.3409 H   0  0  0  0  0  0  0  0  0  0  0  0
  144.6849  133.0521  153.0145 H   0  0  0  0  0  0  0  0  0  0  0  0
  145.8038  131.0225  150.3823 H   0  0  0  0  0  0  0  0  0  0  0  0
  145.8179  132.1219  149.0257 H   0  0  0  0  0  0  0  0  0  0  0  0
  147.7076  131.7657  150.7377 H   0  0  0  0  0  0  0  0  0  0  0  0
  143.6216  131.1315  151.0834 H   0  0  0  0  0  0  0  0  0  0  0  0
  142.7197  132.6144  151.2977 H   0  0  0  0  0  0  0  0  0  0  0  0
  142.4498  132.7843  149.2014 H   0  0  0  0  0  0  0  0  0  0  0  0
  143.9210  134.6585  149.6947 H   0  0  0  0  0  0  0  0  0  0  0  0
  145.7098  134.7171  149.8330 H   0  0  0  0  0  0  0  0  0  0  0  0
  1  2  2  0  0  0  0
  2  3  1  0  0  0  0
  2  7  1  0  0  0  0
  3  4  1  0  0  0  0
  3 29  1  0  0  0  0
  4  6  1  0  0  0  0
  4  5  1  0  0  0  0
  4 30  1  0  0  0  0
  5  6  1  0  0  0  0
  5 31  1  0  0  0  0
  5 32  1  0  0  0  0
  6 33  1  0  0  0  0
  6 34  1  0  0  0  0
  7 11  1  0  0  0  0
  7  8  1  0  0  0  0
  7 35  1  0  0  0  0
  8  9  1  0  0  0  0
  8 36  1  0  0  0  0
  8 37  1  0  0  0  0
  9 10  1  0  0  0  0
  9 38  1  0  0  0  0
  9 39  1  0  0  0  0
 10 11  1  0  0  0  0
 10 40  1  0  0  0  0
 10 41  1  0  0  0  0
 11 12  1  0  0  0  0
 12 17  1  0  0  0  0
 12 13  2  0  0  0  0
 13 14  1  0  0  0  0
 14 15  2  0  0  0  0
 14 42  1  0  0  0  0
 15 16  1  0  0  0  0
 16 20  1  0  0  0  0
 16 17  2  0  0  0  0
 17 18  1  0  0  0  0
 18 19  2  0  0  0  0
 19 20  1  0  0  0  0
 19 43  1  0  0  0  0
 20 21  1  0  0  0  0
 21 28  1  0  0  0  0
 21 22  1  0  0  0  0
 21 44  1  0  0  0  0
 22 23  1  0  0  0  0
 22 45  1  0  0  0  0
 22 46  1  0  0  0  0
 23 24  1  0  0  0  0
 23 26  1  0  0  0  0
 23 28  1  0  0  0  0
 24 25  1  0  0  0  0
 24 47  1  0  0  0  0
 24 48  1  0  0  0  0
 25 49  1  0  0  0  0
 26 27  1  0  0  0  0
 26 50  1  0  0  0  0
 26 51  1  0  0  0  0
 27 52  1  0  0  0  0
 28 53  1  0  0  0  0
 28 54  1  0  0  0  0
M  END
> <s_m_source_file>
AV-unprocessed.smi

> <i_m_source_file_index>
226

> <i_lp_mmshare_version>
43012

> <i_f3d_flags>
0

> <s_epik_input>
W0NIMl0xW0NIMl1bQ0hdMVtOSF1DKD1PKVtDQEBIXTJbQ0gyXVtDSDJdW0NIMl1OMmMobltjSF1uMyljKGMzNCluW2NIXW40W0NIXShbQ0gyXTUpW0NIMl1DNShbQ0gyXVtPSF0pW0NIMl1bT0hd

> <s_epik_cmdline>
J2VwaWtfcHl0aG9uJywgJy1waCcsICc3LjAnLCAnLXRuJywgJzgnLCAnLW1hJywgJzIwMCcsICctbWV0YWxfYmluZGluZycsICctaW1hZScsICc8aW5maWxlLm1hZT4nLCAnLW9tYWUnLCAnPG91dGZpbGUubWFlPic=

> <r_lp_tautomer_probability>
1

> <r_epik_Ionization_Penalty>
0.000818715

> <r_epik_Ionization_Penalty_Charging>
0

> <r_epik_Ionization_Penalty_Neutral>
0.000818715

> <r_epik_State_Penalty>
0.000426447

> <r_epik_Charging_Adjusted_Penalty>
0.000426447

> <i_epik_Tot_Q>
0

> <i_epik_Tot_abs_Q>
0

> <r_epik_Metal_State_Penalty>
-0

> <b_epik_Metal_Only>
0

> <s_lp_Force_Field>
OPLS_2005

> <r_lp_Energy>
61.6174

> <b_lp_Chiralities_Consistent>
1

> <s_lp_Variant>
AV-unprocessed.smi:226-1

> <Gold.Version>
5.8.1

> <Gold.Id.Protein>
6NUR|6NUR_protein|mol2

> <Gold.PLP.Fitness>
52.5395

> <Gold.PLP.PLP>
-40.9633

> <Gold.PLP.part.hbond>
-6.4615

> <Gold.PLP.part.metal>
0.0000

> <Gold.PLP.part.buried>
-0.3137

> <Gold.PLP.part.nonpolar>
-34.5430

> <Gold.PLP.part.repulsive>
0.4808

> <Gold.PLP.ligand.clash>
0.0000

> <Gold.PLP.ligand.torsion>
1.7579

> <Gold.PLP.Chemscore.Hbond>
4.0548

> <Gold.PLP.Chemscore.CHOScore>
0.7592

> <Gold.PLP.Chemscore.Metal>
0.0000

> <Gold.Chemscore.Hbonds>
donor molecule, donor type, donor heavy atom, donor atom, acceptor molecule, acceptor atom, score
      L1  H    25    49       P1 10747  0.80
      L1  H    27    52       P1 10186  0.57
      P1  H  7989  7998       L1     1  1.00
      P1  H 10785 10796       L1    27  1.00
      L1  C    19    43       P1 10171  0.62

> <Gold.PLP.Chemscore.Internal.Correction>
0.6499

> <Gold.Rescore>
     Score         DG    S(hbond)    S(metal)    S(lipo)     H(rot)  DE(clash)    DE(int)     intcor
     15.52     -18.82       3.68        0.00      86.13       3.52       1.68       1.62       ----

> <Gold.Chemscore.Fitness>
15.5204

> <Gold.Chemscore.DG>
-18.8154

> <Gold.Chemscore.ZeroCoef>
-5.4800

> <Gold.Chemscore.Hbond>
3.6768

> <Gold.Chemscore.Metal>
0.0000

> <Gold.Chemscore.Lipo>
86.1308

> <Gold.Chemscore.Internal_Hbond>
0.0000

> <Gold.Chemscore.DEClash>
1.6781

> <Gold.Chemscore.DEInternal>
1.6168

> <Gold.Chemscore.Rot>
3.5244

> <Gold.Chemscore.Internal.Correction>
   9.000000E+99

> <Gold.Chemscore.Hbonds>
donor molecule, donor type, donor heavy atom, donor atom, acceptor molecule, acceptor atom, score
      L1  H     3    29       P1  7948  0.03
      L1  H    25    49       P1 10747  0.79
      L1  H    27    52       P1 10186  0.58
      P1  H  7989  7998       L1     1  0.42
      P1  H 10785 10796       L1    27  0.71

> <Gold.Chemscore.Hbond.Weighted>
-12.2806

> <Gold.Chemscore.Metal.Weighted>
-0.0000

> <Gold.Chemscore.Lipo.Weighted>
-10.0773

> <Gold.Chemscore.Internal_Hbond.Weighted>
0.0000

> <Gold.Chemscore.DEClash.Weighted>
1.6781

> <Gold.Chemscore.DEInternal.Weighted>
1.6168

> <Gold.Chemscore.Rot.Weighted>
9.0225

> <Gold.Chemscore.Internal.Correction.Weighted>
   9.000000E+99

> <Gold.Protein.RotatedTorsions>
[ 6907 6896 6895 6894 ] final   84.06 input  -60.11 | X-H torsion
[ 7974 7965 7964 7962 ] final -116.50 input  175.53 | X-H torsion
[ 8008 7997 7996 7995 ] final  -26.17 input   59.86 | X-H torsion
[ 10167 10162 10161 10158 ] final -153.00 input  -65.29 | X-H torsion
[ 10718 10713 10712 10709 ] final  -69.05 input   66.30 | X-H torsion
[ 10763 10752 10751 10750 ] final  120.79 input  -60.55 | X-H torsion
[ 11005 11000 10999 10996 ] final -116.04 input  -57.11 | X-H torsion

> <Gold.Protein.ActiveResidues>
 VAL166  LYS551  ARG553  GLY616  TRP617  ASP618  TYR619  PRO620  LYS621  CYS622 
 ASP623  PHE694  ASN695  SER759  ASP760  ASP761  ALA762  ILE779  LEU786  VAL792 
 PHE793  MET794  SER795  GLU796  ALA797  LYS798  CYS799  TRP800  GLU811  SER814 

> <Gold.Protein.RotatedAtoms>
  152.5343  134.2798  159.9002 H   0  0  0  0  0  0  0  0  0  0  0  0  # atno 6907 bound_to 6896
  151.2753  133.4229  159.2631 H   0  0  0  0  0  0  0  0  0  0  0  0  # atno 6908 bound_to 6896
  151.0331  134.9569  159.8178 H   0  0  0  0  0  0  0  0  0  0  0  0  # atno 6909 bound_to 6896
  145.0960  140.8521  143.3954 H   0  0  0  0  0  0  0  0  0  0  0  0  # atno 7974 bound_to 7965
  154.4438  140.1906  156.0734 H   0  0  0  0  0  0  0  0  0  0  0  0  # atno 8008 bound_to 7997
  156.0494  140.3310  155.7307 H   0  0  0  0  0  0  0  0  0  0  0  0  # atno 8009 bound_to 7997
  155.5580  140.0601  157.2826 H   0  0  0  0  0  0  0  0  0  0  0  0  # atno 8010 bound_to 7997
  139.7134  143.9073  152.2476 H   0  0  0  0  0  0  0  0  0  0  0  0  # atno 10167 bound_to 10162
  156.0474  130.4305  150.2090 H   0  0  0  0  0  0  0  0  0  0  0  0  # atno 10718 bound_to 10713
  153.6040  135.3443  155.2955 H   0  0  0  0  0  0  0  0  0  0  0  0  # atno 10763 bound_to 10752
  154.8631  135.4234  154.2382 H   0  0  0  0  0  0  0  0  0  0  0  0  # atno 10764 bound_to 10752
  153.3217  135.7038  153.7096 H   0  0  0  0  0  0  0  0  0  0  0  0  # atno 10765 bound_to 10752
  141.0448  133.9780  157.2935 H   0  0  0  0  0  0  0  0  0  0  0  0  # atno 11005 bound_to 11000
  145.1010  139.2822  143.5686 LP  0  0  0  0  0  0  0  0  0  0  0  0  # atno 17320 bound_to 7965
  146.3530  140.0577  142.8631 LP  0  0  0  0  0  0  0  0  0  0  0  0  # atno 17321 bound_to 7965
  139.8948  144.6945  150.8730 LP  0  0  0  0  0  0  0  0  0  0  0  0  # atno 17342 bound_to 10162
  140.7738  143.3558  151.1923 LP  0  0  0  0  0  0  0  0  0  0  0  0  # atno 17343 bound_to 10162
  157.0178  130.9970  151.3348 LP  0  0  0  0  0  0  0  0  0  0  0  0  # atno 17370 bound_to 10713
  157.5365  130.8092  149.7978 LP  0  0  0  0  0  0  0  0  0  0  0  0  # atno 17371 bound_to 10713
  139.9303  135.0200  156.8378 LP  0  0  0  0  0  0  0  0  0  0  0  0  # atno 17394 bound_to 11000
  140.6167  134.0032  155.7600 LP  0  0  0  0  0  0  0  0  0  0  0  0  # atno 17395 bound_to 11000

$$$$
