#       Name:                AV-unprocessed.smi:170
#       Creating user name   scv26
#       Creation time:       Thu Mar 26 19:16:02 2020


#       File generated by GOLD software.
#

@<TRIPOS>MOLECULE
AV-unprocessed.smi:170
    67    71     1
SMALL
NO_CHARGES


@<TRIPOS>ATOM
      1 ****        -3.3903   1.7994  -1.4584 O.3            1 S1                 0.0000
      2 ****        -3.4334   1.7818  -0.0439 C.3            1 S1                 0.0000
      3 ****        -2.7972   0.4745   0.4681 C.3            1 S1                 0.0000
      4 ****        -1.4158   0.3217   0.0461 N.pl3          1 S1                 0.0000
      5 ****        -0.9420  -0.5079  -0.9444 C.2            1 S1                 0.0000
      6 ****         0.3492  -0.4688  -1.1307 N.2            1 S1                 0.0000
      7 ****         0.8001   0.4553  -0.1953 C.ar           1 S1                 0.0000
      8 ****         2.0783   0.9743   0.1605 C.ar           1 S1                 0.0000
      9 ****         3.2516   0.6109  -0.4059 N.3            1 S1                 0.0000
     10 ****         3.4644   1.3228  -1.6603 C.3            1 S1                 0.0000
     11 ****         4.8802   1.0551  -2.1882 C.3            1 S1                 0.0000
     12 ****         5.0631  -0.3470  -2.3318 O.3            1 S1                 0.0000
     13 ****         4.9475  -1.0290  -1.0878 C.3            1 S1                 0.0000
     14 ****         3.5357  -0.8277  -0.4885 C.3            1 S1                 0.0000
     15 ****         3.3936  -1.5362   0.8848 C.3            1 S1                 0.0000
     16 ****         3.5844  -3.0542   0.8410 C.3            1 S1                 0.0000
     17 ****         2.6007  -3.9119   0.0258 C.3            1 S1                 0.0000
     18 ****         1.8641  -4.2305   1.3280 C.3            1 S1                 0.0000
     19 ****         3.1560  -3.8759   2.0673 C.3            1 S1                 0.0000
     20 ****         2.1347   1.9064   1.1433 N.ar           1 S1                 0.0000
     21 ****         1.0146   2.2978   1.7585 C.ar           1 S1                 0.0000
     22 ****        -0.2401   1.8939   1.5469 N.ar           1 S1                 0.0000
     23 ****        -0.3001   0.9656   0.5494 C.ar           1 S1                 0.0000
     24 ****        -4.8844   1.9498   0.4530 C.3            1 S1                 0.0000
     25 ****        -5.9524   1.0527  -0.1816 C.3            1 S1                 0.0000
     26 ****        -7.2035   1.8623   0.0750 C.3            1 S1                 0.0000
     27 ****        -6.7010   3.2887  -0.1357 C.3            1 S1                 0.0000
     28 ****        -5.3368   3.2899   0.2786 O.3            1 S1                 0.0000
     29 ****        -3.7490   2.6218  -1.7558 H              1 S1                 0.0000
     30 ****        -2.8421   2.6229   0.3204 H              1 S1                 0.0000
     31 ****        -2.8227   0.4434   1.5580 H              1 S1                 0.0000
     32 ****        -3.3647  -0.3891   0.1190 H              1 S1                 0.0000
     33 ****        -1.5885  -1.1457  -1.5296 H              1 S1                 0.0000
     34 ****         2.7259   0.9975  -2.3948 H              1 S1                 0.0000
     35 ****         3.3230   2.3946  -1.5136 H              1 S1                 0.0000
     36 ****         5.0182   1.5338  -3.1577 H              1 S1                 0.0000
     37 ****         5.6336   1.4682  -1.5156 H              1 S1                 0.0000
     38 ****         5.1425  -2.0845  -1.2736 H              1 S1                 0.0000
     39 ****         5.7185  -0.6786  -0.3993 H              1 S1                 0.0000
     40 ****         2.8245  -1.2679  -1.1865 H              1 S1                 0.0000
     41 ****         4.1057  -1.0996   1.5859 H              1 S1                 0.0000
     42 ****         2.4109  -1.3322   1.3092 H              1 S1                 0.0000
     43 ****         4.6101  -3.3150   0.5796 H              1 S1                 0.0000
     44 ****         2.0006  -3.3702  -0.7055 H              1 S1                 0.0000
     45 ****         3.0727  -4.7909  -0.4165 H              1 S1                 0.0000
     46 ****         1.0513  -3.5323   1.5349 H              1 S1                 0.0000
     47 ****         1.5459  -5.2680   1.4324 H              1 S1                 0.0000
     48 ****         3.7940  -4.7444   2.2398 H              1 S1                 0.0000
     49 ****         3.0104  -3.2976   2.9804 H              1 S1                 0.0000
     50 ****         1.1427   3.0385   2.5340 H              1 S1                 0.0000
     51 ****        -4.9012   1.7814   1.5312 H              1 S1                 0.0000
     52 ****        -5.8049   0.9426  -1.2562 H              1 S1                 0.0000
     53 ****        -5.9896   0.0572   0.2613 H              1 S1                 0.0000
     54 ****        -8.0301   1.5996  -0.5857 H              1 S1                 0.0000
     55 ****        -7.5321   1.7272   1.1064 H              1 S1                 0.0000
     56 ****        -6.7394   3.5507  -1.1935 H              1 S1                 0.0000
     57 ****        -7.2879   4.0232   0.4160 H              1 S1                 0.0000
     58 ****        -3.9327   1.0424  -1.8227 LP             1 S1                 0.0000
     59 ****        -2.4439   1.7111  -1.7690 LP             1 S1                 0.0000
     60 ****         0.8902  -0.9854  -1.7944 LP             1 S1                 0.0000
     61 ****         3.9472   0.9041   0.2500 LP             1 S1                 0.0000
     62 ****         5.9731  -0.5170  -2.7100 LP             1 S1                 0.0000
     63 ****         4.3698  -0.7006  -2.9597 LP             1 S1                 0.0000
     64 ****         3.0145   2.3012   1.4080 LP             1 S1                 0.0000
     65 ****        -1.0339   2.2289   2.0545 LP             1 S1                 0.0000
     66 ****        -4.7786   3.7408  -0.4179 LP             1 S1                 0.0000
     67 ****        -5.2530   3.7839   1.1440 LP             1 S1                 0.0000
@<TRIPOS>BOND
    1    1    2 1     
    2    1   29 1     
    3    2    3 1     
    4    2   24 1     
    5    2   30 1     
    6    3    4 1     
    7    3   31 1     
    8    3   32 1     
    9    4   23 1     
   10    4    5 1     
   11    5    6 2     
   12    5   33 1     
   13    6    7 1     
   14    7   23 ar    
   15    7    8 ar    
   16    8    9 1     
   17    8   20 ar    
   18    9   14 1     
   19    9   10 1     
   20   10   11 1     
   21   10   34 1     
   22   10   35 1     
   23   11   12 1     
   24   11   36 1     
   25   11   37 1     
   26   12   13 1     
   27   13   14 1     
   28   13   38 1     
   29   13   39 1     
   30   14   15 1     
   31   14   40 1     
   32   15   16 1     
   33   15   41 1     
   34   15   42 1     
   35   16   19 1     
   36   16   17 1     
   37   16   43 1     
   38   17   18 1     
   39   17   44 1     
   40   17   45 1     
   41   18   19 1     
   42   18   46 1     
   43   18   47 1     
   44   19   48 1     
   45   19   49 1     
   46   20   21 ar    
   47   21   22 ar    
   48   21   50 1     
   49   22   23 ar    
   50   24   28 1     
   51   24   25 1     
   52   24   51 1     
   53   25   26 1     
   54   25   52 1     
   55   25   53 1     
   56   26   27 1     
   57   26   54 1     
   58   26   55 1     
   59   27   28 1     
   60   27   56 1     
   61   27   57 1     
   62    1   58 1     
   63    1   59 1     
   64    6   60 1     
   65    9   61 1     
   66   12   62 1     
   67   12   63 1     
   68   20   64 1     
   69   22   65 1     
   70   28   66 1     
   71   28   67 1     
@<TRIPOS>SUBSTRUCTURE
      1 S1             1
@<TRIPOS>SET
LONE_PAIRS      STATIC     ATOMS    <user>   **** ""
10 58 59 60 61 62 63 64 65 66 67
DONOR_HYDROGENS      STATIC     ATOMS    <user>   **** ""
1 29
ATOM$BLUE        STATIC     ATOMS    COLORGROUP SYSTEM
10 58 59 60 61 62 63 64 65 66 67
ATOM$RED        STATIC     ATOMS    COLORGROUP SYSTEM
1 29
