AV-unprocessed.smi:2062|AV-procd|sdf|8404|dock4
  -GOLD-   2272011 93D 1   1.00000     0.00000
 Structure written by MMmdl.
 42 43  0  0  0  0  0  0  0  0  3 V2000
  151.4954  143.2684  158.0941 C   0  0  0  0  0  0  0  0  0  0  0  0
  151.5689  141.9394  158.8645 C   0  0  0  0  0  0  0  0  0  0  0  0
  152.3921  142.1110  160.1498 C   0  0  0  0  0  0  0  0  0  0  0  0
  152.1507  140.8029  157.9967 C   0  0  0  0  0  0  0  0  0  0  0  0
  151.3030  140.4831  156.8159 N   0  3  1  0  0  0  0  0  0  0  0  0
  152.0705  139.9726  155.6541 C   0  0  0  0  0  0  0  0  0  0  0  0
  152.4482  138.4933  155.8450 C   0  0  0  0  0  0  0  0  0  0  0  0
  151.2663  137.7326  156.0558 O   0  0  0  0  0  0  0  0  0  0  0  0
  150.5700  138.1199  157.2369 C   0  0  2  0  0  0  0  0  0  0  0  0
  149.3607  137.1919  157.4105 C   0  0  0  0  0  0  0  0  0  0  0  0
  148.6608  137.4927  158.6516 N   0  0  0  0  0  0  0  0  0  0  0  0
  148.3900  136.6075  159.6183 C   0  0  0  0  0  0  0  0  0  0  0  0
  148.7392  135.4320  159.4889 O   0  0  0  0  0  0  0  0  0  0  0  0
  147.7318  137.1412  160.6716 N   0  5  0  0  0  0  0  0  0  0  0  0
  146.7671  136.4383  161.2876 C   0  0  0  0  0  0  0  0  0  0  0  0
  145.4629  136.6651  161.0933 N   0  0  0  0  0  0  0  0  0  0  0  0
  144.6359  135.8139  161.8286 C   0  0  0  0  0  0  0  0  0  0  0  0
  145.3265  134.9115  162.5932 C   0  0  0  0  0  0  0  0  0  0  0  0
  147.0468  135.1055  162.4121 S   0  0  0  0  0  0  0  0  0  0  0  0
  150.1434  139.5987  157.1013 C   0  0  0  0  0  0  0  0  0  0  0  0
  152.4833  143.5900  157.7626 H   0  0  0  0  0  0  0  0  0  0  0  0
  151.0821  144.0608  158.7189 H   0  0  0  0  0  0  0  0  0  0  0  0
  150.8586  143.1863  157.2131 H   0  0  0  0  0  0  0  0  0  0  0  0
  150.5579  141.6749  159.1730 H   0  0  0  0  0  0  0  0  0  0  0  0
  153.4244  142.3840  159.9273 H   0  0  0  0  0  0  0  0  0  0  0  0
  152.4100  141.1895  160.7323 H   0  0  0  0  0  0  0  0  0  0  0  0
  151.9718  142.8910  160.7854 H   0  0  0  0  0  0  0  0  0  0  0  0
  153.1419  141.1098  157.6599 H   0  0  0  0  0  0  0  0  0  0  0  0
  152.3067  139.9073  158.5979 H   0  0  0  0  0  0  0  0  0  0  0  0
  151.4493  140.0718  154.7630 H   0  0  0  0  0  0  0  0  0  0  0  0
  152.9571  140.5822  155.4768 H   0  0  0  0  0  0  0  0  0  0  0  0
  152.9522  138.1179  154.9543 H   0  0  0  0  0  0  0  0  0  0  0  0
  153.1392  138.3625  156.6792 H   0  0  0  0  0  0  0  0  0  0  0  0
  151.2249  137.9964  158.1009 H   0  0  0  0  0  0  0  0  0  0  0  0
  148.6711  137.3208  156.5748 H   0  0  0  0  0  0  0  0  0  0  0  0
  149.6776  136.1479  157.4116 H   0  0  0  0  0  0  0  0  0  0  0  0
  148.3648  138.4468  158.7966 H   0  0  0  0  0  0  0  0  0  0  0  0
  143.5644  135.9204  161.7456 H   0  0  0  0  0  0  0  0  0  0  0  0
  144.9319  134.1487  163.2470 H   0  0  0  0  0  0  0  0  0  0  0  0
  149.6097  139.9275  157.9921 H   0  0  0  0  0  0  0  0  0  0  0  0
  149.4380  139.6950  156.2746 H   0  0  0  0  0  0  0  0  0  0  0  0
  150.9223  141.3714  156.5218 H   0  0  0  0  0  0  0  0  0  0  0  0
  1  2  1  0  0  0  0
  1 21  1  0  0  0  0
  1 22  1  0  0  0  0
  1 23  1  0  0  0  0
  2  3  1  0  0  0  0
  2  4  1  0  0  0  0
  2 24  1  0  0  0  0
  3 25  1  0  0  0  0
  3 26  1  0  0  0  0
  3 27  1  0  0  0  0
  4  5  1  0  0  0  0
  4 28  1  0  0  0  0
  4 29  1  0  0  0  0
  5 20  1  0  0  0  0
  5  6  1  0  0  0  0
  5 42  1  0  0  0  0
  6  7  1  0  0  0  0
  6 30  1  0  0  0  0
  6 31  1  0  0  0  0
  7  8  1  0  0  0  0
  7 32  1  0  0  0  0
  7 33  1  0  0  0  0
  8  9  1  0  0  0  0
  9 10  1  0  0  0  0
  9 20  1  0  0  0  0
  9 34  1  0  0  0  0
 10 11  1  0  0  0  0
 10 35  1  0  0  0  0
 10 36  1  0  0  0  0
 11 12  1  0  0  0  0
 11 37  1  0  0  0  0
 12 13  2  0  0  0  0
 12 14  1  0  0  0  0
 14 15  1  0  0  0  0
 15 19  1  0  0  0  0
 15 16  2  0  0  0  0
 16 17  1  0  0  0  0
 17 18  2  0  0  0  0
 17 38  1  0  0  0  0
 18 19  1  0  0  0  0
 18 39  1  0  0  0  0
 20 40  1  0  0  0  0
 20 41  1  0  0  0  0
M  CHG  1   5   1
M  CHG  1  14  -1
M  END
> <s_m_source_file>
AV-unprocessed.smi

> <i_m_source_file_index>
2062

> <i_lp_mmshare_version>
43012

> <i_f3d_flags>
0

> <s_epik_input>
W0NIM11bQ0hdKFtDSDNdKVtDSDJdTjFbQ0gyXVtDSDJdT1tDQEhdKFtDSDJdMSlbQ0gyXVtOSF1DKD1PKVtOSF1jMm5bY0hdW2NIXXMy

> <s_epik_cmdline>
J2VwaWtfcHl0aG9uJywgJy1waCcsICc3LjAnLCAnLXRuJywgJzgnLCAnLW1hJywgJzIwMCcsICctbWV0YWxfYmluZGluZycsICctaW1hZScsICc8aW5maWxlLm1hZT4nLCAnLW9tYWUnLCAnPG91dGZpbGUubWFlPic=

> <r_lp_tautomer_probability>
0.999

> <r_epik_Ionization_Penalty>
6.35835

> <r_epik_Ionization_Penalty_Charging>
5.49938

> <r_epik_Ionization_Penalty_Neutral>
0.858963

> <r_epik_State_Penalty>
5.49328

> <r_epik_Charging_Adjusted_Penalty>
10.9927

> <i_epik_Tot_Q>
0

> <i_epik_Tot_abs_Q>
2

> <r_epik_Metal_State_Penalty>
1.51523

> <b_epik_Metal_Only>
1

> <s_lp_Force_Field>
OPLS_2005

> <r_lp_Energy>
10.2516

> <b_lp_Chiralities_Consistent>
1

> <s_lp_Variant>
AV-unprocessed.smi:2062-9

> <Gold.Version>
5.8.1

> <Gold.Id.Protein>
6NUR|6NUR_protein|mol2

> <Gold.PLP.Fitness>
43.3200

> <Gold.PLP.PLP>
-32.5219

> <Gold.PLP.part.hbond>
-3.0000

> <Gold.PLP.part.metal>
0.0000

> <Gold.PLP.part.buried>
-4.1255

> <Gold.PLP.part.nonpolar>
-25.7697

> <Gold.PLP.part.repulsive>
0.2619

> <Gold.PLP.ligand.clash>
0.0000

> <Gold.PLP.ligand.torsion>
1.3224

> <Gold.PLP.Chemscore.Hbond>
4.4174

> <Gold.PLP.Chemscore.CHOScore>
0.0000

> <Gold.PLP.Chemscore.Metal>
0.0000

> <Gold.Chemscore.Hbonds>
donor molecule, donor type, donor heavy atom, donor atom, acceptor molecule, acceptor atom, score
      P1  H  6896  6908       L1    13  0.70
      P1  H  6931  6943       L1    14  1.33
      P1  H  6934  6947       L1    14  1.82

> <Gold.PLP.Chemscore.Internal.Correction>
0.1907

> <Gold.Rescore>
     Score         DG    S(hbond)    S(metal)    S(lipo)     H(rot)  DE(clash)    DE(int)     intcor
     15.65     -17.06       1.95        0.00      80.86       1.72       0.05       1.36       ----

> <Gold.Chemscore.Fitness>
15.6493

> <Gold.Chemscore.DG>
-17.0564

> <Gold.Chemscore.ZeroCoef>
-5.4800

> <Gold.Chemscore.Hbond>
1.9513

> <Gold.Chemscore.Metal>
0.0000

> <Gold.Chemscore.Lipo>
80.8615

> <Gold.Chemscore.Internal_Hbond>
0.0000

> <Gold.Chemscore.DEClash>
0.0486

> <Gold.Chemscore.DEInternal>
1.3585

> <Gold.Chemscore.Rot>
1.7194

> <Gold.Chemscore.Internal.Correction>
   9.000000E+99

> <Gold.Chemscore.Hbonds>
donor molecule, donor type, donor heavy atom, donor atom, acceptor molecule, acceptor atom, score
      P1  H  6896  6908       L1    13  0.68
      P1  H  6931  6943       L1    14  0.48
      P1  H  6934  6947       L1    14  0.39

> <Gold.Chemscore.Hbond.Weighted>
-6.5173

> <Gold.Chemscore.Metal.Weighted>
-0.0000

> <Gold.Chemscore.Lipo.Weighted>
-9.4608

> <Gold.Chemscore.Internal_Hbond.Weighted>
0.0000

> <Gold.Chemscore.DEClash.Weighted>
0.0486

> <Gold.Chemscore.DEInternal.Weighted>
1.3585

> <Gold.Chemscore.Rot.Weighted>
4.4017

> <Gold.Chemscore.Internal.Correction.Weighted>
   9.000000E+99

> <Gold.Protein.RotatedTorsions>
[ 6907 6896 6895 6894 ] final  157.92 input  -60.11 | X-H torsion
[ 7974 7965 7964 7962 ] final  115.53 input  175.53 | X-H torsion
[ 8008 7997 7996 7995 ] final   42.45 input   59.86 | X-H torsion
[ 10167 10162 10161 10158 ] final  155.45 input  -65.29 | X-H torsion
[ 10718 10713 10712 10709 ] final  -43.68 input   66.30 | X-H torsion
[ 10763 10752 10751 10750 ] final  171.90 input  -60.55 | X-H torsion
[ 11005 11000 10999 10996 ] final -159.60 input  -57.11 | X-H torsion

> <Gold.Protein.ActiveResidues>
 VAL166  LYS551  ARG553  GLY616  TRP617  ASP618  TYR619  PRO620  LYS621  CYS622 
 ASP623  PHE694  ASN695  SER759  ASP760  ASP761  ALA762  ILE779  LEU786  VAL792 
 PHE793  MET794  SER795  GLU796  ALA797  LYS798  CYS799  TRP800  GLU811  SER814 

> <Gold.Protein.RotatedAtoms>
  152.0080  133.3850  159.4207 H   0  0  0  0  0  0  0  0  0  0  0  0  # atno 6907 bound_to 6896
  150.6902  134.3762  159.5023 H   0  0  0  0  0  0  0  0  0  0  0  0  # atno 6908 bound_to 6896
  152.1518  134.8981  160.0598 H   0  0  0  0  0  0  0  0  0  0  0  0  # atno 6909 bound_to 6896
  145.1908  139.3001  143.4369 H   0  0  0  0  0  0  0  0  0  0  0  0  # atno 7974 bound_to 7965
  155.2863  140.3376  155.4255 H   0  0  0  0  0  0  0  0  0  0  0  0  # atno 8008 bound_to 7997
  156.2067  140.1753  156.7825 H   0  0  0  0  0  0  0  0  0  0  0  0  # atno 8009 bound_to 7997
  154.5630  140.0684  156.8832 H   0  0  0  0  0  0  0  0  0  0  0  0  # atno 8010 bound_to 7997
  139.4821  144.5097  151.8043 H   0  0  0  0  0  0  0  0  0  0  0  0  # atno 10167 bound_to 10162
  156.2464  130.4184  149.8700 H   0  0  0  0  0  0  0  0  0  0  0  0  # atno 10718 bound_to 10713
  154.4185  135.2757  155.1991 H   0  0  0  0  0  0  0  0  0  0  0  0  # atno 10763 bound_to 10752
  154.3947  135.6058  153.5866 H   0  0  0  0  0  0  0  0  0  0  0  0  # atno 10764 bound_to 10752
  152.9832  135.5912  154.4477 H   0  0  0  0  0  0  0  0  0  0  0  0  # atno 10765 bound_to 10752
  140.6408  134.4553  157.5233 H   0  0  0  0  0  0  0  0  0  0  0  0  # atno 11005 bound_to 11000
  146.3436  140.2120  142.8590 LP  0  0  0  0  0  0  0  0  0  0  0  0  # atno 17320 bound_to 7965
  145.0043  140.8659  143.5262 LP  0  0  0  0  0  0  0  0  0  0  0  0  # atno 17321 bound_to 7965
  140.4599  144.1737  150.5905 LP  0  0  0  0  0  0  0  0  0  0  0  0  # atno 17342 bound_to 10162
  140.4496  143.2492  151.9365 LP  0  0  0  0  0  0  0  0  0  0  0  0  # atno 17343 bound_to 10162
  156.6263  130.8647  151.3486 LP  0  0  0  0  0  0  0  0  0  0  0  0  # atno 17370 bound_to 10713
  157.7197  130.9542  150.1389 LP  0  0  0  0  0  0  0  0  0  0  0  0  # atno 17371 bound_to 10713
  139.9081  134.8404  156.1630 LP  0  0  0  0  0  0  0  0  0  0  0  0  # atno 17394 bound_to 11000
  141.0608  133.6842  156.1949 LP  0  0  0  0  0  0  0  0  0  0  0  0  # atno 17395 bound_to 11000

$$$$
