AV-unprocessed.smi:2233|AV-procd|sdf|9041|dock8
  -GOLD-   2272012253D 1   1.00000     0.00000
 Structure written by MMmdl.
 42 43  0  0  0  0  0  0  0  0  1 V2000
  153.8808  141.4222  162.1605 C   0  0  0  0  0  0  0  0  0  0  0  0
  153.0910  142.3043  161.8621 C   0  0  0  0  0  0  0  0  0  0  0  0
  152.1332  143.3595  161.4874 C   0  0  0  0  0  0  0  0  0  0  0  0
  152.4569  144.0827  160.1670 C   0  0  0  0  0  0  0  0  0  0  0  0
  151.3000  144.9322  159.6100 C   0  0  0  0  0  0  0  0  0  0  0  0
  150.1110  144.0700  159.1486 C   0  0  0  0  0  0  0  0  0  0  0  0
  150.4568  143.1217  157.9952 C   0  0  0  0  0  0  0  0  0  0  0  0
  151.6325  142.8785  157.7238 O   0  0  0  0  0  0  0  0  0  0  0  0
  149.4020  142.5932  157.3498 N   0  0  0  0  0  0  0  0  0  0  0  0
  149.3936  141.6953  156.2445 C   0  0  0  0  0  0  0  0  0  0  0  0
  150.5150  140.9109  155.8761 C   0  0  0  0  0  0  0  0  0  0  0  0
  150.5271  140.0770  154.8152 N   0  0  0  0  0  0  0  0  0  0  0  0
  149.4107  139.9928  154.0643 C   0  0  0  0  0  0  0  0  0  0  0  0
  148.2452  140.7367  154.3272 C   0  0  0  0  0  0  0  0  0  0  0  0
  148.2335  141.6130  155.4356 C   0  0  0  0  0  0  0  0  0  0  0  0
  147.0959  142.3772  155.7437 N   0  0  0  0  0  0  0  0  0  0  0  0
  146.1732  142.5650  154.6316 C   0  0  0  0  0  0  0  0  0  0  0  0
  145.0571  143.5408  155.0419 C   0  0  0  0  0  0  0  0  0  0  0  0
  144.4044  143.0524  156.2110 O   0  0  0  0  0  0  0  0  0  0  0  0
  145.2979  142.9345  157.3154 C   0  0  0  0  0  0  0  0  0  0  0  0
  146.4276  141.9501  156.9653 C   0  0  0  0  0  0  0  0  0  0  0  0
  154.5689  140.6484  162.4178 H   0  0  0  0  0  0  0  0  0  0  0  0
  151.1425  142.9071  161.4373 H   0  0  0  0  0  0  0  0  0  0  0  0
  152.1097  144.0793  162.3060 H   0  0  0  0  0  0  0  0  0  0  0  0
  153.3210  144.7278  160.3303 H   0  0  0  0  0  0  0  0  0  0  0  0
  152.7661  143.3522  159.4181 H   0  0  0  0  0  0  0  0  0  0  0  0
  150.9622  145.6357  160.3720 H   0  0  0  0  0  0  0  0  0  0  0  0
  151.6642  145.5314  158.7742 H   0  0  0  0  0  0  0  0  0  0  0  0
  149.7382  143.4856  159.9911 H   0  0  0  0  0  0  0  0  0  0  0  0
  149.2908  144.7125  158.8264 H   0  0  0  0  0  0  0  0  0  0  0  0
  148.4944  142.8008  157.7412 H   0  0  0  0  0  0  0  0  0  0  0  0
  151.4454  140.9578  156.4204 H   0  0  0  0  0  0  0  0  0  0  0  0
  149.4482  139.3153  153.2241 H   0  0  0  0  0  0  0  0  0  0  0  0
  147.3806  140.6294  153.6889 H   0  0  0  0  0  0  0  0  0  0  0  0
  146.7113  142.9511  153.7652 H   0  0  0  0  0  0  0  0  0  0  0  0
  145.7363  141.6082  154.3429 H   0  0  0  0  0  0  0  0  0  0  0  0
  145.4608  144.5376  155.2274 H   0  0  0  0  0  0  0  0  0  0  0  0
  144.3261  143.6366  154.2391 H   0  0  0  0  0  0  0  0  0  0  0  0
  145.7032  143.9141  157.5742 H   0  0  0  0  0  0  0  0  0  0  0  0
  144.7443  142.5786  158.1843 H   0  0  0  0  0  0  0  0  0  0  0  0
  146.0184  140.9480  156.8293 H   0  0  0  0  0  0  0  0  0  0  0  0
  147.1463  141.8979  157.7842 H   0  0  0  0  0  0  0  0  0  0  0  0
  1  2  3  0  0  0  0
  1 22  1  0  0  0  0
  2  3  1  0  0  0  0
  3  4  1  0  0  0  0
  3 23  1  0  0  0  0
  3 24  1  0  0  0  0
  4  5  1  0  0  0  0
  4 25  1  0  0  0  0
  4 26  1  0  0  0  0
  5  6  1  0  0  0  0
  5 27  1  0  0  0  0
  5 28  1  0  0  0  0
  6  7  1  0  0  0  0
  6 29  1  0  0  0  0
  6 30  1  0  0  0  0
  7  8  2  0  0  0  0
  7  9  1  0  0  0  0
  9 10  1  0  0  0  0
  9 31  1  0  0  0  0
 10 15  1  0  0  0  0
 10 11  2  0  0  0  0
 11 12  1  0  0  0  0
 11 32  1  0  0  0  0
 12 13  2  0  0  0  0
 13 14  1  0  0  0  0
 13 33  1  0  0  0  0
 14 15  2  0  0  0  0
 14 34  1  0  0  0  0
 15 16  1  0  0  0  0
 16 21  1  0  0  0  0
 16 17  1  0  0  0  0
 17 18  1  0  0  0  0
 17 35  1  0  0  0  0
 17 36  1  0  0  0  0
 18 19  1  0  0  0  0
 18 37  1  0  0  0  0
 18 38  1  0  0  0  0
 19 20  1  0  0  0  0
 20 21  1  0  0  0  0
 20 39  1  0  0  0  0
 20 40  1  0  0  0  0
 21 41  1  0  0  0  0
 21 42  1  0  0  0  0
M  END
> <s_m_source_file>
AV-unprocessed.smi

> <i_m_source_file_index>
2233

> <i_lp_mmshare_version>
43012

> <i_f3d_flags>
0

> <s_epik_input>
W0NIXSNDW0NIMl1bQ0gyXVtDSDJdW0NIMl1DKD1PKVtOSF1jMVtjSF1uW2NIXVtjSF1jMU4yW0NIMl1bQ0gyXU9bQ0gyXVtDSDJdMg==

> <s_epik_cmdline>
J2VwaWtfcHl0aG9uJywgJy1waCcsICc3LjAnLCAnLXRuJywgJzgnLCAnLW1hJywgJzIwMCcsICctbWV0YWxfYmluZGluZycsICctaW1hZScsICc8aW5maWxlLm1hZT4nLCAnLW9tYWUnLCAnPG91dGZpbGUubWFlPic=

> <r_lp_tautomer_probability>
1

> <r_epik_Ionization_Penalty>
0.8765

> <r_epik_Ionization_Penalty_Charging>
0

> <r_epik_Ionization_Penalty_Neutral>
0.8765

> <r_epik_State_Penalty>
0.914306

> <r_epik_Charging_Adjusted_Penalty>
0.914306

> <i_epik_Tot_Q>
0

> <i_epik_Tot_abs_Q>
0

> <r_epik_Metal_State_Penalty>
0.361009

> <b_epik_Metal_Only>
0

> <s_lp_Force_Field>
OPLS_2005

> <r_lp_Energy>
23.7364

> <b_lp_Chiralities_Consistent>
1

> <s_lp_Variant>
AV-unprocessed.smi:2233-2

> <Gold.Version>
5.8.1

> <Gold.Id.Protein>
6NUR|6NUR_protein|mol2

> <Gold.PLP.Fitness>
44.5184

> <Gold.PLP.PLP>
-40.4431

> <Gold.PLP.part.hbond>
-2.0000

> <Gold.PLP.part.metal>
0.0000

> <Gold.PLP.part.buried>
-2.1354

> <Gold.PLP.part.nonpolar>
-36.4893

> <Gold.PLP.part.repulsive>
1.2449

> <Gold.PLP.ligand.clash>
0.0000

> <Gold.PLP.ligand.torsion>
0.7250

> <Gold.PLP.Chemscore.Hbond>
0.9500

> <Gold.PLP.Chemscore.CHOScore>
0.8417

> <Gold.PLP.Chemscore.Metal>
0.0000

> <Gold.Chemscore.Hbonds>
donor molecule, donor type, donor heavy atom, donor atom, acceptor molecule, acceptor atom, score
      P1  H  7989  7998       L1    12  0.85
      L1  C    13    33       P1  7957  0.85

> <Gold.PLP.Chemscore.Internal.Correction>
0.1502

> <Gold.Rescore>
     Score         DG    S(hbond)    S(metal)    S(lipo)     H(rot)  DE(clash)    DE(int)     intcor
     11.12     -14.85       0.09        0.00     110.10       1.49       0.56       3.16       ----

> <Gold.Chemscore.Fitness>
11.1168

> <Gold.Chemscore.DG>
-14.8454

> <Gold.Chemscore.ZeroCoef>
-5.4800

> <Gold.Chemscore.Hbond>
0.0881

> <Gold.Chemscore.Metal>
0.0000

> <Gold.Chemscore.Lipo>
110.0953

> <Gold.Chemscore.Internal_Hbond>
0.0000

> <Gold.Chemscore.DEClash>
0.5648

> <Gold.Chemscore.DEInternal>
3.1639

> <Gold.Chemscore.Rot>
1.4882

> <Gold.Chemscore.Internal.Correction>
   9.000000E+99

> <Gold.Chemscore.Hbonds>
donor molecule, donor type, donor heavy atom, donor atom, acceptor molecule, acceptor atom, score
      P1  H  7989  7998       L1    12  0.09

> <Gold.Chemscore.Hbond.Weighted>
-0.2942

> <Gold.Chemscore.Metal.Weighted>
-0.0000

> <Gold.Chemscore.Lipo.Weighted>
-12.8812

> <Gold.Chemscore.Internal_Hbond.Weighted>
0.0000

> <Gold.Chemscore.DEClash.Weighted>
0.5648

> <Gold.Chemscore.DEInternal.Weighted>
3.1639

> <Gold.Chemscore.Rot.Weighted>
3.8099

> <Gold.Chemscore.Internal.Correction.Weighted>
   9.000000E+99

> <Gold.Protein.RotatedTorsions>
[ 6907 6896 6895 6894 ] final   11.27 input  -60.11 | X-H torsion
[ 7974 7965 7964 7962 ] final  133.03 input  175.53 | X-H torsion
[ 8008 7997 7996 7995 ] final  104.73 input   59.86 | X-H torsion
[ 10167 10162 10161 10158 ] final  -58.12 input  -65.29 | X-H torsion
[ 10718 10713 10712 10709 ] final   -4.60 input   66.30 | X-H torsion
[ 10763 10752 10751 10750 ] final  151.55 input  -60.55 | X-H torsion
[ 11005 11000 10999 10996 ] final  -51.81 input  -57.11 | X-H torsion

> <Gold.Protein.ActiveResidues>
 VAL166  LYS551  ARG553  GLY616  TRP617  ASP618  TYR619  PRO620  LYS621  CYS622 
 ASP623  PHE694  ASN695  SER759  ASP760  ASP761  ALA762  ILE779  LEU786  VAL792 
 PHE793  MET794  SER795  GLU796  ALA797  LYS798  CYS799  TRP800  GLU811  SER814 

> <Gold.Protein.RotatedAtoms>
  151.7516  135.0831  160.0331 H   0  0  0  0  0  0  0  0  0  0  0  0  # atno 6907 bound_to 6896
  152.3413  133.6066  159.5887 H   0  0  0  0  0  0  0  0  0  0  0  0  # atno 6908 bound_to 6896
  150.7481  133.9634  159.3564 H   0  0  0  0  0  0  0  0  0  0  0  0  # atno 6909 bound_to 6896
  144.9907  139.4409  143.5340 H   0  0  0  0  0  0  0  0  0  0  0  0  # atno 7974 bound_to 7965
  156.1598  140.3142  155.8788 H   0  0  0  0  0  0  0  0  0  0  0  0  # atno 8008 bound_to 7997
  155.3804  140.0487  157.3061 H   0  0  0  0  0  0  0  0  0  0  0  0  # atno 8009 bound_to 7997
  154.5136  140.2173  155.9120 H   0  0  0  0  0  0  0  0  0  0  0  0  # atno 8010 bound_to 7997
  140.6217  143.2422  151.5464 H   0  0  0  0  0  0  0  0  0  0  0  0  # atno 10167 bound_to 10162
  156.7590  130.5263  149.5789 H   0  0  0  0  0  0  0  0  0  0  0  0  # atno 10718 bound_to 10713
  154.1055  135.2842  155.3242 H   0  0  0  0  0  0  0  0  0  0  0  0  # atno 10763 bound_to 10752
  154.6526  135.5363  153.7923 H   0  0  0  0  0  0  0  0  0  0  0  0  # atno 10764 bound_to 10752
  153.0363  135.6514  154.1217 H   0  0  0  0  0  0  0  0  0  0  0  0  # atno 10765 bound_to 10752
  141.0891  133.6636  156.3931 H   0  0  0  0  0  0  0  0  0  0  0  0  # atno 11005 bound_to 11000
  146.3430  139.9237  142.8763 LP  0  0  0  0  0  0  0  0  0  0  0  0  # atno 17320 bound_to 7965
  145.2289  140.9965  143.4002 LP  0  0  0  0  0  0  0  0  0  0  0  0  # atno 17321 bound_to 7965
  139.5444  144.2560  152.1414 LP  0  0  0  0  0  0  0  0  0  0  0  0  # atno 17342 bound_to 10162
  140.1782  144.4870  150.6543 LP  0  0  0  0  0  0  0  0  0  0  0  0  # atno 17343 bound_to 10162
  156.1352  130.6206  151.0389 LP  0  0  0  0  0  0  0  0  0  0  0  0  # atno 17370 bound_to 10713
  157.6743  131.0854  150.7534 LP  0  0  0  0  0  0  0  0  0  0  0  0  # atno 17371 bound_to 10713
  140.5294  134.6227  157.5345 LP  0  0  0  0  0  0  0  0  0  0  0  0  # atno 17394 bound_to 11000
  139.9713  134.7287  156.0035 LP  0  0  0  0  0  0  0  0  0  0  0  0  # atno 17395 bound_to 11000

$$$$
