AV-unprocessed.smi:1507|AV-procd|sdf|6085|dock8
  -GOLD-   22720 6203D 1   1.00000     0.00000
 Structure written by MMmdl.
 33 34  0  0  0  0  0  0  0  0  4 V2000
  151.0026  136.6096  158.4893 N   0  5  0  0  0  0  0  0  0  0  0  0
  150.4384  136.0722  157.0698 S   0  0  0  0  0  0  0  0  0  0  0  0
  149.0443  136.5061  156.8966 O   0  0  0  0  0  0  0  0  0  0  0  0
  151.3497  136.4232  155.9660 O   0  0  0  0  0  0  0  0  0  0  0  0
  150.4816  134.4861  157.4585 N   0  5  0  0  0  0  0  0  0  0  0  0
  150.9562  133.4558  156.5363 C   0  0  0  0  0  0  0  0  0  0  0  0
  149.9367  133.1195  155.4562 C   0  0  0  0  0  0  0  0  0  0  0  0
  149.4166  131.8115  155.3317 C   0  0  0  0  0  0  0  0  0  0  0  0
  148.5017  131.5231  154.2978 C   0  0  0  0  0  0  0  0  0  0  0  0
  148.1109  132.5411  153.3945 C   0  0  0  0  0  0  0  0  0  0  0  0
  147.2075  132.3070  152.3346 N   0  0  0  0  0  0  0  0  0  0  0  0
  146.9039  133.4210  151.4380 C   0  0  0  0  0  0  0  0  0  0  0  0
  146.1541  132.9201  150.1927 C   0  0  0  0  0  0  0  0  0  0  0  0
  144.9939  132.1988  150.5916 O   0  0  0  0  0  0  0  0  0  0  0  0
  145.3258  131.0484  151.3611 C   0  0  0  0  0  0  0  0  0  0  0  0
  146.0492  131.4745  152.6501 C   0  0  0  0  0  0  0  0  0  0  0  0
  148.6388  133.7797  153.5571 N   0  3  0  0  0  0  0  0  0  0  0  0
  149.5169  134.1009  154.5322 C   0  0  0  0  0  0  0  0  0  0  0  0
  151.5230  137.4785  158.3203 H   0  0  0  0  0  0  0  0  0  0  0  0
  151.8684  133.7741  156.0305 H   0  0  0  0  0  0  0  0  0  0  0  0
  151.2290  132.5381  157.0584 H   0  0  0  0  0  0  0  0  0  0  0  0
  149.7208  131.0206  156.0036 H   0  0  0  0  0  0  0  0  0  0  0  0
  148.1329  130.5137  154.1994 H   0  0  0  0  0  0  0  0  0  0  0  0
  146.2979  134.1562  151.9692 H   0  0  0  0  0  0  0  0  0  0  0  0
  147.8229  133.9182  151.1251 H   0  0  0  0  0  0  0  0  0  0  0  0
  145.8527  133.7635  149.5716 H   0  0  0  0  0  0  0  0  0  0  0  0
  146.7971  132.2871  149.5790 H   0  0  0  0  0  0  0  0  0  0  0  0
  144.4104  130.5096  151.6059 H   0  0  0  0  0  0  0  0  0  0  0  0
  145.9461  130.3701  150.7730 H   0  0  0  0  0  0  0  0  0  0  0  0
  146.3312  130.5805  153.2036 H   0  0  0  0  0  0  0  0  0  0  0  0
  145.3712  132.0434  153.2876 H   0  0  0  0  0  0  0  0  0  0  0  0
  149.8650  135.1250  154.5236 H   0  0  0  0  0  0  0  0  0  0  0  0
  148.3670  134.5115  152.9011 H   0  0  0  0  0  0  0  0  0  0  0  0
  1  2  1  0  0  0  0
  1 19  1  0  0  0  0
  2  3  2  0  0  0  0
  2  4  2  0  0  0  0
  2  5  1  0  0  0  0
  5  6  1  0  0  0  0
  6  7  1  0  0  0  0
  6 20  1  0  0  0  0
  6 21  1  0  0  0  0
  7 18  1  0  0  0  0
  7  8  2  0  0  0  0
  8  9  1  0  0  0  0
  8 22  1  0  0  0  0
  9 10  2  0  0  0  0
  9 23  1  0  0  0  0
 10 11  1  0  0  0  0
 10 17  1  0  0  0  0
 11 16  1  0  0  0  0
 11 12  1  0  0  0  0
 12 13  1  0  0  0  0
 12 24  1  0  0  0  0
 12 25  1  0  0  0  0
 13 14  1  0  0  0  0
 13 26  1  0  0  0  0
 13 27  1  0  0  0  0
 14 15  1  0  0  0  0
 15 16  1  0  0  0  0
 15 28  1  0  0  0  0
 15 29  1  0  0  0  0
 16 30  1  0  0  0  0
 16 31  1  0  0  0  0
 17 18  2  0  0  0  0
 17 33  1  0  0  0  0
 18 32  1  0  0  0  0
M  CHG  1   1  -1
M  CHG  1   5  -1
M  CHG  1  17   1
M  END
> <s_m_source_file>
AV-unprocessed.smi

> <i_m_source_file_index>
1507

> <i_lp_mmshare_version>
43012

> <i_f3d_flags>
0

> <s_epik_input>
W05IMl1TKD1PKSg9TylbTkhdW0NIMl1jMVtjSF1bY0hdYyhuW2NIXTEpTjJbQ0gyXVtDSDJdT1tDSDJdW0NIMl0y

> <s_epik_cmdline>
J2VwaWtfcHl0aG9uJywgJy1waCcsICc3LjAnLCAnLXRuJywgJzgnLCAnLW1hJywgJzIwMCcsICctbWV0YWxfYmluZGluZycsICctaW1hZScsICc8aW5maWxlLm1hZT4nLCAnLW9tYWUnLCAnPG91dGZpbGUubWFlPic=

> <r_epik_Ionization_Penalty>
8.77184

> <r_epik_Ionization_Penalty_Charging>
8.77184

> <r_epik_Ionization_Penalty_Neutral>
3.18726e-12

> <r_epik_State_Penalty>
5.60098

> <r_epik_Charging_Adjusted_Penalty>
14.3728

> <i_epik_Tot_Q>
-1

> <i_epik_Tot_abs_Q>
3

> <r_epik_Metal_State_Penalty>
2.46454

> <b_epik_Metal_Only>
1

> <s_lp_Force_Field>
OPLS_2005

> <r_lp_Energy>
15.9769

> <b_lp_Chiralities_Consistent>
1

> <s_lp_Variant>
AV-unprocessed.smi:1507-6

> <Gold.Version>
5.8.1

> <Gold.Id.Protein>
6NUR|6NUR_protein|mol2

> <Gold.PLP.Fitness>
43.0887

> <Gold.PLP.PLP>
-28.0631

> <Gold.PLP.part.hbond>
-4.0000

> <Gold.PLP.part.metal>
0.0000

> <Gold.PLP.part.buried>
-3.9839

> <Gold.PLP.part.nonpolar>
-20.5057

> <Gold.PLP.part.repulsive>
0.7507

> <Gold.PLP.ligand.clash>
0.0000

> <Gold.PLP.ligand.torsion>
0.9214

> <Gold.PLP.Chemscore.Hbond>
5.1600

> <Gold.PLP.Chemscore.CHOScore>
0.0000

> <Gold.PLP.Chemscore.Metal>
0.0000

> <Gold.Chemscore.Hbonds>
donor molecule, donor type, donor heavy atom, donor atom, acceptor molecule, acceptor atom, score
      L1  H    17    33       P1  7948  1.75
      P1  H  6896  6907       L1     1  1.14
      P1  H  6896  6909       L1     5  1.06
      P1  H 10752 10763       L1     4  0.42

> <Gold.PLP.Chemscore.Internal.Correction>
1.3885

> <Gold.Rescore>
     Score         DG    S(hbond)    S(metal)    S(lipo)     H(rot)  DE(clash)    DE(int)     intcor
     14.11     -15.08       2.53        0.00      51.31       1.89       0.00       0.96       ----

> <Gold.Chemscore.Fitness>
14.1149

> <Gold.Chemscore.DG>
-15.0798

> <Gold.Chemscore.ZeroCoef>
-5.4800

> <Gold.Chemscore.Hbond>
2.5271

> <Gold.Chemscore.Metal>
0.0000

> <Gold.Chemscore.Lipo>
51.3107

> <Gold.Chemscore.Internal_Hbond>
0.0000

> <Gold.Chemscore.DEClash>
0.0000

> <Gold.Chemscore.DEInternal>
0.9649

> <Gold.Chemscore.Rot>
1.8922

> <Gold.Chemscore.Internal.Correction>
   9.000000E+99

> <Gold.Chemscore.Hbonds>
donor molecule, donor type, donor heavy atom, donor atom, acceptor molecule, acceptor atom, score
      L1  H    17    33       P1  7948  0.28
      P1  H  6896  6907       L1     1  0.52
      P1  H  6896  6909       L1     5  0.23
      P1  H 10752 10763       L1     4  0.40

> <Gold.Chemscore.Hbond.Weighted>
-8.4406

> <Gold.Chemscore.Metal.Weighted>
-0.0000

> <Gold.Chemscore.Lipo.Weighted>
-6.0033

> <Gold.Chemscore.Internal_Hbond.Weighted>
0.0000

> <Gold.Chemscore.DEClash.Weighted>
0.0000

> <Gold.Chemscore.DEInternal.Weighted>
0.9649

> <Gold.Chemscore.Rot.Weighted>
4.8441

> <Gold.Chemscore.Internal.Correction.Weighted>
   9.000000E+99

> <Gold.Protein.RotatedTorsions>
[ 6907 6896 6895 6894 ] final   -5.56 input  -60.11 | X-H torsion
[ 7974 7965 7964 7962 ] final  100.34 input  175.53 | X-H torsion
[ 8008 7997 7996 7995 ] final   33.88 input   59.86 | X-H torsion
[ 10167 10162 10161 10158 ] final -142.02 input  -65.29 | X-H torsion
[ 10718 10713 10712 10709 ] final  146.84 input   66.30 | X-H torsion
[ 10763 10752 10751 10750 ] final   57.70 input  -60.55 | X-H torsion
[ 11005 11000 10999 10996 ] final  -70.19 input  -57.11 | X-H torsion

> <Gold.Protein.ActiveResidues>
 VAL166  LYS551  ARG553  GLY616  TRP617  ASP618  TYR619  PRO620  LYS621  CYS622 
 ASP623  PHE694  ASN695  SER759  ASP760  ASP761  ALA762  ILE779  LEU786  VAL792 
 PHE793  MET794  SER795  GLU796  ALA797  LYS798  CYS799  TRP800  GLU811  SER814 

> <Gold.Protein.RotatedAtoms>
  151.4797  135.1051  159.9773 H   0  0  0  0  0  0  0  0  0  0  0  0  # atno 6907 bound_to 6896
  152.4784  133.8190  159.7054 H   0  0  0  0  0  0  0  0  0  0  0  0  # atno 6908 bound_to 6896
  150.8838  133.7274  159.2951 H   0  0  0  0  0  0  0  0  0  0  0  0  # atno 6909 bound_to 6896
  145.3869  139.2370  143.3373 H   0  0  0  0  0  0  0  0  0  0  0  0  # atno 7974 bound_to 7965
  155.1458  140.3270  155.4442 H   0  0  0  0  0  0  0  0  0  0  0  0  # atno 8008 bound_to 7997
  156.2590  140.1985  156.6522 H   0  0  0  0  0  0  0  0  0  0  0  0  # atno 8009 bound_to 7997
  154.6509  140.0558  156.9941 H   0  0  0  0  0  0  0  0  0  0  0  0  # atno 8010 bound_to 7997
  139.8129  143.7679  152.2664 H   0  0  0  0  0  0  0  0  0  0  0  0  # atno 10167 bound_to 10162
  157.3283  131.0916  151.1184 H   0  0  0  0  0  0  0  0  0  0  0  0  # atno 10718 bound_to 10713
  152.9855  135.5632  154.5434 H   0  0  0  0  0  0  0  0  0  0  0  0  # atno 10763 bound_to 10752
  154.4884  135.2791  155.1518 H   0  0  0  0  0  0  0  0  0  0  0  0  # atno 10764 bound_to 10752
  154.2998  135.6310  153.5473 H   0  0  0  0  0  0  0  0  0  0  0  0  # atno 10765 bound_to 10752
  141.1569  133.6783  156.6714 H   0  0  0  0  0  0  0  0  0  0  0  0  # atno 11005 bound_to 11000
  146.2816  140.4545  142.8774 LP  0  0  0  0  0  0  0  0  0  0  0  0  # atno 17320 bound_to 7965
  144.8468  140.6941  143.6194 LP  0  0  0  0  0  0  0  0  0  0  0  0  # atno 17321 bound_to 7965
  139.7833  144.7437  151.0057 LP  0  0  0  0  0  0  0  0  0  0  0  0  # atno 17342 bound_to 10162
  140.7817  143.4519  151.0401 LP  0  0  0  0  0  0  0  0  0  0  0  0  # atno 17343 bound_to 10162
  157.2442  130.6583  149.5903 LP  0  0  0  0  0  0  0  0  0  0  0  0  # atno 17370 bound_to 10713
  155.9693  130.4559  150.5904 LP  0  0  0  0  0  0  0  0  0  0  0  0  # atno 17371 bound_to 10713
  140.3172  134.8038  157.4223 LP  0  0  0  0  0  0  0  0  0  0  0  0  # atno 17394 bound_to 11000
  140.1128  134.5323  155.8251 LP  0  0  0  0  0  0  0  0  0  0  0  0  # atno 17395 bound_to 11000

$$$$
