AV-unprocessed.smi:2289|AV-procd|sdf|9209|dock5
  -GOLD-   2272012423D 1   1.00000     0.00000
 Structure written by MMmdl.
 40 41  0  0  0  0  0  0  0  0  1 V2000
  146.1974  143.0597  153.9018 C   0  0  0  0  0  0  0  0  0  0  0  0
  147.1291  142.1033  154.6246 C   0  0  0  0  0  0  0  0  0  0  0  0
  148.0982  141.4867  153.8280 N   0  0  0  0  0  0  0  0  0  0  0  0
  148.9374  140.6592  154.3593 C   0  0  0  0  0  0  0  0  0  0  0  0
  148.9074  140.3537  155.7305 N   0  0  0  0  0  0  0  0  0  0  0  0
  149.9277  139.4055  156.2105 C   0  0  0  0  0  0  0  0  0  0  0  0
  151.3193  140.0654  156.3436 C   0  0  1  0  0  0  0  0  0  0  0  0
  151.8380  140.2848  155.0477 O   0  0  0  0  0  0  0  0  0  0  0  0
  151.2371  141.4299  157.0606 C   0  0  0  0  0  0  0  0  0  0  0  0
  152.1359  141.5218  158.2908 C   0  0  0  0  0  0  0  0  0  0  0  0
  152.8163  140.3509  158.6933 C   0  0  0  0  0  0  0  0  0  0  0  0
  153.6631  140.3573  159.8154 C   0  0  0  0  0  0  0  0  0  0  0  0
  153.8342  141.5405  160.5525 C   0  0  0  0  0  0  0  0  0  0  0  0
  153.1552  142.7111  160.1681 C   0  0  0  0  0  0  0  0  0  0  0  0
  152.2991  142.7211  159.0408 C   0  0  0  0  0  0  0  0  0  0  0  0
  151.5671  144.0134  158.6749 C   0  0  0  0  0  0  0  0  0  0  0  0
  151.8679  145.0067  159.5126 F   0  0  0  0  0  0  0  0  0  0  0  0
  151.9011  144.4097  157.4476 F   0  0  0  0  0  0  0  0  0  0  0  0
  150.2491  143.8215  158.7328 F   0  0  0  0  0  0  0  0  0  0  0  0
  147.9963  140.9125  156.5787 C   0  0  0  0  0  0  0  0  0  0  0  0
  147.9790  140.6439  157.7812 O   0  0  0  0  0  0  0  0  0  0  0  0
  147.0455  141.8502  155.9594 C   0  0  0  0  0  0  0  0  0  0  0  0
  146.0115  142.4925  156.8761 C   0  0  0  0  0  0  0  0  0  0  0  0
  145.1667  142.7100  153.9655 H   0  0  0  0  0  0  0  0  0  0  0  0
  146.4570  143.1455  152.8460 H   0  0  0  0  0  0  0  0  0  0  0  0
  146.2559  144.0560  154.3409 H   0  0  0  0  0  0  0  0  0  0  0  0
  149.7166  140.1557  153.7841 H   0  0  0  0  0  0  0  0  0  0  0  0
  149.6358  138.9321  157.1501 H   0  0  0  0  0  0  0  0  0  0  0  0
  149.9848  138.5741  155.5048 H   0  0  0  0  0  0  0  0  0  0  0  0
  151.9890  139.4020  156.8917 H   0  0  0  0  0  0  0  0  0  0  0  0
  152.6256  139.7723  154.9466 H   0  0  0  0  0  0  0  0  0  0  0  0
  151.4104  142.2379  156.3525 H   0  0  0  0  0  0  0  0  0  0  0  0
  150.2182  141.5828  157.4188 H   0  0  0  0  0  0  0  0  0  0  0  0
  152.6900  139.4343  158.1357 H   0  0  0  0  0  0  0  0  0  0  0  0
  154.1793  139.4555  160.1103 H   0  0  0  0  0  0  0  0  0  0  0  0
  154.4830  141.5503  161.4160 H   0  0  0  0  0  0  0  0  0  0  0  0
  153.3003  143.6035  160.7583 H   0  0  0  0  0  0  0  0  0  0  0  0
  146.5081  143.0916  157.6398 H   0  0  0  0  0  0  0  0  0  0  0  0
  145.4243  141.7233  157.3786 H   0  0  0  0  0  0  0  0  0  0  0  0
  145.3142  143.1420  156.3498 H   0  0  0  0  0  0  0  0  0  0  0  0
  1  2  1  0  0  0  0
  1 24  1  0  0  0  0
  1 25  1  0  0  0  0
  1 26  1  0  0  0  0
  2 22  2  0  0  0  0
  2  3  1  0  0  0  0
  3  4  2  0  0  0  0
  4  5  1  0  0  0  0
  4 27  1  0  0  0  0
  5  6  1  0  0  0  0
  5 20  1  0  0  0  0
  6  7  1  0  0  0  0
  6 28  1  0  0  0  0
  6 29  1  0  0  0  0
  7  8  1  0  0  0  0
  7  9  1  0  0  0  0
  7 30  1  0  0  0  0
  8 31  1  0  0  0  0
  9 10  1  0  0  0  0
  9 32  1  0  0  0  0
  9 33  1  0  0  0  0
 10 15  1  0  0  0  0
 10 11  2  0  0  0  0
 11 12  1  0  0  0  0
 11 34  1  0  0  0  0
 12 13  2  0  0  0  0
 12 35  1  0  0  0  0
 13 14  1  0  0  0  0
 13 36  1  0  0  0  0
 14 15  2  0  0  0  0
 14 37  1  0  0  0  0
 15 16  1  0  0  0  0
 16 17  1  0  0  0  0
 16 18  1  0  0  0  0
 16 19  1  0  0  0  0
 20 21  2  0  0  0  0
 20 22  1  0  0  0  0
 22 23  1  0  0  0  0
 23 38  1  0  0  0  0
 23 39  1  0  0  0  0
 23 40  1  0  0  0  0
M  END
> <s_m_source_file>
AV-unprocessed.smi

> <i_m_source_file_index>
2289

> <i_lp_mmshare_version>
43012

> <i_f3d_flags>
0

> <s_epik_input>
W0NIM11jMW5bY0hdbihjKD1PKWMxW0NIM10pW0NIMl1bQ0BIXShbT0hdKVtDSDJdYzJbY0hdW2NIXVtjSF1bY0hdYzJDKEYpKEYpRg==

> <s_epik_cmdline>
J2VwaWtfcHl0aG9uJywgJy1waCcsICc3LjAnLCAnLXRuJywgJzgnLCAnLW1hJywgJzIwMCcsICctbWV0YWxfYmluZGluZycsICctaW1hZScsICc8aW5maWxlLm1hZT4nLCAnLW9tYWUnLCAnPG91dGZpbGUubWFlPic=

> <r_lp_tautomer_probability>
1

> <r_epik_Ionization_Penalty>
8.92636e-05

> <r_epik_Ionization_Penalty_Charging>
8.63033e-08

> <r_epik_Ionization_Penalty_Neutral>
8.91773e-05

> <r_epik_State_Penalty>
-0

> <r_epik_Charging_Adjusted_Penalty>
8.63033e-08

> <i_epik_Tot_Q>
0

> <i_epik_Tot_abs_Q>
0

> <r_epik_Metal_State_Penalty>
-0

> <b_epik_Metal_Only>
0

> <s_lp_Force_Field>
OPLS_2005

> <r_lp_Energy>
23.2294

> <b_lp_Chiralities_Consistent>
1

> <s_lp_Variant>
AV-unprocessed.smi:2289-2

> <Gold.Version>
5.8.1

> <Gold.Id.Protein>
6NUR|6NUR_protein|mol2

> <Gold.PLP.Fitness>
53.5509

> <Gold.PLP.PLP>
-50.8747

> <Gold.PLP.part.hbond>
-1.7861

> <Gold.PLP.part.metal>
0.0000

> <Gold.PLP.part.buried>
-5.6433

> <Gold.PLP.part.nonpolar>
-43.0114

> <Gold.PLP.part.repulsive>
0.1818

> <Gold.PLP.ligand.clash>
1.3617

> <Gold.PLP.ligand.torsion>
1.0819

> <Gold.PLP.Chemscore.Hbond>
0.9314

> <Gold.PLP.Chemscore.CHOScore>
0.6500

> <Gold.PLP.Chemscore.Metal>
0.0000

> <Gold.Chemscore.Hbonds>
donor molecule, donor type, donor heavy atom, donor atom, acceptor molecule, acceptor atom, score
      P1  H  7989  7998       L1     8  0.83
      L1  C     4    27       P1  7957  0.63

> <Gold.PLP.Chemscore.Internal.Correction>
1.4577

> <Gold.Rescore>
     Score         DG    S(hbond)    S(metal)    S(lipo)     H(rot)  DE(clash)    DE(int)     intcor
     10.66     -13.45       0.53        0.00     104.75       2.37       0.03       2.76       ----

> <Gold.Chemscore.Fitness>
10.6647

> <Gold.Chemscore.DG>
-13.4524

> <Gold.Chemscore.ZeroCoef>
-5.4800

> <Gold.Chemscore.Hbond>
0.5327

> <Gold.Chemscore.Metal>
0.0000

> <Gold.Chemscore.Lipo>
104.7490

> <Gold.Chemscore.Internal_Hbond>
0.0000

> <Gold.Chemscore.DEClash>
0.0307

> <Gold.Chemscore.DEInternal>
2.7570

> <Gold.Chemscore.Rot>
2.3681

> <Gold.Chemscore.Internal.Correction>
   9.000000E+99

> <Gold.Chemscore.Hbonds>
donor molecule, donor type, donor heavy atom, donor atom, acceptor molecule, acceptor atom, score
      P1  H  7989  7998       L1     8  0.21

> <Gold.Chemscore.Hbond.Weighted>
-1.7792

> <Gold.Chemscore.Metal.Weighted>
-0.0000

> <Gold.Chemscore.Lipo.Weighted>
-12.2556

> <Gold.Chemscore.Internal_Hbond.Weighted>
0.0000

> <Gold.Chemscore.DEClash.Weighted>
0.0307

> <Gold.Chemscore.DEInternal.Weighted>
2.7570

> <Gold.Chemscore.Rot.Weighted>
6.0624

> <Gold.Chemscore.Internal.Correction.Weighted>
   9.000000E+99

> <Gold.Protein.RotatedTorsions>
[ 6907 6896 6895 6894 ] final    7.02 input  -60.11 | X-H torsion
[ 7974 7965 7964 7962 ] final   24.86 input  175.53 | X-H torsion
[ 8008 7997 7996 7995 ] final   -1.46 input   59.86 | X-H torsion
[ 10167 10162 10161 10158 ] final -158.53 input  -65.29 | X-H torsion
[ 10718 10713 10712 10709 ] final -152.35 input   66.30 | X-H torsion
[ 10763 10752 10751 10750 ] final  -83.29 input  -60.55 | X-H torsion
[ 11005 11000 10999 10996 ] final   96.47 input  -57.11 | X-H torsion

> <Gold.Protein.ActiveResidues>
 VAL166  LYS551  ARG553  GLY616  TRP617  ASP618  TYR619  PRO620  LYS621  CYS622 
 ASP623  PHE694  ASN695  SER759  ASP760  ASP761  ALA762  ILE779  LEU786  VAL792 
 PHE793  MET794  SER795  GLU796  ALA797  LYS798  CYS799  TRP800  GLU811  SER814 

> <Gold.Protein.RotatedAtoms>
  151.6831  135.0958  160.0219 H   0  0  0  0  0  0  0  0  0  0  0  0  # atno 6907 bound_to 6896
  152.3823  133.6559  159.6180 H   0  0  0  0  0  0  0  0  0  0  0  0  # atno 6908 bound_to 6896
  150.7757  133.9009  159.3382 H   0  0  0  0  0  0  0  0  0  0  0  0  # atno 6909 bound_to 6896
  146.1917  139.7546  142.8827 H   0  0  0  0  0  0  0  0  0  0  0  0  # atno 7974 bound_to 7965
  154.6466  140.2559  155.7261 H   0  0  0  0  0  0  0  0  0  0  0  0  # atno 8008 bound_to 7997
  156.2555  140.2876  156.0802 H   0  0  0  0  0  0  0  0  0  0  0  0  # atno 8009 bound_to 7997
  155.1515  140.0382  157.2812 H   0  0  0  0  0  0  0  0  0  0  0  0  # atno 8010 bound_to 7997
  139.6685  143.9786  152.2269 H   0  0  0  0  0  0  0  0  0  0  0  0  # atno 10167 bound_to 10162
  156.4713  130.8260  151.2489 H   0  0  0  0  0  0  0  0  0  0  0  0  # atno 10718 bound_to 10713
  154.5860  135.5561  153.7232 H   0  0  0  0  0  0  0  0  0  0  0  0  # atno 10763 bound_to 10752
  153.0099  135.6331  154.1916 H   0  0  0  0  0  0  0  0  0  0  0  0  # atno 10764 bound_to 10752
  154.1856  135.2885  155.3018 H   0  0  0  0  0  0  0  0  0  0  0  0  # atno 10765 bound_to 10752
  139.8781  134.8952  156.4164 H   0  0  0  0  0  0  0  0  0  0  0  0  # atno 11005 bound_to 11000
  145.3772  141.0352  143.3198 LP  0  0  0  0  0  0  0  0  0  0  0  0  # atno 17320 bound_to 7965
  144.8499  139.5337  143.6861 LP  0  0  0  0  0  0  0  0  0  0  0  0  # atno 17321 bound_to 7965
  139.9544  144.6599  150.8140 LP  0  0  0  0  0  0  0  0  0  0  0  0  # atno 17342 bound_to 10162
  140.7609  143.3161  151.2729 LP  0  0  0  0  0  0  0  0  0  0  0  0  # atno 17343 bound_to 10162
  157.7491  131.0075  150.3193 LP  0  0  0  0  0  0  0  0  0  0  0  0  # atno 17370 bound_to 10713
  156.3615  130.3848  149.7247 LP  0  0  0  0  0  0  0  0  0  0  0  0  # atno 17371 bound_to 10713
  140.9165  133.7675  155.9854 LP  0  0  0  0  0  0  0  0  0  0  0  0  # atno 17394 bound_to 11000
  140.8488  134.2979  157.5284 LP  0  0  0  0  0  0  0  0  0  0  0  0  # atno 17395 bound_to 11000

$$$$
