AV-unprocessed.smi:148|AV-procd|sdf|1210|dock7
  -GOLD-   2262018383D 1   1.00000     0.00000
 Structure written by MMmdl.
 63 67  0  0  0  0  0  0  0  0  1 V2000
  145.6898  136.7247  151.0511 O   0  0  0  0  0  0  0  0  0  0  0  0
  145.4494  135.3477  150.8413 C   0  0  0  0  0  0  0  0  0  0  0  0
  145.0137  134.6378  152.1444 C   0  0  2  0  0  0  0  0  0  0  0  0
  146.1087  134.8405  153.2248 C   0  0  0  0  0  0  0  0  0  0  0  0
  145.5979  134.8840  154.5819 N   0  0  0  0  0  0  0  0  0  0  0  0
  144.5300  135.6258  155.0352 C   0  0  0  0  0  0  0  0  0  0  0  0
  144.2367  135.4644  156.2963 N   0  0  0  0  0  0  0  0  0  0  0  0
  145.1881  134.5588  156.7469 C   0  0  0  0  0  0  0  0  0  0  0  0
  145.4262  133.9176  157.9889 C   0  0  0  0  0  0  0  0  0  0  0  0
  144.6058  134.0956  159.0479 N   0  0  0  0  0  0  0  0  0  0  0  0
  143.2093  134.1750  158.6207 C   0  0  0  0  0  0  0  0  0  0  0  0
  142.2569  134.1140  159.8214 C   0  0  0  0  0  0  0  0  0  0  0  0
  142.6082  135.2094  160.8332 C   0  0  0  0  0  0  0  0  0  0  0  0
  144.0789  135.0841  161.2539 C   0  0  0  0  0  0  0  0  0  0  0  0
  145.0357  135.1086  160.0312 C   0  0  1  0  0  0  0  0  0  0  0  0
  146.5503  134.9842  160.4217 C   0  0  2  0  0  0  0  0  0  0  0  0
  146.8965  133.6993  161.2111 C   0  0  0  0  0  0  0  0  0  0  0  0
  147.5776  134.1378  162.5147 C   0  0  0  0  0  0  0  0  0  0  0  0
  147.2016  135.6068  162.6984 C   0  0  0  0  0  0  0  0  0  0  0  0
  147.1463  136.1330  161.2656 C   0  0  2  0  0  0  0  0  0  0  0  0
  146.4843  137.3763  161.1508 O   0  0  0  0  0  0  0  0  0  0  0  0
  146.4840  133.0687  158.0800 N   0  0  0  0  0  0  0  0  0  0  0  0
  147.2518  132.8482  157.0081 C   0  0  0  0  0  0  0  0  0  0  0  0
  147.1311  133.3505  155.7766 N   0  0  0  0  0  0  0  0  0  0  0  0
  146.0734  134.2082  155.6916 C   0  0  0  0  0  0  0  0  0  0  0  0
  144.6023  133.1523  151.9087 C   0  0  2  0  0  0  0  0  0  0  0  0
  145.7200  132.2582  151.3927 C   0  0  0  0  0  0  0  0  0  0  0  0
  144.9510  131.0708  150.8336 C   0  0  0  0  0  0  0  0  0  0  0  0
  143.8154  131.6547  150.2164 O   0  0  0  0  0  0  0  0  0  0  0  0
  143.5292  132.9075  150.8314 C   0  0  0  0  0  0  0  0  0  0  0  0
  145.0696  137.2208  150.5386 H   0  0  0  0  0  0  0  0  0  0  0  0
  144.6801  135.2428  150.0759 H   0  0  0  0  0  0  0  0  0  0  0  0
  146.3494  134.8936  150.4271 H   0  0  0  0  0  0  0  0  0  0  0  0
  144.1231  135.1670  152.4856 H   0  0  0  0  0  0  0  0  0  0  0  0
  146.8551  134.0487  153.1580 H   0  0  0  0  0  0  0  0  0  0  0  0
  146.6402  135.7764  153.0483 H   0  0  0  0  0  0  0  0  0  0  0  0
  143.9549  136.2741  154.3900 H   0  0  0  0  0  0  0  0  0  0  0  0
  143.0495  135.1043  158.0720 H   0  0  0  0  0  0  0  0  0  0  0  0
  142.9837  133.3567  157.9350 H   0  0  0  0  0  0  0  0  0  0  0  0
  141.2252  134.2269  159.4874 H   0  0  0  0  0  0  0  0  0  0  0  0
  142.3269  133.1350  160.2972 H   0  0  0  0  0  0  0  0  0  0  0  0
  142.4327  136.1911  160.3917 H   0  0  0  0  0  0  0  0  0  0  0  0
  141.9596  135.1376  161.7065 H   0  0  0  0  0  0  0  0  0  0  0  0
  144.3062  135.8947  161.9437 H   0  0  0  0  0  0  0  0  0  0  0  0
  144.2035  134.1604  161.8184 H   0  0  0  0  0  0  0  0  0  0  0  0
  144.9064  136.0764  159.5442 H   0  0  0  0  0  0  0  0  0  0  0  0
  147.1341  134.9816  159.5008 H   0  0  0  0  0  0  0  0  0  0  0  0
  146.0075  133.1090  161.4308 H   0  0  0  0  0  0  0  0  0  0  0  0
  147.5585  133.0520  160.6351 H   0  0  0  0  0  0  0  0  0  0  0  0
  147.2836  133.5239  163.3662 H   0  0  0  0  0  0  0  0  0  0  0  0
  148.6594  134.0506  162.4048 H   0  0  0  0  0  0  0  0  0  0  0  0
  146.2263  135.6826  163.1794 H   0  0  0  0  0  0  0  0  0  0  0  0
  147.9196  136.1474  163.3160 H   0  0  0  0  0  0  0  0  0  0  0  0
  148.1744  136.2941  160.9370 H   0  0  0  0  0  0  0  0  0  0  0  0
  145.5696  137.2486  161.3510 H   0  0  0  0  0  0  0  0  0  0  0  0
  148.0737  132.1632  157.1550 H   0  0  0  0  0  0  0  0  0  0  0  0
  144.2452  132.7284  152.8487 H   0  0  0  0  0  0  0  0  0  0  0  0
  146.2710  132.7542  150.5922 H   0  0  0  0  0  0  0  0  0  0  0  0
  146.4286  131.9643  152.1676 H   0  0  0  0  0  0  0  0  0  0  0  0
  145.5355  130.4823  150.1261 H   0  0  0  0  0  0  0  0  0  0  0  0
  144.6213  130.4132  151.6392 H   0  0  0  0  0  0  0  0  0  0  0  0
  142.5244  132.8872  151.2516 H   0  0  0  0  0  0  0  0  0  0  0  0
  143.5575  133.6736  150.0562 H   0  0  0  0  0  0  0  0  0  0  0  0
  1  2  1  0  0  0  0
  1 31  1  0  0  0  0
  2  3  1  0  0  0  0
  2 32  1  0  0  0  0
  2 33  1  0  0  0  0
  3  4  1  0  0  0  0
  3 26  1  0  0  0  0
  3 34  1  0  0  0  0
  4  5  1  0  0  0  0
  4 35  1  0  0  0  0
  4 36  1  0  0  0  0
  5 25  1  0  0  0  0
  5  6  1  0  0  0  0
  6  7  2  0  0  0  0
  6 37  1  0  0  0  0
  7  8  1  0  0  0  0
  8 25  2  0  0  0  0
  8  9  1  0  0  0  0
  9 10  1  0  0  0  0
  9 22  2  0  0  0  0
 10 15  1  0  0  0  0
 10 11  1  0  0  0  0
 11 12  1  0  0  0  0
 11 38  1  0  0  0  0
 11 39  1  0  0  0  0
 12 13  1  0  0  0  0
 12 40  1  0  0  0  0
 12 41  1  0  0  0  0
 13 14  1  0  0  0  0
 13 42  1  0  0  0  0
 13 43  1  0  0  0  0
 14 15  1  0  0  0  0
 14 44  1  0  0  0  0
 14 45  1  0  0  0  0
 15 16  1  0  0  0  0
 15 46  1  0  0  0  0
 16 20  1  0  0  0  0
 16 17  1  0  0  0  0
 16 47  1  0  0  0  0
 17 18  1  0  0  0  0
 17 48  1  0  0  0  0
 17 49  1  0  0  0  0
 18 19  1  0  0  0  0
 18 50  1  0  0  0  0
 18 51  1  0  0  0  0
 19 20  1  0  0  0  0
 19 52  1  0  0  0  0
 19 53  1  0  0  0  0
 20 21  1  0  0  0  0
 20 54  1  0  0  0  0
 21 55  1  0  0  0  0
 22 23  1  0  0  0  0
 23 24  2  0  0  0  0
 23 56  1  0  0  0  0
 24 25  1  0  0  0  0
 26 30  1  0  0  0  0
 26 27  1  0  0  0  0
 26 57  1  0  0  0  0
 27 28  1  0  0  0  0
 27 58  1  0  0  0  0
 27 59  1  0  0  0  0
 28 29  1  0  0  0  0
 28 60  1  0  0  0  0
 28 61  1  0  0  0  0
 29 30  1  0  0  0  0
 30 62  1  0  0  0  0
 30 63  1  0  0  0  0
M  END
> <s_m_source_file>
AV-unprocessed.smi

> <i_m_source_file_index>
148

> <i_lp_mmshare_version>
43012

> <i_f3d_flags>
0

> <s_epik_input>
W0NIMl0xT1tDSDJdW0NIMl1bQ0BIXTFbQ0BIXShbQ0gyXVtPSF0pW0NIMl1uKFtjSF1uMiljKGMyMyluW2NIXW5jM040W0NIMl1bQ0gyXVtDSDJdW0NIMl1bQ0BIXTRbQ0BASF01W0NIMl1bQ0gyXVtDSDJdW0NASF01W09IXQ==

> <s_epik_cmdline>
J2VwaWtfcHl0aG9uJywgJy1waCcsICc3LjAnLCAnLXRuJywgJzgnLCAnLW1hJywgJzIwMCcsICctbWV0YWxfYmluZGluZycsICctaW1hZScsICc8aW5maWxlLm1hZT4nLCAnLW9tYWUnLCAnPG91dGZpbGUubWFlPic=

> <r_lp_tautomer_probability>
1

> <r_epik_Ionization_Penalty>
0.00556303

> <r_epik_Ionization_Penalty_Charging>
0

> <r_epik_Ionization_Penalty_Neutral>
0.00556303

> <r_epik_State_Penalty>
0.00401767

> <r_epik_Charging_Adjusted_Penalty>
0.00401767

> <i_epik_Tot_Q>
0

> <i_epik_Tot_abs_Q>
0

> <r_epik_Metal_State_Penalty>
-0

> <b_epik_Metal_Only>
0

> <s_lp_Force_Field>
OPLS_2005

> <r_lp_Energy>
71.2164

> <b_lp_Chiralities_Consistent>
1

> <s_lp_Variant>
AV-unprocessed.smi:148-9

> <Gold.Version>
5.8.1

> <Gold.Id.Protein>
6NUR|6NUR_protein|mol2

> <Gold.PLP.Fitness>
40.4773

> <Gold.PLP.PLP>
-35.0725

> <Gold.PLP.part.hbond>
-2.9918

> <Gold.PLP.part.metal>
0.0000

> <Gold.PLP.part.buried>
-7.0811

> <Gold.PLP.part.nonpolar>
-25.7799

> <Gold.PLP.part.repulsive>
0.2029

> <Gold.PLP.ligand.clash>
0.0000

> <Gold.PLP.ligand.torsion>
1.1601

> <Gold.PLP.Chemscore.Hbond>
2.4368

> <Gold.PLP.Chemscore.CHOScore>
0.0000

> <Gold.PLP.Chemscore.Metal>
0.0000

> <Gold.Chemscore.Hbonds>
donor molecule, donor type, donor heavy atom, donor atom, acceptor molecule, acceptor atom, score
      L1  H     1    31       P1 10171  1.00
      P1  H  6934  6947       L1    21  1.00
      P1  H 10785 10796       L1    29  0.48

> <Gold.PLP.Chemscore.Internal.Correction>
0.4146

> <Gold.Rescore>
     Score         DG    S(hbond)    S(metal)    S(lipo)     H(rot)  DE(clash)    DE(int)     intcor
     13.01     -16.25       2.46        0.00      94.42       3.32       0.03       3.21       ----

> <Gold.Chemscore.Fitness>
13.0101

> <Gold.Chemscore.DG>
-16.2523

> <Gold.Chemscore.ZeroCoef>
-5.4800

> <Gold.Chemscore.Hbond>
2.4627

> <Gold.Chemscore.Metal>
0.0000

> <Gold.Chemscore.Lipo>
94.4170

> <Gold.Chemscore.Internal_Hbond>
0.0000

> <Gold.Chemscore.DEClash>
0.0291

> <Gold.Chemscore.DEInternal>
3.2132

> <Gold.Chemscore.Rot>
3.3203

> <Gold.Chemscore.Internal.Correction>
   9.000000E+99

> <Gold.Chemscore.Hbonds>
donor molecule, donor type, donor heavy atom, donor atom, acceptor molecule, acceptor atom, score
      L1  H     1    31       P1 10171  0.99
      P1  H  6934  6947       L1    21  0.98
      P1  H 10785 10796       L1    29  0.19

> <Gold.Chemscore.Hbond.Weighted>
-8.2256

> <Gold.Chemscore.Metal.Weighted>
-0.0000

> <Gold.Chemscore.Lipo.Weighted>
-11.0468

> <Gold.Chemscore.Internal_Hbond.Weighted>
0.0000

> <Gold.Chemscore.DEClash.Weighted>
0.0291

> <Gold.Chemscore.DEInternal.Weighted>
3.2132

> <Gold.Chemscore.Rot.Weighted>
8.5000

> <Gold.Chemscore.Internal.Correction.Weighted>
   9.000000E+99

> <Gold.Protein.RotatedTorsions>
[ 6907 6896 6895 6894 ] final   26.60 input  -60.11 | X-H torsion
[ 7974 7965 7964 7962 ] final   19.36 input  175.53 | X-H torsion
[ 8008 7997 7996 7995 ] final -132.40 input   59.86 | X-H torsion
[ 10167 10162 10161 10158 ] final -139.49 input  -65.29 | X-H torsion
[ 10718 10713 10712 10709 ] final  -41.39 input   66.30 | X-H torsion
[ 10763 10752 10751 10750 ] final   62.14 input  -60.55 | X-H torsion
[ 11005 11000 10999 10996 ] final   16.64 input  -57.11 | X-H torsion

> <Gold.Protein.ActiveResidues>
 VAL166  LYS551  ARG553  GLY616  TRP617  ASP618  TYR619  PRO620  LYS621  CYS622 
 ASP623  PHE694  ASN695  SER759  ASP760  ASP761  ALA762  ILE779  LEU786  VAL792 
 PHE793  MET794  SER795  GLU796  ALA797  LYS798  CYS799  TRP800  GLU811  SER814 

> <Gold.Protein.RotatedAtoms>
  151.9899  134.9984  160.0560 H   0  0  0  0  0  0  0  0  0  0  0  0  # atno 6907 bound_to 6896
  152.1618  133.4582  159.4873 H   0  0  0  0  0  0  0  0  0  0  0  0  # atno 6908 bound_to 6896
  150.6889  134.1980  159.4354 H   0  0  0  0  0  0  0  0  0  0  0  0  # atno 6909 bound_to 6896
  146.2152  139.8324  142.8657 H   0  0  0  0  0  0  0  0  0  0  0  0  # atno 7974 bound_to 7965
  155.3282  140.0465  157.3041 H   0  0  0  0  0  0  0  0  0  0  0  0  # atno 8008 bound_to 7997
  154.5343  140.2267  155.8716 H   0  0  0  0  0  0  0  0  0  0  0  0  # atno 8009 bound_to 7997
  156.1819  140.3072  155.9171 H   0  0  0  0  0  0  0  0  0  0  0  0  # atno 8010 bound_to 7997
  139.8374  143.7367  152.2664 H   0  0  0  0  0  0  0  0  0  0  0  0  # atno 10167 bound_to 10162
  156.2709  130.4206  149.8439 H   0  0  0  0  0  0  0  0  0  0  0  0  # atno 10718 bound_to 10713
  152.9973  135.5475  154.6146 H   0  0  0  0  0  0  0  0  0  0  0  0  # atno 10763 bound_to 10752
  154.5459  135.2823  155.1055 H   0  0  0  0  0  0  0  0  0  0  0  0  # atno 10764 bound_to 10752
  154.2314  135.6433  153.5229 H   0  0  0  0  0  0  0  0  0  0  0  0  # atno 10765 bound_to 10752
  140.4448  134.1284  155.7695 H   0  0  0  0  0  0  0  0  0  0  0  0  # atno 11005 bound_to 11000
  145.2984  141.0187  143.3623 LP  0  0  0  0  0  0  0  0  0  0  0  0  # atno 17320 bound_to 7965
  144.9025  139.4632  143.6626 LP  0  0  0  0  0  0  0  0  0  0  0  0  # atno 17321 bound_to 7965
  139.7593  144.7511  151.0388 LP  0  0  0  0  0  0  0  0  0  0  0  0  # atno 17342 bound_to 10162
  140.7801  143.4769  151.0070 LP  0  0  0  0  0  0  0  0  0  0  0  0  # atno 17343 bound_to 10162
  156.5921  130.8511  151.3410 LP  0  0  0  0  0  0  0  0  0  0  0  0  # atno 17370 bound_to 10713
  157.7283  130.9655  150.1738 LP  0  0  0  0  0  0  0  0  0  0  0  0  # atno 17371 bound_to 10713
  141.1690  133.8647  157.1629 LP  0  0  0  0  0  0  0  0  0  0  0  0  # atno 17394 bound_to 11000
  140.0046  135.0014  157.0263 LP  0  0  0  0  0  0  0  0  0  0  0  0  # atno 17395 bound_to 11000

$$$$
