#       Name:                AV-unprocessed.smi:3262
#       Creating user name   scv26
#       Creation time:       Fri Mar 27 18:38:30 2020


#       File generated by GOLD software.
#

@<TRIPOS>MOLECULE
AV-unprocessed.smi:3262
    42    43     1
SMALL
NO_CHARGES


@<TRIPOS>ATOM
      1 ****        -0.1797   1.9088   0.2191 O.2            1 S1                 0.0000
      2 ****        -0.5221   1.0559  -0.6021 C.2            1 S1                 0.0000
      3 ****         0.3623   0.1981  -1.1421 N.am           1 S1                 0.0000
      4 ****         1.7838   0.1404  -0.8205 C.3            1 S1                 0.0000
      5 ****         2.0310  -0.5945   0.5114 C.3            1 S1                 0.0000
      6 ****         3.4915  -0.7346   0.9204 C.ar           1 S1                 0.0000
      7 ****         4.5788  -0.2032   0.1861 C.ar           1 S1                 0.0000
      8 ****         5.8932  -0.3910   0.6626 C.ar           1 S1                 0.0000
      9 ****         6.0996  -1.1037   1.8611 C.ar           1 S1                 0.0000
     10 ****         4.9832  -1.6120   2.5545 C.ar           1 S1                 0.0000
     11 ****         3.7397  -1.4114   2.0657 N.pl3          1 S1                 1.0000
     12 ****        -1.7932   0.9419  -1.0719 N.am           1 S1                 0.0000
     13 ****        -2.2745  -0.1911  -1.8924 C.3            1 S1                 0.0000
     14 ****        -3.7349  -0.6189  -1.6316 C.3            1 S1                 0.0000
     15 ****        -4.1175  -0.7293  -0.1440 C.3            1 S1                 0.0000
     16 ****        -4.5916   0.6040   0.4583 C.3            1 S1                 0.0000
     17 ****        -3.5011   1.6801   0.5776 C.3            1 S1                 0.0000
     18 ****        -2.7835   1.9814  -0.7505 C.3            1 S1                 0.0000
     19 ****         0.0211  -0.4601  -1.8279 H              1 S1                 0.0000
     20 ****         2.2875  -0.3801  -1.6356 H              1 S1                 0.0000
     21 ****         2.1933   1.1516  -0.7888 H              1 S1                 0.0000
     22 ****         1.5099  -0.0771   1.3179 H              1 S1                 0.0000
     23 ****         1.5973  -1.5941   0.4568 H              1 S1                 0.0000
     24 ****         4.4260   0.3448  -0.7314 H              1 S1                 0.0000
     25 ****         6.7341   0.0084   0.1146 H              1 S1                 0.0000
     26 ****         7.0985  -1.2573   2.2427 H              1 S1                 0.0000
     27 ****         5.0462  -2.1681   3.4783 H              1 S1                 0.0000
     28 ****        -2.1458   0.0582  -2.9463 H              1 S1                 0.0000
     29 ****        -1.6708  -1.0821  -1.7148 H              1 S1                 0.0000
     30 ****        -4.4270   0.0498  -2.1447 H              1 S1                 0.0000
     31 ****        -3.8836  -1.5915  -2.1024 H              1 S1                 0.0000
     32 ****        -4.9381  -1.4422  -0.0558 H              1 S1                 0.0000
     33 ****        -3.2946  -1.1477   0.4370 H              1 S1                 0.0000
     34 ****        -5.4191   0.9929  -0.1362 H              1 S1                 0.0000
     35 ****        -5.0038   0.4168   1.4504 H              1 S1                 0.0000
     36 ****        -3.9663   2.5969   0.9409 H              1 S1                 0.0000
     37 ****        -2.7775   1.3930   1.3417 H              1 S1                 0.0000
     38 ****        -2.2959   2.9555  -0.6815 H              1 S1                 0.0000
     39 ****        -3.5025   2.0978  -1.5620 H              1 S1                 0.0000
     40 ****         2.9476  -1.7880   2.5871 H              1 S1                 0.0000
     41 ****         0.7775   1.9762   0.5004 LP             1 S1                 0.0000
     42 ****        -0.8592   2.5335   0.6040 LP             1 S1                 0.0000
@<TRIPOS>BOND
    1    1    2 2     
    2    2    3 am    
    3    2   12 am    
    4    3    4 1     
    5    3   19 1     
    6    4    5 1     
    7    4   20 1     
    8    4   21 1     
    9    5    6 1     
   10    5   22 1     
   11    5   23 1     
   12    6   11 ar    
   13    6    7 ar    
   14    7    8 ar    
   15    7   24 1     
   16    8    9 ar    
   17    8   25 1     
   18    9   10 ar    
   19    9   26 1     
   20   10   11 ar    
   21   10   27 1     
   22   11   40 1     
   23   12   18 1     
   24   12   13 1     
   25   13   14 1     
   26   13   28 1     
   27   13   29 1     
   28   14   15 1     
   29   14   30 1     
   30   14   31 1     
   31   15   16 1     
   32   15   32 1     
   33   15   33 1     
   34   16   17 1     
   35   16   34 1     
   36   16   35 1     
   37   17   18 1     
   38   17   36 1     
   39   17   37 1     
   40   18   38 1     
   41   18   39 1     
   42    1   41 1     
   43    1   42 1     
@<TRIPOS>SUBSTRUCTURE
      1 S1             1
@<TRIPOS>SET
LONE_PAIRS      STATIC     ATOMS    <user>   **** ""
2 41 42
DONOR_HYDROGENS      STATIC     ATOMS    <user>   **** ""
2 19 40
ATOM$BLUE        STATIC     ATOMS    COLORGROUP SYSTEM
2 41 42
ATOM$RED        STATIC     ATOMS    COLORGROUP SYSTEM
2 19 40
