#       Name:                AV-unprocessed.smi:837
#       Creating user name   scv26
#       Creation time:       Fri Mar 27 01:35:51 2020


#       File generated by GOLD software.
#

@<TRIPOS>MOLECULE
AV-unprocessed.smi:837
    56    58     1
SMALL
NO_CHARGES


@<TRIPOS>ATOM
      1 ****         0.7101   2.7923   1.3593 C.3            1 S1                 0.0000
      2 ****        -0.7639   2.9531   1.7903 C.3            1 S1                 0.0000
      3 ****        -1.3541   4.2494   1.1937 C.3            1 S1                 0.0000
      4 ****        -2.8012   4.4883   1.6526 C.3            1 S1                 0.0000
      5 ****        -3.7000   3.2894   1.3204 C.3            1 S1                 0.0000
      6 ****        -3.1322   1.9931   1.9204 C.3            1 S1                 0.0000
      7 ****        -1.6774   1.7315   1.4618 C.3            1 S1                 0.0000
      8 ****        -1.6344   1.3737   0.0534 N.am           1 S1                 0.0000
      9 ****        -1.1925   0.1274  -0.1546 C.2            1 S1                 0.0000
     10 ****        -1.0601  -0.4034  -1.2566 O.2            1 S1                 0.0000
     11 ****        -0.9127  -0.4279   1.0386 N.am           1 S1                 0.0000
     12 ****        -0.3540  -1.7749   1.2091 C.3            1 S1                 0.0000
     13 ****         1.1631  -1.8218   0.9809 C.2            1 S1                 0.0000
     14 ****         1.8667  -0.8364   1.2064 O.2            1 S1                 0.0000
     15 ****         1.6538  -2.9845   0.5272 N.am           1 S1                 0.0000
     16 ****         3.0541  -3.2368   0.1994 C.3            1 S1                 0.0000
     17 ****         3.5142  -2.5131  -1.0834 C.3            1 S1                 0.0000
     18 ****         2.5725  -2.7026  -2.2608 C.ar           1 S1                 0.0000
     19 ****         1.7103  -1.6598  -2.6678 C.ar           1 S1                 0.0000
     20 ****         0.8362  -1.8689  -3.7544 C.ar           1 S1                 0.0000
     21 ****         0.8445  -3.1162  -4.4113 C.ar           1 S1                 0.0000
     22 ****         1.6844  -4.0896  -3.9955 N.pl3          1 S1                 1.0000
     23 ****         2.5370  -3.9286  -2.9595 C.ar           1 S1                 0.0000
     24 ****        -1.1565   0.4234   2.0446 C.2            1 S1                 0.0000
     25 ****        -0.9873   0.2224   3.2474 O.2            1 S1                 0.0000
     26 ****         0.8041   2.6640   0.2808 H              1 S1                 0.0000
     27 ****         1.1835   1.9359   1.8394 H              1 S1                 0.0000
     28 ****         1.2925   3.6715   1.6353 H              1 S1                 0.0000
     29 ****        -0.7610   3.0757   2.8748 H              1 S1                 0.0000
     30 ****        -0.7414   5.1037   1.4835 H              1 S1                 0.0000
     31 ****        -1.3206   4.2062   0.1043 H              1 S1                 0.0000
     32 ****        -2.8171   4.6695   2.7280 H              1 S1                 0.0000
     33 ****        -3.1961   5.3889   1.1817 H              1 S1                 0.0000
     34 ****        -4.7064   3.4641   1.7017 H              1 S1                 0.0000
     35 ****        -3.7947   3.1884   0.2386 H              1 S1                 0.0000
     36 ****        -3.1670   2.0643   3.0088 H              1 S1                 0.0000
     37 ****        -3.7770   1.1549   1.6514 H              1 S1                 0.0000
     38 ****        -1.9113   2.0107  -0.6795 H              1 S1                 0.0000
     39 ****        -0.5647  -2.1554   2.2097 H              1 S1                 0.0000
     40 ****        -0.8495  -2.4608   0.5195 H              1 S1                 0.0000
     41 ****         1.0069  -3.7465   0.3832 H              1 S1                 0.0000
     42 ****         3.6942  -2.9670   1.0409 H              1 S1                 0.0000
     43 ****         3.1622  -4.3133   0.0646 H              1 S1                 0.0000
     44 ****         3.6210  -1.4458  -0.8846 H              1 S1                 0.0000
     45 ****         4.5075  -2.8631  -1.3667 H              1 S1                 0.0000
     46 ****         1.7098  -0.7123  -2.1481 H              1 S1                 0.0000
     47 ****         0.1665  -1.0839  -4.0747 H              1 S1                 0.0000
     48 ****         0.2091  -3.3629  -5.2495 H              1 S1                 0.0000
     49 ****         3.1564  -4.7809  -2.7199 H              1 S1                 0.0000
     50 ****         1.6736  -4.9853  -4.4841 H              1 S1                 0.0000
     51 ****        -1.2904   0.1041  -2.0869 LP             1 S1                 0.0000
     52 ****        -0.7222  -1.3423  -1.3220 LP             1 S1                 0.0000
     53 ****         1.4508   0.0085   1.5427 LP             1 S1                 0.0000
     54 ****         2.8539  -0.8813   1.0532 LP             1 S1                 0.0000
     55 ****        -1.1955   0.9429   3.9089 LP             1 S1                 0.0000
     56 ****        -0.6417  -0.6613   3.5629 LP             1 S1                 0.0000
@<TRIPOS>BOND
    1    1    2 1     
    2    1   26 1     
    3    1   27 1     
    4    1   28 1     
    5    2    7 1     
    6    2    3 1     
    7    2   29 1     
    8    3    4 1     
    9    3   30 1     
   10    3   31 1     
   11    4    5 1     
   12    4   32 1     
   13    4   33 1     
   14    5    6 1     
   15    5   34 1     
   16    5   35 1     
   17    6    7 1     
   18    6   36 1     
   19    6   37 1     
   20    7   24 1     
   21    7    8 1     
   22    8    9 am    
   23    8   38 1     
   24    9   10 2     
   25    9   11 am    
   26   11   12 1     
   27   11   24 am    
   28   12   13 1     
   29   12   39 1     
   30   12   40 1     
   31   13   14 2     
   32   13   15 am    
   33   15   16 1     
   34   15   41 1     
   35   16   17 1     
   36   16   42 1     
   37   16   43 1     
   38   17   18 1     
   39   17   44 1     
   40   17   45 1     
   41   18   23 ar    
   42   18   19 ar    
   43   19   20 ar    
   44   19   46 1     
   45   20   21 ar    
   46   20   47 1     
   47   21   22 ar    
   48   21   48 1     
   49   22   23 ar    
   50   22   50 1     
   51   23   49 1     
   52   24   25 2     
   53   10   51 1     
   54   10   52 1     
   55   14   53 1     
   56   14   54 1     
   57   25   55 1     
   58   25   56 1     
@<TRIPOS>SUBSTRUCTURE
      1 S1             1
@<TRIPOS>SET
LONE_PAIRS      STATIC     ATOMS    <user>   **** ""
6 51 52 53 54 55 56
DONOR_HYDROGENS      STATIC     ATOMS    <user>   **** ""
3 38 41 50
ATOM$BLUE        STATIC     ATOMS    COLORGROUP SYSTEM
6 51 52 53 54 55 56
ATOM$RED        STATIC     ATOMS    COLORGROUP SYSTEM
3 38 41 50
