#       Name:                AV-unprocessed.smi:3199
#       Creating user name   scv26
#       Creation time:       Fri Mar 27 18:06:43 2020


#       File generated by GOLD software.
#

@<TRIPOS>MOLECULE
AV-unprocessed.smi:3199
    40    41     1
SMALL
NO_CHARGES


@<TRIPOS>ATOM
      1 ****        -3.1724   5.9529   0.2634 C.3            1 S1                 0.0000
      2 ****        -2.7627   4.5023   0.1175 C.ar           1 S1                 0.0000
      3 ****        -2.6363   3.9099  -1.1568 C.ar           1 S1                 0.0000
      4 ****        -2.2500   2.5580  -1.2324 C.ar           1 S1                 0.0000
      5 ****        -2.0062   1.8527  -0.0363 C.ar           1 S1                 0.0000
      6 ****        -1.5794   0.3984  -0.0638 C.3            1 S1                 0.0000
      7 ****        -0.0527   0.2463  -0.0896 C.3            1 S1                 0.0000
      8 ****         0.3223  -1.1599  -0.1284 N.am           1 S1                 0.0000
      9 ****         1.5825  -1.6110  -0.0499 C.2            1 S1                 0.0000
     10 ****         2.5575  -0.8683   0.0723 O.2            1 S1                 0.0000
     11 ****         1.7625  -3.1325  -0.1038 C.3            1 S1                 0.0000
     12 ****         3.0091  -3.6026  -0.8791 C.3            1 S1                 0.0000
     13 ****         3.8721  -4.2602   0.1820 C.3            1 S1                 0.0000
     14 ****         2.8389  -4.6996   1.2096 C.3            1 S1                 0.0000
     15 ****         1.9349  -3.6076   1.2290 O.3            1 S1                 0.0000
     16 ****        -2.1612   2.5383   1.1871 C.ar           1 S1                 0.0000
     17 ****        -2.5316   3.8344   1.2693 N.ar           1 S1                 0.0000
     18 ****        -3.3064   6.4262  -0.7098 H              1 S1                 0.0000
     19 ****        -2.4099   6.5093   0.8094 H              1 S1                 0.0000
     20 ****        -4.1122   6.0279   0.8110 H              1 S1                 0.0000
     21 ****        -2.8288   4.4754  -2.0567 H              1 S1                 0.0000
     22 ****        -2.1411   2.0743  -2.1920 H              1 S1                 0.0000
     23 ****        -1.9923  -0.1084   0.8098 H              1 S1                 0.0000
     24 ****        -2.0197  -0.0844  -0.9374 H              1 S1                 0.0000
     25 ****         0.3611   0.7506  -0.9644 H              1 S1                 0.0000
     26 ****         0.3840   0.7172   0.7928 H              1 S1                 0.0000
     27 ****        -0.4232  -1.8350  -0.2190 H              1 S1                 0.0000
     28 ****         0.8733  -3.6006  -0.5298 H              1 S1                 0.0000
     29 ****         2.7172  -4.3369  -1.6309 H              1 S1                 0.0000
     30 ****         3.5439  -2.8057  -1.3978 H              1 S1                 0.0000
     31 ****         4.4697  -5.0867  -0.2035 H              1 S1                 0.0000
     32 ****         4.5462  -3.5253   0.6240 H              1 S1                 0.0000
     33 ****         2.3198  -5.6023   0.8832 H              1 S1                 0.0000
     34 ****         3.2712  -4.8825   2.1935 H              1 S1                 0.0000
     35 ****        -1.9804   2.0353   2.1259 H              1 S1                 0.0000
     36 ****         2.4289   0.1224   0.1175 LP             1 S1                 0.0000
     37 ****         3.4777  -1.2560   0.1264 LP             1 S1                 0.0000
     38 ****         1.0541  -3.9065   1.5962 LP             1 S1                 0.0000
     39 ****         2.3037  -2.8757   1.8020 LP             1 S1                 0.0000
     40 ****        -2.6318   4.2862   2.1558 LP             1 S1                 0.0000
@<TRIPOS>BOND
    1    1    2 1     
    2    1   18 1     
    3    1   19 1     
    4    1   20 1     
    5    2   17 ar    
    6    2    3 ar    
    7    3    4 ar    
    8    3   21 1     
    9    4    5 ar    
   10    4   22 1     
   11    5    6 1     
   12    5   16 ar    
   13    6    7 1     
   14    6   23 1     
   15    6   24 1     
   16    7    8 1     
   17    7   25 1     
   18    7   26 1     
   19    8    9 am    
   20    8   27 1     
   21    9   10 2     
   22    9   11 1     
   23   11   15 1     
   24   11   12 1     
   25   11   28 1     
   26   12   13 1     
   27   12   29 1     
   28   12   30 1     
   29   13   14 1     
   30   13   31 1     
   31   13   32 1     
   32   14   15 1     
   33   14   33 1     
   34   14   34 1     
   35   16   17 ar    
   36   16   35 1     
   37   10   36 1     
   38   10   37 1     
   39   15   38 1     
   40   15   39 1     
   41   17   40 1     
@<TRIPOS>SUBSTRUCTURE
      1 S1             1
@<TRIPOS>SET
LONE_PAIRS      STATIC     ATOMS    <user>   **** ""
5 36 37 38 39 40
DONOR_HYDROGENS      STATIC     ATOMS    <user>   **** ""
1 27
ATOM$BLUE        STATIC     ATOMS    COLORGROUP SYSTEM
5 36 37 38 39 40
ATOM$RED        STATIC     ATOMS    COLORGROUP SYSTEM
1 27
