#       Name:                AV-unprocessed.smi:272
#       Creating user name   scv26
#       Creation time:       Thu Mar 26 21:29:16 2020


#       File generated by GOLD software.
#

@<TRIPOS>MOLECULE
AV-unprocessed.smi:272
    72    75     1
SMALL
NO_CHARGES


@<TRIPOS>ATOM
      1 ****        -5.5602  -1.7876   3.7004 C.3            1 S1                 0.0000
      2 ****        -4.7598  -1.1913   4.8705 C.3            1 S1                 0.0000
      3 ****        -5.3100   0.1936   5.2446 C.3            1 S1                 0.0000
      4 ****        -3.2487  -1.1157   4.5715 C.3            1 S1                 0.0000
      5 ****        -2.5648  -2.4907   4.4489 C.3            1 S1                 0.0000
      6 ****        -1.1534  -2.3609   4.3417 O.3            1 S1                 0.0000
      7 ****        -0.6824  -1.9015   3.0800 C.3            1 S1                 0.0000
      8 ****         0.2658  -2.9600   2.4926 C.3            1 S1                 0.0000
      9 ****         0.9135  -2.4520   1.1937 C.3            1 S1                 0.0000
     10 ****         1.5789  -1.1702   1.4142 N.3            1 S1                 0.0000
     11 ****         2.3221  -0.7639   0.3637 C.ar           1 S1                 0.0000
     12 ****         3.6651  -0.7100   0.5373 N.ar           1 S1                 0.0000
     13 ****         4.4525  -0.3200  -0.4701 C.ar           1 S1                 0.0000
     14 ****         4.1070   0.0516  -1.7051 N.ar           1 S1                 0.0000
     15 ****         2.7550   0.0013  -1.8799 C.ar           1 S1                 0.0000
     16 ****         1.7956  -0.3935  -0.9057 C.ar           1 S1                 0.0000
     17 ****         0.5164  -0.3252  -1.4439 N.2            1 S1                 0.0000
     18 ****         0.7089   0.0821  -2.6684 C.2            1 S1                 0.0000
     19 ****         2.0225   0.3126  -3.0127 N.pl3          1 S1                 0.0000
     20 ****         2.5137   0.7644  -4.3062 C.3            1 S1                 0.0000
     21 ****         2.7308   2.2995  -4.4081 C.3            1 S1                 0.0000
     22 ****         3.8011   2.6355  -3.5458 O.3            1 S1                 0.0000
     23 ****         3.1395   2.7241  -5.8330 C.3            1 S1                 0.0000
     24 ****         1.9407   2.6987  -6.8001 C.3            1 S1                 0.0000
     25 ****         0.8841   3.5096  -6.2968 O.3            1 S1                 0.0000
     26 ****         0.3906   3.0705  -5.0358 C.3            1 S1                 0.0000
     27 ****         1.5107   3.1454  -3.9844 C.3            1 S1                 0.0000
     28 ****         0.7261  -0.1185   1.9629 C.3            1 S1                 0.0000
     29 ****         0.0742  -0.5768   3.2782 C.3            1 S1                 0.0000
     30 ****        -5.4286  -1.2009   2.7908 H              1 S1                 0.0000
     31 ****        -6.6264  -1.8110   3.9273 H              1 S1                 0.0000
     32 ****        -5.2566  -2.8116   3.4845 H              1 S1                 0.0000
     33 ****        -4.9017  -1.8386   5.7369 H              1 S1                 0.0000
     34 ****        -5.2001   0.8998   4.4208 H              1 S1                 0.0000
     35 ****        -4.7871   0.6057   6.1081 H              1 S1                 0.0000
     36 ****        -6.3693   0.1409   5.4987 H              1 S1                 0.0000
     37 ****        -3.0874  -0.5301   3.6661 H              1 S1                 0.0000
     38 ****        -2.7572  -0.5666   5.3754 H              1 S1                 0.0000
     39 ****        -2.7694  -3.0745   5.3466 H              1 S1                 0.0000
     40 ****        -2.9537  -3.0672   3.6086 H              1 S1                 0.0000
     41 ****        -1.5016  -1.7406   2.3762 H              1 S1                 0.0000
     42 ****         1.0457  -3.1980   3.2174 H              1 S1                 0.0000
     43 ****        -0.2764  -3.8867   2.3027 H              1 S1                 0.0000
     44 ****         1.6344  -3.1849   0.8283 H              1 S1                 0.0000
     45 ****         0.1501  -2.3424   0.4224 H              1 S1                 0.0000
     46 ****         5.5113  -0.3039  -0.2561 H              1 S1                 0.0000
     47 ****        -0.1096   0.2304  -3.3575 H              1 S1                 0.0000
     48 ****         3.4442   0.2365  -4.5208 H              1 S1                 0.0000
     49 ****         1.8027   0.4267  -5.0597 H              1 S1                 0.0000
     50 ****         3.5883   2.3415  -2.6730 H              1 S1                 0.0000
     51 ****         3.5386   3.7397  -5.8126 H              1 S1                 0.0000
     52 ****         3.9423   2.0892  -6.2099 H              1 S1                 0.0000
     53 ****         2.2420   3.0858  -7.7735 H              1 S1                 0.0000
     54 ****         1.5841   1.6820  -6.9676 H              1 S1                 0.0000
     55 ****        -0.4387   3.7141  -4.7425 H              1 S1                 0.0000
     56 ****        -0.0093   2.0596  -5.1197 H              1 S1                 0.0000
     57 ****         1.1368   2.8501  -3.0041 H              1 S1                 0.0000
     58 ****         1.8105   4.1898  -3.8832 H              1 S1                 0.0000
     59 ****         1.3164   0.7824   2.1367 H              1 S1                 0.0000
     60 ****        -0.0489   0.1408   1.2407 H              1 S1                 0.0000
     61 ****        -0.6029   0.1942   3.6468 H              1 S1                 0.0000
     62 ****         0.8444  -0.7037   4.0403 H              1 S1                 0.0000
     63 ****        -0.7460  -3.2572   4.5166 LP             1 S1                 0.0000
     64 ****        -0.8481  -1.7139   5.0404 LP             1 S1                 0.0000
     65 ****         2.2281  -1.3611   2.1504 LP             1 S1                 0.0000
     66 ****         4.0665  -0.9617   1.4179 LP             1 S1                 0.0000
     67 ****         4.7566   0.3312  -2.4120 LP             1 S1                 0.0000
     68 ****        -0.3518  -0.5390  -0.9959 LP             1 S1                 0.0000
     69 ****         3.9344   3.6266  -3.5444 LP             1 S1                 0.0000
     70 ****         4.6386   2.1870  -3.8576 LP             1 S1                 0.0000
     71 ****         0.1314   3.4951  -6.9550 LP             1 S1                 0.0000
     72 ****         1.2218   4.4456  -6.1973 LP             1 S1                 0.0000
@<TRIPOS>BOND
    1    1    2 1     
    2    1   30 1     
    3    1   31 1     
    4    1   32 1     
    5    2    3 1     
    6    2    4 1     
    7    2   33 1     
    8    3   34 1     
    9    3   35 1     
   10    3   36 1     
   11    4    5 1     
   12    4   37 1     
   13    4   38 1     
   14    5    6 1     
   15    5   39 1     
   16    5   40 1     
   17    6    7 1     
   18    7   29 1     
   19    7    8 1     
   20    7   41 1     
   21    8    9 1     
   22    8   42 1     
   23    8   43 1     
   24    9   10 1     
   25    9   44 1     
   26    9   45 1     
   27   10   11 1     
   28   10   28 1     
   29   11   16 ar    
   30   11   12 ar    
   31   12   13 ar    
   32   13   14 ar    
   33   13   46 1     
   34   14   15 ar    
   35   15   19 1     
   36   15   16 ar    
   37   16   17 1     
   38   17   18 2     
   39   18   19 1     
   40   18   47 1     
   41   19   20 1     
   42   20   21 1     
   43   20   48 1     
   44   20   49 1     
   45   21   27 1     
   46   21   22 1     
   47   21   23 1     
   48   22   50 1     
   49   23   24 1     
   50   23   51 1     
   51   23   52 1     
   52   24   25 1     
   53   24   53 1     
   54   24   54 1     
   55   25   26 1     
   56   26   27 1     
   57   26   55 1     
   58   26   56 1     
   59   27   57 1     
   60   27   58 1     
   61   28   29 1     
   62   28   59 1     
   63   28   60 1     
   64   29   61 1     
   65   29   62 1     
   66    6   63 1     
   67    6   64 1     
   68   10   65 1     
   69   12   66 1     
   70   14   67 1     
   71   17   68 1     
   72   22   69 1     
   73   22   70 1     
   74   25   71 1     
   75   25   72 1     
@<TRIPOS>SUBSTRUCTURE
      1 S1             1
@<TRIPOS>SET
LONE_PAIRS      STATIC     ATOMS    <user>   **** ""
10 63 64 65 66 67 68 69 70 71 72
DONOR_HYDROGENS      STATIC     ATOMS    <user>   **** ""
1 50
ATOM$BLUE        STATIC     ATOMS    COLORGROUP SYSTEM
10 63 64 65 66 67 68 69 70 71 72
ATOM$RED        STATIC     ATOMS    COLORGROUP SYSTEM
1 50
