AV-unprocessed.smi:3009|AV-procd|sdf|11453|dock1
  -GOLD-   2272016383D 1   1.00000     0.00000
 Structure written by MMmdl.
 43 44  0  0  0  0  0  0  0  0  1 V2000
  153.0142  142.4374  159.8852 C   0  0  0  0  0  0  0  0  0  0  0  0
  152.1516  141.4837  159.0415 C   0  0  0  0  0  0  0  0  0  0  0  0
  152.6728  140.0363  159.0628 C   0  0  0  0  0  0  0  0  0  0  0  0
  151.8417  142.0151  157.6200 C   0  0  0  0  0  0  0  0  0  0  0  0
  150.9530  141.2133  156.7723 N   0  0  0  0  0  0  0  0  0  0  0  0
  150.2438  142.0039  155.7697 C   0  0  0  0  0  0  0  0  0  0  0  0
  149.3623  141.1298  154.8615 C   0  0  0  0  0  0  0  0  0  0  0  0
  150.1552  140.1166  154.2536 O   0  0  0  0  0  0  0  0  0  0  0  0
  150.8049  139.2786  155.2061 C   0  0  1  0  0  0  0  0  0  0  0  0
  151.6144  138.2118  154.4492 C   0  0  0  0  0  0  0  0  0  0  0  0
  150.8353  136.9983  154.2278 N   0  0  0  0  0  0  0  0  0  0  0  0
  150.9120  135.8879  154.9742 C   0  0  0  0  0  0  0  0  0  0  0  0
  151.6726  135.7644  155.9348 O   0  0  0  0  0  0  0  0  0  0  0  0
  150.0595  134.9463  154.5376 N   0  0  0  0  0  0  0  0  0  0  0  0
  149.8546  133.6523  155.0797 C   0  0  0  0  0  0  0  0  0  0  0  0
  149.1474  132.6050  154.4289 C   0  0  0  0  0  0  0  0  0  0  0  0
  149.1128  131.5092  155.1737 N   0  0  0  0  0  0  0  0  0  0  0  0
  149.7902  131.8475  156.2943 N   0  0  0  0  0  0  0  0  0  0  0  0
  150.2594  133.1426  156.2816 C   0  0  0  0  0  0  0  0  0  0  0  0
  151.7031  140.1581  156.0975 C   0  0  0  0  0  0  0  0  0  0  0  0
  149.9221  131.1914  157.0510 H   0  0  0  0  0  0  0  0  0  0  0  0
  154.0295  142.5163  159.4964 H   0  0  0  0  0  0  0  0  0  0  0  0
  153.0843  142.0907  160.9164 H   0  0  0  0  0  0  0  0  0  0  0  0
  152.5853  143.4396  159.9037 H   0  0  0  0  0  0  0  0  0  0  0  0
  151.1840  141.4347  159.5429 H   0  0  0  0  0  0  0  0  0  0  0  0
  153.6765  139.9442  158.6532 H   0  0  0  0  0  0  0  0  0  0  0  0
  152.0190  139.3760  158.4925 H   0  0  0  0  0  0  0  0  0  0  0  0
  152.7074  139.6547  160.0838 H   0  0  0  0  0  0  0  0  0  0  0  0
  151.4749  143.0409  157.6795 H   0  0  0  0  0  0  0  0  0  0  0  0
  152.8033  142.0885  157.1097 H   0  0  0  0  0  0  0  0  0  0  0  0
  149.6012  142.7359  156.2531 H   0  0  0  0  0  0  0  0  0  0  0  0
  150.9582  142.5582  155.1593 H   0  0  0  0  0  0  0  0  0  0  0  0
  148.5524  140.6733  155.4327 H   0  0  0  0  0  0  0  0  0  0  0  0
  148.9015  141.7372  154.0825 H   0  0  0  0  0  0  0  0  0  0  0  0
  150.0523  138.7904  155.8282 H   0  0  0  0  0  0  0  0  0  0  0  0
  151.9297  138.5991  153.4799 H   0  0  0  0  0  0  0  0  0  0  0  0
  152.5267  137.9683  154.9966 H   0  0  0  0  0  0  0  0  0  0  0  0
  150.1789  137.0142  153.4610 H   0  0  0  0  0  0  0  0  0  0  0  0
  149.4958  135.1805  153.7336 H   0  0  0  0  0  0  0  0  0  0  0  0
  148.6682  132.6035  153.4607 H   0  0  0  0  0  0  0  0  0  0  0  0
  150.8184  133.5632  157.1045 H   0  0  0  0  0  0  0  0  0  0  0  0
  152.4948  140.6001  155.4901 H   0  0  0  0  0  0  0  0  0  0  0  0
  152.1960  139.5273  156.8386 H   0  0  0  0  0  0  0  0  0  0  0  0
  1  2  1  0  0  0  0
  1 22  1  0  0  0  0
  1 23  1  0  0  0  0
  1 24  1  0  0  0  0
  2  3  1  0  0  0  0
  2  4  1  0  0  0  0
  2 25  1  0  0  0  0
  3 26  1  0  0  0  0
  3 27  1  0  0  0  0
  3 28  1  0  0  0  0
  4  5  1  0  0  0  0
  4 29  1  0  0  0  0
  4 30  1  0  0  0  0
  5 20  1  0  0  0  0
  5  6  1  0  0  0  0
  6  7  1  0  0  0  0
  6 31  1  0  0  0  0
  6 32  1  0  0  0  0
  7  8  1  0  0  0  0
  7 33  1  0  0  0  0
  7 34  1  0  0  0  0
  8  9  1  0  0  0  0
  9 10  1  0  0  0  0
  9 20  1  0  0  0  0
  9 35  1  0  0  0  0
 10 11  1  0  0  0  0
 10 36  1  0  0  0  0
 10 37  1  0  0  0  0
 11 12  1  0  0  0  0
 11 38  1  0  0  0  0
 12 13  2  0  0  0  0
 12 14  1  0  0  0  0
 14 15  1  0  0  0  0
 14 39  1  0  0  0  0
 15 19  2  0  0  0  0
 15 16  1  0  0  0  0
 16 17  2  0  0  0  0
 16 40  1  0  0  0  0
 17 18  1  0  0  0  0
 18 21  1  0  0  0  0
 18 19  1  0  0  0  0
 19 41  1  0  0  0  0
 20 42  1  0  0  0  0
 20 43  1  0  0  0  0
M  END
> <s_m_source_file>
AV-unprocessed.smi

> <i_m_source_file_index>
3009

> <i_lp_mmshare_version>
43012

> <i_f3d_flags>
0

> <s_epik_input>
W0NIM11bQ0hdKFtDSDNdKVtDSDJdTjFbQ0gyXVtDSDJdT1tDQEhdKFtDSDJdMSlbQ0gyXVtOSF1DKD1PKVtOSF1jMltjSF1uW25IXVtjSF0y

> <s_epik_cmdline>
J2VwaWtfcHl0aG9uJywgJy1waCcsICc3LjAnLCAnLXRuJywgJzgnLCAnLW1hJywgJzIwMCcsICctbWV0YWxfYmluZGluZycsICctaW1hZScsICc8aW5maWxlLm1hZT4nLCAnLW9tYWUnLCAnPG91dGZpbGUubWFlPic=

> <r_lp_tautomer_probability>
0.5

> <r_epik_Ionization_Penalty>
1.11801

> <r_epik_Ionization_Penalty_Charging>
0

> <r_epik_Ionization_Penalty_Neutral>
1.11801

> <r_epik_State_Penalty>
1.17654

> <r_epik_Charging_Adjusted_Penalty>
1.17654

> <i_epik_Tot_Q>
0

> <i_epik_Tot_abs_Q>
0

> <r_epik_Metal_State_Penalty>
1.17654

> <b_epik_Metal_Only>
0

> <s_lp_Force_Field>
OPLS_2005

> <r_lp_Energy>
30.4002

> <b_lp_Chiralities_Consistent>
1

> <s_lp_Variant>
AV-unprocessed.smi:3009-5

> <Gold.Version>
5.8.1

> <Gold.Id.Protein>
6NUR|6NUR_protein|mol2

> <Gold.PLP.Fitness>
46.5396

> <Gold.PLP.PLP>
-36.6913

> <Gold.PLP.part.hbond>
-5.3354

> <Gold.PLP.part.metal>
0.0000

> <Gold.PLP.part.buried>
-3.5704

> <Gold.PLP.part.nonpolar>
-27.6440

> <Gold.PLP.part.repulsive>
0.4022

> <Gold.PLP.ligand.clash>
0.0000

> <Gold.PLP.ligand.torsion>
0.8901

> <Gold.PLP.Chemscore.Hbond>
3.8240

> <Gold.PLP.Chemscore.CHOScore>
0.0000

> <Gold.PLP.Chemscore.Metal>
0.0000

> <Gold.Chemscore.Hbonds>
donor molecule, donor type, donor heavy atom, donor atom, acceptor molecule, acceptor atom, score
      L1  H    11    38       P1  7948  0.64
      L1  H    14    39       P1  7948  0.52
      P1  H  7989  7998       L1     8  1.00
      P1  H 10752 10764       L1    13  1.00

> <Gold.PLP.Chemscore.Internal.Correction>
0.1565

> <Gold.Rescore>
     Score         DG    S(hbond)    S(metal)    S(lipo)     H(rot)  DE(clash)    DE(int)     intcor
     15.33     -17.61       2.04        0.00      83.78       1.76       0.08       2.20       ----

> <Gold.Chemscore.Fitness>
15.3282

> <Gold.Chemscore.DG>
-17.6109

> <Gold.Chemscore.ZeroCoef>
-5.4800

> <Gold.Chemscore.Hbond>
2.0439

> <Gold.Chemscore.Metal>
0.0000

> <Gold.Chemscore.Lipo>
83.7750

> <Gold.Chemscore.Internal_Hbond>
0.0000

> <Gold.Chemscore.DEClash>
0.0780

> <Gold.Chemscore.DEInternal>
2.2048

> <Gold.Chemscore.Rot>
1.7568

> <Gold.Chemscore.Internal.Correction>
   9.000000E+99

> <Gold.Chemscore.Hbonds>
donor molecule, donor type, donor heavy atom, donor atom, acceptor molecule, acceptor atom, score
      L1  H    11    38       P1  7948  0.09
      L1  H    14    39       P1  7948  0.08
      P1  H  7989  7998       L1     8  0.17
      P1  H 10752 10764       L1    13  0.30

> <Gold.Chemscore.Hbond.Weighted>
-6.8267

> <Gold.Chemscore.Metal.Weighted>
-0.0000

> <Gold.Chemscore.Lipo.Weighted>
-9.8017

> <Gold.Chemscore.Internal_Hbond.Weighted>
0.0000

> <Gold.Chemscore.DEClash.Weighted>
0.0780

> <Gold.Chemscore.DEInternal.Weighted>
2.2048

> <Gold.Chemscore.Rot.Weighted>
4.4974

> <Gold.Chemscore.Internal.Correction.Weighted>
   9.000000E+99

> <Gold.Protein.RotatedTorsions>
[ 6907 6896 6895 6894 ] final -119.67 input  -60.11 | X-H torsion
[ 7974 7965 7964 7962 ] final -101.97 input  175.53 | X-H torsion
[ 8008 7997 7996 7995 ] final   81.75 input   59.86 | X-H torsion
[ 10167 10162 10161 10158 ] final   51.38 input  -65.29 | X-H torsion
[ 10718 10713 10712 10709 ] final  -32.15 input   66.30 | X-H torsion
[ 10763 10752 10751 10750 ] final  -23.14 input  -60.55 | X-H torsion
[ 11005 11000 10999 10996 ] final  -49.00 input  -57.11 | X-H torsion

> <Gold.Protein.ActiveResidues>
 VAL166  LYS551  ARG553  GLY616  TRP617  ASP618  TYR619  PRO620  LYS621  CYS622 
 ASP623  PHE694  ASN695  SER759  ASP760  ASP761  ALA762  ILE779  LEU786  VAL792 
 PHE793  MET794  SER795  GLU796  ALA797  LYS798  CYS799  TRP800  GLU811  SER814 

> <Gold.Protein.RotatedAtoms>
  150.8325  133.8067  159.3092 H   0  0  0  0  0  0  0  0  0  0  0  0  # atno 6907 bound_to 6896
  151.5792  135.1057  160.0023 H   0  0  0  0  0  0  0  0  0  0  0  0  # atno 6908 bound_to 6896
  152.4403  133.7394  159.6688 H   0  0  0  0  0  0  0  0  0  0  0  0  # atno 6909 bound_to 6896
  145.2747  140.9309  143.2966 H   0  0  0  0  0  0  0  0  0  0  0  0  # atno 7974 bound_to 7965
  155.9013  140.3433  155.6028 H   0  0  0  0  0  0  0  0  0  0  0  0  # atno 8008 bound_to 7997
  155.7497  140.0818  157.2226 H   0  0  0  0  0  0  0  0  0  0  0  0  # atno 8009 bound_to 7997
  154.4044  140.1555  156.2697 H   0  0  0  0  0  0  0  0  0  0  0  0  # atno 8010 bound_to 7997
  140.2625  144.3357  150.6314 H   0  0  0  0  0  0  0  0  0  0  0  0  # atno 10167 bound_to 10162
  156.3785  130.4352  149.7488 H   0  0  0  0  0  0  0  0  0  0  0  0  # atno 10718 bound_to 10713
  153.6631  135.6975  153.5171 H   0  0  0  0  0  0  0  0  0  0  0  0  # atno 10763 bound_to 10752
  153.2616  135.4243  155.0899 H   0  0  0  0  0  0  0  0  0  0  0  0  # atno 10764 bound_to 10752
  154.8446  135.3556  154.6176 H   0  0  0  0  0  0  0  0  0  0  0  0  # atno 10765 bound_to 10752
  141.0734  133.6672  156.3523 H   0  0  0  0  0  0  0  0  0  0  0  0  # atno 11005 bound_to 11000
  144.9304  139.4305  143.6497 LP  0  0  0  0  0  0  0  0  0  0  0  0  # atno 17320 bound_to 7965
  146.3235  139.8213  142.8926 LP  0  0  0  0  0  0  0  0  0  0  0  0  # atno 17321 bound_to 7965
  140.5954  143.2167  151.7173 LP  0  0  0  0  0  0  0  0  0  0  0  0  # atno 17342 bound_to 10162
  139.5012  144.3875  152.0314 LP  0  0  0  0  0  0  0  0  0  0  0  0  # atno 17343 bound_to 10162
  156.4588  130.7942  151.2962 LP  0  0  0  0  0  0  0  0  0  0  0  0  # atno 17370 bound_to 10713
  157.7490  131.0072  150.3182 LP  0  0  0  0  0  0  0  0  0  0  0  0  # atno 17371 bound_to 10713
  140.5625  134.5920  157.5437 LP  0  0  0  0  0  0  0  0  0  0  0  0  # atno 17394 bound_to 11000
  139.9546  134.7557  156.0370 LP  0  0  0  0  0  0  0  0  0  0  0  0  # atno 17395 bound_to 11000

$$$$
