AV-unprocessed.smi:2598|AV-procd|sdf|10178|dock3
  -GOLD-   2272014193D 1   1.00000     0.00000
 Structure written by MMmdl.
 27 28  0  0  0  0  0  0  0  0  1 V2000
  147.3491  133.2799  154.6872 O   0  0  0  0  0  0  0  0  0  0  0  0
  147.8300  134.0875  153.8944 C   0  0  0  0  0  0  0  0  0  0  0  0
  148.9402  134.7894  154.2030 N   0  0  0  0  0  0  0  0  0  0  0  0
  149.7305  134.7766  155.3117 C   0  0  0  0  0  0  0  0  0  0  0  0
  149.7802  133.7813  156.2508 C   0  0  0  0  0  0  0  0  0  0  0  0
  150.7076  134.0051  157.2809 N   0  0  0  0  0  0  0  0  0  0  0  0
  151.3774  135.1134  157.1635 N   0  0  0  0  0  0  0  0  0  0  0  0
  150.9248  135.9476  155.7849 S   0  0  0  0  0  0  0  0  0  0  0  0
  147.2822  134.3450  152.6948 N   0  0  0  0  0  0  0  0  0  0  0  0
  146.0840  133.7142  152.1499 C   0  0  0  0  0  0  0  0  0  0  0  0
  146.3097  132.1985  151.9718 C   0  0  0  0  0  0  0  0  0  0  0  0
  145.0569  131.4759  151.4556 C   0  0  0  0  0  0  0  0  0  0  0  0
  144.5742  132.0819  149.8158 S   0  0  0  0  0  0  0  0  0  0  0  0
  144.4128  133.8428  150.2182 C   0  0  0  0  0  0  0  0  0  0  0  0
  145.7118  134.3975  150.8205 C   0  0  0  0  0  0  0  0  0  0  0  0
  149.1936  135.4898  153.5211 H   0  0  0  0  0  0  0  0  0  0  0  0
  149.1907  132.8766  156.2718 H   0  0  0  0  0  0  0  0  0  0  0  0
  147.7363  135.0313  152.1099 H   0  0  0  0  0  0  0  0  0  0  0  0
  145.2610  133.8685  152.8507 H   0  0  0  0  0  0  0  0  0  0  0  0
  147.1426  132.0223  151.2895 H   0  0  0  0  0  0  0  0  0  0  0  0
  146.5989  131.7559  152.9257 H   0  0  0  0  0  0  0  0  0  0  0  0
  145.2402  130.4033  151.3908 H   0  0  0  0  0  0  0  0  0  0  0  0
  144.2253  131.6168  152.1465 H   0  0  0  0  0  0  0  0  0  0  0  0
  144.1573  134.3860  149.3083 H   0  0  0  0  0  0  0  0  0  0  0  0
  143.5832  133.9753  150.9134 H   0  0  0  0  0  0  0  0  0  0  0  0
  145.5935  135.4694  150.9841 H   0  0  0  0  0  0  0  0  0  0  0  0
  146.5249  134.2866  150.1017 H   0  0  0  0  0  0  0  0  0  0  0  0
  1  2  2  0  0  0  0
  2  3  1  0  0  0  0
  2  9  1  0  0  0  0
  3  4  1  0  0  0  0
  3 16  1  0  0  0  0
  4  8  1  0  0  0  0
  4  5  2  0  0  0  0
  5  6  1  0  0  0  0
  5 17  1  0  0  0  0
  6  7  2  0  0  0  0
  7  8  1  0  0  0  0
  9 10  1  0  0  0  0
  9 18  1  0  0  0  0
 10 15  1  0  0  0  0
 10 11  1  0  0  0  0
 10 19  1  0  0  0  0
 11 12  1  0  0  0  0
 11 20  1  0  0  0  0
 11 21  1  0  0  0  0
 12 13  1  0  0  0  0
 12 22  1  0  0  0  0
 12 23  1  0  0  0  0
 13 14  1  0  0  0  0
 14 15  1  0  0  0  0
 14 24  1  0  0  0  0
 14 25  1  0  0  0  0
 15 26  1  0  0  0  0
 15 27  1  0  0  0  0
M  END
> <s_m_source_file>
AV-unprocessed.smi

> <i_m_source_file_index>
2598

> <i_lp_mmshare_version>
43012

> <i_f3d_flags>
0

> <s_epik_input>
czFubltjSF1jMVtOSF1DKD1PKVtOSF1bQ0hdMltDSDJdW0NIMl1TW0NIMl1bQ0gyXTI=

> <s_epik_cmdline>
J2VwaWtfcHl0aG9uJywgJy1waCcsICc3LjAnLCAnLXRuJywgJzgnLCAnLW1hJywgJzIwMCcsICctbWV0YWxfYmluZGluZycsICctaW1hZScsICc8aW5maWxlLm1hZT4nLCAnLW9tYWUnLCAnPG91dGZpbGUubWFlPic=

> <r_lp_tautomer_probability>
1

> <r_epik_Ionization_Penalty>
2.3088e-05

> <r_epik_Ionization_Penalty_Charging>
0

> <r_epik_Ionization_Penalty_Neutral>
2.3088e-05

> <r_epik_State_Penalty>
-0

> <r_epik_Charging_Adjusted_Penalty>
0

> <i_epik_Tot_Q>
0

> <i_epik_Tot_abs_Q>
0

> <r_epik_Metal_State_Penalty>
-0

> <b_epik_Metal_Only>
0

> <s_lp_Force_Field>
OPLS_2005

> <r_lp_Energy>
8.93438

> <b_lp_Chiralities_Consistent>
1

> <s_lp_Variant>
AV-unprocessed.smi:2598-1

> <Gold.Version>
5.8.1

> <Gold.Id.Protein>
6NUR|6NUR_protein|mol2

> <Gold.PLP.Fitness>
32.7442

> <Gold.PLP.PLP>
-25.0591

> <Gold.PLP.part.hbond>
-4.0000

> <Gold.PLP.part.metal>
0.0000

> <Gold.PLP.part.buried>
-2.1117

> <Gold.PLP.part.nonpolar>
-17.9595

> <Gold.PLP.part.repulsive>
0.0389

> <Gold.PLP.ligand.clash>
0.0000

> <Gold.PLP.ligand.torsion>
0.0850

> <Gold.PLP.Chemscore.Hbond>
2.6160

> <Gold.PLP.Chemscore.CHOScore>
0.0000

> <Gold.PLP.Chemscore.Metal>
0.0000

> <Gold.Chemscore.Hbonds>
donor molecule, donor type, donor heavy atom, donor atom, acceptor molecule, acceptor atom, score
      L1  H     3    16       P1  7948  0.99
      L1  H     9    18       P1  7948  1.00
      P1  H  6896  6908       L1     6  0.61

> <Gold.PLP.Chemscore.Internal.Correction>
0.0072

> <Gold.Rescore>
     Score         DG    S(hbond)    S(metal)    S(lipo)     H(rot)  DE(clash)    DE(int)     intcor
     14.98     -16.35       2.04        0.00      56.46       1.00       0.04       1.33       ----

> <Gold.Chemscore.Fitness>
14.9814

> <Gold.Chemscore.DG>
-16.3474

> <Gold.Chemscore.ZeroCoef>
-5.4800

> <Gold.Chemscore.Hbond>
2.0424

> <Gold.Chemscore.Metal>
0.0000

> <Gold.Chemscore.Lipo>
56.4600

> <Gold.Chemscore.Internal_Hbond>
0.0000

> <Gold.Chemscore.DEClash>
0.0402

> <Gold.Chemscore.DEInternal>
1.3258

> <Gold.Chemscore.Rot>
1.0000

> <Gold.Chemscore.Internal.Correction>
   9.000000E+99

> <Gold.Chemscore.Hbonds>
donor molecule, donor type, donor heavy atom, donor atom, acceptor molecule, acceptor atom, score
      L1  H     3    16       P1  7948  0.47
      L1  H     9    18       P1  7948  0.82
      P1  H  6896  6908       L1     6  0.18

> <Gold.Chemscore.Hbond.Weighted>
-6.8216

> <Gold.Chemscore.Metal.Weighted>
-0.0000

> <Gold.Chemscore.Lipo.Weighted>
-6.6058

> <Gold.Chemscore.Internal_Hbond.Weighted>
0.0000

> <Gold.Chemscore.DEClash.Weighted>
0.0402

> <Gold.Chemscore.DEInternal.Weighted>
1.3258

> <Gold.Chemscore.Rot.Weighted>
2.5600

> <Gold.Chemscore.Internal.Correction.Weighted>
   9.000000E+99

> <Gold.Protein.RotatedTorsions>
[ 6907 6896 6895 6894 ] final  102.29 input  -60.11 | X-H torsion
[ 7974 7965 7964 7962 ] final -178.94 input  175.53 | X-H torsion
[ 8008 7997 7996 7995 ] final    4.49 input   59.86 | X-H torsion
[ 10167 10162 10161 10158 ] final -109.21 input  -65.29 | X-H torsion
[ 10718 10713 10712 10709 ] final -152.57 input   66.30 | X-H torsion
[ 10763 10752 10751 10750 ] final  119.10 input  -60.55 | X-H torsion
[ 11005 11000 10999 10996 ] final   14.61 input  -57.11 | X-H torsion

> <Gold.Protein.ActiveResidues>
 VAL166  LYS551  ARG553  GLY616  TRP617  ASP618  TYR619  PRO620  LYS621  CYS622 
 ASP623  PHE694  ASN695  SER759  ASP760  ASP761  ALA762  ILE779  LEU786  VAL792 
 PHE793  MET794  SER795  GLU796  ALA797  LYS798  CYS799  TRP800  GLU811  SER814 

> <Gold.Protein.RotatedAtoms>
  152.5327  133.9997  159.7888 H   0  0  0  0  0  0  0  0  0  0  0  0  # atno 6907 bound_to 6896
  151.0218  133.5862  159.2677 H   0  0  0  0  0  0  0  0  0  0  0  0  # atno 6908 bound_to 6896
  151.2899  135.0745  159.9254 H   0  0  0  0  0  0  0  0  0  0  0  0  # atno 6909 bound_to 6896
  144.7133  140.0792  143.6426 H   0  0  0  0  0  0  0  0  0  0  0  0  # atno 7974 bound_to 7965
  154.7165  140.2703  155.6580 H   0  0  0  0  0  0  0  0  0  0  0  0  # atno 8008 bound_to 7997
  156.2811  140.2743  156.1748 H   0  0  0  0  0  0  0  0  0  0  0  0  # atno 8009 bound_to 7997
  155.0564  140.0371  157.2551 H   0  0  0  0  0  0  0  0  0  0  0  0  # atno 8010 bound_to 7997
  140.1578  143.4146  152.1448 H   0  0  0  0  0  0  0  0  0  0  0  0  # atno 10167 bound_to 10162
  156.4743  130.8273  151.2502 H   0  0  0  0  0  0  0  0  0  0  0  0  # atno 10718 bound_to 10713
  153.5778  135.3490  155.2863 H   0  0  0  0  0  0  0  0  0  0  0  0  # atno 10763 bound_to 10752
  154.8672  135.4175  154.2654 H   0  0  0  0  0  0  0  0  0  0  0  0  # atno 10764 bound_to 10752
  153.3434  135.7051  153.6918 H   0  0  0  0  0  0  0  0  0  0  0  0  # atno 10765 bound_to 10752
  140.4676  134.1064  155.7727 H   0  0  0  0  0  0  0  0  0  0  0  0  # atno 11005 bound_to 11000
  145.9716  139.2874  143.1095 LP  0  0  0  0  0  0  0  0  0  0  0  0  # atno 17320 bound_to 7965
  145.9110  140.9180  143.0454 LP  0  0  0  0  0  0  0  0  0  0  0  0  # atno 17321 bound_to 7965
  139.5395  144.7243  151.4780 LP  0  0  0  0  0  0  0  0  0  0  0  0  # atno 17342 bound_to 10162
  140.6662  143.8392  150.6945 LP  0  0  0  0  0  0  0  0  0  0  0  0  # atno 17343 bound_to 10162
  157.7489  131.0066  150.3157 LP  0  0  0  0  0  0  0  0  0  0  0  0  # atno 17370 bound_to 10713
  156.3586  130.3843  149.7269 LP  0  0  0  0  0  0  0  0  0  0  0  0  # atno 17371 bound_to 10713
  141.1592  133.8825  157.1894 LP  0  0  0  0  0  0  0  0  0  0  0  0  # atno 17394 bound_to 11000
  139.9906  135.0066  156.9965 LP  0  0  0  0  0  0  0  0  0  0  0  0  # atno 17395 bound_to 11000

$$$$
