AV-unprocessed.smi:942|AV-procd|sdf|4223|dock3
  -GOLD-   22720 2133D 1   1.00000     0.00000
 Structure written by MMmdl.
 43 45  0  0  0  0  0  0  0  0  2 V2000
  152.3503  139.9605  156.4600 O   0  0  0  0  0  0  0  0  0  0  0  0
  151.6777  139.7588  157.4718 C   0  0  0  0  0  0  0  0  0  0  0  0
  150.6564  138.8884  157.5135 N   0  0  0  0  0  0  0  0  0  0  0  0
  150.1934  138.0637  156.3950 C   0  0  2  0  0  0  0  0  0  0  0  0
  151.3793  137.2745  155.7998 C   0  0  0  0  0  0  0  0  0  0  0  0
  151.5467  137.7451  154.3478 C   0  0  0  0  0  0  0  0  0  0  0  0
  150.8259  139.0889  154.2736 C   0  0  0  0  0  0  0  0  0  0  0  0
  149.6343  138.8945  155.2150 C   0  0  2  0  0  0  0  0  0  0  0  0
  148.9150  140.1287  155.5825 N   0  0  0  0  0  0  0  0  0  0  0  0
  147.8088  140.2740  156.3856 C   0  0  0  0  0  0  0  0  0  0  0  0
  147.4897  141.6072  156.3785 C   0  0  0  0  0  0  0  0  0  0  0  0
  148.4038  142.2202  155.5659 N   0  3  0  0  0  0  0  0  0  0  0  0
  149.2659  141.3211  155.0815 C   0  0  0  0  0  0  0  0  0  0  0  0
  152.0050  140.4933  158.7781 C   0  0  0  0  0  0  0  0  0  0  0  0
  151.9536  142.0244  158.5856 C   0  0  0  0  0  0  0  0  0  0  0  0
  152.3070  142.7647  159.8859 C   0  0  0  0  0  0  0  0  0  0  0  0
  153.6817  142.3297  160.4179 C   0  0  0  0  0  0  0  0  0  0  0  0
  153.7472  140.8062  160.6082 C   0  0  0  0  0  0  0  0  0  0  0  0
  153.3904  140.0661  159.3090 C   0  0  0  0  0  0  0  0  0  0  0  0
  150.1592  138.7877  158.3868 H   0  0  0  0  0  0  0  0  0  0  0  0
  149.4316  137.3651  156.7466 H   0  0  0  0  0  0  0  0  0  0  0  0
  152.2987  137.4584  156.3579 H   0  0  0  0  0  0  0  0  0  0  0  0
  151.1996  136.1995  155.8369 H   0  0  0  0  0  0  0  0  0  0  0  0
  152.5928  137.8161  154.0489 H   0  0  0  0  0  0  0  0  0  0  0  0
  151.0611  137.0355  153.6766 H   0  0  0  0  0  0  0  0  0  0  0  0
  151.4944  139.8690  154.6385 H   0  0  0  0  0  0  0  0  0  0  0  0
  150.5247  139.3477  153.2579 H   0  0  0  0  0  0  0  0  0  0  0  0
  148.9144  138.2677  154.6847 H   0  0  0  0  0  0  0  0  0  0  0  0
  147.3333  139.4450  156.8877 H   0  0  0  0  0  0  0  0  0  0  0  0
  146.6964  142.1498  156.8715 H   0  0  0  0  0  0  0  0  0  0  0  0
  150.0799  141.5182  154.4066 H   0  0  0  0  0  0  0  0  0  0  0  0
  151.2553  140.2204  159.5233 H   0  0  0  0  0  0  0  0  0  0  0  0
  152.6487  142.3298  157.8020 H   0  0  0  0  0  0  0  0  0  0  0  0
  150.9606  142.3292  158.2522 H   0  0  0  0  0  0  0  0  0  0  0  0
  152.2997  143.8413  159.7137 H   0  0  0  0  0  0  0  0  0  0  0  0
  151.5438  142.5665  160.6394 H   0  0  0  0  0  0  0  0  0  0  0  0
  154.4592  142.6450  159.7208 H   0  0  0  0  0  0  0  0  0  0  0  0
  153.8910  142.8319  161.3629 H   0  0  0  0  0  0  0  0  0  0  0  0
  154.7446  140.5156  160.9395 H   0  0  0  0  0  0  0  0  0  0  0  0
  153.0592  140.5069  161.3997 H   0  0  0  0  0  0  0  0  0  0  0  0
  153.4074  138.9910  159.4902 H   0  0  0  0  0  0  0  0  0  0  0  0
  154.1588  140.2649  158.5602 H   0  0  0  0  0  0  0  0  0  0  0  0
  148.4224  143.2096  155.3529 H   0  0  0  0  0  0  0  0  0  0  0  0
  1  2  2  0  0  0  0
  2  3  1  0  0  0  0
  2 14  1  0  0  0  0
  3  4  1  0  0  0  0
  3 20  1  0  0  0  0
  4  8  1  0  0  0  0
  4  5  1  0  0  0  0
  4 21  1  0  0  0  0
  5  6  1  0  0  0  0
  5 22  1  0  0  0  0
  5 23  1  0  0  0  0
  6  7  1  0  0  0  0
  6 24  1  0  0  0  0
  6 25  1  0  0  0  0
  7  8  1  0  0  0  0
  7 26  1  0  0  0  0
  7 27  1  0  0  0  0
  8  9  1  0  0  0  0
  8 28  1  0  0  0  0
  9 13  1  0  0  0  0
  9 10  1  0  0  0  0
 10 11  2  0  0  0  0
 10 29  1  0  0  0  0
 11 12  1  0  0  0  0
 11 30  1  0  0  0  0
 12 13  2  0  0  0  0
 12 43  1  0  0  0  0
 13 31  1  0  0  0  0
 14 19  1  0  0  0  0
 14 15  1  0  0  0  0
 14 32  1  0  0  0  0
 15 16  1  0  0  0  0
 15 33  1  0  0  0  0
 15 34  1  0  0  0  0
 16 17  1  0  0  0  0
 16 35  1  0  0  0  0
 16 36  1  0  0  0  0
 17 18  1  0  0  0  0
 17 37  1  0  0  0  0
 17 38  1  0  0  0  0
 18 19  1  0  0  0  0
 18 39  1  0  0  0  0
 18 40  1  0  0  0  0
 19 41  1  0  0  0  0
 19 42  1  0  0  0  0
M  CHG  1  12   1
M  END
> <s_m_source_file>
AV-unprocessed.smi

> <i_m_source_file_index>
942

> <i_lp_mmshare_version>
43012

> <i_f3d_flags>
0

> <s_epik_input>
W0NIMl0xW0NIMl1bQ0gyXVtDSDJdW0NIMl1bQ0hdMUMoPU8pW05IXVtDQEBIXTJbQ0gyXVtDSDJdW0NIMl1bQ0BIXTJuM1tjSF1bY0hdbltjSF0z

> <s_epik_cmdline>
J2VwaWtfcHl0aG9uJywgJy1waCcsICc3LjAnLCAnLXRuJywgJzgnLCAnLW1hJywgJzIwMCcsICctbWV0YWxfYmluZGluZycsICctaW1hZScsICc8aW5maWxlLm1hZT4nLCAnLW9tYWUnLCAnPG91dGZpbGUubWFlPic=

> <r_lp_tautomer_probability>
1

> <r_epik_Ionization_Penalty>
0.185467

> <r_epik_Ionization_Penalty_Charging>
0

> <r_epik_Ionization_Penalty_Neutral>
0.185467

> <r_epik_State_Penalty>
0.175036

> <r_epik_Charging_Adjusted_Penalty>
0.175036

> <i_epik_Tot_Q>
1

> <i_epik_Tot_abs_Q>
1

> <r_epik_Metal_State_Penalty>
0.487091

> <b_epik_Metal_Only>
0

> <s_lp_Force_Field>
OPLS_2005

> <r_lp_Energy>
33.7474

> <b_lp_Chiralities_Consistent>
1

> <s_lp_Variant>
AV-unprocessed.smi:942-3

> <Gold.Version>
5.8.1

> <Gold.Id.Protein>
6NUR|6NUR_protein|mol2

> <Gold.PLP.Fitness>
41.4723

> <Gold.PLP.PLP>
-32.6074

> <Gold.PLP.part.hbond>
-1.7778

> <Gold.PLP.part.metal>
0.0000

> <Gold.PLP.part.buried>
-4.0017

> <Gold.PLP.part.nonpolar>
-26.7333

> <Gold.PLP.part.repulsive>
0.1677

> <Gold.PLP.ligand.clash>
0.0000

> <Gold.PLP.ligand.torsion>
0.0939

> <Gold.PLP.Chemscore.Hbond>
3.0000

> <Gold.PLP.Chemscore.CHOScore>
0.0000

> <Gold.PLP.Chemscore.Metal>
0.0000

> <Gold.Chemscore.Hbonds>
donor molecule, donor type, donor heavy atom, donor atom, acceptor molecule, acceptor atom, score
      L1  H    12    43       P1  8028  2.00
      P1  H  7997  8008       L1     1  1.00

> <Gold.PLP.Chemscore.Internal.Correction>
0.0526

> <Gold.Rescore>
     Score         DG    S(hbond)    S(metal)    S(lipo)     H(rot)  DE(clash)    DE(int)     intcor
     15.86     -18.60       1.98        0.00      87.97       1.48       0.06       2.68       ----

> <Gold.Chemscore.Fitness>
15.8613

> <Gold.Chemscore.DG>
-18.5991

> <Gold.Chemscore.ZeroCoef>
-5.4800

> <Gold.Chemscore.Hbond>
1.9801

> <Gold.Chemscore.Metal>
0.0000

> <Gold.Chemscore.Lipo>
87.9662

> <Gold.Chemscore.Internal_Hbond>
0.0000

> <Gold.Chemscore.DEClash>
0.0580

> <Gold.Chemscore.DEInternal>
2.6798

> <Gold.Chemscore.Rot>
1.4790

> <Gold.Chemscore.Internal.Correction>
   9.000000E+99

> <Gold.Chemscore.Hbonds>
donor molecule, donor type, donor heavy atom, donor atom, acceptor molecule, acceptor atom, score
      L1  H    12    43       P1  8028  0.95
      P1  H  7997  8008       L1     1  0.93

> <Gold.Chemscore.Hbond.Weighted>
-6.6134

> <Gold.Chemscore.Metal.Weighted>
-0.0000

> <Gold.Chemscore.Lipo.Weighted>
-10.2920

> <Gold.Chemscore.Internal_Hbond.Weighted>
0.0000

> <Gold.Chemscore.DEClash.Weighted>
0.0580

> <Gold.Chemscore.DEInternal.Weighted>
2.6798

> <Gold.Chemscore.Rot.Weighted>
3.7863

> <Gold.Chemscore.Internal.Correction.Weighted>
   9.000000E+99

> <Gold.Protein.RotatedTorsions>
[ 6907 6896 6895 6894 ] final -178.22 input  -60.11 | X-H torsion
[ 7974 7965 7964 7962 ] final -144.81 input  175.53 | X-H torsion
[ 8008 7997 7996 7995 ] final  -56.63 input   59.86 | X-H torsion
[ 10167 10162 10161 10158 ] final  133.52 input  -65.29 | X-H torsion
[ 10718 10713 10712 10709 ] final -144.43 input   66.30 | X-H torsion
[ 10763 10752 10751 10750 ] final   64.62 input  -60.55 | X-H torsion
[ 11005 11000 10999 10996 ] final   22.75 input  -57.11 | X-H torsion

> <Gold.Protein.ActiveResidues>
 VAL166  LYS551  ARG553  GLY616  TRP617  ASP618  TYR619  PRO620  LYS621  CYS622 
 ASP623  PHE694  ASN695  SER759  ASP760  ASP761  ALA762  ILE779  LEU786  VAL792 
 PHE793  MET794  SER795  GLU796  ALA797  LYS798  CYS799  TRP800  GLU811  SER814 

> <Gold.Protein.RotatedAtoms>
  151.6337  133.3330  159.3114 H   0  0  0  0  0  0  0  0  0  0  0  0  # atno 6907 bound_to 6896
  150.8043  134.7161  159.6641 H   0  0  0  0  0  0  0  0  0  0  0  0  # atno 6908 bound_to 6896
  152.4137  134.6083  160.0070 H   0  0  0  0  0  0  0  0  0  0  0  0  # atno 6909 bound_to 6896
  144.8271  140.5662  143.5540 H   0  0  0  0  0  0  0  0  0  0  0  0  # atno 7974 bound_to 7965
  154.4237  140.1125  156.5668 H   0  0  0  0  0  0  0  0  0  0  0  0  # atno 8008 bound_to 7997
  155.6254  140.3495  155.4646 H   0  0  0  0  0  0  0  0  0  0  0  0  # atno 8009 bound_to 7997
  155.9991  140.1195  157.0555 H   0  0  0  0  0  0  0  0  0  0  0  0  # atno 8010 bound_to 7997
  139.5293  144.6611  151.5008 H   0  0  0  0  0  0  0  0  0  0  0  0  # atno 10167 bound_to 10162
  156.3700  130.7783  151.1962 H   0  0  0  0  0  0  0  0  0  0  0  0  # atno 10718 bound_to 10713
  153.0063  135.5386  154.6539 H   0  0  0  0  0  0  0  0  0  0  0  0  # atno 10763 bound_to 10752
  154.5764  135.2846  155.0778 H   0  0  0  0  0  0  0  0  0  0  0  0  # atno 10764 bound_to 10752
  154.1924  135.6498  153.5116 H   0  0  0  0  0  0  0  0  0  0  0  0  # atno 10765 bound_to 10752
  140.3772  134.1960  155.7664 H   0  0  0  0  0  0  0  0  0  0  0  0  # atno 11005 bound_to 11000
  145.4977  139.1485  143.3674 LP  0  0  0  0  0  0  0  0  0  0  0  0  # atno 17320 bound_to 7965
  146.2576  140.5116  142.8867 LP  0  0  0  0  0  0  0  0  0  0  0  0  # atno 17321 bound_to 7965
  140.6460  143.8792  150.6738 LP  0  0  0  0  0  0  0  0  0  0  0  0  # atno 17342 bound_to 10162
  140.2142  143.3859  152.1694 LP  0  0  0  0  0  0  0  0  0  0  0  0  # atno 17343 bound_to 10162
  157.7483  131.0375  150.4459 LP  0  0  0  0  0  0  0  0  0  0  0  0  # atno 17370 bound_to 10713
  156.4684  130.4047  149.6533 LP  0  0  0  0  0  0  0  0  0  0  0  0  # atno 17371 bound_to 10713
  141.1935  133.8148  157.0794 LP  0  0  0  0  0  0  0  0  0  0  0  0  # atno 17394 bound_to 11000
  140.0506  134.9807  157.1130 LP  0  0  0  0  0  0  0  0  0  0  0  0  # atno 17395 bound_to 11000

$$$$
