AV-unprocessed.smi:1915|AV-procd|sdf|7760|dock4
  -GOLD-   22720 9503D 1   1.00000     0.00000
 Structure written by MMmdl.
 44 45  0  0  0  0  0  0  0  0  1 V2000
  152.9037  141.9500  160.6628 C   0  0  0  0  0  0  0  0  0  0  0  0
  152.8694  142.2195  159.1485 C   0  0  0  0  0  0  0  0  0  0  0  0
  152.5433  143.6950  158.8735 C   0  0  0  0  0  0  0  0  0  0  0  0
  151.8912  141.2990  158.3847 C   0  0  0  0  0  0  0  0  0  0  0  0
  152.1553  139.8780  158.6058 N   0  0  0  0  0  0  0  0  0  0  0  0
  151.0591  138.9243  158.6371 C   0  0  0  0  0  0  0  0  0  0  0  0
  151.7222  137.5340  158.7246 C   0  0  1  0  0  0  0  0  0  0  0  0
  151.6081  136.7537  157.4054 C   0  0  0  0  0  0  0  0  0  0  0  0
  152.5882  136.1696  156.9415 O   0  0  0  0  0  0  0  0  0  0  0  0
  150.4071  136.7578  156.8111 N   0  0  0  0  0  0  0  0  0  0  0  0
  150.1046  136.0923  155.5497 C   0  0  0  0  0  0  0  0  0  0  0  0
  148.9351  135.1022  155.6890 C   0  0  0  0  0  0  0  0  0  0  0  0
  149.2481  133.7142  155.1544 C   0  0  0  0  0  0  0  0  0  0  0  0
  150.1491  132.8712  155.8392 C   0  0  0  0  0  0  0  0  0  0  0  0
  150.4197  131.5984  155.3006 C   0  0  0  0  0  0  0  0  0  0  0  0
  149.7830  131.2195  154.1031 C   0  0  0  0  0  0  0  0  0  0  0  0
  148.9005  132.1341  153.4949 C   0  0  0  0  0  0  0  0  0  0  0  0
  148.6349  133.3572  154.0025 N   0  0  0  0  0  0  0  0  0  0  0  0
  153.1923  137.8167  159.0931 C   0  0  0  0  0  0  0  0  0  0  0  0
  153.3322  139.3192  158.9122 C   0  0  0  0  0  0  0  0  0  0  0  0
  154.4067  139.9064  159.0299 O   0  0  0  0  0  0  0  0  0  0  0  0
  151.9116  142.0467  161.1046 H   0  0  0  0  0  0  0  0  0  0  0  0
  153.5638  142.6533  161.1713 H   0  0  0  0  0  0  0  0  0  0  0  0
  153.2743  140.9491  160.8841 H   0  0  0  0  0  0  0  0  0  0  0  0
  153.8727  142.0349  158.7618 H   0  0  0  0  0  0  0  0  0  0  0  0
  151.5469  143.9537  159.2335 H   0  0  0  0  0  0  0  0  0  0  0  0
  152.5793  143.9137  157.8058 H   0  0  0  0  0  0  0  0  0  0  0  0
  153.2573  144.3556  159.3664 H   0  0  0  0  0  0  0  0  0  0  0  0
  150.8626  141.5338  158.6643 H   0  0  0  0  0  0  0  0  0  0  0  0
  151.9602  141.4969  157.3140 H   0  0  0  0  0  0  0  0  0  0  0  0
  150.4407  139.1126  159.5158 H   0  0  0  0  0  0  0  0  0  0  0  0
  150.4235  139.0401  157.7575 H   0  0  0  0  0  0  0  0  0  0  0  0
  151.2492  136.9555  159.5202 H   0  0  0  0  0  0  0  0  0  0  0  0
  149.6555  137.2698  157.2509 H   0  0  0  0  0  0  0  0  0  0  0  0
  149.8586  136.8389  154.7924 H   0  0  0  0  0  0  0  0  0  0  0  0
  150.9953  135.5677  155.2022 H   0  0  0  0  0  0  0  0  0  0  0  0
  148.6515  135.0203  156.7388 H   0  0  0  0  0  0  0  0  0  0  0  0
  148.0579  135.4931  155.1711 H   0  0  0  0  0  0  0  0  0  0  0  0
  150.6244  133.1919  156.7546 H   0  0  0  0  0  0  0  0  0  0  0  0
  151.1037  130.9259  155.7966 H   0  0  0  0  0  0  0  0  0  0  0  0
  149.9664  130.2512  153.6613 H   0  0  0  0  0  0  0  0  0  0  0  0
  148.3943  131.8768  152.5762 H   0  0  0  0  0  0  0  0  0  0  0  0
  153.3938  137.5560  160.1325 H   0  0  0  0  0  0  0  0  0  0  0  0
  153.9128  137.2866  158.4680 H   0  0  0  0  0  0  0  0  0  0  0  0
  1  2  1  0  0  0  0
  1 22  1  0  0  0  0
  1 23  1  0  0  0  0
  1 24  1  0  0  0  0
  2  3  1  0  0  0  0
  2  4  1  0  0  0  0
  2 25  1  0  0  0  0
  3 26  1  0  0  0  0
  3 27  1  0  0  0  0
  3 28  1  0  0  0  0
  4  5  1  0  0  0  0
  4 29  1  0  0  0  0
  4 30  1  0  0  0  0
  5 20  1  0  0  0  0
  5  6  1  0  0  0  0
  6  7  1  0  0  0  0
  6 31  1  0  0  0  0
  6 32  1  0  0  0  0
  7  8  1  0  0  0  0
  7 19  1  0  0  0  0
  7 33  1  0  0  0  0
  8  9  2  0  0  0  0
  8 10  1  0  0  0  0
 10 11  1  0  0  0  0
 10 34  1  0  0  0  0
 11 12  1  0  0  0  0
 11 35  1  0  0  0  0
 11 36  1  0  0  0  0
 12 13  1  0  0  0  0
 12 37  1  0  0  0  0
 12 38  1  0  0  0  0
 13 18  1  0  0  0  0
 13 14  2  0  0  0  0
 14 15  1  0  0  0  0
 14 39  1  0  0  0  0
 15 16  2  0  0  0  0
 15 40  1  0  0  0  0
 16 17  1  0  0  0  0
 16 41  1  0  0  0  0
 17 18  2  0  0  0  0
 17 42  1  0  0  0  0
 19 20  1  0  0  0  0
 19 43  1  0  0  0  0
 19 44  1  0  0  0  0
 20 21  2  0  0  0  0
M  END
> <s_m_source_file>
AV-unprocessed.smi

> <i_m_source_file_index>
1915

> <i_lp_mmshare_version>
43012

> <i_f3d_flags>
0

> <s_epik_input>
W0NIM11bQ0hdKFtDSDNdKVtDSDJdTjFbQ0gyXVtDQEhdKFtDSDJdQzE9TylDKD1PKVtOSF1bQ0gyXVtDSDJdYzJbY0hdW2NIXVtjSF1bY0hdbjI=

> <s_epik_cmdline>
J2VwaWtfcHl0aG9uJywgJy1waCcsICc3LjAnLCAnLXRuJywgJzgnLCAnLW1hJywgJzIwMCcsICctbWV0YWxfYmluZGluZycsICctaW1hZScsICc8aW5maWxlLm1hZT4nLCAnLW9tYWUnLCAnPG91dGZpbGUubWFlPic=

> <r_epik_Ionization_Penalty>
0.0252359

> <r_epik_Ionization_Penalty_Charging>
0

> <r_epik_Ionization_Penalty_Neutral>
0.0252359

> <r_epik_State_Penalty>
0.020532

> <r_epik_Charging_Adjusted_Penalty>
0.020532

> <i_epik_Tot_Q>
0

> <i_epik_Tot_abs_Q>
0

> <r_epik_Metal_State_Penalty>
0.0196901

> <b_epik_Metal_Only>
0

> <s_lp_Force_Field>
OPLS_2005

> <r_lp_Energy>
14.3845

> <b_lp_Chiralities_Consistent>
1

> <s_lp_Variant>
AV-unprocessed.smi:1915-1

> <Gold.Version>
5.8.1

> <Gold.Id.Protein>
6NUR|6NUR_protein|mol2

> <Gold.PLP.Fitness>
42.4589

> <Gold.PLP.PLP>
-35.8727

> <Gold.PLP.part.hbond>
-2.0000

> <Gold.PLP.part.metal>
0.0000

> <Gold.PLP.part.buried>
-4.7130

> <Gold.PLP.part.nonpolar>
-28.6932

> <Gold.PLP.part.repulsive>
0.2017

> <Gold.PLP.ligand.clash>
0.0000

> <Gold.PLP.ligand.torsion>
1.2479

> <Gold.PLP.Chemscore.Hbond>
2.0000

> <Gold.PLP.Chemscore.CHOScore>
1.0000

> <Gold.PLP.Chemscore.Metal>
0.0000

> <Gold.Chemscore.Hbonds>
donor molecule, donor type, donor heavy atom, donor atom, acceptor molecule, acceptor atom, score
      P1  H  7997  8008       L1    21  1.00
      P1  H 10752 10763       L1     9  1.00
      L1  C    17    42       P1 10747  0.91

> <Gold.PLP.Chemscore.Internal.Correction>
0.0819

> <Gold.Rescore>
     Score         DG    S(hbond)    S(metal)    S(lipo)     H(rot)  DE(clash)    DE(int)     intcor
     15.36     -17.50       1.94        0.00      85.46       1.75       0.02       2.12       ----

> <Gold.Chemscore.Fitness>
15.3622

> <Gold.Chemscore.DG>
-17.5017

> <Gold.Chemscore.ZeroCoef>
-5.4800

> <Gold.Chemscore.Hbond>
1.9435

> <Gold.Chemscore.Metal>
0.0000

> <Gold.Chemscore.Lipo>
85.4624

> <Gold.Chemscore.Internal_Hbond>
0.0000

> <Gold.Chemscore.DEClash>
0.0174

> <Gold.Chemscore.DEInternal>
2.1221

> <Gold.Chemscore.Rot>
1.7456

> <Gold.Chemscore.Internal.Correction>
   9.000000E+99

> <Gold.Chemscore.Hbonds>
donor molecule, donor type, donor heavy atom, donor atom, acceptor molecule, acceptor atom, score
      P1  H  7997  8008       L1    21  0.54
      P1  H 10752 10763       L1     9  0.95

> <Gold.Chemscore.Hbond.Weighted>
-6.4914

> <Gold.Chemscore.Metal.Weighted>
-0.0000

> <Gold.Chemscore.Lipo.Weighted>
-9.9991

> <Gold.Chemscore.Internal_Hbond.Weighted>
0.0000

> <Gold.Chemscore.DEClash.Weighted>
0.0174

> <Gold.Chemscore.DEInternal.Weighted>
2.1221

> <Gold.Chemscore.Rot.Weighted>
4.4688

> <Gold.Chemscore.Internal.Correction.Weighted>
   9.000000E+99

> <Gold.Protein.RotatedTorsions>
[ 6907 6896 6895 6894 ] final  175.38 input  -60.11 | X-H torsion
[ 7974 7965 7964 7962 ] final  -23.77 input  175.53 | X-H torsion
[ 8008 7997 7996 7995 ] final -121.18 input   59.86 | X-H torsion
[ 10167 10162 10161 10158 ] final  -21.04 input  -65.29 | X-H torsion
[ 10718 10713 10712 10709 ] final  170.28 input   66.30 | X-H torsion
[ 10763 10752 10751 10750 ] final  106.80 input  -60.55 | X-H torsion
[ 11005 11000 10999 10996 ] final  -37.70 input  -57.11 | X-H torsion

> <Gold.Protein.ActiveResidues>
 VAL166  LYS551  ARG553  GLY616  TRP617  ASP618  TYR619  PRO620  LYS621  CYS622 
 ASP623  PHE694  ASN695  SER759  ASP760  ASP761  ALA762  ILE779  LEU786  VAL792 
 PHE793  MET794  SER795  GLU796  ALA797  LYS798  CYS799  TRP800  GLU811  SER814 

> <Gold.Protein.RotatedAtoms>
  151.7372  133.3320  159.3355 H   0  0  0  0  0  0  0  0  0  0  0  0  # atno 6907 bound_to 6896
  150.7588  134.6311  159.6196 H   0  0  0  0  0  0  0  0  0  0  0  0  # atno 6908 bound_to 6896
  152.3554  134.6949  160.0275 H   0  0  0  0  0  0  0  0  0  0  0  0  # atno 6909 bound_to 6896
  146.1596  140.4660  142.8577 H   0  0  0  0  0  0  0  0  0  0  0  0  # atno 7974 bound_to 7965
  155.1439  140.0402  157.2805 H   0  0  0  0  0  0  0  0  0  0  0  0  # atno 8008 bound_to 7997
  154.6453  140.2556  155.7248 H   0  0  0  0  0  0  0  0  0  0  0  0  # atno 8009 bound_to 7997
  156.2552  140.2847  156.0864 H   0  0  0  0  0  0  0  0  0  0  0  0  # atno 8010 bound_to 7997
  140.7280  143.4665  151.0306 H   0  0  0  0  0  0  0  0  0  0  0  0  # atno 10167 bound_to 10162
  157.0104  131.0202  151.2805 H   0  0  0  0  0  0  0  0  0  0  0  0  # atno 10718 bound_to 10713
  153.3980  135.3865  155.1968 H   0  0  0  0  0  0  0  0  0  0  0  0  # atno 10763 bound_to 10752
  154.8726  135.3764  154.4654 H   0  0  0  0  0  0  0  0  0  0  0  0  # atno 10764 bound_to 10752
  153.5148  135.7087  153.5823 H   0  0  0  0  0  0  0  0  0  0  0  0  # atno 10765 bound_to 10752
  140.9972  133.6974  156.1956 H   0  0  0  0  0  0  0  0  0  0  0  0  # atno 11005 bound_to 11000
  144.8009  140.6211  143.6479 LP  0  0  0  0  0  0  0  0  0  0  0  0  # atno 17320 bound_to 7965
  145.4622  139.1511  143.3860 LP  0  0  0  0  0  0  0  0  0  0  0  0  # atno 17321 bound_to 7965
  139.8354  143.7635  152.3180 LP  0  0  0  0  0  0  0  0  0  0  0  0  # atno 17342 bound_to 10162
  139.7765  144.7459  151.0149 LP  0  0  0  0  0  0  0  0  0  0  0  0  # atno 17343 bound_to 10162
  157.5325  130.8067  149.7933 LP  0  0  0  0  0  0  0  0  0  0  0  0  # atno 17370 bound_to 10713
  156.0138  130.3822  150.2176 LP  0  0  0  0  0  0  0  0  0  0  0  0  # atno 17371 bound_to 10713
  140.6947  134.4628  157.5588 LP  0  0  0  0  0  0  0  0  0  0  0  0  # atno 17394 bound_to 11000
  139.9020  134.8533  156.1855 LP  0  0  0  0  0  0  0  0  0  0  0  0  # atno 17395 bound_to 11000

$$$$
