AV-unprocessed.smi:13|AV-procd|sdf|73|dock3
  -GOLD-   2262015193D 1   1.00000     0.00000
 Structure written by MMmdl.
 54 58  0  0  0  0  0  0  0  0  1 V2000
  149.8693  140.1186  156.4891 C   0  0  0  0  0  0  0  0  0  0  0  0
  149.9839  138.9700  155.4772 C   0  0  0  0  0  0  0  0  0  0  0  0
  151.4327  138.9597  154.9903 C   0  0  0  0  0  0  0  0  0  0  0  0
  149.4365  137.6205  155.9672 C   0  0  0  0  0  0  0  0  0  0  0  0
  148.2110  137.9370  155.2553 N   0  0  0  0  0  0  0  0  0  0  0  0
  147.5661  136.8065  154.6729 C   0  0  0  0  0  0  0  0  0  0  0  0
  147.9704  135.5449  154.9800 N   0  0  0  0  0  0  0  0  0  0  0  0
  147.3872  134.4771  154.4294 C   0  0  0  0  0  0  0  0  0  0  0  0
  146.3874  134.4363  153.5488 N   0  0  0  0  0  0  0  0  0  0  0  0
  145.9718  135.6931  153.2241 C   0  0  0  0  0  0  0  0  0  0  0  0
  146.5035  136.9138  153.7300 C   0  0  0  0  0  0  0  0  0  0  0  0
  145.8355  137.9897  153.1576 N   0  0  0  0  0  0  0  0  0  0  0  0
  144.9575  137.4379  152.3657 C   0  0  0  0  0  0  0  0  0  0  0  0
  144.9635  136.0616  152.3501 N   0  0  0  0  0  0  0  0  0  0  0  0
  144.1006  135.1955  151.5605 C   0  0  0  0  0  0  0  0  0  0  0  0
  144.8272  134.4919  150.3887 C   0  0  1  0  0  0  0  0  0  0  0  0
  145.1569  135.4597  149.4088 O   0  0  0  0  0  0  0  0  0  0  0  0
  146.1065  133.7827  150.8387 C   0  0  0  0  0  0  0  0  0  0  0  0
  145.7462  132.3045  150.7496 C   0  0  0  0  0  0  0  0  0  0  0  0
  144.8919  132.2633  149.6208 O   0  0  0  0  0  0  0  0  0  0  0  0
  144.0032  133.3656  149.7313 C   0  0  0  0  0  0  0  0  0  0  0  0
  148.9050  138.8685  154.3722 C   0  0  1  0  0  0  0  0  0  0  0  0
  148.0384  140.0716  153.9810 C   0  0  1  0  0  0  0  0  0  0  0  0
  147.1352  140.5784  155.1089 C   0  0  0  0  0  0  0  0  0  0  0  0
  146.9995  142.0711  154.8409 C   0  0  0  0  0  0  0  0  0  0  0  0
  147.9837  142.3376  153.7020 C   0  0  0  0  0  0  0  0  0  0  0  0
  148.8422  141.2092  153.7108 O   0  0  0  0  0  0  0  0  0  0  0  0
  150.4916  139.9368  157.3655 H   0  0  0  0  0  0  0  0  0  0  0  0
  148.8466  140.2427  156.8465 H   0  0  0  0  0  0  0  0  0  0  0  0
  150.1829  141.0710  156.0624 H   0  0  0  0  0  0  0  0  0  0  0  0
  151.6103  138.1500  154.2822 H   0  0  0  0  0  0  0  0  0  0  0  0
  152.1324  138.8242  155.8157 H   0  0  0  0  0  0  0  0  0  0  0  0
  151.6913  139.8910  154.4852 H   0  0  0  0  0  0  0  0  0  0  0  0
  149.9619  136.7594  155.5491 H   0  0  0  0  0  0  0  0  0  0  0  0
  149.3111  137.5444  157.0476 H   0  0  0  0  0  0  0  0  0  0  0  0
  147.7793  133.5195  154.7387 H   0  0  0  0  0  0  0  0  0  0  0  0
  144.2745  138.0244  151.7684 H   0  0  0  0  0  0  0  0  0  0  0  0
  143.6581  134.4563  152.2298 H   0  0  0  0  0  0  0  0  0  0  0  0
  143.2721  135.7941  151.1795 H   0  0  0  0  0  0  0  0  0  0  0  0
  145.8381  135.1053  148.8576 H   0  0  0  0  0  0  0  0  0  0  0  0
  146.9314  133.9880  150.1540 H   0  0  0  0  0  0  0  0  0  0  0  0
  146.4348  134.0698  151.8382 H   0  0  0  0  0  0  0  0  0  0  0  0
  146.6184  131.6636  150.6208 H   0  0  0  0  0  0  0  0  0  0  0  0
  145.2025  131.9778  151.6377 H   0  0  0  0  0  0  0  0  0  0  0  0
  143.1780  133.0541  150.3718 H   0  0  0  0  0  0  0  0  0  0  0  0
  143.5826  133.6384  148.7625 H   0  0  0  0  0  0  0  0  0  0  0  0
  149.3211  138.3515  153.5049 H   0  0  0  0  0  0  0  0  0  0  0  0
  147.4331  139.8546  153.0988 H   0  0  0  0  0  0  0  0  0  0  0  0
  146.1704  140.0725  155.1298 H   0  0  0  0  0  0  0  0  0  0  0  0
  147.6137  140.4240  156.0769 H   0  0  0  0  0  0  0  0  0  0  0  0
  145.9841  142.3487  154.5569 H   0  0  0  0  0  0  0  0  0  0  0  0
  147.2678  142.6408  155.7311 H   0  0  0  0  0  0  0  0  0  0  0  0
  147.4629  142.3849  152.7442 H   0  0  0  0  0  0  0  0  0  0  0  0
  148.5417  143.2646  153.8351 H   0  0  0  0  0  0  0  0  0  0  0  0
  1  2  1  0  0  0  0
  1 28  1  0  0  0  0
  1 29  1  0  0  0  0
  1 30  1  0  0  0  0
  2 22  1  0  0  0  0
  2  3  1  0  0  0  0
  2  4  1  0  0  0  0
  3 31  1  0  0  0  0
  3 32  1  0  0  0  0
  3 33  1  0  0  0  0
  4  5  1  0  0  0  0
  4 34  1  0  0  0  0
  4 35  1  0  0  0  0
  5  6  1  0  0  0  0
  5 22  1  0  0  0  0
  6 11  1  0  0  0  0
  6  7  2  0  0  0  0
  7  8  1  0  0  0  0
  8  9  2  0  0  0  0
  8 36  1  0  0  0  0
  9 10  1  0  0  0  0
 10 14  1  0  0  0  0
 10 11  2  0  0  0  0
 11 12  1  0  0  0  0
 12 13  2  0  0  0  0
 13 14  1  0  0  0  0
 13 37  1  0  0  0  0
 14 15  1  0  0  0  0
 15 16  1  0  0  0  0
 15 38  1  0  0  0  0
 15 39  1  0  0  0  0
 16 21  1  0  0  0  0
 16 17  1  0  0  0  0
 16 18  1  0  0  0  0
 17 40  1  0  0  0  0
 18 19  1  0  0  0  0
 18 41  1  0  0  0  0
 18 42  1  0  0  0  0
 19 20  1  0  0  0  0
 19 43  1  0  0  0  0
 19 44  1  0  0  0  0
 20 21  1  0  0  0  0
 21 45  1  0  0  0  0
 21 46  1  0  0  0  0
 22 23  1  0  0  0  0
 22 47  1  0  0  0  0
 23 27  1  0  0  0  0
 23 24  1  0  0  0  0
 23 48  1  0  0  0  0
 24 25  1  0  0  0  0
 24 49  1  0  0  0  0
 24 50  1  0  0  0  0
 25 26  1  0  0  0  0
 25 51  1  0  0  0  0
 25 52  1  0  0  0  0
 26 27  1  0  0  0  0
 26 53  1  0  0  0  0
 26 54  1  0  0  0  0
M  END
> <s_m_source_file>
AV-unprocessed.smi

> <i_m_source_file_index>
13

> <i_lp_mmshare_version>
43012

> <i_f3d_flags>
0

> <s_epik_input>
TzFbQ0gyXVtDSDJdW0NIMl1bQ0BIXTFbQ0BASF0yTihbQ0gyXUMyKFtDSDNdKVtDSDNdKWMobltjSF1uMyljKGMzNCluW2NIXW40W0NIMl1bQ0BAXTUoW09IXSlbQ0gyXVtDSDJdT1tDSDJdNQ==

> <s_epik_cmdline>
J2VwaWtfcHl0aG9uJywgJy1waCcsICc3LjAnLCAnLXRuJywgJzgnLCAnLW1hJywgJzIwMCcsICctbWV0YWxfYmluZGluZycsICctaW1hZScsICc8aW5maWxlLm1hZT4nLCAnLW9tYWUnLCAnPG91dGZpbGUubWFlPic=

> <r_lp_tautomer_probability>
1

> <r_epik_Ionization_Penalty>
0.00202764

> <r_epik_Ionization_Penalty_Charging>
0

> <r_epik_Ionization_Penalty_Neutral>
0.00202764

> <r_epik_State_Penalty>
0.00134017

> <r_epik_Charging_Adjusted_Penalty>
0.00134017

> <i_epik_Tot_Q>
0

> <i_epik_Tot_abs_Q>
0

> <r_epik_Metal_State_Penalty>
-0

> <b_epik_Metal_Only>
0

> <s_lp_Force_Field>
OPLS_2005

> <r_lp_Energy>
61.4884

> <b_lp_Chiralities_Consistent>
1

> <s_lp_Variant>
AV-unprocessed.smi:13-5

> <Gold.Version>
5.8.1

> <Gold.Id.Protein>
6NUR|6NUR_protein|mol2

> <Gold.PLP.Fitness>
38.9598

> <Gold.PLP.PLP>
-31.8230

> <Gold.PLP.part.hbond>
-1.3610

> <Gold.PLP.part.metal>
0.0000

> <Gold.PLP.part.buried>
-4.4323

> <Gold.PLP.part.nonpolar>
-26.4579

> <Gold.PLP.part.repulsive>
0.9451

> <Gold.PLP.ligand.clash>
0.0000

> <Gold.PLP.ligand.torsion>
0.6418

> <Gold.PLP.Chemscore.Hbond>
1.1822

> <Gold.PLP.Chemscore.CHOScore>
1.4788

> <Gold.PLP.Chemscore.Metal>
0.0000

> <Gold.Chemscore.Hbonds>
donor molecule, donor type, donor heavy atom, donor atom, acceptor molecule, acceptor atom, score
      L1  H    17    40       P1  7921  0.34
      L1  C    13    37       P1 10171  1.00
      L1  C    13    37       P1 10175  0.73

> <Gold.PLP.Chemscore.Internal.Correction>
0.4375

> <Gold.Rescore>
     Score         DG    S(hbond)    S(metal)    S(lipo)     H(rot)  DE(clash)    DE(int)     intcor
     10.19     -12.21       0.99        0.00      79.48       2.30       0.12       1.91       ----

> <Gold.Chemscore.Fitness>
10.1861

> <Gold.Chemscore.DG>
-12.2118

> <Gold.Chemscore.ZeroCoef>
-5.4800

> <Gold.Chemscore.Hbond>
0.9939

> <Gold.Chemscore.Metal>
0.0000

> <Gold.Chemscore.Lipo>
79.4804

> <Gold.Chemscore.Internal_Hbond>
0.0000

> <Gold.Chemscore.DEClash>
0.1196

> <Gold.Chemscore.DEInternal>
1.9061

> <Gold.Chemscore.Rot>
2.2996

> <Gold.Chemscore.Internal.Correction>
   9.000000E+99

> <Gold.Chemscore.Hbonds>
donor molecule, donor type, donor heavy atom, donor atom, acceptor molecule, acceptor atom, score
      L1  H    17    40       P1  7921  0.34

> <Gold.Chemscore.Hbond.Weighted>
-3.3195

> <Gold.Chemscore.Metal.Weighted>
-0.0000

> <Gold.Chemscore.Lipo.Weighted>
-9.2992

> <Gold.Chemscore.Internal_Hbond.Weighted>
0.0000

> <Gold.Chemscore.DEClash.Weighted>
0.1196

> <Gold.Chemscore.DEInternal.Weighted>
1.9061

> <Gold.Chemscore.Rot.Weighted>
5.8869

> <Gold.Chemscore.Internal.Correction.Weighted>
   9.000000E+99

> <Gold.Protein.RotatedTorsions>
[ 6907 6896 6895 6894 ] final -129.01 input  -60.11 | X-H torsion
[ 7974 7965 7964 7962 ] final  138.41 input  175.53 | X-H torsion
[ 8008 7997 7996 7995 ] final  -49.88 input   59.86 | X-H torsion
[ 10167 10162 10161 10158 ] final   32.41 input  -65.29 | X-H torsion
[ 10718 10713 10712 10709 ] final  -81.43 input   66.30 | X-H torsion
[ 10763 10752 10751 10750 ] final -140.36 input  -60.55 | X-H torsion
[ 11005 11000 10999 10996 ] final -166.37 input  -57.11 | X-H torsion

> <Gold.Protein.ActiveResidues>
 VAL166  LYS551  ARG553  GLY616  TRP617  ASP618  TYR619  PRO620  LYS621  CYS622 
 ASP623  PHE694  ASN695  SER759  ASP760  ASP761  ALA762  ILE779  LEU786  VAL792 
 PHE793  MET794  SER795  GLU796  ALA797  LYS798  CYS799  TRP800  GLU811  SER814 

> <Gold.Protein.RotatedAtoms>
  150.9241  133.6845  159.2825 H   0  0  0  0  0  0  0  0  0  0  0  0  # atno 6907 bound_to 6896
  151.4290  135.1006  159.9646 H   0  0  0  0  0  0  0  0  0  0  0  0  # atno 6908 bound_to 6896
  152.4994  133.8675  159.7336 H   0  0  0  0  0  0  0  0  0  0  0  0  # atno 6909 bound_to 6896
  144.9375  139.4971  143.5588 H   0  0  0  0  0  0  0  0  0  0  0  0  # atno 7974 bound_to 7965
  154.4052  140.1286  156.4575 H   0  0  0  0  0  0  0  0  0  0  0  0  # atno 8008 bound_to 7997
  155.7306  140.3491  155.5038 H   0  0  0  0  0  0  0  0  0  0  0  0  # atno 8009 bound_to 7997
  155.9131  140.1039  157.1254 H   0  0  0  0  0  0  0  0  0  0  0  0  # atno 8010 bound_to 7997
  140.4500  144.1061  150.6190 H   0  0  0  0  0  0  0  0  0  0  0  0  # atno 10167 bound_to 10162
  156.0050  130.4604  150.3952 H   0  0  0  0  0  0  0  0  0  0  0  0  # atno 10718 bound_to 10713
  154.8581  135.3555  154.5695 H   0  0  0  0  0  0  0  0  0  0  0  0  # atno 10763 bound_to 10752
  153.6309  135.7002  153.5281 H   0  0  0  0  0  0  0  0  0  0  0  0  # atno 10764 bound_to 10752
  153.3051  135.4195  155.1246 H   0  0  0  0  0  0  0  0  0  0  0  0  # atno 10765 bound_to 10752
  140.5653  134.5292  157.5151 H   0  0  0  0  0  0  0  0  0  0  0  0  # atno 11005 bound_to 11000
  146.3272  139.8371  142.8897 LP  0  0  0  0  0  0  0  0  0  0  0  0  # atno 17320 bound_to 7965
  145.3043  141.0203  143.3591 LP  0  0  0  0  0  0  0  0  0  0  0  0  # atno 17321 bound_to 7965
  140.4218  143.2608  151.9706 LP  0  0  0  0  0  0  0  0  0  0  0  0  # atno 17342 bound_to 10162
  139.4796  144.5824  151.7910 LP  0  0  0  0  0  0  0  0  0  0  0  0  # atno 17343 bound_to 10162
  157.2024  131.0441  151.2643 LP  0  0  0  0  0  0  0  0  0  0  0  0  # atno 17370 bound_to 10713
  157.3963  130.7309  149.6734 LP  0  0  0  0  0  0  0  0  0  0  0  0  # atno 17371 bound_to 10713
  139.9388  134.7825  156.0733 LP  0  0  0  0  0  0  0  0  0  0  0  0  # atno 17394 bound_to 11000
  141.1090  133.6650  156.2932 LP  0  0  0  0  0  0  0  0  0  0  0  0  # atno 17395 bound_to 11000

$$$$
