AV-unprocessed.smi:148|AV-procd|sdf|1220|dock2
  -GOLD-   2262018413D 1   1.00000     0.00000
 Structure written by MMmdl.
 63 67  0  0  0  0  0  0  0  0  1 V2000
  148.1238  141.7247  157.2109 O   0  0  0  0  0  0  0  0  0  0  0  0
  149.1581  141.6164  158.1667 C   0  0  0  0  0  0  0  0  0  0  0  0
  150.5450  141.8770  157.5304 C   0  0  2  0  0  0  0  0  0  0  0  0
  151.1740  140.5745  156.9695 C   0  0  0  0  0  0  0  0  0  0  0  0
  150.2748  139.4362  157.0374 N   0  0  0  0  0  0  0  0  0  0  0  0
  149.2541  139.1451  156.1605 C   0  0  0  0  0  0  0  0  0  0  0  0
  148.5851  138.0564  156.4265 N   0  0  0  0  0  0  0  0  0  0  0  0
  149.1914  137.5619  157.5741 C   0  0  0  0  0  0  0  0  0  0  0  0
  148.9663  136.4267  158.3966 C   0  0  0  0  0  0  0  0  0  0  0  0
  147.9960  135.5236  158.1172 N   0  0  0  0  0  0  0  0  0  0  0  0
  148.2072  135.0172  156.7592 C   0  0  0  0  0  0  0  0  0  0  0  0
  147.0359  134.1501  156.2834 C   0  0  0  0  0  0  0  0  0  0  0  0
  146.7802  133.0169  157.2798 C   0  0  0  0  0  0  0  0  0  0  0  0
  146.5202  133.6091  158.6697 C   0  0  0  0  0  0  0  0  0  0  0  0
  147.6922  134.5088  159.1465 C   0  0  2  0  0  0  0  0  0  0  0  0
  147.4467  135.1187  160.5669 C   0  0  2  0  0  0  0  0  0  0  0  0
  147.2710  134.0807  161.6921 C   0  0  0  0  0  0  0  0  0  0  0  0
  146.3773  134.7366  162.7578 C   0  0  0  0  0  0  0  0  0  0  0  0
  146.0735  136.1501  162.2532 C   0  0  0  0  0  0  0  0  0  0  0  0
  146.2414  136.0605  160.7370 C   0  0  1  0  0  0  0  0  0  0  0  0
  146.4575  137.3398  160.1791 O   0  0  0  0  0  0  0  0  0  0  0  0
  149.7895  136.2436  159.4638 N   0  0  0  0  0  0  0  0  0  0  0  0
  150.7558  137.1300  159.7221 C   0  0  0  0  0  0  0  0  0  0  0  0
  151.0739  138.2389  159.0501 N   0  0  0  0  0  0  0  0  0  0  0  0
  150.2588  138.4142  157.9704 C   0  0  0  0  0  0  0  0  0  0  0  0
  151.4824  142.6508  158.4999 C   0  0  1  0  0  0  0  0  0  0  0  0
  151.1153  144.1034  158.8040 C   0  0  0  0  0  0  0  0  0  0  0  0
  151.4274  144.2639  160.2948 C   0  0  0  0  0  0  0  0  0  0  0  0
  152.2002  143.1221  160.6351 O   0  0  0  0  0  0  0  0  0  0  0  0
  151.6801  142.0357  159.8883 C   0  0  0  0  0  0  0  0  0  0  0  0
  148.1429  142.5958  156.8448 H   0  0  0  0  0  0  0  0  0  0  0  0
  148.9688  142.3114  158.9851 H   0  0  0  0  0  0  0  0  0  0  0  0
  149.0964  140.6120  158.5839 H   0  0  0  0  0  0  0  0  0  0  0  0
  150.3789  142.5334  156.6745 H   0  0  0  0  0  0  0  0  0  0  0  0
  151.4570  140.6905  155.9249 H   0  0  0  0  0  0  0  0  0  0  0  0
  152.0867  140.3189  157.5068 H   0  0  0  0  0  0  0  0  0  0  0  0
  149.0206  139.7706  155.3110 H   0  0  0  0  0  0  0  0  0  0  0  0
  148.3408  135.8478  156.0643 H   0  0  0  0  0  0  0  0  0  0  0  0
  149.1289  134.4335  156.7342 H   0  0  0  0  0  0  0  0  0  0  0  0
  146.1401  134.7643  156.1819 H   0  0  0  0  0  0  0  0  0  0  0  0
  147.2492  133.7424  155.2950 H   0  0  0  0  0  0  0  0  0  0  0  0
  145.9266  132.4196  156.9587 H   0  0  0  0  0  0  0  0  0  0  0  0
  147.6400  132.3465  157.3143 H   0  0  0  0  0  0  0  0  0  0  0  0
  145.5961  134.1838  158.6184 H   0  0  0  0  0  0  0  0  0  0  0  0
  146.3384  132.7945  159.3686 H   0  0  0  0  0  0  0  0  0  0  0  0
  148.5742  133.8705  159.2195 H   0  0  0  0  0  0  0  0  0  0  0  0
  148.3262  135.6881  160.8676 H   0  0  0  0  0  0  0  0  0  0  0  0
  146.7950  133.1668  161.3408 H   0  0  0  0  0  0  0  0  0  0  0  0
  148.2377  133.7902  162.1053 H   0  0  0  0  0  0  0  0  0  0  0  0
  145.4503  134.1705  162.8574 H   0  0  0  0  0  0  0  0  0  0  0  0
  146.8540  134.7556  163.7382 H   0  0  0  0  0  0  0  0  0  0  0  0
  145.0827  136.4978  162.5474 H   0  0  0  0  0  0  0  0  0  0  0  0
  146.8051  136.8445  162.6703 H   0  0  0  0  0  0  0  0  0  0  0  0
  145.3348  135.6307  160.3137 H   0  0  0  0  0  0  0  0  0  0  0  0
  145.9267  137.4227  159.4019 H   0  0  0  0  0  0  0  0  0  0  0  0
  151.3618  136.9194  160.5911 H   0  0  0  0  0  0  0  0  0  0  0  0
  152.4793  142.6710  158.0573 H   0  0  0  0  0  0  0  0  0  0  0  0
  151.7211  144.7795  158.1996 H   0  0  0  0  0  0  0  0  0  0  0  0
  150.0711  144.3409  158.6071 H   0  0  0  0  0  0  0  0  0  0  0  0
  151.9646  145.1866  160.5149 H   0  0  0  0  0  0  0  0  0  0  0  0
  150.5067  144.2582  160.8799 H   0  0  0  0  0  0  0  0  0  0  0  0
  150.7480  141.7112  160.3488 H   0  0  0  0  0  0  0  0  0  0  0  0
  152.3688  141.1908  159.8781 H   0  0  0  0  0  0  0  0  0  0  0  0
  1  2  1  0  0  0  0
  1 31  1  0  0  0  0
  2  3  1  0  0  0  0
  2 32  1  0  0  0  0
  2 33  1  0  0  0  0
  3  4  1  0  0  0  0
  3 26  1  0  0  0  0
  3 34  1  0  0  0  0
  4  5  1  0  0  0  0
  4 35  1  0  0  0  0
  4 36  1  0  0  0  0
  5 25  1  0  0  0  0
  5  6  1  0  0  0  0
  6  7  2  0  0  0  0
  6 37  1  0  0  0  0
  7  8  1  0  0  0  0
  8 25  2  0  0  0  0
  8  9  1  0  0  0  0
  9 10  1  0  0  0  0
  9 22  2  0  0  0  0
 10 15  1  0  0  0  0
 10 11  1  0  0  0  0
 11 12  1  0  0  0  0
 11 38  1  0  0  0  0
 11 39  1  0  0  0  0
 12 13  1  0  0  0  0
 12 40  1  0  0  0  0
 12 41  1  0  0  0  0
 13 14  1  0  0  0  0
 13 42  1  0  0  0  0
 13 43  1  0  0  0  0
 14 15  1  0  0  0  0
 14 44  1  0  0  0  0
 14 45  1  0  0  0  0
 15 16  1  0  0  0  0
 15 46  1  0  0  0  0
 16 20  1  0  0  0  0
 16 17  1  0  0  0  0
 16 47  1  0  0  0  0
 17 18  1  0  0  0  0
 17 48  1  0  0  0  0
 17 49  1  0  0  0  0
 18 19  1  0  0  0  0
 18 50  1  0  0  0  0
 18 51  1  0  0  0  0
 19 20  1  0  0  0  0
 19 52  1  0  0  0  0
 19 53  1  0  0  0  0
 20 21  1  0  0  0  0
 20 54  1  0  0  0  0
 21 55  1  0  0  0  0
 22 23  1  0  0  0  0
 23 24  2  0  0  0  0
 23 56  1  0  0  0  0
 24 25  1  0  0  0  0
 26 30  1  0  0  0  0
 26 27  1  0  0  0  0
 26 57  1  0  0  0  0
 27 28  1  0  0  0  0
 27 58  1  0  0  0  0
 27 59  1  0  0  0  0
 28 29  1  0  0  0  0
 28 60  1  0  0  0  0
 28 61  1  0  0  0  0
 29 30  1  0  0  0  0
 30 62  1  0  0  0  0
 30 63  1  0  0  0  0
M  END
> <s_m_source_file>
AV-unprocessed.smi

> <i_m_source_file_index>
148

> <i_lp_mmshare_version>
43012

> <i_f3d_flags>
0

> <s_epik_input>
W0NIMl0xT1tDSDJdW0NIMl1bQ0BIXTFbQ0BIXShbQ0gyXVtPSF0pW0NIMl1uKFtjSF1uMiljKGMyMyluW2NIXW5jM040W0NIMl1bQ0gyXVtDSDJdW0NIMl1bQ0BIXTRbQ0BASF01W0NIMl1bQ0gyXVtDSDJdW0NASF01W09IXQ==

> <s_epik_cmdline>
J2VwaWtfcHl0aG9uJywgJy1waCcsICc3LjAnLCAnLXRuJywgJzgnLCAnLW1hJywgJzIwMCcsICctbWV0YWxfYmluZGluZycsICctaW1hZScsICc8aW5maWxlLm1hZT4nLCAnLW9tYWUnLCAnPG91dGZpbGUubWFlPic=

> <r_lp_tautomer_probability>
1

> <r_epik_Ionization_Penalty>
0.00556303

> <r_epik_Ionization_Penalty_Charging>
0

> <r_epik_Ionization_Penalty_Neutral>
0.00556303

> <r_epik_State_Penalty>
0.00401767

> <r_epik_Charging_Adjusted_Penalty>
0.00401767

> <i_epik_Tot_Q>
0

> <i_epik_Tot_abs_Q>
0

> <r_epik_Metal_State_Penalty>
-0

> <b_epik_Metal_Only>
0

> <s_lp_Force_Field>
OPLS_2005

> <r_lp_Energy>
68.7494

> <b_lp_Chiralities_Consistent>
1

> <s_lp_Variant>
AV-unprocessed.smi:148-19

> <Gold.Version>
5.8.1

> <Gold.Id.Protein>
6NUR|6NUR_protein|mol2

> <Gold.PLP.Fitness>
49.6964

> <Gold.PLP.PLP>
-43.3907

> <Gold.PLP.part.hbond>
-2.8245

> <Gold.PLP.part.metal>
0.0000

> <Gold.PLP.part.buried>
-8.0260

> <Gold.PLP.part.nonpolar>
-33.4046

> <Gold.PLP.part.repulsive>
0.0114

> <Gold.PLP.ligand.clash>
0.0000

> <Gold.PLP.ligand.torsion>
1.6758

> <Gold.PLP.Chemscore.Hbond>
3.0000

> <Gold.PLP.Chemscore.CHOScore>
0.0000

> <Gold.PLP.Chemscore.Metal>
0.0000

> <Gold.Chemscore.Hbonds>
donor molecule, donor type, donor heavy atom, donor atom, acceptor molecule, acceptor atom, score
      P1  H  6896  6907       L1    22  0.70
      P1  H  6934  6947       L1    21  1.00

> <Gold.PLP.Chemscore.Internal.Correction>
0.6573

> <Gold.Rescore>
     Score         DG    S(hbond)    S(metal)    S(lipo)     H(rot)  DE(clash)    DE(int)     intcor
     14.74     -18.01       2.71        0.00     102.43       3.32       0.00       3.26       ----

> <Gold.Chemscore.Fitness>
14.7437

> <Gold.Chemscore.DG>
-18.0064

> <Gold.Chemscore.ZeroCoef>
-5.4800

> <Gold.Chemscore.Hbond>
2.7073

> <Gold.Chemscore.Metal>
0.0000

> <Gold.Chemscore.Lipo>
102.4281

> <Gold.Chemscore.Internal_Hbond>
0.0000

> <Gold.Chemscore.DEClash>
0.0029

> <Gold.Chemscore.DEInternal>
3.2598

> <Gold.Chemscore.Rot>
3.3203

> <Gold.Chemscore.Internal.Correction>
   9.000000E+99

> <Gold.Chemscore.Hbonds>
donor molecule, donor type, donor heavy atom, donor atom, acceptor molecule, acceptor atom, score
      P1  H  6896  6907       L1    22  0.07
      P1  H  6934  6947       L1    21  0.89

> <Gold.Chemscore.Hbond.Weighted>
-9.0423

> <Gold.Chemscore.Metal.Weighted>
-0.0000

> <Gold.Chemscore.Lipo.Weighted>
-11.9841

> <Gold.Chemscore.Internal_Hbond.Weighted>
0.0000

> <Gold.Chemscore.DEClash.Weighted>
0.0029

> <Gold.Chemscore.DEInternal.Weighted>
3.2598

> <Gold.Chemscore.Rot.Weighted>
8.5000

> <Gold.Chemscore.Internal.Correction.Weighted>
   9.000000E+99

> <Gold.Protein.RotatedTorsions>
[ 6907 6896 6895 6894 ] final  -50.36 input  -60.11 | X-H torsion
[ 7974 7965 7964 7962 ] final -123.85 input  175.53 | X-H torsion
[ 8008 7997 7996 7995 ] final  174.34 input   59.86 | X-H torsion
[ 10167 10162 10161 10158 ] final   72.75 input  -65.29 | X-H torsion
[ 10718 10713 10712 10709 ] final   96.49 input   66.30 | X-H torsion
[ 10763 10752 10751 10750 ] final   99.42 input  -60.55 | X-H torsion
[ 11005 11000 10999 10996 ] final    1.70 input  -57.11 | X-H torsion

> <Gold.Protein.ActiveResidues>
 VAL166  LYS551  ARG553  GLY616  TRP617  ASP618  TYR619  PRO620  LYS621  CYS622 
 ASP623  PHE694  ASN695  SER759  ASP760  ASP761  ALA762  ILE779  LEU786  VAL792 
 PHE793  MET794  SER795  GLU796  ALA797  LYS798  CYS799  TRP800  GLU811  SER814 

> <Gold.Protein.RotatedAtoms>
  150.8715  134.8090  159.7157 H   0  0  0  0  0  0  0  0  0  0  0  0  # atno 6907 bound_to 6896
  152.4718  134.4939  159.9714 H   0  0  0  0  0  0  0  0  0  0  0  0  # atno 6908 bound_to 6896
  151.5027  133.3462  159.2907 H   0  0  0  0  0  0  0  0  0  0  0  0  # atno 6909 bound_to 6896
  145.0143  140.7933  143.4419 H   0  0  0  0  0  0  0  0  0  0  0  0  # atno 7974 bound_to 7965
  156.0984  140.1437  156.9500 H   0  0  0  0  0  0  0  0  0  0  0  0  # atno 8008 bound_to 7997
  154.4686  140.0917  156.7132 H   0  0  0  0  0  0  0  0  0  0  0  0  # atno 8009 bound_to 7997
  155.4802  140.3444  155.4341 H   0  0  0  0  0  0  0  0  0  0  0  0  # atno 8010 bound_to 7997
  140.0319  144.5459  150.7500 H   0  0  0  0  0  0  0  0  0  0  0  0  # atno 10167 bound_to 10162
  157.6926  131.0579  150.4499 H   0  0  0  0  0  0  0  0  0  0  0  0  # atno 10718 bound_to 10713
  153.3012  135.4114  155.1254 H   0  0  0  0  0  0  0  0  0  0  0  0  # atno 10763 bound_to 10752
  154.8550  135.3542  154.5849 H   0  0  0  0  0  0  0  0  0  0  0  0  # atno 10764 bound_to 10752
  153.6274  135.7062  153.5346 H   0  0  0  0  0  0  0  0  0  0  0  0  # atno 10765 bound_to 10752
  140.6125  133.9735  155.8184 H   0  0  0  0  0  0  0  0  0  0  0  0  # atno 11005 bound_to 11000
  145.1980  139.2266  143.5208 LP  0  0  0  0  0  0  0  0  0  0  0  0  # atno 17320 bound_to 7965
  146.3475  140.1791  142.8589 LP  0  0  0  0  0  0  0  0  0  0  0  0  # atno 17321 bound_to 7965
  140.7298  143.2676  151.3992 LP  0  0  0  0  0  0  0  0  0  0  0  0  # atno 17342 bound_to 10162
  139.6070  144.1176  152.2259 LP  0  0  0  0  0  0  0  0  0  0  0  0  # atno 17343 bound_to 10162
  156.4851  130.4082  149.6438 LP  0  0  0  0  0  0  0  0  0  0  0  0  # atno 17370 bound_to 10713
  156.3470  130.7412  151.2365 LP  0  0  0  0  0  0  0  0  0  0  0  0  # atno 17371 bound_to 10713
  141.0798  134.0079  157.3403 LP  0  0  0  0  0  0  0  0  0  0  0  0  # atno 17394 bound_to 11000
  139.9186  135.0199  156.7978 LP  0  0  0  0  0  0  0  0  0  0  0  0  # atno 17395 bound_to 11000

$$$$
