AV-unprocessed.smi:1376|AV-procd|sdf|5590|dock9
  -GOLD-   22720 5193D 1   1.00000     0.00000
 Structure written by MMmdl.
 42 43  0  0  0  0  0  0  0  0  1 V2000
  150.0297  141.3553  158.5314 O   0  0  0  0  0  0  0  0  0  0  0  0
  150.6740  141.9403  157.6597 C   0  0  0  0  0  0  0  0  0  0  0  0
  151.9008  142.7882  158.0247 C   0  0  0  0  0  0  0  0  0  0  0  0
  152.4242  142.5046  159.3714 N   0  0  0  0  0  0  0  0  0  0  0  0
  152.1511  143.4512  160.3792 C   0  0  0  0  0  0  0  0  0  0  0  0
  152.5803  143.2893  161.6406 C   0  0  0  0  0  0  0  0  0  0  0  0
  153.3421  142.1042  161.9555 C   0  0  0  0  0  0  0  0  0  0  0  0
  153.6132  141.1947  160.9983 C   0  0  0  0  0  0  0  0  0  0  0  0
  153.1497  141.3698  159.6168 C   0  0  0  0  0  0  0  0  0  0  0  0
  153.3972  140.5467  158.7350 O   0  0  0  0  0  0  0  0  0  0  0  0
  150.3788  141.8668  156.3529 N   0  0  0  0  0  0  0  0  0  0  0  0
  149.2672  141.1147  155.7782 C   0  0  2  0  0  0  0  0  0  0  0  0
  149.6546  139.6336  155.5934 C   0  0  0  0  0  0  0  0  0  0  0  0
  148.5266  138.8403  154.9165 C   0  0  0  0  0  0  0  0  0  0  0  0
  148.1186  139.4763  153.5770 C   0  0  0  0  0  0  0  0  0  0  0  0
  147.7262  140.9556  153.7417 C   0  0  1  0  0  0  0  0  0  0  0  0
  146.5195  141.0011  154.4953 O   0  0  0  0  0  0  0  0  0  0  0  0
  145.8739  142.2668  154.5162 C   0  0  0  0  0  0  0  0  0  0  0  0
  145.0559  142.3948  155.8070 C   0  0  0  0  0  0  0  0  0  0  0  0
  144.4498  143.5812  155.8282 F   0  0  0  0  0  0  0  0  0  0  0  0
  144.1279  141.4397  155.8610 F   0  0  0  0  0  0  0  0  0  0  0  0
  145.8551  142.3035  156.8695 F   0  0  0  0  0  0  0  0  0  0  0  0
  148.8600  141.7445  154.4323 C   0  0  0  0  0  0  0  0  0  0  0  0
  152.6700  142.6116  157.2718 H   0  0  0  0  0  0  0  0  0  0  0  0
  151.6521  143.8474  157.9343 H   0  0  0  0  0  0  0  0  0  0  0  0
  151.5825  144.3125  160.0595 H   0  0  0  0  0  0  0  0  0  0  0  0
  152.3651  144.0277  162.3988 H   0  0  0  0  0  0  0  0  0  0  0  0
  153.6974  141.9464  162.9632 H   0  0  0  0  0  0  0  0  0  0  0  0
  154.1851  140.3143  161.2520 H   0  0  0  0  0  0  0  0  0  0  0  0
  150.9668  142.3732  155.7068 H   0  0  0  0  0  0  0  0  0  0  0  0
  148.4107  141.1750  156.4530 H   0  0  0  0  0  0  0  0  0  0  0  0
  150.5599  139.5607  154.9888 H   0  0  0  0  0  0  0  0  0  0  0  0
  149.8903  139.1816  156.5577 H   0  0  0  0  0  0  0  0  0  0  0  0
  148.8425  137.8091  154.7564 H   0  0  0  0  0  0  0  0  0  0  0  0
  147.6626  138.7977  155.5810 H   0  0  0  0  0  0  0  0  0  0  0  0
  148.9498  139.3990  152.8749 H   0  0  0  0  0  0  0  0  0  0  0  0
  147.2923  138.9181  153.1357 H   0  0  0  0  0  0  0  0  0  0  0  0
  147.5459  141.3693  152.7482 H   0  0  0  0  0  0  0  0  0  0  0  0
  146.6034  143.0749  154.4649 H   0  0  0  0  0  0  0  0  0  0  0  0
  145.2150  142.3651  153.6522 H   0  0  0  0  0  0  0  0  0  0  0  0
  148.5760  142.7865  154.5763 H   0  0  0  0  0  0  0  0  0  0  0  0
  149.7260  141.7631  153.7689 H   0  0  0  0  0  0  0  0  0  0  0  0
  1  2  2  0  0  0  0
  2  3  1  0  0  0  0
  2 11  1  0  0  0  0
  3  4  1  0  0  0  0
  3 24  1  0  0  0  0
  3 25  1  0  0  0  0
  4  9  1  0  0  0  0
  4  5  1  0  0  0  0
  5  6  2  0  0  0  0
  5 26  1  0  0  0  0
  6  7  1  0  0  0  0
  6 27  1  0  0  0  0
  7  8  2  0  0  0  0
  7 28  1  0  0  0  0
  8  9  1  0  0  0  0
  8 29  1  0  0  0  0
  9 10  2  0  0  0  0
 11 12  1  0  0  0  0
 11 30  1  0  0  0  0
 12 23  1  0  0  0  0
 12 13  1  0  0  0  0
 12 31  1  0  0  0  0
 13 14  1  0  0  0  0
 13 32  1  0  0  0  0
 13 33  1  0  0  0  0
 14 15  1  0  0  0  0
 14 34  1  0  0  0  0
 14 35  1  0  0  0  0
 15 16  1  0  0  0  0
 15 36  1  0  0  0  0
 15 37  1  0  0  0  0
 16 17  1  0  0  0  0
 16 23  1  0  0  0  0
 16 38  1  0  0  0  0
 17 18  1  0  0  0  0
 18 19  1  0  0  0  0
 18 39  1  0  0  0  0
 18 40  1  0  0  0  0
 19 20  1  0  0  0  0
 19 21  1  0  0  0  0
 19 22  1  0  0  0  0
 23 41  1  0  0  0  0
 23 42  1  0  0  0  0
M  END
> <s_m_source_file>
AV-unprocessed.smi

> <i_m_source_file_index>
1376

> <i_lp_mmshare_version>
43012

> <i_f3d_flags>
0

> <s_epik_input>
Tz1jMVtjSF1bY0hdW2NIXVtjSF1uMVtDSDJdQyg9TylbTkhdW0NAQEhdMltDSDJdW0NIMl1bQ0gyXVtDQEhdKFtDSDJdMilPW0NIMl1DKEYpKEYpRg==

> <s_epik_cmdline>
J2VwaWtfcHl0aG9uJywgJy1waCcsICc3LjAnLCAnLXRuJywgJzgnLCAnLW1hJywgJzIwMCcsICctbWV0YWxfYmluZGluZycsICctaW1hZScsICc8aW5maWxlLm1hZT4nLCAnLW9tYWUnLCAnPG91dGZpbGUubWFlPic=

> <r_lp_tautomer_probability>
1

> <r_epik_Ionization_Penalty>
4.08567e-07

> <r_epik_Ionization_Penalty_Charging>
3.90028e-07

> <r_epik_Ionization_Penalty_Neutral>
1.85393e-08

> <r_epik_State_Penalty>
-0

> <r_epik_Charging_Adjusted_Penalty>
3.90028e-07

> <i_epik_Tot_Q>
0

> <i_epik_Tot_abs_Q>
0

> <r_epik_Metal_State_Penalty>
-0

> <b_epik_Metal_Only>
0

> <s_lp_Force_Field>
OPLS_2005

> <r_lp_Energy>
21.1399

> <b_lp_Chiralities_Consistent>
1

> <s_lp_Variant>
AV-unprocessed.smi:1376-1

> <Gold.Version>
5.8.1

> <Gold.Id.Protein>
6NUR|6NUR_protein|mol2

> <Gold.PLP.Fitness>
42.6684

> <Gold.PLP.PLP>
-42.2223

> <Gold.PLP.part.hbond>
-1.0000

> <Gold.PLP.part.metal>
0.0000

> <Gold.PLP.part.buried>
-1.8740

> <Gold.PLP.part.nonpolar>
-38.6995

> <Gold.PLP.part.repulsive>
0.2294

> <Gold.PLP.ligand.clash>
0.0000

> <Gold.PLP.ligand.torsion>
0.9942

> <Gold.PLP.Chemscore.Hbond>
0.7956

> <Gold.PLP.Chemscore.CHOScore>
0.0000

> <Gold.PLP.Chemscore.Metal>
0.0000

> <Gold.Chemscore.Hbonds>
donor molecule, donor type, donor heavy atom, donor atom, acceptor molecule, acceptor atom, score
      P1  H  7997  8009       L1    10  0.60

> <Gold.PLP.Chemscore.Internal.Correction>
0.0476

> <Gold.Rescore>
     Score         DG    S(hbond)    S(metal)    S(lipo)     H(rot)  DE(clash)    DE(int)     intcor
     11.85     -14.26       0.88        0.00      97.64       2.18       1.44       0.97       ----

> <Gold.Chemscore.Fitness>
11.8519

> <Gold.Chemscore.DG>
-14.2624

> <Gold.Chemscore.ZeroCoef>
-5.4800

> <Gold.Chemscore.Hbond>
0.8799

> <Gold.Chemscore.Metal>
0.0000

> <Gold.Chemscore.Lipo>
97.6372

> <Gold.Chemscore.Internal_Hbond>
0.0000

> <Gold.Chemscore.DEClash>
1.4393

> <Gold.Chemscore.DEInternal>
0.9712

> <Gold.Chemscore.Rot>
2.1797

> <Gold.Chemscore.Internal.Correction>
   9.000000E+99

> <Gold.Chemscore.Hbonds>
donor molecule, donor type, donor heavy atom, donor atom, acceptor molecule, acceptor atom, score
      P1  H  7997  8009       L1    10  0.60

> <Gold.Chemscore.Hbond.Weighted>
-2.9390

> <Gold.Chemscore.Metal.Weighted>
-0.0000

> <Gold.Chemscore.Lipo.Weighted>
-11.4236

> <Gold.Chemscore.Internal_Hbond.Weighted>
0.0000

> <Gold.Chemscore.DEClash.Weighted>
1.4393

> <Gold.Chemscore.DEInternal.Weighted>
0.9712

> <Gold.Chemscore.Rot.Weighted>
5.5802

> <Gold.Chemscore.Internal.Correction.Weighted>
   9.000000E+99

> <Gold.Protein.RotatedTorsions>
[ 6907 6896 6895 6894 ] final  -21.41 input  -60.11 | X-H torsion
[ 7974 7965 7964 7962 ] final   95.41 input  175.53 | X-H torsion
[ 8008 7997 7996 7995 ] final  145.46 input   59.86 | X-H torsion
[ 10167 10162 10161 10158 ] final  -60.24 input  -65.29 | X-H torsion
[ 10718 10713 10712 10709 ] final  150.80 input   66.30 | X-H torsion
[ 10763 10752 10751 10750 ] final  136.01 input  -60.55 | X-H torsion
[ 11005 11000 10999 10996 ] final -169.51 input  -57.11 | X-H torsion

> <Gold.Protein.ActiveResidues>
 VAL166  LYS551  ARG553  GLY616  TRP617  ASP618  TYR619  PRO620  LYS621  CYS622 
 ASP623  PHE694  ASN695  SER759  ASP760  ASP761  ALA762  ILE779  LEU786  VAL792 
 PHE793  MET794  SER795  GLU796  ALA797  LYS798  CYS799  TRP800  GLU811  SER814 

> <Gold.Protein.RotatedAtoms>
  151.2337  135.0564  159.8997 H   0  0  0  0  0  0  0  0  0  0  0  0  # atno 6907 bound_to 6896
  152.5402  134.0509  159.8120 H   0  0  0  0  0  0  0  0  0  0  0  0  # atno 6908 bound_to 6896
  151.0693  133.5431  159.2660 H   0  0  0  0  0  0  0  0  0  0  0  0  # atno 6909 bound_to 6896
  145.4525  139.2292  143.3032 H   0  0  0  0  0  0  0  0  0  0  0  0  # atno 7974 bound_to 7965
  156.2882  140.2208  156.5218 H   0  0  0  0  0  0  0  0  0  0  0  0  # atno 8008 bound_to 7997
  154.7522  140.0479  157.0925 H   0  0  0  0  0  0  0  0  0  0  0  0  # atno 8009 bound_to 7997
  155.0096  140.3111  155.4838 H   0  0  0  0  0  0  0  0  0  0  0  0  # atno 8010 bound_to 7997
  140.6084  143.2380  151.5768 H   0  0  0  0  0  0  0  0  0  0  0  0  # atno 10167 bound_to 10162
  157.2788  131.0831  151.1546 H   0  0  0  0  0  0  0  0  0  0  0  0  # atno 10718 bound_to 10713
  153.8495  135.3081  155.3431 H   0  0  0  0  0  0  0  0  0  0  0  0  # atno 10763 bound_to 10752
  154.7897  135.4789  154.0028 H   0  0  0  0  0  0  0  0  0  0  0  0  # atno 10764 bound_to 10752
  153.1527  135.6846  153.8952 H   0  0  0  0  0  0  0  0  0  0  0  0  # atno 10765 bound_to 10752
  140.5299  134.5626  157.5072 H   0  0  0  0  0  0  0  0  0  0  0  0  # atno 11005 bound_to 11000
  146.2496  140.5286  142.8899 LP  0  0  0  0  0  0  0  0  0  0  0  0  # atno 17320 bound_to 7965
  144.8053  140.6287  143.6451 LP  0  0  0  0  0  0  0  0  0  0  0  0  # atno 17321 bound_to 7965
  139.5342  144.2828  152.1215 LP  0  0  0  0  0  0  0  0  0  0  0  0  # atno 17342 bound_to 10162
  140.2022  144.4646  150.6426 LP  0  0  0  0  0  0  0  0  0  0  0  0  # atno 17343 bound_to 10162
  157.2988  130.6833  149.6153 LP  0  0  0  0  0  0  0  0  0  0  0  0  # atno 17370 bound_to 10713
  155.9664  130.4398  150.5274 LP  0  0  0  0  0  0  0  0  0  0  0  0  # atno 17371 bound_to 10713
  139.9560  134.7535  156.0342 LP  0  0  0  0  0  0  0  0  0  0  0  0  # atno 17394 bound_to 11000
  141.1287  133.6592  156.3406 LP  0  0  0  0  0  0  0  0  0  0  0  0  # atno 17395 bound_to 11000

$$$$
