AV-unprocessed.smi:1485|AV-procd|sdf|6003|dock3
  -GOLD-   22720 6 93D 1   1.00000     0.00000
 Structure written by MMmdl.
 44 45  0  0  0  0  0  0  0  0  1 V2000
  145.7649  143.8923  153.3174 C   0  0  0  0  0  0  0  0  0  0  0  0
  145.8174  142.6732  154.0373 O   0  0  0  0  0  0  0  0  0  0  0  0
  147.1397  142.1819  154.1762 C   0  0  0  0  0  0  0  0  0  0  0  0
  147.0964  140.8456  154.9325 C   0  0  0  0  0  0  0  0  0  0  0  0
  148.3857  140.1502  154.8672 N   0  0  0  0  0  0  0  0  0  0  0  0
  149.3215  140.6119  155.7775 N   0  0  0  0  0  0  0  0  0  0  0  0
  150.4978  140.0752  155.8297 C   0  0  0  0  0  0  0  0  0  0  0  0
  151.5314  140.5417  156.7949 C   0  0  0  0  0  0  0  0  0  0  0  0
  152.5592  139.8970  157.0101 O   0  0  0  0  0  0  0  0  0  0  0  0
  151.2614  141.7099  157.4052 N   0  0  0  0  0  0  0  0  0  0  0  0
  152.1178  142.3750  158.3817 C   0  0  2  0  0  0  0  0  0  0  0  0
  152.1660  141.5405  159.6743 C   0  0  0  0  0  0  0  0  0  0  0  0
  153.0052  142.2347  160.7575 C   0  0  0  0  0  0  0  0  0  0  0  0
  152.4870  143.6537  161.0392 C   0  0  0  0  0  0  0  0  0  0  0  0
  152.4460  144.5034  159.7547 C   0  0  2  0  0  0  0  0  0  0  0  0
  151.9281  145.9212  160.0345 C   0  0  0  0  0  0  0  0  0  0  0  0
  151.6059  143.8015  158.6700 C   0  0  0  0  0  0  0  0  0  0  0  0
  150.8582  138.9848  154.9392 C   0  0  0  0  0  0  0  0  0  0  0  0
  149.9328  138.5417  154.0602 C   0  0  0  0  0  0  0  0  0  0  0  0
  148.5932  139.1270  153.9847 C   0  0  0  0  0  0  0  0  0  0  0  0
  147.7293  138.7323  153.2022 O   0  0  0  0  0  0  0  0  0  0  0  0
  144.7300  144.2240  153.2327 H   0  0  0  0  0  0  0  0  0  0  0  0
  146.1634  143.7730  152.3089 H   0  0  0  0  0  0  0  0  0  0  0  0
  146.3283  144.6754  153.8265 H   0  0  0  0  0  0  0  0  0  0  0  0
  147.5893  142.0412  153.1919 H   0  0  0  0  0  0  0  0  0  0  0  0
  147.7505  142.9060  154.7177 H   0  0  0  0  0  0  0  0  0  0  0  0
  146.8030  141.0118  155.9706 H   0  0  0  0  0  0  0  0  0  0  0  0
  146.3132  140.2147  154.5081 H   0  0  0  0  0  0  0  0  0  0  0  0
  150.3951  142.1730  157.1706 H   0  0  0  0  0  0  0  0  0  0  0  0
  153.1314  142.4372  157.9802 H   0  0  0  0  0  0  0  0  0  0  0  0
  151.1543  141.3806  160.0500 H   0  0  0  0  0  0  0  0  0  0  0  0
  152.5790  140.5525  159.4672 H   0  0  0  0  0  0  0  0  0  0  0  0
  152.9897  141.6446  161.6742 H   0  0  0  0  0  0  0  0  0  0  0  0
  154.0472  142.2828  160.4384 H   0  0  0  0  0  0  0  0  0  0  0  0
  151.4892  143.5960  161.4764 H   0  0  0  0  0  0  0  0  0  0  0  0
  153.1229  144.1327  161.7845 H   0  0  0  0  0  0  0  0  0  0  0  0
  153.4667  144.5953  159.3803 H   0  0  0  0  0  0  0  0  0  0  0  0
  150.9063  145.9022  160.4149 H   0  0  0  0  0  0  0  0  0  0  0  0
  151.9347  146.5267  159.1278 H   0  0  0  0  0  0  0  0  0  0  0  0
  152.5497  146.4282  160.7729 H   0  0  0  0  0  0  0  0  0  0  0  0
  151.6242  144.3940  157.7543 H   0  0  0  0  0  0  0  0  0  0  0  0
  150.5626  143.7589  158.9873 H   0  0  0  0  0  0  0  0  0  0  0  0
  151.8394  138.5341  154.9729 H   0  0  0  0  0  0  0  0  0  0  0  0
  150.1871  137.7316  153.3924 H   0  0  0  0  0  0  0  0  0  0  0  0
  1  2  1  0  0  0  0
  1 22  1  0  0  0  0
  1 23  1  0  0  0  0
  1 24  1  0  0  0  0
  2  3  1  0  0  0  0
  3  4  1  0  0  0  0
  3 25  1  0  0  0  0
  3 26  1  0  0  0  0
  4  5  1  0  0  0  0
  4 27  1  0  0  0  0
  4 28  1  0  0  0  0
  5 20  1  0  0  0  0
  5  6  1  0  0  0  0
  6  7  2  0  0  0  0
  7  8  1  0  0  0  0
  7 18  1  0  0  0  0
  8  9  2  0  0  0  0
  8 10  1  0  0  0  0
 10 11  1  0  0  0  0
 10 29  1  0  0  0  0
 11 17  1  0  0  0  0
 11 12  1  0  0  0  0
 11 30  1  0  0  0  0
 12 13  1  0  0  0  0
 12 31  1  0  0  0  0
 12 32  1  0  0  0  0
 13 14  1  0  0  0  0
 13 33  1  0  0  0  0
 13 34  1  0  0  0  0
 14 15  1  0  0  0  0
 14 35  1  0  0  0  0
 14 36  1  0  0  0  0
 15 16  1  0  0  0  0
 15 17  1  0  0  0  0
 15 37  1  0  0  0  0
 16 38  1  0  0  0  0
 16 39  1  0  0  0  0
 16 40  1  0  0  0  0
 17 41  1  0  0  0  0
 17 42  1  0  0  0  0
 18 19  2  0  0  0  0
 18 43  1  0  0  0  0
 19 20  1  0  0  0  0
 19 44  1  0  0  0  0
 20 21  2  0  0  0  0
M  END
> <s_m_source_file>
AV-unprocessed.smi

> <i_m_source_file_index>
1485

> <i_lp_mmshare_version>
43012

> <i_f3d_flags>
0

> <s_epik_input>
W0NIM11PW0NIMl1bQ0gyXW4xbmMoW2NIXVtjSF1jMT1PKUMoPU8pW05IXVtDQEBIXTJbQ0gyXVtDSDJdW0NIMl1bQ0BASF0oW0NIM10pW0NIMl0y

> <s_epik_cmdline>
J2VwaWtfcHl0aG9uJywgJy1waCcsICc3LjAnLCAnLXRuJywgJzgnLCAnLW1hJywgJzIwMCcsICctbWV0YWxfYmluZGluZycsICctaW1hZScsICc8aW5maWxlLm1hZT4nLCAnLW9tYWUnLCAnPG91dGZpbGUubWFlPic=

> <r_lp_tautomer_probability>
1

> <r_epik_Ionization_Penalty>
6.4688e-07

> <r_epik_Ionization_Penalty_Charging>
6.63567e-09

> <r_epik_Ionization_Penalty_Neutral>
6.40245e-07

> <r_epik_State_Penalty>
-0

> <r_epik_Charging_Adjusted_Penalty>
6.63567e-09

> <i_epik_Tot_Q>
0

> <i_epik_Tot_abs_Q>
0

> <r_epik_Metal_State_Penalty>
-0

> <b_epik_Metal_Only>
0

> <s_lp_Force_Field>
OPLS_2005

> <r_lp_Energy>
28.6474

> <b_lp_Chiralities_Consistent>
1

> <s_lp_Variant>
AV-unprocessed.smi:1485-3

> <Gold.Version>
5.8.1

> <Gold.Id.Protein>
6NUR|6NUR_protein|mol2

> <Gold.PLP.Fitness>
46.1957

> <Gold.PLP.PLP>
-44.1179

> <Gold.PLP.part.hbond>
-1.0000

> <Gold.PLP.part.metal>
0.0000

> <Gold.PLP.part.buried>
-6.1223

> <Gold.PLP.part.nonpolar>
-38.2065

> <Gold.PLP.part.repulsive>
0.7579

> <Gold.PLP.ligand.clash>
0.0000

> <Gold.PLP.ligand.torsion>
0.4735

> <Gold.PLP.Chemscore.Hbond>
1.0000

> <Gold.PLP.Chemscore.CHOScore>
0.0000

> <Gold.PLP.Chemscore.Metal>
0.0000

> <Gold.Chemscore.Hbonds>
donor molecule, donor type, donor heavy atom, donor atom, acceptor molecule, acceptor atom, score
      P1  H  7997  8008       L1     9  1.00

> <Gold.PLP.Chemscore.Internal.Correction>
0.0248

> <Gold.Rescore>
     Score         DG    S(hbond)    S(metal)    S(lipo)     H(rot)  DE(clash)    DE(int)     intcor
     18.08     -18.55       1.00        0.00     117.14       1.55       0.10       0.37       ----

> <Gold.Chemscore.Fitness>
18.0835

> <Gold.Chemscore.DG>
-18.5527

> <Gold.Chemscore.ZeroCoef>
-5.4800

> <Gold.Chemscore.Hbond>
0.9968

> <Gold.Chemscore.Metal>
0.0000

> <Gold.Chemscore.Lipo>
117.1413

> <Gold.Chemscore.Internal_Hbond>
0.0000

> <Gold.Chemscore.DEClash>
0.0998

> <Gold.Chemscore.DEInternal>
0.3693

> <Gold.Chemscore.Rot>
1.5478

> <Gold.Chemscore.Internal.Correction>
   9.000000E+99

> <Gold.Chemscore.Hbonds>
donor molecule, donor type, donor heavy atom, donor atom, acceptor molecule, acceptor atom, score
      P1  H  7997  8008       L1     9  0.98

> <Gold.Chemscore.Hbond.Weighted>
-3.3294

> <Gold.Chemscore.Metal.Weighted>
-0.0000

> <Gold.Chemscore.Lipo.Weighted>
-13.7055

> <Gold.Chemscore.Internal_Hbond.Weighted>
0.0000

> <Gold.Chemscore.DEClash.Weighted>
0.0998

> <Gold.Chemscore.DEInternal.Weighted>
0.3693

> <Gold.Chemscore.Rot.Weighted>
3.9623

> <Gold.Chemscore.Internal.Correction.Weighted>
   9.000000E+99

> <Gold.Protein.RotatedTorsions>
[ 6907 6896 6895 6894 ] final   70.70 input  -60.11 | X-H torsion
[ 7974 7965 7964 7962 ] final  166.26 input  175.53 | X-H torsion
[ 8008 7997 7996 7995 ] final  -45.83 input   59.86 | X-H torsion
[ 10167 10162 10161 10158 ] final  -16.34 input  -65.29 | X-H torsion
[ 10718 10713 10712 10709 ] final -167.54 input   66.30 | X-H torsion
[ 10763 10752 10751 10750 ] final    8.97 input  -60.55 | X-H torsion
[ 11005 11000 10999 10996 ] final -157.92 input  -57.11 | X-H torsion

> <Gold.Protein.ActiveResidues>
 VAL166  LYS551  ARG553  GLY616  TRP617  ASP618  TYR619  PRO620  LYS621  CYS622 
 ASP623  PHE694  ASN695  SER759  ASP760  ASP761  ALA762  ILE779  LEU786  VAL792 
 PHE793  MET794  SER795  GLU796  ALA797  LYS798  CYS799  TRP800  GLU811  SER814 

> <Gold.Protein.RotatedAtoms>
  152.4765  134.4829  159.9671 H   0  0  0  0  0  0  0  0  0  0  0  0  # atno 6907 bound_to 6896
  151.4844  133.3533  159.2851 H   0  0  0  0  0  0  0  0  0  0  0  0  # atno 6908 bound_to 6896
  150.8808  134.8225  159.7285 H   0  0  0  0  0  0  0  0  0  0  0  0  # atno 6909 bound_to 6896
  144.7469  139.8590  143.6379 H   0  0  0  0  0  0  0  0  0  0  0  0  # atno 7974 bound_to 7965
  154.4003  140.1387  156.3911 H   0  0  0  0  0  0  0  0  0  0  0  0  # atno 8008 bound_to 7997
  155.7913  140.3478  155.5330 H   0  0  0  0  0  0  0  0  0  0  0  0  # atno 8009 bound_to 7997
  155.8576  140.0951  157.1625 H   0  0  0  0  0  0  0  0  0  0  0  0  # atno 8010 bound_to 7997
  140.7232  143.5126  150.9731 H   0  0  0  0  0  0  0  0  0  0  0  0  # atno 10167 bound_to 10162
  156.6838  130.9132  151.3060 H   0  0  0  0  0  0  0  0  0  0  0  0  # atno 10718 bound_to 10713
  153.2192  135.6879  153.8021 H   0  0  0  0  0  0  0  0  0  0  0  0  # atno 10763 bound_to 10752
  153.7225  135.3265  155.3270 H   0  0  0  0  0  0  0  0  0  0  0  0  # atno 10764 bound_to 10752
  154.8261  135.4616  154.1032 H   0  0  0  0  0  0  0  0  0  0  0  0  # atno 10765 bound_to 10752
  140.6593  134.4367  157.5234 H   0  0  0  0  0  0  0  0  0  0  0  0  # atno 11005 bound_to 11000
  146.1362  139.4408  143.0137 LP  0  0  0  0  0  0  0  0  0  0  0  0  # atno 17320 bound_to 7965
  145.7088  141.0113  143.1464 LP  0  0  0  0  0  0  0  0  0  0  0  0  # atno 17321 bound_to 7965
  139.8841  143.7035  152.3153 LP  0  0  0  0  0  0  0  0  0  0  0  0  # atno 17342 bound_to 10162
  139.7328  144.7578  151.0775 LP  0  0  0  0  0  0  0  0  0  0  0  0  # atno 17343 bound_to 10162
  157.7034  130.9358  150.0854 LP  0  0  0  0  0  0  0  0  0  0  0  0  # atno 17370 bound_to 10713
  156.1848  130.3651  149.8988 LP  0  0  0  0  0  0  0  0  0  0  0  0  # atno 17371 bound_to 10713
  139.9018  134.8538  156.1863 LP  0  0  0  0  0  0  0  0  0  0  0  0  # atno 17394 bound_to 11000
  141.0477  133.6904  156.1714 LP  0  0  0  0  0  0  0  0  0  0  0  0  # atno 17395 bound_to 11000

$$$$
