AV-unprocessed.smi:2865|AV-procd|sdf|11018|dock5
  -GOLD-   2272015483D 1   1.00000     0.00000
 Structure written by MMmdl.
 38 41  0  0  0  0  0  0  0  0  1 V2000
  147.1163  141.4636  158.8745 O   0  0  0  0  0  0  0  0  0  0  0  0
  147.4263  142.4965  158.2858 C   0  0  0  0  0  0  0  0  0  0  0  0
  148.3785  142.5844  157.3362 N   0  0  0  0  0  0  0  0  0  0  0  0
  149.2575  141.5748  156.8602 C   0  0  0  0  0  0  0  0  0  0  0  0
  149.1463  140.2721  157.3902 C   0  0  0  0  0  0  0  0  0  0  0  0
  149.9359  139.2589  156.9741 N   0  0  0  0  0  0  0  0  0  0  0  0
  150.8389  139.5460  156.0328 C   0  0  0  0  0  0  0  0  0  0  0  0
  151.6855  138.4120  155.5442 C   0  0  0  0  0  0  0  0  0  0  0  0
  152.8381  138.6577  154.5918 C   0  0  0  0  0  0  0  0  0  0  0  0
  151.6058  137.9482  154.1040 C   0  0  0  0  0  0  0  0  0  0  0  0
  151.0220  140.7294  155.4409 N   0  0  0  0  0  0  0  0  0  0  0  0
  150.2376  141.7493  155.8519 C   0  0  0  0  0  0  0  0  0  0  0  0
  146.7917  143.6551  158.5355 N   0  0  0  0  0  0  0  0  0  0  0  0
  145.7168  143.9050  159.4974 C   0  0  1  0  0  0  0  0  0  0  0  0
  144.5106  142.9772  159.3009 C   0  0  0  0  0  0  0  0  0  0  0  0
  144.4225  142.2786  160.6643 C   0  0  2  0  0  0  0  0  0  0  0  0
  143.9681  143.2348  161.7771 C   0  0  0  0  0  0  0  0  0  0  0  0
  145.2109  144.1032  161.9740 C   0  0  0  0  0  0  0  0  0  0  0  0
  146.1633  143.5245  160.9193 C   0  0  1  0  0  0  0  0  0  0  0  0
  145.7989  142.1550  160.9727 O   0  0  0  0  0  0  0  0  0  0  0  0
  148.4674  143.4829  156.8845 H   0  0  0  0  0  0  0  0  0  0  0  0
  148.4181  140.0377  158.1530 H   0  0  0  0  0  0  0  0  0  0  0  0
  151.8151  137.6551  156.3155 H   0  0  0  0  0  0  0  0  0  0  0  0
  153.0010  139.6752  154.2415 H   0  0  0  0  0  0  0  0  0  0  0  0
  153.7385  138.0629  154.7306 H   0  0  0  0  0  0  0  0  0  0  0  0
  151.6818  136.8791  153.9166 H   0  0  0  0  0  0  0  0  0  0  0  0
  150.9488  138.4938  153.4292 H   0  0  0  0  0  0  0  0  0  0  0  0
  150.3985  142.6873  155.3451 H   0  0  0  0  0  0  0  0  0  0  0  0
  147.0689  144.4489  157.9761 H   0  0  0  0  0  0  0  0  0  0  0  0
  145.4297  144.9576  159.4659 H   0  0  0  0  0  0  0  0  0  0  0  0
  143.5978  143.5201  159.0533 H   0  0  0  0  0  0  0  0  0  0  0  0
  144.6912  142.2446  158.5129 H   0  0  0  0  0  0  0  0  0  0  0  0
  143.8796  141.3334  160.6427 H   0  0  0  0  0  0  0  0  0  0  0  0
  143.0875  143.8119  161.4931 H   0  0  0  0  0  0  0  0  0  0  0  0
  143.7378  142.6863  162.6911 H   0  0  0  0  0  0  0  0  0  0  0  0
  145.0161  145.1658  161.8251 H   0  0  0  0  0  0  0  0  0  0  0  0
  145.6168  143.9678  162.9770 H   0  0  0  0  0  0  0  0  0  0  0  0
  147.2157  143.7193  161.1295 H   0  0  0  0  0  0  0  0  0  0  0  0
  1  2  2  0  0  0  0
  2  3  1  0  0  0  0
  2 13  1  0  0  0  0
  3  4  1  0  0  0  0
  3 21  1  0  0  0  0
  4 12  1  0  0  0  0
  4  5  2  0  0  0  0
  5  6  1  0  0  0  0
  5 22  1  0  0  0  0
  6  7  2  0  0  0  0
  7  8  1  0  0  0  0
  7 11  1  0  0  0  0
  8 10  1  0  0  0  0
  8  9  1  0  0  0  0
  8 23  1  0  0  0  0
  9 10  1  0  0  0  0
  9 24  1  0  0  0  0
  9 25  1  0  0  0  0
 10 26  1  0  0  0  0
 10 27  1  0  0  0  0
 11 12  2  0  0  0  0
 12 28  1  0  0  0  0
 13 14  1  0  0  0  0
 13 29  1  0  0  0  0
 14 19  1  0  0  0  0
 14 15  1  0  0  0  0
 14 30  1  0  0  0  0
 15 16  1  0  0  0  0
 15 31  1  0  0  0  0
 15 32  1  0  0  0  0
 16 20  1  0  0  0  0
 16 17  1  0  0  0  0
 16 33  1  0  0  0  0
 17 18  1  0  0  0  0
 17 34  1  0  0  0  0
 17 35  1  0  0  0  0
 18 19  1  0  0  0  0
 18 36  1  0  0  0  0
 18 37  1  0  0  0  0
 19 20  1  0  0  0  0
 19 38  1  0  0  0  0
M  END
> <s_m_source_file>
AV-unprocessed.smi

> <i_m_source_file_index>
2865

> <i_lp_mmshare_version>
43012

> <i_f3d_flags>
0

> <s_epik_input>
W0NIMl0xW0NIMl1bQ0BIXShPMilbQ0BASF0oW0NIMl1bQ0BASF0xMilbTkhdQyg9TylbTkhdYzNbY0hdbmMobltjSF0zKVtDSF00W0NIMl1bQ0gyXTQ=

> <s_epik_cmdline>
J2VwaWtfcHl0aG9uJywgJy1waCcsICc3LjAnLCAnLXRuJywgJzgnLCAnLW1hJywgJzIwMCcsICctbWV0YWxfYmluZGluZycsICctaW1hZScsICc8aW5maWxlLm1hZT4nLCAnLW9tYWUnLCAnPG91dGZpbGUubWFlPic=

> <r_lp_tautomer_probability>
1

> <r_epik_Ionization_Penalty>
2.43104e-05

> <r_epik_Ionization_Penalty_Charging>
0

> <r_epik_Ionization_Penalty_Neutral>
2.43104e-05

> <r_epik_State_Penalty>
-0

> <r_epik_Charging_Adjusted_Penalty>
0

> <i_epik_Tot_Q>
0

> <i_epik_Tot_abs_Q>
0

> <r_epik_Metal_State_Penalty>
-0

> <b_epik_Metal_Only>
0

> <s_lp_Force_Field>
OPLS_2005

> <r_lp_Energy>
45.9934

> <b_lp_Chiralities_Consistent>
1

> <s_lp_Variant>
AV-unprocessed.smi:2865-4

> <Gold.Version>
5.8.1

> <Gold.Id.Protein>
6NUR|6NUR_protein|mol2

> <Gold.PLP.Fitness>
45.9132

> <Gold.PLP.PLP>
-32.0942

> <Gold.PLP.part.hbond>
-5.0000

> <Gold.PLP.part.metal>
0.0000

> <Gold.PLP.part.buried>
-5.1974

> <Gold.PLP.part.nonpolar>
-22.5030

> <Gold.PLP.part.repulsive>
0.1513

> <Gold.PLP.ligand.clash>
0.0000

> <Gold.PLP.ligand.torsion>
0.0879

> <Gold.PLP.Chemscore.Hbond>
3.7747

> <Gold.PLP.Chemscore.CHOScore>
0.8412

> <Gold.PLP.Chemscore.Metal>
0.0000

> <Gold.Chemscore.Hbonds>
donor molecule, donor type, donor heavy atom, donor atom, acceptor molecule, acceptor atom, score
      L1  H     3    21       P1  8028  0.95
      L1  H    13    29       P1  8029  1.00
      P1  H  6934  6946       L1    20  1.00
      P1  H  7989  7998       L1    11  0.82
      L1  C    12    28       P1  8028  0.84

> <Gold.PLP.Chemscore.Internal.Correction>
0.1471

> <Gold.Rescore>
     Score         DG    S(hbond)    S(metal)    S(lipo)     H(rot)  DE(clash)    DE(int)     intcor
     15.11     -19.52       2.65        0.00      70.58       1.20       0.22       4.19       ----

> <Gold.Chemscore.Fitness>
15.1143

> <Gold.Chemscore.DG>
-19.5245

> <Gold.Chemscore.ZeroCoef>
-5.4800

> <Gold.Chemscore.Hbond>
2.6531

> <Gold.Chemscore.Metal>
0.0000

> <Gold.Chemscore.Lipo>
70.5828

> <Gold.Chemscore.Internal_Hbond>
0.0000

> <Gold.Chemscore.DEClash>
0.2165

> <Gold.Chemscore.DEInternal>
4.1938

> <Gold.Chemscore.Rot>
1.2012

> <Gold.Chemscore.Internal.Correction>
   9.000000E+99

> <Gold.Chemscore.Hbonds>
donor molecule, donor type, donor heavy atom, donor atom, acceptor molecule, acceptor atom, score
      L1  H     3    21       P1  8028  0.22
      L1  H    13    29       P1  8029  0.40
      P1  H  6934  6946       L1    20  0.97
      P1  H  7989  7998       L1    11  0.66

> <Gold.Chemscore.Hbond.Weighted>
-8.8615

> <Gold.Chemscore.Metal.Weighted>
-0.0000

> <Gold.Chemscore.Lipo.Weighted>
-8.2582

> <Gold.Chemscore.Internal_Hbond.Weighted>
0.0000

> <Gold.Chemscore.DEClash.Weighted>
0.2165

> <Gold.Chemscore.DEInternal.Weighted>
4.1938

> <Gold.Chemscore.Rot.Weighted>
3.0752

> <Gold.Chemscore.Internal.Correction.Weighted>
   9.000000E+99

> <Gold.Protein.RotatedTorsions>
[ 6907 6896 6895 6894 ] final   53.01 input  -60.11 | X-H torsion
[ 7974 7965 7964 7962 ] final -154.90 input  175.53 | X-H torsion
[ 8008 7997 7996 7995 ] final  160.69 input   59.86 | X-H torsion
[ 10167 10162 10161 10158 ] final  -59.55 input  -65.29 | X-H torsion
[ 10718 10713 10712 10709 ] final  -62.79 input   66.30 | X-H torsion
[ 10763 10752 10751 10750 ] final  128.51 input  -60.55 | X-H torsion
[ 11005 11000 10999 10996 ] final -121.78 input  -57.11 | X-H torsion

> <Gold.Protein.ActiveResidues>
 VAL166  LYS551  ARG553  GLY616  TRP617  ASP618  TYR619  PRO620  LYS621  CYS622 
 ASP623  PHE694  ASN695  SER759  ASP760  ASP761  ALA762  ILE779  LEU786  VAL792 
 PHE793  MET794  SER795  GLU796  ALA797  LYS798  CYS799  TRP800  GLU811  SER814 

> <Gold.Protein.RotatedAtoms>
  152.3293  134.7280  160.0293 H   0  0  0  0  0  0  0  0  0  0  0  0  # atno 6907 bound_to 6896
  151.7702  133.3335  159.3450 H   0  0  0  0  0  0  0  0  0  0  0  0  # atno 6908 bound_to 6896
  150.7413  134.5957  159.6055 H   0  0  0  0  0  0  0  0  0  0  0  0  # atno 6909 bound_to 6896
  144.7666  140.4324  143.5937 H   0  0  0  0  0  0  0  0  0  0  0  0  # atno 7974 bound_to 7965
  156.2155  140.1797  156.7598 H   0  0  0  0  0  0  0  0  0  0  0  0  # atno 8008 bound_to 7997
  154.5785  140.0670  156.9099 H   0  0  0  0  0  0  0  0  0  0  0  0  # atno 8009 bound_to 7997
  155.2544  140.3331  155.4281 H   0  0  0  0  0  0  0  0  0  0  0  0  # atno 8010 bound_to 7997
  140.6128  143.2392  151.5669 H   0  0  0  0  0  0  0  0  0  0  0  0  # atno 10167 bound_to 10162
  156.0832  130.4213  150.1185 H   0  0  0  0  0  0  0  0  0  0  0  0  # atno 10718 bound_to 10713
  153.7266  135.3245  155.3277 H   0  0  0  0  0  0  0  0  0  0  0  0  # atno 10763 bound_to 10752
  154.8339  135.4512  154.1163 H   0  0  0  0  0  0  0  0  0  0  0  0  # atno 10764 bound_to 10752
  153.2299  135.6958  153.7982 H   0  0  0  0  0  0  0  0  0  0  0  0  # atno 10765 bound_to 10752
  141.0045  134.0355  157.3495 H   0  0  0  0  0  0  0  0  0  0  0  0  # atno 11005 bound_to 11000
  145.6450  139.1556  143.2894 LP  0  0  0  0  0  0  0  0  0  0  0  0  # atno 17320 bound_to 7965
  146.1779  140.6543  142.9203 LP  0  0  0  0  0  0  0  0  0  0  0  0  # atno 17321 bound_to 7965
  139.5374  144.2741  152.1281 LP  0  0  0  0  0  0  0  0  0  0  0  0  # atno 17342 bound_to 10162
  140.1944  144.4720  150.6462 LP  0  0  0  0  0  0  0  0  0  0  0  0  # atno 17343 bound_to 10162
  156.9211  130.9683  151.3548 LP  0  0  0  0  0  0  0  0  0  0  0  0  # atno 17370 bound_to 10713
  157.5957  130.8476  149.8726 LP  0  0  0  0  0  0  0  0  0  0  0  0  # atno 17371 bound_to 10713
  139.9056  135.0178  156.7469 LP  0  0  0  0  0  0  0  0  0  0  0  0  # atno 17394 bound_to 11000
  140.6835  133.9453  155.7924 LP  0  0  0  0  0  0  0  0  0  0  0  0  # atno 17395 bound_to 11000

$$$$
