AV-unprocessed.smi:37|AV-procd|sdf|321|dock9
  -GOLD-   2262016143D 1   1.00000     0.00000
 Structure written by MMmdl.
 43 44  0  0  0  0  0  0  0  0  2 V2000
  145.4534  137.5325  162.2779 C   0  0  0  0  0  0  0  0  0  0  0  0
  144.5549  138.4020  161.3878 C   0  0  0  0  0  0  0  0  0  0  0  0
  144.7470  138.1109  159.9007 C   0  0  0  0  0  0  0  0  0  0  0  0
  144.4499  137.0187  159.4166 O   0  0  0  0  0  0  0  0  0  0  0  0
  145.2772  139.1481  159.2361 O   0  0  0  0  0  0  0  0  0  0  0  0
  145.6570  139.0000  157.8788 C   0  0  0  0  0  0  0  0  0  0  0  0
  145.7043  140.3823  157.2144 C   0  0  2  0  0  0  0  0  0  0  0  0
  146.3811  140.3178  155.9573 O   0  0  0  0  0  0  0  0  0  0  0  0
  147.2465  141.4085  155.8030 C   0  0  2  0  0  0  0  0  0  0  0  0
  148.6865  140.9442  155.9221 N   0  0  0  0  0  0  0  0  0  0  0  0
  149.2008  140.4629  157.1157 C   0  0  0  0  0  0  0  0  0  0  0  0
  150.4834  140.0581  157.2139 C   0  0  0  0  0  0  0  0  0  0  0  0
  150.9513  139.5976  158.3867 F   0  0  0  0  0  0  0  0  0  0  0  0
  151.3540  140.1216  156.0421 C   0  0  0  0  0  0  0  0  0  0  0  0
  152.5253  139.7591  156.1398 O   0  0  0  0  0  0  0  0  0  0  0  0
  150.8195  140.5857  154.8760 N   0  5  0  0  0  0  0  0  0  0  0  0
  149.5214  140.9951  154.7714 C   0  0  0  0  0  0  0  0  0  0  0  0
  149.0317  141.4145  153.7226 O   0  0  0  0  0  0  0  0  0  0  0  0
  146.9117  142.3958  156.9256 C   0  0  1  0  0  0  0  0  0  0  0  0
  145.4319  143.5889  156.3156 Br  0  0  0  0  0  0  0  0  0  0  0  0
  146.4401  141.4576  158.0213 C   0  0  1  0  0  0  0  0  0  0  0  0
  145.6048  142.1380  158.9511 O   0  0  0  0  0  0  0  0  0  0  0  0
  146.1126  143.0737  159.7723 C   0  0  0  0  0  0  0  0  0  0  0  0
  147.3103  143.2943  159.9608 O   0  0  0  0  0  0  0  0  0  0  0  0
  145.0136  143.8621  160.4867 C   0  0  0  0  0  0  0  0  0  0  0  0
  145.0891  143.7700  162.0180 C   0  0  0  0  0  0  0  0  0  0  0  0
  145.3326  137.8055  163.3263 H   0  0  0  0  0  0  0  0  0  0  0  0
  146.5062  137.6576  162.0228 H   0  0  0  0  0  0  0  0  0  0  0  0
  145.2061  136.4745  162.1844 H   0  0  0  0  0  0  0  0  0  0  0  0
  143.5074  138.2419  161.6445 H   0  0  0  0  0  0  0  0  0  0  0  0
  144.7667  139.4561  161.5689 H   0  0  0  0  0  0  0  0  0  0  0  0
  146.6243  138.5019  157.8026 H   0  0  0  0  0  0  0  0  0  0  0  0
  144.9212  138.3715  157.3756 H   0  0  0  0  0  0  0  0  0  0  0  0
  144.6895  140.7171  156.9936 H   0  0  0  0  0  0  0  0  0  0  0  0
  147.1638  141.8240  154.7972 H   0  0  0  0  0  0  0  0  0  0  0  0
  148.5798  140.3998  157.9946 H   0  0  0  0  0  0  0  0  0  0  0  0
  147.7577  143.0202  157.2130 H   0  0  0  0  0  0  0  0  0  0  0  0
  147.3190  141.0227  158.5002 H   0  0  0  0  0  0  0  0  0  0  0  0
  145.0811  144.9050  160.1770 H   0  0  0  0  0  0  0  0  0  0  0  0
  144.0460  143.4935  160.1455 H   0  0  0  0  0  0  0  0  0  0  0  0
  144.2913  144.3535  162.4770 H   0  0  0  0  0  0  0  0  0  0  0  0
  146.0371  144.1551  162.3954 H   0  0  0  0  0  0  0  0  0  0  0  0
  144.9816  142.7397  162.3589 H   0  0  0  0  0  0  0  0  0  0  0  0
  1  2  1  0  0  0  0
  1 27  1  0  0  0  0
  1 28  1  0  0  0  0
  1 29  1  0  0  0  0
  2  3  1  0  0  0  0
  2 30  1  0  0  0  0
  2 31  1  0  0  0  0
  3  4  2  0  0  0  0
  3  5  1  0  0  0  0
  5  6  1  0  0  0  0
  6  7  1  0  0  0  0
  6 32  1  0  0  0  0
  6 33  1  0  0  0  0
  7 21  1  0  0  0  0
  7  8  1  0  0  0  0
  7 34  1  0  0  0  0
  8  9  1  0  0  0  0
  9 10  1  0  0  0  0
  9 19  1  0  0  0  0
  9 35  1  0  0  0  0
 10 17  1  0  0  0  0
 10 11  1  0  0  0  0
 11 12  2  0  0  0  0
 11 36  1  0  0  0  0
 12 13  1  0  0  0  0
 12 14  1  0  0  0  0
 14 15  2  0  0  0  0
 14 16  1  0  0  0  0
 16 17  1  0  0  0  0
 17 18  2  0  0  0  0
 19 20  1  0  0  0  0
 19 21  1  0  0  0  0
 19 37  1  0  0  0  0
 21 22  1  0  0  0  0
 21 38  1  0  0  0  0
 22 23  1  0  0  0  0
 23 24  2  0  0  0  0
 23 25  1  0  0  0  0
 25 26  1  0  0  0  0
 25 39  1  0  0  0  0
 25 40  1  0  0  0  0
 26 41  1  0  0  0  0
 26 42  1  0  0  0  0
 26 43  1  0  0  0  0
M  CHG  1  16  -1
M  END
> <s_m_source_file>
AV-unprocessed.smi

> <i_m_source_file_index>
37

> <i_lp_mmshare_version>
43012

> <i_f3d_flags>
0

> <s_epik_input>
W0NIM11bQ0gyXUMoPU8pT1tDSDJdW0NAQEhdMU9bQ0BASF0objJbY0hdYyhGKWMoPU8pW25IXWMyPU8pW0NAQEhdKEJyKVtDQEhdMU9DKD1PKVtDSDJdW0NIM10=

> <s_epik_cmdline>
J2VwaWtfcHl0aG9uJywgJy1waCcsICc3LjAnLCAnLXRuJywgJzgnLCAnLW1hJywgJzIwMCcsICctbWV0YWxfYmluZGluZycsICctaW1hZScsICc8aW5maWxlLm1hZT4nLCAnLW9tYWUnLCAnPG91dGZpbGUubWFlPic=

> <r_epik_Ionization_Penalty>
1.08158

> <r_epik_Ionization_Penalty_Charging>
9.05154e-09

> <r_epik_Ionization_Penalty_Neutral>
1.08158

> <r_epik_State_Penalty>
1.13706

> <r_epik_Charging_Adjusted_Penalty>
1.13706

> <i_epik_Tot_Q>
-1

> <i_epik_Tot_abs_Q>
1

> <r_epik_Metal_State_Penalty>
0.00343535

> <b_epik_Metal_Only>
0

> <s_epik_Chemistry_Notes>
This compound has an ester and may undergo hydrolysis at high or low pH. This compound contains an acetal/aminal-like group ( X-CH(R)-Y where X, Y are N, S, or O) that may be acid/base labile, releasing an aldehyde.

> <s_lp_Force_Field>
OPLS_2005

> <r_lp_Energy>
31.9514

> <b_lp_Chiralities_Consistent>
1

> <s_lp_Variant>
AV-unprocessed.smi:37-19

> <Gold.Version>
5.8.1

> <Gold.Id.Protein>
6NUR|6NUR_protein|mol2

> <Gold.PLP.Fitness>
40.8763

> <Gold.PLP.PLP>
-30.4973

> <Gold.PLP.part.hbond>
-5.8533

> <Gold.PLP.part.metal>
0.0000

> <Gold.PLP.part.buried>
-5.7115

> <Gold.PLP.part.nonpolar>
-20.4463

> <Gold.PLP.part.repulsive>
1.1550

> <Gold.PLP.ligand.clash>
0.0000

> <Gold.PLP.ligand.torsion>
0.5534

> <Gold.PLP.Chemscore.Hbond>
3.7920

> <Gold.PLP.Chemscore.CHOScore>
0.0000

> <Gold.PLP.Chemscore.Metal>
0.0000

> <Gold.Chemscore.Hbonds>
donor molecule, donor type, donor heavy atom, donor atom, acceptor molecule, acceptor atom, score
      P1  H  6933  6944       L1    24  0.80
      P1  H  7989  7998       L1    16  0.99
      P1  H  7997  8009       L1    15  1.00
      P1  H  8011  8017       L1    18  0.80

> <Gold.PLP.Chemscore.Internal.Correction>
0.1098

> <Gold.Rescore>
     Score         DG    S(hbond)    S(metal)    S(lipo)     H(rot)  DE(clash)    DE(int)     intcor
      9.88     -12.44       3.47        0.00      31.94       3.27       0.40       2.16       ----

> <Gold.Chemscore.Fitness>
9.8810

> <Gold.Chemscore.DG>
-12.4448

> <Gold.Chemscore.ZeroCoef>
-5.4800

> <Gold.Chemscore.Hbond>
3.4705

> <Gold.Chemscore.Metal>
0.0000

> <Gold.Chemscore.Lipo>
31.9376

> <Gold.Chemscore.Internal_Hbond>
0.0000

> <Gold.Chemscore.DEClash>
0.4020

> <Gold.Chemscore.DEInternal>
2.1617

> <Gold.Chemscore.Rot>
3.2669

> <Gold.Chemscore.Internal.Correction>
   9.000000E+99

> <Gold.Chemscore.Hbonds>
donor molecule, donor type, donor heavy atom, donor atom, acceptor molecule, acceptor atom, score
      P1  H  6933  6944       L1    24  0.75
      P1  H  7989  7998       L1    16  0.73
      P1  H  7997  8009       L1    15  1.00
      P1  H  8011  8017       L1    18  0.80

> <Gold.Chemscore.Hbond.Weighted>
-11.5914

> <Gold.Chemscore.Metal.Weighted>
-0.0000

> <Gold.Chemscore.Lipo.Weighted>
-3.7367

> <Gold.Chemscore.Internal_Hbond.Weighted>
0.0000

> <Gold.Chemscore.DEClash.Weighted>
0.4020

> <Gold.Chemscore.DEInternal.Weighted>
2.1617

> <Gold.Chemscore.Rot.Weighted>
8.3634

> <Gold.Chemscore.Internal.Correction.Weighted>
   9.000000E+99

> <Gold.Protein.RotatedTorsions>
[ 6907 6896 6895 6894 ] final  -42.67 input  -60.11 | X-H torsion
[ 7974 7965 7964 7962 ] final  -97.41 input  175.53 | X-H torsion
[ 8008 7997 7996 7995 ] final -167.64 input   59.86 | X-H torsion
[ 10167 10162 10161 10158 ] final  104.03 input  -65.29 | X-H torsion
[ 10718 10713 10712 10709 ] final  133.65 input   66.30 | X-H torsion
[ 10763 10752 10751 10750 ] final   37.67 input  -60.55 | X-H torsion
[ 11005 11000 10999 10996 ] final  -98.16 input  -57.11 | X-H torsion

> <Gold.Protein.ActiveResidues>
 VAL166  LYS551  ARG553  GLY616  TRP617  ASP618  TYR619  PRO620  LYS621  CYS622 
 ASP623  PHE694  ASN695  SER759  ASP760  ASP761  ALA762  ILE779  LEU786  VAL792 
 PHE793  MET794  SER795  GLU796  ALA797  LYS798  CYS799  TRP800  GLU811  SER814 

> <Gold.Protein.RotatedAtoms>
  150.9526  134.8924  159.7680 H   0  0  0  0  0  0  0  0  0  0  0  0  # atno 6907 bound_to 6896
  152.5125  134.3785  159.9353 H   0  0  0  0  0  0  0  0  0  0  0  0  # atno 6908 bound_to 6896
  151.3801  133.3784  159.2744 H   0  0  0  0  0  0  0  0  0  0  0  0  # atno 6909 bound_to 6896
  145.3341  140.9447  143.2645 H   0  0  0  0  0  0  0  0  0  0  0  0  # atno 7974 bound_to 7965
  155.8805  140.1008  157.1488 H   0  0  0  0  0  0  0  0  0  0  0  0  # atno 8008 bound_to 7997
  154.4005  140.1330  156.4254 H   0  0  0  0  0  0  0  0  0  0  0  0  # atno 8009 bound_to 7997
  155.7648  140.3462  155.5219 H   0  0  0  0  0  0  0  0  0  0  0  0  # atno 8010 bound_to 7997
  139.7212  144.7058  151.0870 H   0  0  0  0  0  0  0  0  0  0  0  0  # atno 10167 bound_to 10162
  157.4751  131.1082  150.9753 H   0  0  0  0  0  0  0  0  0  0  0  0  # atno 10718 bound_to 10713
  153.0029  135.6271  154.2182 H   0  0  0  0  0  0  0  0  0  0  0  0  # atno 10763 bound_to 10752
  154.1925  135.2808  155.3019 H   0  0  0  0  0  0  0  0  0  0  0  0  # atno 10764 bound_to 10752
  154.5748  135.5665  153.7188 H   0  0  0  0  0  0  0  0  0  0  0  0  # atno 10765 bound_to 10752
  141.1354  133.8224  157.0802 H   0  0  0  0  0  0  0  0  0  0  0  0  # atno 11005 bound_to 11000
  144.8841  139.4864  143.6709 LP  0  0  0  0  0  0  0  0  0  0  0  0  # atno 17320 bound_to 7965
  146.3034  139.7499  142.9074 LP  0  0  0  0  0  0  0  0  0  0  0  0  # atno 17321 bound_to 7965
  140.7754  143.5164  150.9590 LP  0  0  0  0  0  0  0  0  0  0  0  0  # atno 17342 bound_to 10162
  139.8851  143.7023  152.3152 LP  0  0  0  0  0  0  0  0  0  0  0  0  # atno 17343 bound_to 10162
  157.0505  130.5785  149.5369 LP  0  0  0  0  0  0  0  0  0  0  0  0  # atno 17370 bound_to 10713
  156.0093  130.5183  150.7935 LP  0  0  0  0  0  0  0  0  0  0  0  0  # atno 17371 bound_to 10713
  140.0456  134.9832  157.1043 LP  0  0  0  0  0  0  0  0  0  0  0  0  # atno 17394 bound_to 11000
  140.4068  134.2024  155.7163 LP  0  0  0  0  0  0  0  0  0  0  0  0  # atno 17395 bound_to 11000

$$$$
