AV-unprocessed.smi:39|AV-procd|sdf|358|dock3
  -GOLD-   2262016193D 1   1.00000     0.00000
 Structure written by MMmdl.
 32 33  0  0  0  0  0  0  0  0  3 V2000
  154.4490  140.9706  161.3833 C   0  0  0  0  0  0  0  0  0  0  0  0
  153.4401  142.0856  161.1631 C   0  0  0  0  0  0  0  0  0  0  0  0
  152.7752  142.2445  159.9902 C   0  0  0  0  0  0  0  0  0  0  0  0
  151.8455  143.2502  159.7615 N   0  0  0  0  0  0  0  0  0  0  0  0
  151.1216  143.3666  158.4393 C   0  0  2  0  0  0  0  0  0  0  0  0
  149.6106  143.1985  158.6386 C   0  0  0  0  0  0  0  0  0  0  0  0
  149.3814  141.7875  158.1201 C   0  0  1  0  0  0  0  0  0  0  0  0
  147.9994  141.5169  157.6900 N   0  0  0  0  0  0  0  0  0  0  0  0
  147.0761  141.7732  158.4767 N   0  3  0  0  0  0  0  0  0  0  0  0
  146.2571  141.9008  159.2563 N   0  5  0  0  0  0  0  0  0  0  0  0
  150.4409  141.6808  157.0139 C   0  0  2  0  0  0  0  0  0  0  0  0
  150.8166  140.2339  156.6598 C   0  0  0  0  0  0  0  0  0  0  0  0
  151.3665  140.1819  155.3610 O   0  0  0  0  0  0  0  0  0  0  0  0
  151.5605  142.3450  157.5918 O   0  0  0  0  0  0  0  0  0  0  0  0
  151.5382  144.1556  160.7983 C   0  0  0  0  0  0  0  0  0  0  0  0
  150.7008  145.0494  160.6818 O   0  0  0  0  0  0  0  0  0  0  0  0
  152.2256  143.9972  162.0002 N   0  0  0  0  0  0  0  0  0  0  0  0
  153.1789  143.0119  162.2685 C   0  0  0  0  0  0  0  0  0  0  0  0
  153.7207  142.9755  163.3722 O   0  0  0  0  0  0  0  0  0  0  0  0
  151.3979  144.3270  158.0009 H   0  0  0  0  0  0  0  0  0  0  0  0
  149.6451  141.0918  158.9178 H   0  0  0  0  0  0  0  0  0  0  0  0
  150.1261  142.2351  156.1276 H   0  0  0  0  0  0  0  0  0  0  0  0
  152.0128  144.6473  162.7426 H   0  0  0  0  0  0  0  0  0  0  0  0
  154.5663  140.3495  160.4948 H   0  0  0  0  0  0  0  0  0  0  0  0
  154.1300  140.3249  162.2024 H   0  0  0  0  0  0  0  0  0  0  0  0
  155.4267  141.3841  161.6336 H   0  0  0  0  0  0  0  0  0  0  0  0
  152.9817  141.5425  159.1959 H   0  0  0  0  0  0  0  0  0  0  0  0
  149.3132  143.3350  159.6792 H   0  0  0  0  0  0  0  0  0  0  0  0
  149.1027  143.9472  158.0295 H   0  0  0  0  0  0  0  0  0  0  0  0
  151.5130  139.8144  157.3864 H   0  0  0  0  0  0  0  0  0  0  0  0
  149.9271  139.6034  156.6617 H   0  0  0  0  0  0  0  0  0  0  0  0
  152.1157  139.6060  155.3742 H   0  0  0  0  0  0  0  0  0  0  0  0
  1  2  1  0  0  0  0
  1 24  1  0  0  0  0
  1 25  1  0  0  0  0
  1 26  1  0  0  0  0
  2 18  1  0  0  0  0
  2  3  2  0  0  0  0
  3  4  1  0  0  0  0
  3 27  1  0  0  0  0
  4  5  1  0  0  0  0
  4 15  1  0  0  0  0
  5 20  1  0  0  0  0
  5 14  1  0  0  0  0
  5  6  1  0  0  0  0
  6  7  1  0  0  0  0
  6 28  1  0  0  0  0
  6 29  1  0  0  0  0
  7 21  1  0  0  0  0
  7  8  1  0  0  0  0
  7 11  1  0  0  0  0
  8  9  2  0  0  0  0
  9 10  2  0  0  0  0
 11 22  1  0  0  0  0
 11 12  1  0  0  0  0
 11 14  1  0  0  0  0
 12 13  1  0  0  0  0
 12 30  1  0  0  0  0
 12 31  1  0  0  0  0
 13 32  1  0  0  0  0
 15 16  2  0  0  0  0
 15 17  1  0  0  0  0
 17 23  1  0  0  0  0
 17 18  1  0  0  0  0
 18 19  2  0  0  0  0
M  CHG  1   9   1
M  CHG  1  10  -1
M  END
> <s_m_source_file>
AV-unprocessed.smi

> <i_m_source_file_index>
39

> <i_lp_mmshare_version>
43012

> <i_f3d_flags>
0

> <s_epik_input>
Tz1jMVtuSF1jKD1PKW4oW2NIXWMxW0NIM10pW0NASF0yW0NIMl1bQ0BIXShOPVtOK109W04tXSlbQ0BIXShPMilbQ0gyXVtPSF0=

> <s_epik_cmdline>
J2VwaWtfcHl0aG9uJywgJy1waCcsICc3LjAnLCAnLXRuJywgJzgnLCAnLW1hJywgJzIwMCcsICctbWV0YWxfYmluZGluZycsICctaW1hZScsICc8aW5maWxlLm1hZT4nLCAnLW9tYWUnLCAnPG91dGZpbGUubWFlPic=

> <r_lp_tautomer_probability>
0.999537

> <r_epik_Ionization_Penalty>
0.00127512

> <r_epik_Ionization_Penalty_Charging>
0.00127507

> <r_epik_Ionization_Penalty_Neutral>
5.43433e-08

> <r_epik_State_Penalty>
0.000844892

> <r_epik_Charging_Adjusted_Penalty>
0.00211996

> <i_epik_Tot_Q>
0

> <i_epik_Tot_abs_Q>
2

> <r_epik_Metal_State_Penalty>
0.680636

> <b_epik_Metal_Only>
0

> <s_epik_Chemistry_Notes>
This compound contains an acetal/aminal-like group ( X-CH(R)-Y where X, Y are N, S, or O) that may be acid/base labile, releasing an aldehyde.

> <s_lp_Force_Field>
OPLS_2005

> <r_lp_Energy>
25.9236

> <b_lp_Chiralities_Consistent>
1

> <s_lp_Variant>
AV-unprocessed.smi:39-8

> <Gold.Version>
5.8.1

> <Gold.Id.Protein>
6NUR|6NUR_protein|mol2

> <Gold.PLP.Fitness>
40.9661

> <Gold.PLP.PLP>
-35.9590

> <Gold.PLP.part.hbond>
-3.5029

> <Gold.PLP.part.metal>
0.0000

> <Gold.PLP.part.buried>
-6.4236

> <Gold.PLP.part.nonpolar>
-26.5676

> <Gold.PLP.part.repulsive>
1.3344

> <Gold.PLP.ligand.clash>
0.0000

> <Gold.PLP.ligand.torsion>
0.3627

> <Gold.PLP.Chemscore.Hbond>
1.9040

> <Gold.PLP.Chemscore.CHOScore>
0.0000

> <Gold.PLP.Chemscore.Metal>
0.0000

> <Gold.Chemscore.Hbonds>
donor molecule, donor type, donor heavy atom, donor atom, acceptor molecule, acceptor atom, score
      P1  H  6934  6946       L1    10  0.99
      P1  H  7989  7998       L1    13  0.80

> <Gold.PLP.Chemscore.Internal.Correction>
0.0204

> <Gold.Rescore>
     Score         DG    S(hbond)    S(metal)    S(lipo)     H(rot)  DE(clash)    DE(int)     intcor
      7.01      -8.54       1.34        0.00      48.16       2.75       0.10       1.43       ----

> <Gold.Chemscore.Fitness>
7.0062

> <Gold.Chemscore.DG>
-8.5376

> <Gold.Chemscore.ZeroCoef>
-5.4800

> <Gold.Chemscore.Hbond>
1.3380

> <Gold.Chemscore.Metal>
0.0000

> <Gold.Chemscore.Lipo>
48.1606

> <Gold.Chemscore.Internal_Hbond>
0.0000

> <Gold.Chemscore.DEClash>
0.1002

> <Gold.Chemscore.DEInternal>
1.4312

> <Gold.Chemscore.Rot>
2.7524

> <Gold.Chemscore.Internal.Correction>
   9.000000E+99

> <Gold.Chemscore.Hbonds>
donor molecule, donor type, donor heavy atom, donor atom, acceptor molecule, acceptor atom, score
      P1  H  6934  6946       L1    10  0.33
      P1  H  7989  7998       L1    13  0.11

> <Gold.Chemscore.Hbond.Weighted>
-4.4689

> <Gold.Chemscore.Metal.Weighted>
-0.0000

> <Gold.Chemscore.Lipo.Weighted>
-5.6348

> <Gold.Chemscore.Internal_Hbond.Weighted>
0.0000

> <Gold.Chemscore.DEClash.Weighted>
0.1002

> <Gold.Chemscore.DEInternal.Weighted>
1.4312

> <Gold.Chemscore.Rot.Weighted>
7.0461

> <Gold.Chemscore.Internal.Correction.Weighted>
   9.000000E+99

> <Gold.Protein.RotatedTorsions>
[ 6907 6896 6895 6894 ] final  -59.38 input  -60.11 | X-H torsion
[ 7974 7965 7964 7962 ] final -174.35 input  175.53 | X-H torsion
[ 8008 7997 7996 7995 ] final -161.51 input   59.86 | X-H torsion
[ 10167 10162 10161 10158 ] final -105.13 input  -65.29 | X-H torsion
[ 10718 10713 10712 10709 ] final -129.88 input   66.30 | X-H torsion
[ 10763 10752 10751 10750 ] final   94.13 input  -60.55 | X-H torsion
[ 11005 11000 10999 10996 ] final  176.53 input  -57.11 | X-H torsion

> <Gold.Protein.ActiveResidues>
 VAL166  LYS551  ARG553  GLY616  TRP617  ASP618  TYR619  PRO620  LYS621  CYS622 
 ASP623  PHE694  ASN695  SER759  ASP760  ASP761  ALA762  ILE779  LEU786  VAL792 
 PHE793  MET794  SER795  GLU796  ALA797  LYS798  CYS799  TRP800  GLU811  SER814 

> <Gold.Protein.RotatedAtoms>
  150.7935  134.6977  159.6531 H   0  0  0  0  0  0  0  0  0  0  0  0  # atno 6907 bound_to 6896
  152.4044  134.6229  160.0065 H   0  0  0  0  0  0  0  0  0  0  0  0  # atno 6908 bound_to 6896
  151.6490  133.3285  159.3184 H   0  0  0  0  0  0  0  0  0  0  0  0  # atno 6909 bound_to 6896
  144.7132  140.1485  143.6386 H   0  0  0  0  0  0  0  0  0  0  0  0  # atno 7974 bound_to 7965
  155.7933  140.0881  157.1997 H   0  0  0  0  0  0  0  0  0  0  0  0  # atno 8008 bound_to 7997
  154.3984  140.1486  156.3247 H   0  0  0  0  0  0  0  0  0  0  0  0  # atno 8009 bound_to 7997
  155.8537  140.3433  155.5712 H   0  0  0  0  0  0  0  0  0  0  0  0  # atno 8010 bound_to 7997
  140.2018  143.3813  152.1123 H   0  0  0  0  0  0  0  0  0  0  0  0  # atno 10167 bound_to 10162
  156.2090  130.6906  151.0628 H   0  0  0  0  0  0  0  0  0  0  0  0  # atno 10718 bound_to 10713
  153.2382  135.4300  155.0669 H   0  0  0  0  0  0  0  0  0  0  0  0  # atno 10763 bound_to 10752
  154.8328  135.3396  154.6688 H   0  0  0  0  0  0  0  0  0  0  0  0  # atno 10764 bound_to 10752
  153.7113  135.7022  153.5093 H   0  0  0  0  0  0  0  0  0  0  0  0  # atno 10765 bound_to 10752
  140.3741  134.7004  157.4410 H   0  0  0  0  0  0  0  0  0  0  0  0  # atno 11005 bound_to 11000
  145.9138  139.2503  143.1422 LP  0  0  0  0  0  0  0  0  0  0  0  0  # atno 17320 bound_to 7965
  145.9689  140.8776  143.0172 LP  0  0  0  0  0  0  0  0  0  0  0  0  # atno 17321 bound_to 7965
  139.5214  144.7045  151.5394 LP  0  0  0  0  0  0  0  0  0  0  0  0  # atno 17342 bound_to 10162
  140.6385  143.8936  150.6669 LP  0  0  0  0  0  0  0  0  0  0  0  0  # atno 17343 bound_to 10162
  157.7028  131.0769  150.6765 LP  0  0  0  0  0  0  0  0  0  0  0  0  # atno 17370 bound_to 10713
  156.6824  130.4571  149.5624 LP  0  0  0  0  0  0  0  0  0  0  0  0  # atno 17371 bound_to 10713
  140.0529  134.6105  155.8840 LP  0  0  0  0  0  0  0  0  0  0  0  0  # atno 17394 bound_to 11000
  141.1945  133.6583  156.5598 LP  0  0  0  0  0  0  0  0  0  0  0  0  # atno 17395 bound_to 11000

$$$$
