AV-unprocessed.smi:1256|AV-procd|sdf|5283|dock9
  -GOLD-   22720 4403D 1   1.00000     0.00000
 Structure written by MMmdl.
 41 42  0  0  0  0  0  0  0  0  1 V2000
  150.7849  141.9005  156.4313 C   0  0  0  0  0  0  0  0  0  0  0  0
  150.4358  140.7230  155.5697 C   0  0  0  0  0  0  0  0  0  0  0  0
  149.2044  140.4572  154.9030 C   0  0  0  0  0  0  0  0  0  0  0  0
  149.4516  139.2656  154.2778 C   0  0  0  0  0  0  0  0  0  0  0  0
  148.6253  138.5238  153.4933 N   0  0  0  0  0  0  0  0  0  0  0  0
  147.2902  138.6099  153.3608 C   0  0  0  0  0  0  0  0  0  0  0  0
  146.5629  139.4073  153.9535 O   0  0  0  0  0  0  0  0  0  0  0  0
  146.8325  137.7054  152.4833 N   0  0  0  0  0  0  0  0  0  0  0  0
  145.4338  137.5395  152.1064 C   0  0  0  0  0  0  0  0  0  0  0  0
  144.7441  136.4628  152.9627 C   0  0  0  0  0  0  0  0  0  0  0  0
  144.2956  135.2603  152.1490 C   0  0  0  0  0  0  0  0  0  0  0  0
  143.1196  134.6447  152.3801 C   0  0  0  0  0  0  0  0  0  0  0  0
  142.6381  133.4144  151.6315 C   0  0  0  0  0  0  0  0  0  0  0  0
  143.7683  132.7268  150.8478 C   0  0  0  0  0  0  0  0  0  0  0  0
  144.6365  133.7548  150.1122 C   0  0  0  0  0  0  0  0  0  0  0  0
  145.2722  134.7602  151.0895 C   0  0  0  0  0  0  0  0  0  0  0  0
  150.7400  138.8718  154.5639 N   0  0  0  0  0  0  0  0  0  0  0  0
  151.4583  137.6871  154.1361 C   0  0  0  0  0  0  0  0  0  0  0  0
  151.3446  139.7761  155.3644 N   0  0  0  0  0  0  0  0  0  0  0  0
  149.9451  142.5909  156.5140 H   0  0  0  0  0  0  0  0  0  0  0  0
  151.6289  142.4529  156.0177 H   0  0  0  0  0  0  0  0  0  0  0  0
  151.0537  141.5837  157.4395 H   0  0  0  0  0  0  0  0  0  0  0  0
  148.3047  141.0536  154.8994 H   0  0  0  0  0  0  0  0  0  0  0  0
  149.0828  137.8206  152.9324 H   0  0  0  0  0  0  0  0  0  0  0  0
  147.4986  137.0887  152.0413 H   0  0  0  0  0  0  0  0  0  0  0  0
  144.9330  138.4981  152.2450 H   0  0  0  0  0  0  0  0  0  0  0  0
  145.3641  137.3044  151.0435 H   0  0  0  0  0  0  0  0  0  0  0  0
  145.4095  136.1171  153.7548 H   0  0  0  0  0  0  0  0  0  0  0  0
  143.8779  136.9006  153.4611 H   0  0  0  0  0  0  0  0  0  0  0  0
  142.4501  135.0310  153.1351 H   0  0  0  0  0  0  0  0  0  0  0  0
  142.1986  132.7121  152.3402 H   0  0  0  0  0  0  0  0  0  0  0  0
  141.8415  133.7222  150.9534 H   0  0  0  0  0  0  0  0  0  0  0  0
  144.3943  132.1559  151.5349 H   0  0  0  0  0  0  0  0  0  0  0  0
  143.3492  132.0086  150.1424 H   0  0  0  0  0  0  0  0  0  0  0  0
  145.4153  133.2522  149.5383 H   0  0  0  0  0  0  0  0  0  0  0  0
  144.0191  134.2911  149.3904 H   0  0  0  0  0  0  0  0  0  0  0  0
  145.6778  135.5984  150.5241 H   0  0  0  0  0  0  0  0  0  0  0  0
  146.1135  134.2957  151.6051 H   0  0  0  0  0  0  0  0  0  0  0  0
  151.3741  137.5763  153.0549 H   0  0  0  0  0  0  0  0  0  0  0  0
  151.0333  136.8074  154.6199 H   0  0  0  0  0  0  0  0  0  0  0  0
  152.5139  137.7619  154.4002 H   0  0  0  0  0  0  0  0  0  0  0  0
  1  2  1  0  0  0  0
  1 20  1  0  0  0  0
  1 21  1  0  0  0  0
  1 22  1  0  0  0  0
  2 19  2  0  0  0  0
  2  3  1  0  0  0  0
  3  4  2  0  0  0  0
  3 23  1  0  0  0  0
  4  5  1  0  0  0  0
  4 17  1  0  0  0  0
  5  6  1  0  0  0  0
  5 24  1  0  0  0  0
  6  7  2  0  0  0  0
  6  8  1  0  0  0  0
  8  9  1  0  0  0  0
  8 25  1  0  0  0  0
  9 10  1  0  0  0  0
  9 26  1  0  0  0  0
  9 27  1  0  0  0  0
 10 11  1  0  0  0  0
 10 28  1  0  0  0  0
 10 29  1  0  0  0  0
 11 16  1  0  0  0  0
 11 12  2  0  0  0  0
 12 13  1  0  0  0  0
 12 30  1  0  0  0  0
 13 14  1  0  0  0  0
 13 31  1  0  0  0  0
 13 32  1  0  0  0  0
 14 15  1  0  0  0  0
 14 33  1  0  0  0  0
 14 34  1  0  0  0  0
 15 16  1  0  0  0  0
 15 35  1  0  0  0  0
 15 36  1  0  0  0  0
 16 37  1  0  0  0  0
 16 38  1  0  0  0  0
 17 18  1  0  0  0  0
 17 19  1  0  0  0  0
 18 39  1  0  0  0  0
 18 40  1  0  0  0  0
 18 41  1  0  0  0  0
M  END
> <s_m_source_file>
AV-unprocessed.smi

> <i_m_source_file_index>
1256

> <i_lp_mmshare_version>
43012

> <i_f3d_flags>
0

> <s_epik_input>
W0NIM11jMVtjSF1jKG4objEpW0NIM10pW05IXUMoPU8pW05IXVtDSDJdW0NIMl1DMj1bQ0hdW0NIMl1bQ0gyXVtDSDJdW0NIMl0y

> <s_epik_cmdline>
J2VwaWtfcHl0aG9uJywgJy1waCcsICc3LjAnLCAnLXRuJywgJzgnLCAnLW1hJywgJzIwMCcsICctbWV0YWxfYmluZGluZycsICctaW1hZScsICc8aW5maWxlLm1hZT4nLCAnLW9tYWUnLCAnPG91dGZpbGUubWFlPic=

> <r_lp_tautomer_probability>
1

> <r_epik_Ionization_Penalty>
9.50632e-05

> <r_epik_Ionization_Penalty_Charging>
0

> <r_epik_Ionization_Penalty_Neutral>
9.50632e-05

> <r_epik_State_Penalty>
-0

> <r_epik_Charging_Adjusted_Penalty>
0

> <i_epik_Tot_Q>
0

> <i_epik_Tot_abs_Q>
0

> <r_epik_Metal_State_Penalty>
-0

> <b_epik_Metal_Only>
0

> <s_lp_Force_Field>
OPLS_2005

> <r_lp_Energy>
8.63058

> <b_lp_Chiralities_Consistent>
1

> <s_lp_Variant>
AV-unprocessed.smi:1256-1

> <Gold.Version>
5.8.1

> <Gold.Id.Protein>
6NUR|6NUR_protein|mol2

> <Gold.PLP.Fitness>
40.3654

> <Gold.PLP.PLP>
-36.0422

> <Gold.PLP.part.hbond>
-4.0000

> <Gold.PLP.part.metal>
0.0000

> <Gold.PLP.part.buried>
0.3611

> <Gold.PLP.part.nonpolar>
-32.7271

> <Gold.PLP.part.repulsive>
0.2909

> <Gold.PLP.ligand.clash>
0.0000

> <Gold.PLP.ligand.torsion>
0.8725

> <Gold.PLP.Chemscore.Hbond>
2.0191

> <Gold.PLP.Chemscore.CHOScore>
0.0000

> <Gold.PLP.Chemscore.Metal>
0.0000

> <Gold.Chemscore.Hbonds>
donor molecule, donor type, donor heavy atom, donor atom, acceptor molecule, acceptor atom, score
      L1  H     5    24       P1  7948  1.00
      L1  H     8    25       P1  7948  1.00
      P1  H  7989  7998       L1    19  0.02

> <Gold.PLP.Chemscore.Internal.Correction>
0.0108

> <Gold.Rescore>
     Score         DG    S(hbond)    S(metal)    S(lipo)     H(rot)  DE(clash)    DE(int)     intcor
     14.58     -17.06       1.86        0.00      76.29       1.40       0.81       1.66       ----

> <Gold.Chemscore.Fitness>
14.5832

> <Gold.Chemscore.DG>
-17.0589

> <Gold.Chemscore.ZeroCoef>
-5.4800

> <Gold.Chemscore.Hbond>
1.8643

> <Gold.Chemscore.Metal>
0.0000

> <Gold.Chemscore.Lipo>
76.2865

> <Gold.Chemscore.Internal_Hbond>
0.0000

> <Gold.Chemscore.DEClash>
0.8124

> <Gold.Chemscore.DEInternal>
1.6634

> <Gold.Chemscore.Rot>
1.3958

> <Gold.Chemscore.Internal.Correction>
   9.000000E+99

> <Gold.Chemscore.Hbonds>
donor molecule, donor type, donor heavy atom, donor atom, acceptor molecule, acceptor atom, score
      L1  H     5    24       P1  7948  0.94
      L1  H     8    25       P1  7948  0.99

> <Gold.Chemscore.Hbond.Weighted>
-6.2267

> <Gold.Chemscore.Metal.Weighted>
-0.0000

> <Gold.Chemscore.Lipo.Weighted>
-8.9255

> <Gold.Chemscore.Internal_Hbond.Weighted>
0.0000

> <Gold.Chemscore.DEClash.Weighted>
0.8124

> <Gold.Chemscore.DEInternal.Weighted>
1.6634

> <Gold.Chemscore.Rot.Weighted>
3.5733

> <Gold.Chemscore.Internal.Correction.Weighted>
   9.000000E+99

> <Gold.Protein.RotatedTorsions>
[ 6907 6896 6895 6894 ] final   13.33 input  -60.11 | X-H torsion
[ 7974 7965 7964 7962 ] final   45.92 input  175.53 | X-H torsion
[ 8008 7997 7996 7995 ] final  -29.33 input   59.86 | X-H torsion
[ 10167 10162 10161 10158 ] final   27.21 input  -65.29 | X-H torsion
[ 10718 10713 10712 10709 ] final   64.90 input   66.30 | X-H torsion
[ 10763 10752 10751 10750 ] final  -83.07 input  -60.55 | X-H torsion
[ 11005 11000 10999 10996 ] final  -18.46 input  -57.11 | X-H torsion

> <Gold.Protein.ActiveResidues>
 VAL166  LYS551  ARG553  GLY616  TRP617  ASP618  TYR619  PRO620  LYS621  CYS622 
 ASP623  PHE694  ASN695  SER759  ASP760  ASP761  ALA762  ILE779  LEU786  VAL792 
 PHE793  MET794  SER795  GLU796  ALA797  LYS798  CYS799  TRP800  GLU811  SER814 

> <Gold.Protein.RotatedAtoms>
  151.7846  135.0752  160.0378 H   0  0  0  0  0  0  0  0  0  0  0  0  # atno 6907 bound_to 6896
  152.3199  133.5838  159.5746 H   0  0  0  0  0  0  0  0  0  0  0  0  # atno 6908 bound_to 6896
  150.7364  133.9942  159.3659 H   0  0  0  0  0  0  0  0  0  0  0  0  # atno 6909 bound_to 6896
  146.0437  139.4912  142.9762 H   0  0  0  0  0  0  0  0  0  0  0  0  # atno 7974 bound_to 7965
  154.4294  140.1821  156.1230 H   0  0  0  0  0  0  0  0  0  0  0  0  # atno 8008 bound_to 7997
  156.0128  140.3349  155.6933 H   0  0  0  0  0  0  0  0  0  0  0  0  # atno 8009 bound_to 7997
  155.6087  140.0648  157.2703 H   0  0  0  0  0  0  0  0  0  0  0  0  # atno 8010 bound_to 7997
  140.4957  144.0395  150.6313 H   0  0  0  0  0  0  0  0  0  0  0  0  # atno 10167 bound_to 10162
  157.6070  130.9185  149.9906 H   0  0  0  0  0  0  0  0  0  0  0  0  # atno 10718 bound_to 10713
  154.5833  135.5569  153.7207 H   0  0  0  0  0  0  0  0  0  0  0  0  # atno 10763 bound_to 10752
  153.0089  135.6325  154.1952 H   0  0  0  0  0  0  0  0  0  0  0  0  # atno 10764 bound_to 10752
  154.1892  135.2883  155.3007 H   0  0  0  0  0  0  0  0  0  0  0  0  # atno 10765 bound_to 10752
  140.8270  133.8026  155.9718 H   0  0  0  0  0  0  0  0  0  0  0  0  # atno 11005 bound_to 11000
  145.6842  141.0182  143.1590 LP  0  0  0  0  0  0  0  0  0  0  0  0  # atno 17320 bound_to 7965
  144.7087  139.8457  143.7421 LP  0  0  0  0  0  0  0  0  0  0  0  0  # atno 17321 bound_to 7965
  140.3677  143.2872  152.0313 LP  0  0  0  0  0  0  0  0  0  0  0  0  # atno 17342 bound_to 10162
  139.4861  144.6254  151.7174 LP  0  0  0  0  0  0  0  0  0  0  0  0  # atno 17343 bound_to 10162
  156.1160  130.3648  149.9968 LP  0  0  0  0  0  0  0  0  0  0  0  0  # atno 17370 bound_to 10713
  156.8057  130.9307  151.3645 LP  0  0  0  0  0  0  0  0  0  0  0  0  # atno 17371 bound_to 10713
  140.9039  134.2344  157.5026 LP  0  0  0  0  0  0  0  0  0  0  0  0  # atno 17394 bound_to 11000
  139.8706  134.9719  156.4754 LP  0  0  0  0  0  0  0  0  0  0  0  0  # atno 17395 bound_to 11000

$$$$
