#       Name:                AV-unprocessed.smi:702
#       Creating user name   scv26
#       Creation time:       Fri Mar 27 00:40:28 2020


#       File generated by GOLD software.
#

@<TRIPOS>MOLECULE
AV-unprocessed.smi:702
    55    57     1
SMALL
NO_CHARGES


@<TRIPOS>ATOM
      1 ****        -1.1685  -0.7386   2.2785 C.3            1 S1                 0.0000
      2 ****        -0.6596  -0.0831   0.9800 C.3            1 S1                 0.0000
      3 ****         0.8064  -0.0248   1.0335 N.am           1 S1                 0.0000
      4 ****         1.5671   1.0803   1.0031 C.2            1 S1                 0.0000
      5 ****         1.1106   2.2213   0.9415 O.2            1 S1                 0.0000
      6 ****         2.8736   0.7679   1.0566 N.am           1 S1                 0.0000
      7 ****         4.0000   1.6359   1.0299 C.ar           1 S1                 0.0000
      8 ****         5.2300   1.1189   1.4946 C.ar           1 S1                 0.0000
      9 ****         6.3799   1.9345   1.4767 C.ar           1 S1                 0.0000
     10 ****         6.3005   3.1984   1.0086 N.pl3          1 S1                 1.0000
     11 ****         5.1519   3.7323   0.5411 C.ar           1 S1                 0.0000
     12 ****         3.9693   2.9646   0.5334 C.ar           1 S1                 0.0000
     13 ****        -1.1799  -0.7899  -0.3258 C.3            1 S1                 0.0000
     14 ****        -2.6931  -0.8329  -0.3391 N.4            1 S1                 1.0000
     15 ****        -3.3738   0.4949  -0.2949 C.3            1 S1                 0.0000
     16 ****        -4.8962   0.3290  -0.1504 C.3            1 S1                 0.0000
     17 ****        -5.4008  -0.4595  -1.2170 O.3            1 S1                 0.0000
     18 ****        -4.8410  -1.7635  -1.2077 C.3            1 S1                 0.0000
     19 ****        -3.3196  -1.6713  -1.4067 C.3            1 S1                 0.0000
     20 ****        -0.6300  -0.0660  -1.5934 C.3            1 S1                 0.0000
     21 ****         0.4615  -0.9618  -2.1815 C.3            1 S1                 0.0000
     22 ****         0.0127  -2.3730  -1.8241 C.3            1 S1                 0.0000
     23 ****        -0.5668  -2.2254  -0.4164 C.3            1 S1                 0.0000
     24 ****        -2.2569  -0.7353   2.3330 H              1 S1                 0.0000
     25 ****        -0.8045  -0.1993   3.1537 H              1 S1                 0.0000
     26 ****        -0.8352  -1.7725   2.3699 H              1 S1                 0.0000
     27 ****        -1.0137   0.9456   0.9891 H              1 S1                 0.0000
     28 ****         1.2819  -0.9140   1.0883 H              1 S1                 0.0000
     29 ****         3.0880  -0.2110   1.1797 H              1 S1                 0.0000
     30 ****         5.2952   0.1070   1.8680 H              1 S1                 0.0000
     31 ****         7.3535   1.6152   1.8190 H              1 S1                 0.0000
     32 ****         5.2136   4.7500   0.1838 H              1 S1                 0.0000
     33 ****         3.0696   3.4084   0.1361 H              1 S1                 0.0000
     34 ****        -3.0419   1.0950   0.5482 H              1 S1                 0.0000
     35 ****        -3.1518   1.0641  -1.1981 H              1 S1                 0.0000
     36 ****        -5.1488  -0.1277   0.8079 H              1 S1                 0.0000
     37 ****        -5.3830   1.3042  -0.1742 H              1 S1                 0.0000
     38 ****        -5.0844  -2.2751  -0.2750 H              1 S1                 0.0000
     39 ****        -5.2895  -2.3436  -2.0145 H              1 S1                 0.0000
     40 ****        -3.1181  -1.2549  -2.3930 H              1 S1                 0.0000
     41 ****        -2.9338  -2.6876  -1.4157 H              1 S1                 0.0000
     42 ****        -1.3965   0.0665  -2.3546 H              1 S1                 0.0000
     43 ****        -0.2562   0.9363  -1.3829 H              1 S1                 0.0000
     44 ****         0.5848  -0.8210  -3.2558 H              1 S1                 0.0000
     45 ****         1.4192  -0.7457  -1.7063 H              1 S1                 0.0000
     46 ****        -0.7600  -2.7032  -2.5190 H              1 S1                 0.0000
     47 ****         0.8290  -3.0946  -1.8670 H              1 S1                 0.0000
     48 ****         0.2613  -2.3546   0.2792 H              1 S1                 0.0000
     49 ****        -1.2567  -3.0259  -0.1526 H              1 S1                 0.0000
     50 ****        -2.9413  -1.2875   0.5282 H              1 S1                 0.0000
     51 ****         7.1443   3.7723   1.0034 H              1 S1                 0.0000
     52 ****         0.1211   2.3630   0.9112 LP             1 S1                 0.0000
     53 ****         1.7290   3.0069   0.9218 LP             1 S1                 0.0000
     54 ****        -5.1763  -0.0153  -2.0843 LP             1 S1                 0.0000
     55 ****        -6.3942  -0.5313  -1.1267 LP             1 S1                 0.0000
@<TRIPOS>BOND
    1    1    2 1     
    2    1   24 1     
    3    1   25 1     
    4    1   26 1     
    5    2    3 1     
    6    2   13 1     
    7    2   27 1     
    8    3    4 am    
    9    3   28 1     
   10    4    5 2     
   11    4    6 am    
   12    6    7 1     
   13    6   29 1     
   14    7   12 ar    
   15    7    8 ar    
   16    8    9 ar    
   17    8   30 1     
   18    9   10 ar    
   19    9   31 1     
   20   10   11 ar    
   21   10   51 1     
   22   11   12 ar    
   23   11   32 1     
   24   12   33 1     
   25   13   23 1     
   26   13   14 1     
   27   13   20 1     
   28   14   19 1     
   29   14   15 1     
   30   14   50 1     
   31   15   16 1     
   32   15   34 1     
   33   15   35 1     
   34   16   17 1     
   35   16   36 1     
   36   16   37 1     
   37   17   18 1     
   38   18   19 1     
   39   18   38 1     
   40   18   39 1     
   41   19   40 1     
   42   19   41 1     
   43   20   21 1     
   44   20   42 1     
   45   20   43 1     
   46   21   22 1     
   47   21   44 1     
   48   21   45 1     
   49   22   23 1     
   50   22   46 1     
   51   22   47 1     
   52   23   48 1     
   53   23   49 1     
   54    5   52 1     
   55    5   53 1     
   56   17   54 1     
   57   17   55 1     
@<TRIPOS>SUBSTRUCTURE
      1 S1             1
@<TRIPOS>SET
LONE_PAIRS      STATIC     ATOMS    <user>   **** ""
4 52 53 54 55
DONOR_HYDROGENS      STATIC     ATOMS    <user>   **** ""
4 28 29 51 50
ATOM$BLUE        STATIC     ATOMS    COLORGROUP SYSTEM
4 52 53 54 55
ATOM$RED        STATIC     ATOMS    COLORGROUP SYSTEM
4 28 29 51 50
