AV-unprocessed.smi:1285|AV-procd|sdf|5373|dock1
  -GOLD-   22720 4513D 1   1.00000     0.00000
 Structure written by MMmdl.
 47 48  0  0  0  0  0  0  0  0  2 V2000
  150.0976  132.8618  154.9850 C   0  0  0  0  0  0  0  0  0  0  0  0
  149.1728  133.3389  153.8506 C   0  0  0  0  0  0  0  0  0  0  0  0
  147.9034  134.1304  154.2904 C   0  0  1  0  0  0  0  0  0  0  0  0
  147.0106  133.2132  155.1664 C   0  0  0  0  0  0  0  0  0  0  0  0
  148.3275  135.3525  155.1649 C   0  0  0  0  0  0  0  0  0  0  0  0
  148.4607  136.6017  154.4139 N   0  0  0  0  0  0  0  0  0  0  0  0
  147.9080  137.7795  154.7460 C   0  0  0  0  0  0  0  0  0  0  0  0
  147.1949  137.9312  155.7381 O   0  0  0  0  0  0  0  0  0  0  0  0
  148.2082  138.9590  153.8078 C   0  0  1  0  0  0  0  0  0  0  0  0
  146.9736  139.4055  152.9991 C   0  0  0  0  0  0  0  0  0  0  0  0
  148.8029  140.0605  154.5542 N   0  0  0  0  0  0  0  0  0  0  0  0
  149.1255  140.1461  155.8466 C   0  0  0  0  0  0  0  0  0  0  0  0
  149.6157  141.3249  156.2028 N   0  0  0  0  0  0  0  0  0  0  0  0
  149.5565  141.9694  154.9997 C   0  0  0  0  0  0  0  0  0  0  0  0
  149.0692  141.2608  153.9815 N   0  0  0  0  0  0  0  0  0  0  0  0
  147.1182  134.6036  153.0906 N   0  3  0  0  0  0  0  0  0  0  0  0
  146.7931  133.5593  152.0786 C   0  0  0  0  0  0  0  0  0  0  0  0
  146.2039  134.2043  150.8141 C   0  0  0  0  0  0  0  0  0  0  0  0
  145.0375  134.9392  151.1575 O   0  0  0  0  0  0  0  0  0  0  0  0
  145.3259  135.9922  152.0666 C   0  0  0  0  0  0  0  0  0  0  0  0
  145.9003  135.4158  153.3722 C   0  0  0  0  0  0  0  0  0  0  0  0
  150.9587  132.3344  154.5744 H   0  0  0  0  0  0  0  0  0  0  0  0
  149.5931  132.1713  155.6605 H   0  0  0  0  0  0  0  0  0  0  0  0
  150.4836  133.6931  155.5742 H   0  0  0  0  0  0  0  0  0  0  0  0
  149.7781  133.9477  153.1795 H   0  0  0  0  0  0  0  0  0  0  0  0
  148.8820  132.4613  153.2741 H   0  0  0  0  0  0  0  0  0  0  0  0
  147.4402  133.0553  156.1559 H   0  0  0  0  0  0  0  0  0  0  0  0
  146.8820  132.2240  154.7263 H   0  0  0  0  0  0  0  0  0  0  0  0
  146.0188  133.6402  155.3172 H   0  0  0  0  0  0  0  0  0  0  0  0
  147.6373  135.4952  155.9978 H   0  0  0  0  0  0  0  0  0  0  0  0
  149.2905  135.1624  155.6386 H   0  0  0  0  0  0  0  0  0  0  0  0
  149.0457  136.5750  153.5915 H   0  0  0  0  0  0  0  0  0  0  0  0
  148.9561  138.6199  153.0888 H   0  0  0  0  0  0  0  0  0  0  0  0
  146.5678  138.5803  152.4127 H   0  0  0  0  0  0  0  0  0  0  0  0
  147.2337  140.2029  152.3026 H   0  0  0  0  0  0  0  0  0  0  0  0
  146.1748  139.7777  153.6417 H   0  0  0  0  0  0  0  0  0  0  0  0
  148.9960  139.3306  156.5428 H   0  0  0  0  0  0  0  0  0  0  0  0
  149.8753  142.9935  154.8724 H   0  0  0  0  0  0  0  0  0  0  0  0
  147.6756  132.9893  151.7933 H   0  0  0  0  0  0  0  0  0  0  0  0
  146.0707  132.8508  152.4845 H   0  0  0  0  0  0  0  0  0  0  0  0
  146.9342  134.8551  150.3304 H   0  0  0  0  0  0  0  0  0  0  0  0
  145.9343  133.4346  150.0906 H   0  0  0  0  0  0  0  0  0  0  0  0
  146.0236  136.6989  151.6139 H   0  0  0  0  0  0  0  0  0  0  0  0
  144.4069  136.5416  152.2720 H   0  0  0  0  0  0  0  0  0  0  0  0
  145.1444  134.8053  153.8662 H   0  0  0  0  0  0  0  0  0  0  0  0
  146.1162  136.2558  154.0296 H   0  0  0  0  0  0  0  0  0  0  0  0
  147.7471  135.2397  152.6216 H   0  0  0  0  0  0  0  0  0  0  0  0
  1  2  1  0  0  0  0
  1 22  1  0  0  0  0
  1 23  1  0  0  0  0
  1 24  1  0  0  0  0
  2  3  1  0  0  0  0
  2 25  1  0  0  0  0
  2 26  1  0  0  0  0
  3  4  1  0  0  0  0
  3  5  1  0  0  0  0
  3 16  1  0  0  0  0
  4 27  1  0  0  0  0
  4 28  1  0  0  0  0
  4 29  1  0  0  0  0
  5  6  1  0  0  0  0
  5 30  1  0  0  0  0
  5 31  1  0  0  0  0
  6  7  1  0  0  0  0
  6 32  1  0  0  0  0
  7  8  2  0  0  0  0
  7  9  1  0  0  0  0
  9 10  1  0  0  0  0
  9 11  1  0  0  0  0
  9 33  1  0  0  0  0
 10 34  1  0  0  0  0
 10 35  1  0  0  0  0
 10 36  1  0  0  0  0
 11 15  1  0  0  0  0
 11 12  1  0  0  0  0
 12 13  2  0  0  0  0
 12 37  1  0  0  0  0
 13 14  1  0  0  0  0
 14 15  2  0  0  0  0
 14 38  1  0  0  0  0
 16 21  1  0  0  0  0
 16 17  1  0  0  0  0
 16 47  1  0  0  0  0
 17 18  1  0  0  0  0
 17 39  1  0  0  0  0
 17 40  1  0  0  0  0
 18 19  1  0  0  0  0
 18 41  1  0  0  0  0
 18 42  1  0  0  0  0
 19 20  1  0  0  0  0
 20 21  1  0  0  0  0
 20 43  1  0  0  0  0
 20 44  1  0  0  0  0
 21 45  1  0  0  0  0
 21 46  1  0  0  0  0
M  CHG  1  16   1
M  END
> <s_m_source_file>
AV-unprocessed.smi

> <i_m_source_file_index>
1285

> <i_lp_mmshare_version>
43012

> <i_f3d_flags>
0

> <s_epik_input>
W0NIMl0xW0NIMl1PW0NIMl1bQ0gyXU4xW0NAQF0oW0NIM10pKFtDSDJdW0NIM10pW0NIMl1bTkhdQyg9TylbQ0BIXShbQ0gzXSluMltjSF1uW2NIXW4y

> <s_epik_cmdline>
J2VwaWtfcHl0aG9uJywgJy1waCcsICc3LjAnLCAnLXRuJywgJzgnLCAnLW1hJywgJzIwMCcsICctbWV0YWxfYmluZGluZycsICctaW1hZScsICc8aW5maWxlLm1hZT4nLCAnLW9tYWUnLCAnPG91dGZpbGUubWFlPic=

> <r_lp_tautomer_probability>
1

> <r_epik_Ionization_Penalty>
0.569304

> <r_epik_Ionization_Penalty_Charging>
0.569295

> <r_epik_Ionization_Penalty_Neutral>
8.22697e-06

> <r_epik_State_Penalty>
0.581114

> <r_epik_Charging_Adjusted_Penalty>
1.15041

> <i_epik_Tot_Q>
1

> <i_epik_Tot_abs_Q>
1

> <r_epik_Metal_State_Penalty>
0.581117

> <b_epik_Metal_Only>
0

> <s_lp_Force_Field>
OPLS_2005

> <r_lp_Energy>
40.9155

> <b_lp_Chiralities_Consistent>
1

> <s_lp_Variant>
AV-unprocessed.smi:1285-7

> <Gold.Version>
5.8.1

> <Gold.Id.Protein>
6NUR|6NUR_protein|mol2

> <Gold.PLP.Fitness>
37.4393

> <Gold.PLP.PLP>
-25.9445

> <Gold.PLP.part.hbond>
-3.6073

> <Gold.PLP.part.metal>
0.0000

> <Gold.PLP.part.buried>
-1.3236

> <Gold.PLP.part.nonpolar>
-20.8953

> <Gold.PLP.part.repulsive>
0.6827

> <Gold.PLP.ligand.clash>
0.0000

> <Gold.PLP.ligand.torsion>
1.0087

> <Gold.PLP.Chemscore.Hbond>
3.4580

> <Gold.PLP.Chemscore.CHOScore>
0.9205

> <Gold.PLP.Chemscore.Metal>
0.0000

> <Gold.Chemscore.Hbonds>
donor molecule, donor type, donor heavy atom, donor atom, acceptor molecule, acceptor atom, score
      L1  H     6    32       P1  7948  0.83
      L1  H    16    47       P1  7948  2.00
      P1  H  8011  8017       L1    15  0.59
      L1  C    14    38       P1  8028  0.93

> <Gold.PLP.Chemscore.Internal.Correction>
0.3770

> <Gold.Rescore>
     Score         DG    S(hbond)    S(metal)    S(lipo)     H(rot)  DE(clash)    DE(int)     intcor
      7.80     -11.36       2.15        0.00      49.25       2.76       0.26       3.30       ----

> <Gold.Chemscore.Fitness>
7.8028

> <Gold.Chemscore.DG>
-11.3637

> <Gold.Chemscore.ZeroCoef>
-5.4800

> <Gold.Chemscore.Hbond>
2.1510

> <Gold.Chemscore.Metal>
0.0000

> <Gold.Chemscore.Lipo>
49.2485

> <Gold.Chemscore.Internal_Hbond>
0.0000

> <Gold.Chemscore.DEClash>
0.2567

> <Gold.Chemscore.DEInternal>
3.3042

> <Gold.Chemscore.Rot>
2.7589

> <Gold.Chemscore.Internal.Correction>
   9.000000E+99

> <Gold.Chemscore.Hbonds>
donor molecule, donor type, donor heavy atom, donor atom, acceptor molecule, acceptor atom, score
      L1  H     6    32       P1  7948  0.83
      L1  H    16    47       P1  7948  1.00
      P1  H  8011  8017       L1    15  0.15

> <Gold.Chemscore.Hbond.Weighted>
-7.1843

> <Gold.Chemscore.Metal.Weighted>
-0.0000

> <Gold.Chemscore.Lipo.Weighted>
-5.7621

> <Gold.Chemscore.Internal_Hbond.Weighted>
0.0000

> <Gold.Chemscore.DEClash.Weighted>
0.2567

> <Gold.Chemscore.DEInternal.Weighted>
3.3042

> <Gold.Chemscore.Rot.Weighted>
7.0627

> <Gold.Chemscore.Internal.Correction.Weighted>
   9.000000E+99

> <Gold.Protein.RotatedTorsions>
[ 6907 6896 6895 6894 ] final  -70.62 input  -60.11 | X-H torsion
[ 7974 7965 7964 7962 ] final   25.03 input  175.53 | X-H torsion
[ 8008 7997 7996 7995 ] final -146.29 input   59.86 | X-H torsion
[ 10167 10162 10161 10158 ] final -131.03 input  -65.29 | X-H torsion
[ 10718 10713 10712 10709 ] final  -21.94 input   66.30 | X-H torsion
[ 10763 10752 10751 10750 ] final  178.49 input  -60.55 | X-H torsion
[ 11005 11000 10999 10996 ] final -127.11 input  -57.11 | X-H torsion

> <Gold.Protein.ActiveResidues>
 VAL166  LYS551  ARG553  GLY616  TRP617  ASP618  TYR619  PRO620  LYS621  CYS622 
 ASP623  PHE694  ASN695  SER759  ASP760  ASP761  ALA762  ILE779  LEU786  VAL792 
 PHE793  MET794  SER795  GLU796  ALA797  LYS798  CYS799  TRP800  GLU811  SER814 

> <Gold.Protein.RotatedAtoms>
  150.7249  134.5427  159.5754 H   0  0  0  0  0  0  0  0  0  0  0  0  # atno 6907 bound_to 6896
  152.2934  134.7693  160.0382 H   0  0  0  0  0  0  0  0  0  0  0  0  # atno 6908 bound_to 6896
  151.8298  133.3371  159.3646 H   0  0  0  0  0  0  0  0  0  0  0  0  # atno 6909 bound_to 6896
  146.1908  139.7522  142.8833 H   0  0  0  0  0  0  0  0  0  0  0  0  # atno 7974 bound_to 7965
  155.5569  140.0622  157.2837 H   0  0  0  0  0  0  0  0  0  0  0  0  # atno 8008 bound_to 7997
  154.4402  140.1892  156.0788 H   0  0  0  0  0  0  0  0  0  0  0  0  # atno 8009 bound_to 7997
  156.0475  140.3288  155.7317 H   0  0  0  0  0  0  0  0  0  0  0  0  # atno 8010 bound_to 7997
  139.9231  143.6359  152.2549 H   0  0  0  0  0  0  0  0  0  0  0  0  # atno 10167 bound_to 10162
  156.5113  130.4610  149.6647 H   0  0  0  0  0  0  0  0  0  0  0  0  # atno 10718 bound_to 10713
  154.5084  135.2787  155.1363 H   0  0  0  0  0  0  0  0  0  0  0  0  # atno 10763 bound_to 10752
  154.2968  135.6256  153.5412 H   0  0  0  0  0  0  0  0  0  0  0  0  # atno 10764 bound_to 10752
  152.9914  135.5687  154.5543 H   0  0  0  0  0  0  0  0  0  0  0  0  # atno 10765 bound_to 10752
  140.9626  134.0915  157.3953 H   0  0  0  0  0  0  0  0  0  0  0  0  # atno 11005 bound_to 11000
  145.3797  141.0356  143.3184 LP  0  0  0  0  0  0  0  0  0  0  0  0  # atno 17320 bound_to 7965
  144.8484  139.5360  143.6868 LP  0  0  0  0  0  0  0  0  0  0  0  0  # atno 17321 bound_to 7965
  139.6845  144.7653  151.1549 LP  0  0  0  0  0  0  0  0  0  0  0  0  # atno 17342 bound_to 10162
  140.7657  143.5677  150.9029 LP  0  0  0  0  0  0  0  0  0  0  0  0  # atno 17343 bound_to 10162
  156.3238  130.7295  151.2211 LP  0  0  0  0  0  0  0  0  0  0  0  0  # atno 17370 bound_to 10713
  157.7450  131.0448  150.4813 LP  0  0  0  0  0  0  0  0  0  0  0  0  # atno 17371 bound_to 10713
  139.8883  135.0097  156.6614 LP  0  0  0  0  0  0  0  0  0  0  0  0  # atno 17394 bound_to 11000
  140.7445  133.8949  155.8302 LP  0  0  0  0  0  0  0  0  0  0  0  0  # atno 17395 bound_to 11000

$$$$
