AV-unprocessed.smi:166|AV-procd|sdf|1389|dock8
  -GOLD-   2262019123D 1   1.00000     0.00000
 Structure written by MMmdl.
 54 58  0  0  0  0  0  0  0  0  1 V2000
  144.5068  133.1165  160.0492 O   0  0  0  0  0  0  0  0  0  0  0  0
  145.4810  134.0503  160.4831 C   0  0  2  0  0  0  0  0  0  0  0  0
  145.5950  135.1867  159.4396 C   0  0  0  0  0  0  0  0  0  0  0  0
  146.7977  135.9944  159.5801 N   0  0  0  0  0  0  0  0  0  0  0  0
  147.2248  136.6422  160.7176 C   0  0  0  0  0  0  0  0  0  0  0  0
  148.3346  137.3167  160.5915 N   0  0  0  0  0  0  0  0  0  0  0  0
  148.6983  137.1277  159.2635 C   0  0  0  0  0  0  0  0  0  0  0  0
  149.7793  137.5847  158.4580 C   0  0  0  0  0  0  0  0  0  0  0  0
  150.7700  138.3757  158.9422 N   0  0  0  0  0  0  0  0  0  0  0  0
  152.0551  137.7044  159.1326 C   0  0  0  0  0  0  0  0  0  0  0  0
  152.9682  138.5255  160.0570 C   0  0  0  0  0  0  0  0  0  0  0  0
  153.1164  139.9658  159.5443 C   0  0  0  0  0  0  0  0  0  0  0  0
  151.7355  140.6180  159.3653 C   0  0  1  0  0  0  0  0  0  0  0  0
  151.9423  141.9100  158.8107 O   0  0  0  0  0  0  0  0  0  0  0  0
  152.7087  142.7868  159.6261 C   0  0  0  0  0  0  0  0  0  0  0  0
  152.7499  144.1860  159.0393 C   0  0  0  0  0  0  0  0  0  0  0  0
  152.1368  145.3595  159.7757 C   0  0  0  0  0  0  0  0  0  0  0  0
  151.4933  144.8499  158.5144 C   0  0  0  0  0  0  0  0  0  0  0  0
  150.8498  139.7508  158.4458 C   0  0  0  0  0  0  0  0  0  0  0  0
  149.7916  137.2021  157.1528 N   0  0  0  0  0  0  0  0  0  0  0  0
  148.8196  136.4234  156.6684 C   0  0  0  0  0  0  0  0  0  0  0  0
  147.7566  135.9241  157.3017 N   0  0  0  0  0  0  0  0  0  0  0  0
  147.7361  136.3056  158.6108 C   0  0  0  0  0  0  0  0  0  0  0  0
  146.7952  133.3061  160.6887 C   0  0  0  0  0  0  0  0  0  0  0  0
  146.6978  132.8418  162.1355 C   0  0  0  0  0  0  0  0  0  0  0  0
  146.0969  133.9514  162.7802 O   0  0  0  0  0  0  0  0  0  0  0  0
  145.1172  134.5110  161.9106 C   0  0  0  0  0  0  0  0  0  0  0  0
  143.6851  133.5705  159.9427 H   0  0  0  0  0  0  0  0  0  0  0  0
  145.5760  134.7725  158.4308 H   0  0  0  0  0  0  0  0  0  0  0  0
  144.7315  135.8494  159.5117 H   0  0  0  0  0  0  0  0  0  0  0  0
  146.6831  136.5987  161.6514 H   0  0  0  0  0  0  0  0  0  0  0  0
  151.9267  136.7053  159.5476 H   0  0  0  0  0  0  0  0  0  0  0  0
  152.5300  137.5786  158.1586 H   0  0  0  0  0  0  0  0  0  0  0  0
  152.5513  138.5366  161.0648 H   0  0  0  0  0  0  0  0  0  0  0  0
  153.9472  138.0517  160.1312 H   0  0  0  0  0  0  0  0  0  0  0  0
  153.7207  140.5502  160.2390 H   0  0  0  0  0  0  0  0  0  0  0  0
  153.6498  139.9623  158.5928 H   0  0  0  0  0  0  0  0  0  0  0  0
  151.2692  140.7077  160.3483 H   0  0  0  0  0  0  0  0  0  0  0  0
  152.2894  142.8472  160.6302 H   0  0  0  0  0  0  0  0  0  0  0  0
  153.7320  142.4196  159.7156 H   0  0  0  0  0  0  0  0  0  0  0  0
  153.6627  144.3975  158.4855 H   0  0  0  0  0  0  0  0  0  0  0  0
  151.6231  145.1649  160.7153 H   0  0  0  0  0  0  0  0  0  0  0  0
  152.6599  146.3121  159.7224 H   0  0  0  0  0  0  0  0  0  0  0  0
  151.5873  145.4629  157.6204 H   0  0  0  0  0  0  0  0  0  0  0  0
  150.5508  144.3147  158.6124 H   0  0  0  0  0  0  0  0  0  0  0  0
  151.2579  139.7440  157.4341 H   0  0  0  0  0  0  0  0  0  0  0  0
  149.8466  140.1739  158.3881 H   0  0  0  0  0  0  0  0  0  0  0  0
  148.9059  136.1639  155.6235 H   0  0  0  0  0  0  0  0  0  0  0  0
  146.9530  132.4879  159.9849 H   0  0  0  0  0  0  0  0  0  0  0  0
  147.6381  133.9922  160.5936 H   0  0  0  0  0  0  0  0  0  0  0  0
  146.0501  131.9684  162.2258 H   0  0  0  0  0  0  0  0  0  0  0  0
  147.6682  132.6002  162.5693 H   0  0  0  0  0  0  0  0  0  0  0  0
  145.1490  135.5940  162.0201 H   0  0  0  0  0  0  0  0  0  0  0  0
  144.1211  134.1819  162.2099 H   0  0  0  0  0  0  0  0  0  0  0  0
  1  2  1  0  0  0  0
  1 28  1  0  0  0  0
  2 27  1  0  0  0  0
  2  3  1  0  0  0  0
  2 24  1  0  0  0  0
  3  4  1  0  0  0  0
  3 29  1  0  0  0  0
  3 30  1  0  0  0  0
  4 23  1  0  0  0  0
  4  5  1  0  0  0  0
  5  6  2  0  0  0  0
  5 31  1  0  0  0  0
  6  7  1  0  0  0  0
  7 23  2  0  0  0  0
  7  8  1  0  0  0  0
  8  9  1  0  0  0  0
  8 20  2  0  0  0  0
  9 19  1  0  0  0  0
  9 10  1  0  0  0  0
 10 11  1  0  0  0  0
 10 32  1  0  0  0  0
 10 33  1  0  0  0  0
 11 12  1  0  0  0  0
 11 34  1  0  0  0  0
 11 35  1  0  0  0  0
 12 13  1  0  0  0  0
 12 36  1  0  0  0  0
 12 37  1  0  0  0  0
 13 14  1  0  0  0  0
 13 19  1  0  0  0  0
 13 38  1  0  0  0  0
 14 15  1  0  0  0  0
 15 16  1  0  0  0  0
 15 39  1  0  0  0  0
 15 40  1  0  0  0  0
 16 18  1  0  0  0  0
 16 17  1  0  0  0  0
 16 41  1  0  0  0  0
 17 18  1  0  0  0  0
 17 42  1  0  0  0  0
 17 43  1  0  0  0  0
 18 44  1  0  0  0  0
 18 45  1  0  0  0  0
 19 46  1  0  0  0  0
 19 47  1  0  0  0  0
 20 21  1  0  0  0  0
 21 22  2  0  0  0  0
 21 48  1  0  0  0  0
 22 23  1  0  0  0  0
 24 25  1  0  0  0  0
 24 49  1  0  0  0  0
 24 50  1  0  0  0  0
 25 26  1  0  0  0  0
 25 51  1  0  0  0  0
 25 52  1  0  0  0  0
 26 27  1  0  0  0  0
 27 53  1  0  0  0  0
 27 54  1  0  0  0  0
M  END
> <s_m_source_file>
AV-unprocessed.smi

> <i_m_source_file_index>
166

> <i_lp_mmshare_version>
43012

> <i_f3d_flags>
0

> <s_epik_input>
W0NIMl0xT1tDSDJdW0NIMl1bQ0BAXTEoW09IXSlbQ0gyXW4oW2NIXW4yKWMoYzIzKW5bY0hdbmMzTjRbQ0gyXVtDSDJdW0NIMl1bQ0BIXShbQ0gyXTQpT1tDSDJdW0NIXTVbQ0gyXVtDSDJdNQ==

> <s_epik_cmdline>
J2VwaWtfcHl0aG9uJywgJy1waCcsICc3LjAnLCAnLXRuJywgJzgnLCAnLW1hJywgJzIwMCcsICctbWV0YWxfYmluZGluZycsICctaW1hZScsICc8aW5maWxlLm1hZT4nLCAnLW9tYWUnLCAnPG91dGZpbGUubWFlPic=

> <r_lp_tautomer_probability>
1

> <r_epik_Ionization_Penalty>
0.00342552

> <r_epik_Ionization_Penalty_Charging>
0

> <r_epik_Ionization_Penalty_Neutral>
0.00342552

> <r_epik_State_Penalty>
0.0022204

> <r_epik_Charging_Adjusted_Penalty>
0.0022204

> <i_epik_Tot_Q>
0

> <i_epik_Tot_abs_Q>
0

> <r_epik_Metal_State_Penalty>
-0

> <b_epik_Metal_Only>
0

> <s_lp_Force_Field>
OPLS_2005

> <r_lp_Energy>
44.6649

> <b_lp_Chiralities_Consistent>
1

> <s_lp_Variant>
AV-unprocessed.smi:166-2

> <Gold.Version>
5.8.1

> <Gold.Id.Protein>
6NUR|6NUR_protein|mol2

> <Gold.PLP.Fitness>
42.8679

> <Gold.PLP.PLP>
-41.3651

> <Gold.PLP.part.hbond>
-2.7817

> <Gold.PLP.part.metal>
0.0000

> <Gold.PLP.part.buried>
-6.5191

> <Gold.PLP.part.nonpolar>
-31.8463

> <Gold.PLP.part.repulsive>
0.0178

> <Gold.PLP.ligand.clash>
0.0000

> <Gold.PLP.ligand.torsion>
0.8688

> <Gold.PLP.Chemscore.Hbond>
0.7563

> <Gold.PLP.Chemscore.CHOScore>
0.0000

> <Gold.PLP.Chemscore.Metal>
0.0000

> <Gold.Chemscore.Hbonds>
donor molecule, donor type, donor heavy atom, donor atom, acceptor molecule, acceptor atom, score
      P1  H  6931  6943       L1     6  0.72
      P1  H  6934  6947       L1     6  0.18

> <Gold.PLP.Chemscore.Internal.Correction>
0.9715

> <Gold.Rescore>
     Score         DG    S(hbond)    S(metal)    S(lipo)     H(rot)  DE(clash)    DE(int)     intcor
     12.45     -13.55       0.76        0.00     106.10       2.68       0.03       1.07       ----

> <Gold.Chemscore.Fitness>
12.4546

> <Gold.Chemscore.DG>
-13.5543

> <Gold.Chemscore.ZeroCoef>
-5.4800

> <Gold.Chemscore.Hbond>
0.7561

> <Gold.Chemscore.Metal>
0.0000

> <Gold.Chemscore.Lipo>
106.1030

> <Gold.Chemscore.Internal_Hbond>
0.0000

> <Gold.Chemscore.DEClash>
0.0284

> <Gold.Chemscore.DEInternal>
1.0714

> <Gold.Chemscore.Rot>
2.6817

> <Gold.Chemscore.Internal.Correction>
   9.000000E+99

> <Gold.Chemscore.Hbonds>
donor molecule, donor type, donor heavy atom, donor atom, acceptor molecule, acceptor atom, score
      P1  H  6931  6943       L1     6  0.72

> <Gold.Chemscore.Hbond.Weighted>
-2.5253

> <Gold.Chemscore.Metal.Weighted>
-0.0000

> <Gold.Chemscore.Lipo.Weighted>
-12.4141

> <Gold.Chemscore.Internal_Hbond.Weighted>
0.0000

> <Gold.Chemscore.DEClash.Weighted>
0.0284

> <Gold.Chemscore.DEInternal.Weighted>
1.0714

> <Gold.Chemscore.Rot.Weighted>
6.8651

> <Gold.Chemscore.Internal.Correction.Weighted>
   9.000000E+99

> <Gold.Protein.RotatedTorsions>
[ 6907 6896 6895 6894 ] final   90.83 input  -60.11 | X-H torsion
[ 7974 7965 7964 7962 ] final   58.83 input  175.53 | X-H torsion
[ 8008 7997 7996 7995 ] final   60.11 input   59.86 | X-H torsion
[ 10167 10162 10161 10158 ] final -104.80 input  -65.29 | X-H torsion
[ 10718 10713 10712 10709 ] final -138.27 input   66.30 | X-H torsion
[ 10763 10752 10751 10750 ] final   67.90 input  -60.55 | X-H torsion
[ 11005 11000 10999 10996 ] final  -31.97 input  -57.11 | X-H torsion

> <Gold.Protein.ActiveResidues>
 VAL166  LYS551  ARG553  GLY616  TRP617  ASP618  TYR619  PRO620  LYS621  CYS622 
 ASP623  PHE694  ASN695  SER759  ASP760  ASP761  ALA762  ILE779  LEU786  VAL792 
 PHE793  MET794  SER795  GLU796  ALA797  LYS798  CYS799  TRP800  GLU811  SER814 

> <Gold.Protein.RotatedAtoms>
  152.5447  134.1751  159.8612 H   0  0  0  0  0  0  0  0  0  0  0  0  # atno 6907 bound_to 6896
  151.1758  133.4748  159.2601 H   0  0  0  0  0  0  0  0  0  0  0  0  # atno 6908 bound_to 6896
  151.1228  135.0100  159.8602 H   0  0  0  0  0  0  0  0  0  0  0  0  # atno 6909 bound_to 6896
  145.9138  139.3675  143.0519 H   0  0  0  0  0  0  0  0  0  0  0  0  # atno 7974 bound_to 7965
  155.5770  140.3491  155.4530 H   0  0  0  0  0  0  0  0  0  0  0  0  # atno 8008 bound_to 7997
  156.0402  140.1294  157.0189 H   0  0  0  0  0  0  0  0  0  0  0  0  # atno 8009 bound_to 7997
  154.4388  140.1025  156.6211 H   0  0  0  0  0  0  0  0  0  0  0  0  # atno 8010 bound_to 7997
  140.2054  143.3786  152.1095 H   0  0  0  0  0  0  0  0  0  0  0  0  # atno 10167 bound_to 10162
  156.2974  130.7409  151.1452 H   0  0  0  0  0  0  0  0  0  0  0  0  # atno 10718 bound_to 10713
  153.0209  135.5267  154.7051 H   0  0  0  0  0  0  0  0  0  0  0  0  # atno 10763 bound_to 10752
  154.6149  135.2882  155.0393 H   0  0  0  0  0  0  0  0  0  0  0  0  # atno 10764 bound_to 10752
  154.1401  135.6579  153.4993 H   0  0  0  0  0  0  0  0  0  0  0  0  # atno 10765 bound_to 10752
  140.9513  133.7219  156.1225 H   0  0  0  0  0  0  0  0  0  0  0  0  # atno 11005 bound_to 11000
  145.8637  140.9460  143.0686 LP  0  0  0  0  0  0  0  0  0  0  0  0  # atno 17320 bound_to 7965
  144.6746  140.0564  143.7477 LP  0  0  0  0  0  0  0  0  0  0  0  0  # atno 17321 bound_to 7965
  139.5200  144.7028  151.5444 LP  0  0  0  0  0  0  0  0  0  0  0  0  # atno 17342 bound_to 10162
  140.6361  143.8981  150.6648 LP  0  0  0  0  0  0  0  0  0  0  0  0  # atno 17343 bound_to 10162
  157.7359  131.0568  150.5444 LP  0  0  0  0  0  0  0  0  0  0  0  0  # atno 17370 bound_to 10713
  156.5568  130.4245  149.6082 LP  0  0  0  0  0  0  0  0  0  0  0  0  # atno 17371 bound_to 10713
  140.7598  134.3952  157.5527 LP  0  0  0  0  0  0  0  0  0  0  0  0  # atno 17394 bound_to 11000
  139.8848  134.8954  156.2679 LP  0  0  0  0  0  0  0  0  0  0  0  0  # atno 17395 bound_to 11000

$$$$
