AV-unprocessed.smi:1700|AV-procd|sdf|6820|dock8
  -GOLD-   22720 7593D 1   1.00000     0.00000
 Structure written by MMmdl.
 34 35  0  0  0  0  0  0  0  0  1 V2000
  147.7825  133.0838  152.5223 C   0  0  0  0  0  0  0  0  0  0  0  0
  146.3734  133.0305  151.9542 C   0  0  0  0  0  0  0  0  0  0  0  0
  145.7482  131.7778  151.7775 C   0  0  0  0  0  0  0  0  0  0  0  0
  144.4453  131.7294  151.2531 C   0  0  0  0  0  0  0  0  0  0  0  0
  143.8187  132.9439  150.9258 C   0  0  0  0  0  0  0  0  0  0  0  0
  144.4089  134.1451  151.0907 N   0  0  0  0  0  0  0  0  0  0  0  0
  145.6668  134.2098  151.5952 C   0  0  0  0  0  0  0  0  0  0  0  0
  146.3521  135.4421  151.7939 N   0  0  0  0  0  0  0  0  0  0  0  0
  145.8326  136.6705  151.9665 C   0  0  0  0  0  0  0  0  0  0  0  0
  144.6315  136.9410  151.9922 O   0  0  0  0  0  0  0  0  0  0  0  0
  146.7984  137.5891  152.1101 N   0  0  0  0  0  0  0  0  0  0  0  0
  146.5716  139.0174  152.2988 C   0  0  0  0  0  0  0  0  0  0  0  0
  147.2356  139.5315  153.5866 C   0  0  1  0  0  0  0  0  0  0  0  0
  148.6564  139.0152  153.7926 C   0  0  0  0  0  0  0  0  0  0  0  0
  149.2163  140.0457  154.7469 C   0  0  0  0  0  0  0  0  0  0  0  0
  148.5579  141.3361  154.2603 C   0  0  0  0  0  0  0  0  0  0  0  0
  147.3861  140.9470  153.5466 O   0  0  0  0  0  0  0  0  0  0  0  0
  148.1634  132.0844  152.7342 H   0  0  0  0  0  0  0  0  0  0  0  0
  147.7980  133.6529  153.4522 H   0  0  0  0  0  0  0  0  0  0  0  0
  148.4622  133.5577  151.8135 H   0  0  0  0  0  0  0  0  0  0  0  0
  146.2582  130.8627  152.0401 H   0  0  0  0  0  0  0  0  0  0  0  0
  143.9398  130.7865  151.1060 H   0  0  0  0  0  0  0  0  0  0  0  0
  142.8174  132.9523  150.5209 H   0  0  0  0  0  0  0  0  0  0  0  0
  147.3589  135.3793  151.8005 H   0  0  0  0  0  0  0  0  0  0  0  0
  147.7597  137.2833  152.0725 H   0  0  0  0  0  0  0  0  0  0  0  0
  146.9474  139.5681  151.4347 H   0  0  0  0  0  0  0  0  0  0  0  0
  145.4964  139.1944  152.3344 H   0  0  0  0  0  0  0  0  0  0  0  0
  146.6349  139.2745  154.4609 H   0  0  0  0  0  0  0  0  0  0  0  0
  148.6862  138.0012  154.1924 H   0  0  0  0  0  0  0  0  0  0  0  0
  149.2131  139.0321  152.8545 H   0  0  0  0  0  0  0  0  0  0  0  0
  148.8933  139.8219  155.7645 H   0  0  0  0  0  0  0  0  0  0  0  0
  150.3057  140.0926  154.7375 H   0  0  0  0  0  0  0  0  0  0  0  0
  148.3106  142.0019  155.0874 H   0  0  0  0  0  0  0  0  0  0  0  0
  149.2170  141.8743  153.5784 H   0  0  0  0  0  0  0  0  0  0  0  0
  1  2  1  0  0  0  0
  1 18  1  0  0  0  0
  1 19  1  0  0  0  0
  1 20  1  0  0  0  0
  2  7  1  0  0  0  0
  2  3  2  0  0  0  0
  3  4  1  0  0  0  0
  3 21  1  0  0  0  0
  4  5  2  0  0  0  0
  4 22  1  0  0  0  0
  5  6  1  0  0  0  0
  5 23  1  0  0  0  0
  6  7  2  0  0  0  0
  7  8  1  0  0  0  0
  8  9  1  0  0  0  0
  8 24  1  0  0  0  0
  9 10  2  0  0  0  0
  9 11  1  0  0  0  0
 11 12  1  0  0  0  0
 11 25  1  0  0  0  0
 12 13  1  0  0  0  0
 12 26  1  0  0  0  0
 12 27  1  0  0  0  0
 13 17  1  0  0  0  0
 13 14  1  0  0  0  0
 13 28  1  0  0  0  0
 14 15  1  0  0  0  0
 14 29  1  0  0  0  0
 14 30  1  0  0  0  0
 15 16  1  0  0  0  0
 15 31  1  0  0  0  0
 15 32  1  0  0  0  0
 16 17  1  0  0  0  0
 16 33  1  0  0  0  0
 16 34  1  0  0  0  0
M  END
> <s_m_source_file>
AV-unprocessed.smi

> <i_m_source_file_index>
1700

> <i_lp_mmshare_version>
43012

> <i_f3d_flags>
0

> <s_epik_input>
W0NIM11jMVtjSF1bY0hdW2NIXW5jMVtOSF1DKD1PKVtOSF1bQ0gyXVtDQEBIXTJbQ0gyXVtDSDJdW0NIMl1PMg==

> <s_epik_cmdline>
J2VwaWtfcHl0aG9uJywgJy1waCcsICc3LjAnLCAnLXRuJywgJzgnLCAnLW1hJywgJzIwMCcsICctbWV0YWxfYmluZGluZycsICctaW1hZScsICc8aW5maWxlLm1hZT4nLCAnLW9tYWUnLCAnPG91dGZpbGUubWFlPic=

> <r_lp_tautomer_probability>
1

> <r_epik_Ionization_Penalty>
5.57253e-05

> <r_epik_Ionization_Penalty_Charging>
0

> <r_epik_Ionization_Penalty_Neutral>
5.57253e-05

> <r_epik_State_Penalty>
-0

> <r_epik_Charging_Adjusted_Penalty>
0

> <i_epik_Tot_Q>
0

> <i_epik_Tot_abs_Q>
0

> <r_epik_Metal_State_Penalty>
-0

> <b_epik_Metal_Only>
0

> <s_lp_Force_Field>
OPLS_2005

> <r_lp_Energy>
19.2835

> <b_lp_Chiralities_Consistent>
1

> <s_lp_Variant>
AV-unprocessed.smi:1700-2

> <Gold.Version>
5.8.1

> <Gold.Id.Protein>
6NUR|6NUR_protein|mol2

> <Gold.PLP.Fitness>
38.0235

> <Gold.PLP.PLP>
-29.6346

> <Gold.PLP.part.hbond>
-1.9427

> <Gold.PLP.part.metal>
0.0000

> <Gold.PLP.part.buried>
-3.7341

> <Gold.PLP.part.nonpolar>
-27.2041

> <Gold.PLP.part.repulsive>
2.5114

> <Gold.PLP.ligand.clash>
0.0000

> <Gold.PLP.ligand.torsion>
0.2717

> <Gold.PLP.Chemscore.Hbond>
1.9760

> <Gold.PLP.Chemscore.CHOScore>
1.0000

> <Gold.PLP.Chemscore.Metal>
0.0000

> <Gold.Chemscore.Hbonds>
donor molecule, donor type, donor heavy atom, donor atom, acceptor molecule, acceptor atom, score
      L1  H     8    24       P1  7948  0.99
      L1  H    11    25       P1  7948  1.00
      L1  C     5    23       P1 10186  1.00

> <Gold.PLP.Chemscore.Internal.Correction>
0.0043

> <Gold.Rescore>
     Score         DG    S(hbond)    S(metal)    S(lipo)     H(rot)  DE(clash)    DE(int)     intcor
     14.49     -17.03       1.95        0.00      70.08       1.23       1.13       1.41       ----

> <Gold.Chemscore.Fitness>
14.4895

> <Gold.Chemscore.DG>
-17.0306

> <Gold.Chemscore.ZeroCoef>
-5.4800

> <Gold.Chemscore.Hbond>
1.9490

> <Gold.Chemscore.Metal>
0.0000

> <Gold.Chemscore.Lipo>
70.0784

> <Gold.Chemscore.Internal_Hbond>
0.0000

> <Gold.Chemscore.DEClash>
1.1272

> <Gold.Chemscore.DEInternal>
1.4138

> <Gold.Chemscore.Rot>
1.2337

> <Gold.Chemscore.Internal.Correction>
   9.000000E+99

> <Gold.Chemscore.Hbonds>
donor molecule, donor type, donor heavy atom, donor atom, acceptor molecule, acceptor atom, score
      L1  H     8    24       P1  7948  0.92
      L1  H    11    25       P1  7948  0.96

> <Gold.Chemscore.Hbond.Weighted>
-6.5096

> <Gold.Chemscore.Metal.Weighted>
-0.0000

> <Gold.Chemscore.Lipo.Weighted>
-8.1992

> <Gold.Chemscore.Internal_Hbond.Weighted>
0.0000

> <Gold.Chemscore.DEClash.Weighted>
1.1272

> <Gold.Chemscore.DEInternal.Weighted>
1.4138

> <Gold.Chemscore.Rot.Weighted>
3.1582

> <Gold.Chemscore.Internal.Correction.Weighted>
   9.000000E+99

> <Gold.Protein.RotatedTorsions>
[ 6907 6896 6895 6894 ] final  -86.68 input  -60.11 | X-H torsion
[ 7974 7965 7964 7962 ] final   54.23 input  175.53 | X-H torsion
[ 8008 7997 7996 7995 ] final  102.68 input   59.86 | X-H torsion
[ 10167 10162 10161 10158 ] final -143.29 input  -65.29 | X-H torsion
[ 10718 10713 10712 10709 ] final  124.10 input   66.30 | X-H torsion
[ 10763 10752 10751 10750 ] final  -88.75 input  -60.55 | X-H torsion
[ 11005 11000 10999 10996 ] final   53.96 input  -57.11 | X-H torsion

> <Gold.Protein.ActiveResidues>
 VAL166  LYS551  ARG553  GLY616  TRP617  ASP618  TYR619  PRO620  LYS621  CYS622 
 ASP623  PHE694  ASN695  SER759  ASP760  ASP761  ALA762  ILE779  LEU786  VAL792 
 PHE793  MET794  SER795  GLU796  ALA797  LYS798  CYS799  TRP800  GLU811  SER814 

> <Gold.Protein.RotatedAtoms>
  150.6866  134.3013  159.4707 H   0  0  0  0  0  0  0  0  0  0  0  0  # atno 6907 bound_to 6896
  152.0909  134.9405  160.0581 H   0  0  0  0  0  0  0  0  0  0  0  0  # atno 6908 bound_to 6896
  152.0722  133.4077  159.4501 H   0  0  0  0  0  0  0  0  0  0  0  0  # atno 6909 bound_to 6896
  145.9630  139.4077  143.0236 H   0  0  0  0  0  0  0  0  0  0  0  0  # atno 7974 bound_to 7965
  156.1415  140.3177  155.8503 H   0  0  0  0  0  0  0  0  0  0  0  0  # atno 8008 bound_to 7997
  155.4145  140.0508  157.3047 H   0  0  0  0  0  0  0  0  0  0  0  0  # atno 8009 bound_to 7997
  154.4980  140.2118  155.9418 H   0  0  0  0  0  0  0  0  0  0  0  0  # atno 8010 bound_to 7997
  139.8007  143.7837  152.2658 H   0  0  0  0  0  0  0  0  0  0  0  0  # atno 10167 bound_to 10162
  157.5612  131.1089  150.8535 H   0  0  0  0  0  0  0  0  0  0  0  0  # atno 10718 bound_to 10713
  154.6479  135.5366  153.7866 H   0  0  0  0  0  0  0  0  0  0  0  0  # atno 10763 bound_to 10752
  153.0369  135.6475  154.1061 H   0  0  0  0  0  0  0  0  0  0  0  0  # atno 10764 bound_to 10752
  154.0981  135.2935  155.3237 H   0  0  0  0  0  0  0  0  0  0  0  0  # atno 10765 bound_to 10752
  140.0725  134.5450  155.9032 H   0  0  0  0  0  0  0  0  0  0  0  0  # atno 11005 bound_to 11000
  145.8013  140.9770  143.0997 LP  0  0  0  0  0  0  0  0  0  0  0  0  # atno 17320 bound_to 7965
  144.6819  139.9805  143.7483 LP  0  0  0  0  0  0  0  0  0  0  0  0  # atno 17321 bound_to 7965
  139.7956  144.7393  150.9894 LP  0  0  0  0  0  0  0  0  0  0  0  0  # atno 17342 bound_to 10162
  140.7820  143.4397  151.0570 LP  0  0  0  0  0  0  0  0  0  0  0  0  # atno 17343 bound_to 10162
  156.9032  130.5254  149.5282 LP  0  0  0  0  0  0  0  0  0  0  0  0  # atno 17370 bound_to 10713
  156.0664  130.5707  150.9298 LP  0  0  0  0  0  0  0  0  0  0  0  0  # atno 17371 bound_to 10713
  141.2017  133.6620  156.5965 LP  0  0  0  0  0  0  0  0  0  0  0  0  # atno 17394 bound_to 11000
  140.3607  134.7690  157.4531 LP  0  0  0  0  0  0  0  0  0  0  0  0  # atno 17395 bound_to 11000

$$$$
