#       Name:                AV-unprocessed.smi:553
#       Creating user name   scv26
#       Creation time:       Thu Mar 26 23:39:50 2020


#       File generated by GOLD software.
#

@<TRIPOS>MOLECULE
AV-unprocessed.smi:553
    49    51     1
SMALL
NO_CHARGES


@<TRIPOS>ATOM
      1 ****        -2.1362   2.3096  -0.8682 O.2            1 S1                 0.0000
      2 ****        -2.3943   1.1591  -0.5216 C.2            1 S1                 0.0000
      3 ****        -1.4736   0.2420  -0.1650 N.am           1 S1                 0.0000
      4 ****        -0.0577   0.3492  -0.2054 C.ar           1 S1                 0.0000
      5 ****         0.6988  -0.5351   0.5874 C.ar           1 S1                 0.0000
      6 ****         2.1044  -0.4659   0.5469 C.ar           1 S1                 0.0000
      7 ****         2.7250   0.4861  -0.2962 C.ar           1 S1                 0.0000
      8 ****         4.1332   0.5748  -0.3568 N.3            1 S1                 0.0000
      9 ****         4.7240   1.4012  -1.4085 C.3            1 S1                 0.0000
     10 ****         6.2373   1.1453  -1.5063 C.3            1 S1                 0.0000
     11 ****         6.8426   1.3578  -0.2357 O.3            1 S1                 0.0000
     12 ****         6.3317   0.4657   0.7492 C.3            1 S1                 0.0000
     13 ****         4.8204   0.6931   0.9270 C.3            1 S1                 0.0000
     14 ****         1.9950   1.3232  -1.0736 N.ar           1 S1                 0.0000
     15 ****         0.6480   1.2563  -1.0302 C.ar           1 S1                 0.0000
     16 ****        -3.6661   0.7315  -0.4279 N.am           1 S1                 0.0000
     17 ****        -4.8949   1.4654  -0.7343 C.3            1 S1                 0.0000
     18 ****        -6.0975   0.8590   0.0125 C.3            1 S1                 0.0000
     19 ****        -7.3884   1.4159  -0.5996 C.3            1 S1                 0.0000
     20 ****        -7.0197   1.7203  -2.3691 S.o2           1 S1                 0.0000
     21 ****        -7.6131   0.6524  -3.1877 O.2            1 S1                 0.0000
     22 ****        -7.2732   3.1368  -2.6718 O.2            1 S1                 0.0000
     23 ****        -5.2139   1.4395  -2.2379 C.3            1 S1                 0.0000
     24 ****        -1.8322  -0.6254   0.2063 H              1 S1                 0.0000
     25 ****         0.2106  -1.2615   1.2209 H              1 S1                 0.0000
     26 ****         2.6849  -1.1517   1.1455 H              1 S1                 0.0000
     27 ****         4.2590   1.1808  -2.3703 H              1 S1                 0.0000
     28 ****         4.5370   2.4531  -1.1885 H              1 S1                 0.0000
     29 ****         6.4388   0.1303  -1.8531 H              1 S1                 0.0000
     30 ****         6.6863   1.8241  -2.2315 H              1 S1                 0.0000
     31 ****         6.5382  -0.5667   0.4622 H              1 S1                 0.0000
     32 ****         6.8507   0.6432   1.6912 H              1 S1                 0.0000
     33 ****         4.6391   1.6896   1.3316 H              1 S1                 0.0000
     34 ****         4.4402  -0.0188   1.6578 H              1 S1                 0.0000
     35 ****         0.1419   1.9369  -1.6966 H              1 S1                 0.0000
     36 ****        -3.7957  -0.1972  -0.0529 H              1 S1                 0.0000
     37 ****        -4.8034   2.5039  -0.4104 H              1 S1                 0.0000
     38 ****        -6.0913  -0.2245  -0.1164 H              1 S1                 0.0000
     39 ****        -6.0489   1.0514   1.0848 H              1 S1                 0.0000
     40 ****        -8.2348   0.7361  -0.5009 H              1 S1                 0.0000
     41 ****        -7.6525   2.3698  -0.1429 H              1 S1                 0.0000
     42 ****        -4.6745   2.1972  -2.8064 H              1 S1                 0.0000
     43 ****        -4.9982   0.4619  -2.6704 H              1 S1                 0.0000
     44 ****        -1.1866   2.6213  -0.8994 LP             1 S1                 0.0000
     45 ****        -2.8759   2.9341  -1.1191 LP             1 S1                 0.0000
     46 ****         4.3280  -0.3518  -0.6783 LP             1 S1                 0.0000
     47 ****         6.6636   2.2978   0.0549 LP             1 S1                 0.0000
     48 ****         7.8290   1.2169  -0.3195 LP             1 S1                 0.0000
     49 ****         2.4495   1.9827  -1.6723 LP             1 S1                 0.0000
@<TRIPOS>BOND
    1    1    2 2     
    2    2    3 am    
    3    2   16 am    
    4    3    4 1     
    5    3   24 1     
    6    4   15 ar    
    7    4    5 ar    
    8    5    6 ar    
    9    5   25 1     
   10    6    7 ar    
   11    6   26 1     
   12    7    8 1     
   13    7   14 ar    
   14    8   13 1     
   15    8    9 1     
   16    9   10 1     
   17    9   27 1     
   18    9   28 1     
   19   10   11 1     
   20   10   29 1     
   21   10   30 1     
   22   11   12 1     
   23   12   13 1     
   24   12   31 1     
   25   12   32 1     
   26   13   33 1     
   27   13   34 1     
   28   14   15 ar    
   29   15   35 1     
   30   16   17 1     
   31   16   36 1     
   32   17   23 1     
   33   17   18 1     
   34   17   37 1     
   35   18   19 1     
   36   18   38 1     
   37   18   39 1     
   38   19   20 1     
   39   19   40 1     
   40   19   41 1     
   41   20   21 2     
   42   20   22 2     
   43   20   23 1     
   44   23   42 1     
   45   23   43 1     
   46    1   44 1     
   47    1   45 1     
   48    8   46 1     
   49   11   47 1     
   50   11   48 1     
   51   14   49 1     
@<TRIPOS>SUBSTRUCTURE
      1 S1             1
@<TRIPOS>SET
LONE_PAIRS      STATIC     ATOMS    <user>   **** ""
8 44 45 46 47 48 49 21 22
DONOR_HYDROGENS      STATIC     ATOMS    <user>   **** ""
2 24 36
ATOM$BLUE        STATIC     ATOMS    COLORGROUP SYSTEM
8 44 45 46 47 48 49 21 22
ATOM$RED        STATIC     ATOMS    COLORGROUP SYSTEM
2 24 36
