AV-unprocessed.smi:1413|AV-procd|sdf|5758|dock3
  -GOLD-   22720 5393D 1   1.00000     0.00000
 Structure written by MMmdl.
 53 55  0  0  0  0  0  0  0  0  1 V2000
  152.2135  144.3978  157.6735 C   0  0  0  0  0  0  0  0  0  0  0  0
  151.2787  143.6367  158.6306 C   0  0  1  0  0  0  0  0  0  0  0  0
  150.3180  142.6711  157.9092 C   0  0  0  0  0  0  0  0  0  0  0  0
  151.0192  141.4710  157.4616 N   0  0  0  0  0  0  0  0  0  0  0  0
  150.3221  140.6633  156.5372 C   0  0  0  0  0  0  0  0  0  0  0  0
  149.1045  140.0463  156.9083 C   0  0  0  0  0  0  0  0  0  0  0  0
  148.4303  139.2403  155.9719 C   0  0  0  0  0  0  0  0  0  0  0  0
  148.9835  139.0618  154.6893 C   0  0  0  0  0  0  0  0  0  0  0  0
  148.2697  138.2508  153.7648 N   0  0  0  0  0  0  0  0  0  0  0  0
  146.9426  138.1609  153.5721 C   0  0  0  0  0  0  0  0  0  0  0  0
  146.0878  138.8063  154.1783 O   0  0  0  0  0  0  0  0  0  0  0  0
  146.6544  137.2758  152.6076 N   0  0  0  0  0  0  0  0  0  0  0  0
  145.3126  136.9568  152.1254 C   0  0  2  0  0  0  0  0  0  0  0  0
  144.4056  136.6062  153.3179 C   0  0  0  0  0  0  0  0  0  0  0  0
  145.4018  135.8093  151.1009 C   0  0  1  0  0  0  0  0  0  0  0  0
  146.1247  134.5592  151.6060 C   0  0  0  0  0  0  0  0  0  0  0  0
  145.5409  133.4857  150.7173 C   0  0  0  0  0  0  0  0  0  0  0  0
  144.0867  133.9316  150.6045 C   0  0  0  0  0  0  0  0  0  0  0  0
  144.0968  135.3495  150.7514 O   0  0  0  0  0  0  0  0  0  0  0  0
  150.1953  139.7338  154.4008 C   0  0  0  0  0  0  0  0  0  0  0  0
  150.8440  140.5085  155.2959 N   0  0  0  0  0  0  0  0  0  0  0  0
  151.7654  140.8106  158.5294 C   0  0  0  0  0  0  0  0  0  0  0  0
  152.7272  141.8039  159.2055 C   0  0  2  0  0  0  0  0  0  0  0  0
  153.4304  141.1841  160.4177 C   0  0  0  0  0  0  0  0  0  0  0  0
  151.9986  142.9462  159.6542 O   0  0  0  0  0  0  0  0  0  0  0  0
  151.6386  145.0225  156.9896 H   0  0  0  0  0  0  0  0  0  0  0  0
  152.8181  143.7264  157.0643 H   0  0  0  0  0  0  0  0  0  0  0  0
  152.8898  145.0498  158.2266 H   0  0  0  0  0  0  0  0  0  0  0  0
  150.6728  144.3865  159.1398 H   0  0  0  0  0  0  0  0  0  0  0  0
  149.5264  142.3647  158.5943 H   0  0  0  0  0  0  0  0  0  0  0  0
  149.8309  143.1942  157.0875 H   0  0  0  0  0  0  0  0  0  0  0  0
  148.6755  140.1922  157.8883 H   0  0  0  0  0  0  0  0  0  0  0  0
  147.4979  138.7655  156.2404 H   0  0  0  0  0  0  0  0  0  0  0  0
  148.8433  137.7054  153.1383 H   0  0  0  0  0  0  0  0  0  0  0  0
  147.4207  136.7981  152.1568 H   0  0  0  0  0  0  0  0  0  0  0  0
  144.8996  137.8312  151.6189 H   0  0  0  0  0  0  0  0  0  0  0  0
  143.3827  136.4112  152.9956 H   0  0  0  0  0  0  0  0  0  0  0  0
  144.3648  137.4245  154.0377 H   0  0  0  0  0  0  0  0  0  0  0  0
  144.7644  135.7198  153.8421 H   0  0  0  0  0  0  0  0  0  0  0  0
  145.8856  136.1553  150.1856 H   0  0  0  0  0  0  0  0  0  0  0  0
  147.2098  134.6320  151.5274 H   0  0  0  0  0  0  0  0  0  0  0  0
  145.8690  134.3592  152.6477 H   0  0  0  0  0  0  0  0  0  0  0  0
  146.0196  133.5102  149.7375 H   0  0  0  0  0  0  0  0  0  0  0  0
  145.6496  132.4811  151.1269 H   0  0  0  0  0  0  0  0  0  0  0  0
  143.6346  133.6325  149.6588 H   0  0  0  0  0  0  0  0  0  0  0  0
  143.4923  133.5056  151.4134 H   0  0  0  0  0  0  0  0  0  0  0  0
  150.6670  139.6811  153.4325 H   0  0  0  0  0  0  0  0  0  0  0  0
  151.0632  140.4067  159.2602 H   0  0  0  0  0  0  0  0  0  0  0  0
  152.3375  139.9726  158.1287 H   0  0  0  0  0  0  0  0  0  0  0  0
  153.4929  142.1125  158.4939 H   0  0  0  0  0  0  0  0  0  0  0  0
  154.0149  140.3106  160.1282 H   0  0  0  0  0  0  0  0  0  0  0  0
  152.7104  140.8704  161.1740 H   0  0  0  0  0  0  0  0  0  0  0  0
  154.1099  141.8996  160.8814 H   0  0  0  0  0  0  0  0  0  0  0  0
  1  2  1  0  0  0  0
  1 26  1  0  0  0  0
  1 27  1  0  0  0  0
  1 28  1  0  0  0  0
  2 25  1  0  0  0  0
  2  3  1  0  0  0  0
  2 29  1  0  0  0  0
  3  4  1  0  0  0  0
  3 30  1  0  0  0  0
  3 31  1  0  0  0  0
  4  5  1  0  0  0  0
  4 22  1  0  0  0  0
  5 21  1  0  0  0  0
  5  6  2  0  0  0  0
  6  7  1  0  0  0  0
  6 32  1  0  0  0  0
  7  8  2  0  0  0  0
  7 33  1  0  0  0  0
  8  9  1  0  0  0  0
  8 20  1  0  0  0  0
  9 10  1  0  0  0  0
  9 34  1  0  0  0  0
 10 11  2  0  0  0  0
 10 12  1  0  0  0  0
 12 13  1  0  0  0  0
 12 35  1  0  0  0  0
 13 14  1  0  0  0  0
 13 15  1  0  0  0  0
 13 36  1  0  0  0  0
 14 37  1  0  0  0  0
 14 38  1  0  0  0  0
 14 39  1  0  0  0  0
 15 19  1  0  0  0  0
 15 16  1  0  0  0  0
 15 40  1  0  0  0  0
 16 17  1  0  0  0  0
 16 41  1  0  0  0  0
 16 42  1  0  0  0  0
 17 18  1  0  0  0  0
 17 43  1  0  0  0  0
 17 44  1  0  0  0  0
 18 19  1  0  0  0  0
 18 45  1  0  0  0  0
 18 46  1  0  0  0  0
 20 21  2  0  0  0  0
 20 47  1  0  0  0  0
 22 23  1  0  0  0  0
 22 48  1  0  0  0  0
 22 49  1  0  0  0  0
 23 24  1  0  0  0  0
 23 25  1  0  0  0  0
 23 50  1  0  0  0  0
 24 51  1  0  0  0  0
 24 52  1  0  0  0  0
 24 53  1  0  0  0  0
M  END
> <s_m_source_file>
AV-unprocessed.smi

> <i_m_source_file_index>
1413

> <i_lp_mmshare_version>
43012

> <i_f3d_flags>
0

> <s_epik_input>
W0NIM11bQ0BASF0xW0NIMl1OKFtDSDJdW0NASF0oTzEpW0NIM10pYzJbY0hdW2NIXWMoW2NIXW4yKVtOSF1DKD1PKVtOSF1bQ0BIXShbQ0gzXSlbQ0BASF0zW0NIMl1bQ0gyXVtDSDJdTzM=

> <s_epik_cmdline>
J2VwaWtfcHl0aG9uJywgJy1waCcsICc3LjAnLCAnLXRuJywgJzgnLCAnLW1hJywgJzIwMCcsICctbWV0YWxfYmluZGluZycsICctaW1hZScsICc8aW5maWxlLm1hZT4nLCAnLW9tYWUnLCAnPG91dGZpbGUubWFlPic=

> <r_lp_tautomer_probability>
1

> <r_epik_Ionization_Penalty>
0.00271172

> <r_epik_Ionization_Penalty_Charging>
0

> <r_epik_Ionization_Penalty_Neutral>
0.00271172

> <r_epik_State_Penalty>
0.00186503

> <r_epik_Charging_Adjusted_Penalty>
0.00186503

> <i_epik_Tot_Q>
0

> <i_epik_Tot_abs_Q>
0

> <r_epik_Metal_State_Penalty>
-0

> <b_epik_Metal_Only>
0

> <s_lp_Force_Field>
OPLS_2005

> <r_lp_Energy>
37.0266

> <b_lp_Chiralities_Consistent>
1

> <s_lp_Variant>
AV-unprocessed.smi:1413-11

> <Gold.Version>
5.8.1

> <Gold.Id.Protein>
6NUR|6NUR_protein|mol2

> <Gold.PLP.Fitness>
48.6816

> <Gold.PLP.PLP>
-40.5743

> <Gold.PLP.part.hbond>
-3.0000

> <Gold.PLP.part.metal>
0.0000

> <Gold.PLP.part.buried>
-6.6373

> <Gold.PLP.part.nonpolar>
-32.1639

> <Gold.PLP.part.repulsive>
0.4746

> <Gold.PLP.ligand.clash>
0.0000

> <Gold.PLP.ligand.torsion>
0.6140

> <Gold.PLP.Chemscore.Hbond>
1.9920

> <Gold.PLP.Chemscore.CHOScore>
1.0000

> <Gold.PLP.Chemscore.Metal>
0.0000

> <Gold.Chemscore.Hbonds>
donor molecule, donor type, donor heavy atom, donor atom, acceptor molecule, acceptor atom, score
      L1  H     9    34       P1  7948  0.98
      L1  H    12    35       P1  7948  1.00
      L1  C    20    47       P1  7957  0.98

> <Gold.PLP.Chemscore.Internal.Correction>
0.3593

> <Gold.Rescore>
     Score         DG    S(hbond)    S(metal)    S(lipo)     H(rot)  DE(clash)    DE(int)     intcor
     18.17     -21.16       1.94        0.00     108.01       1.35       0.36       2.63       ----

> <Gold.Chemscore.Fitness>
18.1708

> <Gold.Chemscore.DG>
-21.1613

> <Gold.Chemscore.ZeroCoef>
-5.4800

> <Gold.Chemscore.Hbond>
1.9440

> <Gold.Chemscore.Metal>
0.0000

> <Gold.Chemscore.Lipo>
108.0084

> <Gold.Chemscore.Internal_Hbond>
0.0000

> <Gold.Chemscore.DEClash>
0.3575

> <Gold.Chemscore.DEInternal>
2.6331

> <Gold.Chemscore.Rot>
1.3471

> <Gold.Chemscore.Internal.Correction>
   9.000000E+99

> <Gold.Chemscore.Hbonds>
donor molecule, donor type, donor heavy atom, donor atom, acceptor molecule, acceptor atom, score
      L1  H     9    34       P1  7948  0.93
      L1  H    12    35       P1  7948  0.99

> <Gold.Chemscore.Hbond.Weighted>
-6.4929

> <Gold.Chemscore.Metal.Weighted>
-0.0000

> <Gold.Chemscore.Lipo.Weighted>
-12.6370

> <Gold.Chemscore.Internal_Hbond.Weighted>
0.0000

> <Gold.Chemscore.DEClash.Weighted>
0.3575

> <Gold.Chemscore.DEInternal.Weighted>
2.6331

> <Gold.Chemscore.Rot.Weighted>
3.4485

> <Gold.Chemscore.Internal.Correction.Weighted>
   9.000000E+99

> <Gold.Protein.RotatedTorsions>
[ 6907 6896 6895 6894 ] final  -50.21 input  -60.11 | X-H torsion
[ 7974 7965 7964 7962 ] final   60.98 input  175.53 | X-H torsion
[ 8008 7997 7996 7995 ] final   78.93 input   59.86 | X-H torsion
[ 10167 10162 10161 10158 ] final  129.25 input  -65.29 | X-H torsion
[ 10718 10713 10712 10709 ] final  -42.87 input   66.30 | X-H torsion
[ 10763 10752 10751 10750 ] final -122.64 input  -60.55 | X-H torsion
[ 11005 11000 10999 10996 ] final  123.08 input  -57.11 | X-H torsion

> <Gold.Protein.ActiveResidues>
 VAL166  LYS551  ARG553  GLY616  TRP617  ASP618  TYR619  PRO620  LYS621  CYS622 
 ASP623  PHE694  ASN695  SER759  ASP760  ASP761  ALA762  ILE779  LEU786  VAL792 
 PHE793  MET794  SER795  GLU796  ALA797  LYS798  CYS799  TRP800  GLU811  SER814 

> <Gold.Protein.RotatedAtoms>
  150.8729  134.8106  159.7167 H   0  0  0  0  0  0  0  0  0  0  0  0  # atno 6907 bound_to 6896
  152.4727  134.4918  159.9707 H   0  0  0  0  0  0  0  0  0  0  0  0  # atno 6908 bound_to 6896
  151.5004  133.3467  159.2903 H   0  0  0  0  0  0  0  0  0  0  0  0  # atno 6909 bound_to 6896
  145.8900  139.3504  143.0655 H   0  0  0  0  0  0  0  0  0  0  0  0  # atno 7974 bound_to 7965
  155.8626  140.3453  155.5767 H   0  0  0  0  0  0  0  0  0  0  0  0  # atno 8008 bound_to 7997
  155.7916  140.0872  157.2025 H   0  0  0  0  0  0  0  0  0  0  0  0  # atno 8009 bound_to 7997
  154.4012  140.1482  156.3156 H   0  0  0  0  0  0  0  0  0  0  0  0  # atno 8010 bound_to 7997
  139.5487  144.6795  151.4392 H   0  0  0  0  0  0  0  0  0  0  0  0  # atno 10167 bound_to 10162
  156.2550  130.4191  149.8607 H   0  0  0  0  0  0  0  0  0  0  0  0  # atno 10718 bound_to 10713
  154.8693  135.4126  154.2814 H   0  0  0  0  0  0  0  0  0  0  0  0  # atno 10763 bound_to 10752
  153.3706  135.7007  153.6646 H   0  0  0  0  0  0  0  0  0  0  0  0  # atno 10764 bound_to 10752
  153.5509  135.3629  155.2731 H   0  0  0  0  0  0  0  0  0  0  0  0  # atno 10765 bound_to 10752
  139.9296  134.9641  156.8205 H   0  0  0  0  0  0  0  0  0  0  0  0  # atno 11005 bound_to 11000
  145.8920  140.9297  143.0547 LP  0  0  0  0  0  0  0  0  0  0  0  0  # atno 17320 bound_to 7965
  144.6730  140.0919  143.7465 LP  0  0  0  0  0  0  0  0  0  0  0  0  # atno 17321 bound_to 7965
  140.6743  143.8225  150.7038 LP  0  0  0  0  0  0  0  0  0  0  0  0  # atno 17342 bound_to 10162
  140.1659  143.4236  152.2035 LP  0  0  0  0  0  0  0  0  0  0  0  0  # atno 17343 bound_to 10162
  156.6142  130.8599  151.3461 LP  0  0  0  0  0  0  0  0  0  0  0  0  # atno 17370 bound_to 10713
  157.7229  130.9582  150.1512 LP  0  0  0  0  0  0  0  0  0  0  0  0  # atno 17371 bound_to 10713
  140.6238  133.9969  155.7630 LP  0  0  0  0  0  0  0  0  0  0  0  0  # atno 17394 bound_to 11000
  141.0877  133.9965  157.3287 LP  0  0  0  0  0  0  0  0  0  0  0  0  # atno 17395 bound_to 11000

$$$$
