AV-unprocessed.smi:283|AV-procd|sdf|2133|dock6
  -GOLD-   2262021453D 1   1.00000     0.00000
 Structure written by MMmdl.
 48 51  0  0  0  0  0  0  0  0  1 V2000
  151.6268  139.4584  156.6603 C   0  0  0  0  0  0  0  0  0  0  0  0
  151.3805  139.6073  158.1677 C   0  0  2  0  0  0  0  0  0  0  0  0
  150.0918  139.0145  158.5217 N   0  0  0  0  0  0  0  0  0  0  0  0
  149.8784  137.6849  158.3993 C   0  0  0  0  0  0  0  0  0  0  0  0
  150.5399  136.9486  157.4686 N   0  0  0  0  0  0  0  0  0  0  0  0
  150.3064  135.6371  157.3664 C   0  0  0  0  0  0  0  0  0  0  0  0
  149.4675  134.8823  158.0780 N   0  0  0  0  0  0  0  0  0  0  0  0
  148.7959  135.6161  159.0120 C   0  0  0  0  0  0  0  0  0  0  0  0
  148.9469  137.0138  159.2330 C   0  0  0  0  0  0  0  0  0  0  0  0
  148.1100  137.4218  160.2630 N   0  0  0  0  0  0  0  0  0  0  0  0
  147.4999  136.3257  160.6257 C   0  0  0  0  0  0  0  0  0  0  0  0
  147.8490  135.1927  159.9246 N   0  0  0  0  0  0  0  0  0  0  0  0
  147.3048  133.8120  160.1092 C   0  0  2  0  0  0  0  0  0  0  0  0
  145.9227  133.8475  159.9206 O   0  0  0  0  0  0  0  0  0  0  0  0
  145.3098  133.0345  160.9080 C   0  0  2  0  0  0  0  0  0  0  0  0
  143.7864  133.2553  161.0234 C   0  0  0  0  0  0  0  0  0  0  0  0
  143.1298  132.2876  161.8149 O   0  0  0  0  0  0  0  0  0  0  0  0
  146.2066  133.1400  162.1512 C   0  0  2  0  0  0  0  0  0  0  0  0
  145.9126  134.2604  162.9614 O   0  0  0  0  0  0  0  0  0  0  0  0
  147.5947  133.2997  161.5364 C   0  0  1  0  0  0  0  0  0  0  0  0
  148.2472  132.0456  161.5014 O   0  0  0  0  0  0  0  0  0  0  0  0
  151.5434  141.0682  158.5943 C   0  0  0  0  0  0  0  0  0  0  0  0
  150.6767  142.0554  158.0700 C   0  0  0  0  0  0  0  0  0  0  0  0
  150.8141  143.4047  158.4461 C   0  0  0  0  0  0  0  0  0  0  0  0
  151.8260  143.7837  159.3460 C   0  0  0  0  0  0  0  0  0  0  0  0
  152.7008  142.8120  159.8657 C   0  0  0  0  0  0  0  0  0  0  0  0
  152.5669  141.4592  159.4939 C   0  0  0  0  0  0  0  0  0  0  0  0
  153.6783  140.3111  160.1543 Cl  0  0  0  0  0  0  0  0  0  0  0  0
  147.7821  133.2215  159.3257 H   0  0  0  0  0  0  0  0  0  0  0  0
  145.4316  132.0164  160.5328 H   0  0  0  0  0  0  0  0  0  0  0  0
  146.1213  132.2509  162.7776 H   0  0  0  0  0  0  0  0  0  0  0  0
  148.2213  134.0018  162.0899 H   0  0  0  0  0  0  0  0  0  0  0  0
  152.6192  139.8190  156.3881 H   0  0  0  0  0  0  0  0  0  0  0  0
  150.8967  140.0240  156.0803 H   0  0  0  0  0  0  0  0  0  0  0  0
  151.5618  138.4145  156.3520 H   0  0  0  0  0  0  0  0  0  0  0  0
  152.1350  139.0081  158.6764 H   0  0  0  0  0  0  0  0  0  0  0  0
  149.4410  139.6296  158.9883 H   0  0  0  0  0  0  0  0  0  0  0  0
  150.8710  135.1182  156.6061 H   0  0  0  0  0  0  0  0  0  0  0  0
  146.7664  136.3145  161.4187 H   0  0  0  0  0  0  0  0  0  0  0  0
  143.5834  134.2437  161.4367 H   0  0  0  0  0  0  0  0  0  0  0  0
  143.3386  133.2317  160.0296 H   0  0  0  0  0  0  0  0  0  0  0  0
  142.4548  132.7175  162.3175 H   0  0  0  0  0  0  0  0  0  0  0  0
  146.6298  134.3912  163.5630 H   0  0  0  0  0  0  0  0  0  0  0  0
  147.6119  131.3722  161.6909 H   0  0  0  0  0  0  0  0  0  0  0  0
  149.8976  141.7829  157.3734 H   0  0  0  0  0  0  0  0  0  0  0  0
  150.1434  144.1487  158.0424 H   0  0  0  0  0  0  0  0  0  0  0  0
  151.9335  144.8189  159.6348 H   0  0  0  0  0  0  0  0  0  0  0  0
  153.4803  143.1074  160.5527 H   0  0  0  0  0  0  0  0  0  0  0  0
  1  2  1  0  0  0  0
  1 33  1  0  0  0  0
  1 34  1  0  0  0  0
  1 35  1  0  0  0  0
  2  3  1  0  0  0  0
  2 22  1  0  0  0  0
  2 36  1  0  0  0  0
  3  4  1  0  0  0  0
  3 37  1  0  0  0  0
  4  9  1  0  0  0  0
  4  5  2  0  0  0  0
  5  6  1  0  0  0  0
  6  7  2  0  0  0  0
  6 38  1  0  0  0  0
  7  8  1  0  0  0  0
  8 12  1  0  0  0  0
  8  9  2  0  0  0  0
  9 10  1  0  0  0  0
 10 11  2  0  0  0  0
 11 12  1  0  0  0  0
 11 39  1  0  0  0  0
 12 13  1  0  0  0  0
 13 29  1  0  0  0  0
 13 20  1  0  0  0  0
 13 14  1  0  0  0  0
 14 15  1  0  0  0  0
 15 30  1  0  0  0  0
 15 16  1  0  0  0  0
 15 18  1  0  0  0  0
 16 17  1  0  0  0  0
 16 40  1  0  0  0  0
 16 41  1  0  0  0  0
 17 42  1  0  0  0  0
 18 31  1  0  0  0  0
 18 19  1  0  0  0  0
 18 20  1  0  0  0  0
 19 43  1  0  0  0  0
 20 32  1  0  0  0  0
 20 21  1  0  0  0  0
 21 44  1  0  0  0  0
 22 27  1  0  0  0  0
 22 23  2  0  0  0  0
 23 24  1  0  0  0  0
 23 45  1  0  0  0  0
 24 25  2  0  0  0  0
 24 46  1  0  0  0  0
 25 26  1  0  0  0  0
 25 47  1  0  0  0  0
 26 27  2  0  0  0  0
 26 48  1  0  0  0  0
 27 28  1  0  0  0  0
M  END
> <s_m_source_file>
AV-unprocessed.smi

> <i_m_source_file_index>
283

> <i_lp_mmshare_version>
43012

> <i_f3d_flags>
0

> <s_epik_input>
Q2xjMVtjSF1bY0hdW2NIXVtjSF1jMVtDQEhdKFtDSDNdKVtOSF1jKG5bY0hdbjIpYyhjMjMpbltjSF1uM1tDQEBIXTRPW0NASF0oW0NIMl1bT0hdKVtDQEBIXShbT0hdKVtDQEhdNFtPSF0=

> <s_epik_cmdline>
J2VwaWtfcHl0aG9uJywgJy1waCcsICc3LjAnLCAnLXRuJywgJzgnLCAnLW1hJywgJzIwMCcsICctbWV0YWxfYmluZGluZycsICctaW1hZScsICc8aW5maWxlLm1hZT4nLCAnLW9tYWUnLCAnPG91dGZpbGUubWFlPic=

> <r_lp_tautomer_probability>
1

> <r_epik_Ionization_Penalty>
0.000266407

> <r_epik_Ionization_Penalty_Charging>
0

> <r_epik_Ionization_Penalty_Neutral>
0.000266407

> <r_epik_State_Penalty>
-0

> <r_epik_Charging_Adjusted_Penalty>
0

> <i_epik_Tot_Q>
0

> <i_epik_Tot_abs_Q>
0

> <r_epik_Metal_State_Penalty>
-0

> <b_epik_Metal_Only>
0

> <s_epik_Chemistry_Notes>
This compound contains an acetal/aminal-like group ( X-CH(R)-Y where X, Y are N, S, or O) that may be acid/base labile, releasing an aldehyde.

> <s_lp_Force_Field>
OPLS_2005

> <r_lp_Energy>
46.8878

> <b_lp_Chiralities_Consistent>
1

> <s_lp_Variant>
AV-unprocessed.smi:283-9

> <Gold.Version>
5.8.1

> <Gold.Id.Protein>
6NUR|6NUR_protein|mol2

> <Gold.PLP.Fitness>
47.8194

> <Gold.PLP.PLP>
-42.2477

> <Gold.PLP.part.hbond>
-4.8580

> <Gold.PLP.part.metal>
0.0000

> <Gold.PLP.part.buried>
-5.6121

> <Gold.PLP.part.nonpolar>
-33.1138

> <Gold.PLP.part.repulsive>
0.1881

> <Gold.PLP.ligand.clash>
0.0000

> <Gold.PLP.ligand.torsion>
0.2881

> <Gold.PLP.Chemscore.Hbond>
2.0263

> <Gold.PLP.Chemscore.CHOScore>
0.0000

> <Gold.PLP.Chemscore.Metal>
0.0000

> <Gold.Chemscore.Hbonds>
donor molecule, donor type, donor heavy atom, donor atom, acceptor molecule, acceptor atom, score
      P1  H  6896  6908       L1     7  0.76
      P1  H  6931  6943       L1    10  0.55
      P1  H  6934  6947       L1    10  0.64

> <Gold.PLP.Chemscore.Internal.Correction>
0.0691

> <Gold.Rescore>
     Score         DG    S(hbond)    S(metal)    S(lipo)     H(rot)  DE(clash)    DE(int)     intcor
      8.61     -10.22       1.23        0.00      94.90       4.10       0.08       1.53       ----

> <Gold.Chemscore.Fitness>
8.6058

> <Gold.Chemscore.DG>
-10.2156

> <Gold.Chemscore.ZeroCoef>
-5.4800

> <Gold.Chemscore.Hbond>
1.2336

> <Gold.Chemscore.Metal>
0.0000

> <Gold.Chemscore.Lipo>
94.8998

> <Gold.Chemscore.Internal_Hbond>
0.0000

> <Gold.Chemscore.DEClash>
0.0765

> <Gold.Chemscore.DEInternal>
1.5333

> <Gold.Chemscore.Rot>
4.0968

> <Gold.Chemscore.Internal.Correction>
   9.000000E+99

> <Gold.Chemscore.Hbonds>
donor molecule, donor type, donor heavy atom, donor atom, acceptor molecule, acceptor atom, score
      P1  H  6896  6908       L1     7  0.03
      P1  H  6931  6943       L1    10  0.36
      P1  H  6934  6947       L1    10  0.54

> <Gold.Chemscore.Hbond.Weighted>
-4.1203

> <Gold.Chemscore.Metal.Weighted>
-0.0000

> <Gold.Chemscore.Lipo.Weighted>
-11.1033

> <Gold.Chemscore.Internal_Hbond.Weighted>
0.0000

> <Gold.Chemscore.DEClash.Weighted>
0.0765

> <Gold.Chemscore.DEInternal.Weighted>
1.5333

> <Gold.Chemscore.Rot.Weighted>
10.4879

> <Gold.Chemscore.Internal.Correction.Weighted>
   9.000000E+99

> <Gold.Protein.RotatedTorsions>
[ 6907 6896 6895 6894 ] final  133.13 input  -60.11 | X-H torsion
[ 7974 7965 7964 7962 ] final   48.96 input  175.53 | X-H torsion
[ 8008 7997 7996 7995 ] final -164.62 input   59.86 | X-H torsion
[ 10167 10162 10161 10158 ] final -120.24 input  -65.29 | X-H torsion
[ 10718 10713 10712 10709 ] final   -7.88 input   66.30 | X-H torsion
[ 10763 10752 10751 10750 ] final   13.45 input  -60.55 | X-H torsion
[ 11005 11000 10999 10996 ] final   -2.86 input  -57.11 | X-H torsion

> <Gold.Protein.ActiveResidues>
 VAL166  LYS551  ARG553  GLY616  TRP617  ASP618  TYR619  PRO620  LYS621  CYS622 
 ASP623  PHE694  ASN695  SER759  ASP760  ASP761  ALA762  ILE779  LEU786  VAL792 
 PHE793  MET794  SER795  GLU796  ALA797  LYS798  CYS799  TRP800  GLU811  SER814 

> <Gold.Protein.RotatedAtoms>
  152.3251  133.5896  159.5770 H   0  0  0  0  0  0  0  0  0  0  0  0  # atno 6907 bound_to 6896
  150.7392  133.9952  159.3629 H   0  0  0  0  0  0  0  0  0  0  0  0  # atno 6908 bound_to 6896
  151.7833  135.0756  160.0428 H   0  0  0  0  0  0  0  0  0  0  0  0  # atno 6909 bound_to 6896
  146.0154  139.4590  142.9930 H   0  0  0  0  0  0  0  0  0  0  0  0  # atno 7974 bound_to 7965
  155.8382  140.0944  157.1751 H   0  0  0  0  0  0  0  0  0  0  0  0  # atno 8008 bound_to 7997
  154.3981  140.1406  156.3757 H   0  0  0  0  0  0  0  0  0  0  0  0  # atno 8009 bound_to 7997
  155.8093  140.3450  155.5451 H   0  0  0  0  0  0  0  0  0  0  0  0  # atno 8010 bound_to 7997
  140.0380  143.5182  152.2144 H   0  0  0  0  0  0  0  0  0  0  0  0  # atno 10167 bound_to 10162
  156.7108  130.5121  149.5892 H   0  0  0  0  0  0  0  0  0  0  0  0  # atno 10718 bound_to 10713
  153.1720  135.6814  153.8594 H   0  0  0  0  0  0  0  0  0  0  0  0  # atno 10763 bound_to 10752
  153.7955  135.3163  155.3385 H   0  0  0  0  0  0  0  0  0  0  0  0  # atno 10764 bound_to 10752
  154.8004  135.4781  154.0355 H   0  0  0  0  0  0  0  0  0  0  0  0  # atno 10765 bound_to 10752
  140.6630  133.9303  155.8448 H   0  0  0  0  0  0  0  0  0  0  0  0  # atno 11005 bound_to 11000
  145.7276  141.0053  143.1369 LP  0  0  0  0  0  0  0  0  0  0  0  0  # atno 17320 bound_to 7965
  144.6969  139.8946  143.7455 LP  0  0  0  0  0  0  0  0  0  0  0  0  # atno 17321 bound_to 7965
  139.6032  144.7589  151.3122 LP  0  0  0  0  0  0  0  0  0  0  0  0  # atno 17342 bound_to 10162
  140.7273  143.6967  150.7878 LP  0  0  0  0  0  0  0  0  0  0  0  0  # atno 17343 bound_to 10162
  156.1662  130.6407  151.0781 LP  0  0  0  0  0  0  0  0  0  0  0  0  # atno 17370 bound_to 10713
  157.6937  131.0801  150.7033 LP  0  0  0  0  0  0  0  0  0  0  0  0  # atno 17371 bound_to 10713
  141.0450  134.0566  157.3855 LP  0  0  0  0  0  0  0  0  0  0  0  0  # atno 17394 bound_to 11000
  139.9006  135.0163  156.7251 LP  0  0  0  0  0  0  0  0  0  0  0  0  # atno 17395 bound_to 11000

$$$$
