AV-unprocessed.smi:438|AV-procd|sdf|2576|dock2
  -GOLD-   2262022553D 1   1.00000     0.00000
 Structure written by MMmdl.
 48 49  0  0  0  0  0  0  0  0  1 V2000
  148.5647  133.6809  158.2818 C   0  0  0  0  0  0  0  0  0  0  0  0
  148.5689  135.0178  158.9997 C   0  0  0  0  0  0  0  0  0  0  0  0
  149.7377  135.6952  158.9750 N   0  0  0  0  0  0  0  0  0  0  0  0
  149.7614  136.8684  159.6061 C   0  0  0  0  0  0  0  0  0  0  0  0
  151.3249  137.7239  159.5714 S   0  0  0  0  0  0  0  0  0  0  0  0
  150.9479  139.1822  158.5374 C   0  0  0  0  0  0  0  0  0  0  0  0
  152.0739  140.2151  158.3969 C   0  0  0  0  0  0  0  0  0  0  0  0
  153.1156  139.8959  157.8254 O   0  0  0  0  0  0  0  0  0  0  0  0
  151.8710  141.4352  158.9190 N   0  0  0  0  0  0  0  0  0  0  0  0
  152.8141  142.5531  158.9050 C   0  0  1  0  0  0  0  0  0  0  0  0
  152.1787  143.8274  158.3030 C   0  0  0  0  0  0  0  0  0  0  0  0
  151.0885  144.4176  159.2118 C   0  0  0  0  0  0  0  0  0  0  0  0
  151.6250  144.6846  160.6256 C   0  0  0  0  0  0  0  0  0  0  0  0
  152.2468  143.4195  161.2380 C   0  0  0  0  0  0  0  0  0  0  0  0
  153.3495  142.8314  160.3318 C   0  0  1  0  0  0  0  0  0  0  0  0
  154.0085  141.5983  160.9740 C   0  0  0  0  0  0  0  0  0  0  0  0
  148.7547  137.4582  160.2529 N   0  0  0  0  0  0  0  0  0  0  0  0
  147.5805  136.7940  160.2887 C   0  0  0  0  0  0  0  0  0  0  0  0
  146.5373  137.3778  160.9463 O   0  0  0  0  0  0  0  0  0  0  0  0
  147.4258  135.5305  159.6653 C   0  0  0  0  0  0  0  0  0  0  0  0
  146.1024  134.7784  159.7113 C   0  0  0  0  0  0  0  0  0  0  0  0
  146.2024  133.4846  160.5299 C   0  0  0  0  0  0  0  0  0  0  0  0
  145.0202  132.7307  160.3762 O   0  0  0  0  0  0  0  0  0  0  0  0
  147.7419  133.6308  157.5687 H   0  0  0  0  0  0  0  0  0  0  0  0
  148.4526  132.8671  158.9980 H   0  0  0  0  0  0  0  0  0  0  0  0
  149.4935  133.5202  157.7331 H   0  0  0  0  0  0  0  0  0  0  0  0
  150.6932  138.8259  157.5392 H   0  0  0  0  0  0  0  0  0  0  0  0
  150.0546  139.6740  158.9235 H   0  0  0  0  0  0  0  0  0  0  0  0
  150.9844  141.6048  159.3720 H   0  0  0  0  0  0  0  0  0  0  0  0
  153.6588  142.2635  158.2771 H   0  0  0  0  0  0  0  0  0  0  0  0
  152.9576  144.5758  158.1530 H   0  0  0  0  0  0  0  0  0  0  0  0
  151.7667  143.6250  157.3139 H   0  0  0  0  0  0  0  0  0  0  0  0
  150.7021  145.3409  158.7800 H   0  0  0  0  0  0  0  0  0  0  0  0
  150.2473  143.7285  159.2623 H   0  0  0  0  0  0  0  0  0  0  0  0
  152.3739  145.4766  160.5874 H   0  0  0  0  0  0  0  0  0  0  0  0
  150.8214  145.0505  161.2649 H   0  0  0  0  0  0  0  0  0  0  0  0
  152.6596  143.6581  162.2188 H   0  0  0  0  0  0  0  0  0  0  0  0
  151.4667  142.6763  161.4086 H   0  0  0  0  0  0  0  0  0  0  0  0
  154.1289  143.5895  160.2393 H   0  0  0  0  0  0  0  0  0  0  0  0
  153.2861  140.8028  161.1592 H   0  0  0  0  0  0  0  0  0  0  0  0
  154.4653  141.8546  161.9300 H   0  0  0  0  0  0  0  0  0  0  0  0
  154.7928  141.1948  160.3330 H   0  0  0  0  0  0  0  0  0  0  0  0
  146.2940  136.9095  161.7299 H   0  0  0  0  0  0  0  0  0  0  0  0
  145.3214  135.4205  160.1187 H   0  0  0  0  0  0  0  0  0  0  0  0
  145.7849  134.5498  158.6930 H   0  0  0  0  0  0  0  0  0  0  0  0
  147.0514  132.8843  160.2013 H   0  0  0  0  0  0  0  0  0  0  0  0
  146.3476  133.7049  161.5877 H   0  0  0  0  0  0  0  0  0  0  0  0
  145.1967  132.0115  159.7891 H   0  0  0  0  0  0  0  0  0  0  0  0
  1  2  1  0  0  0  0
  1 24  1  0  0  0  0
  1 25  1  0  0  0  0
  1 26  1  0  0  0  0
  2 20  1  0  0  0  0
  2  3  2  0  0  0  0
  3  4  1  0  0  0  0
  4  5  1  0  0  0  0
  4 17  2  0  0  0  0
  5  6  1  0  0  0  0
  6  7  1  0  0  0  0
  6 27  1  0  0  0  0
  6 28  1  0  0  0  0
  7  8  2  0  0  0  0
  7  9  1  0  0  0  0
  9 10  1  0  0  0  0
  9 29  1  0  0  0  0
 10 15  1  0  0  0  0
 10 11  1  0  0  0  0
 10 30  1  0  0  0  0
 11 12  1  0  0  0  0
 11 31  1  0  0  0  0
 11 32  1  0  0  0  0
 12 13  1  0  0  0  0
 12 33  1  0  0  0  0
 12 34  1  0  0  0  0
 13 14  1  0  0  0  0
 13 35  1  0  0  0  0
 13 36  1  0  0  0  0
 14 15  1  0  0  0  0
 14 37  1  0  0  0  0
 14 38  1  0  0  0  0
 15 16  1  0  0  0  0
 15 39  1  0  0  0  0
 16 40  1  0  0  0  0
 16 41  1  0  0  0  0
 16 42  1  0  0  0  0
 17 18  1  0  0  0  0
 18 19  1  0  0  0  0
 18 20  2  0  0  0  0
 19 43  1  0  0  0  0
 20 21  1  0  0  0  0
 21 22  1  0  0  0  0
 21 44  1  0  0  0  0
 21 45  1  0  0  0  0
 22 23  1  0  0  0  0
 22 46  1  0  0  0  0
 22 47  1  0  0  0  0
 23 48  1  0  0  0  0
M  END
> <s_m_source_file>
AV-unprocessed.smi

> <i_m_source_file_index>
438

> <i_lp_mmshare_version>
43012

> <i_f3d_flags>
0

> <s_epik_input>
W09IXVtDSDJdW0NIMl1jMWMoW09IXSluYyhuYzFbQ0gzXSlTW0NIMl1DKD1PKVtOSF1bQ0BASF0yW0NIMl1bQ0gyXVtDSDJdW0NIMl1bQ0BIXTJbQ0gzXQ==

> <s_epik_cmdline>
J2VwaWtfcHl0aG9uJywgJy1waCcsICc3LjAnLCAnLXRuJywgJzgnLCAnLW1hJywgJzIwMCcsICctbWV0YWxfYmluZGluZycsICctaW1hZScsICc8aW5maWxlLm1hZT4nLCAnLW9tYWUnLCAnPG91dGZpbGUubWFlPic=

> <r_lp_tautomer_probability>
0.0660145

> <r_epik_Ionization_Penalty>
2.91405

> <r_epik_Ionization_Penalty_Charging>
0

> <r_epik_Ionization_Penalty_Neutral>
2.91405

> <r_epik_State_Penalty>
2.44767

> <r_epik_Charging_Adjusted_Penalty>
2.44767

> <i_epik_Tot_Q>
0

> <i_epik_Tot_abs_Q>
0

> <r_epik_Metal_State_Penalty>
3.04288

> <b_epik_Metal_Only>
0

> <s_lp_Force_Field>
OPLS_2005

> <r_lp_Energy>
-3.37475

> <b_lp_Chiralities_Consistent>
1

> <s_lp_Variant>
AV-unprocessed.smi:438-14

> <Gold.Version>
5.8.1

> <Gold.Id.Protein>
6NUR|6NUR_protein|mol2

> <Gold.PLP.Fitness>
49.8688

> <Gold.PLP.PLP>
-40.2037

> <Gold.PLP.part.hbond>
-5.0000

> <Gold.PLP.part.metal>
0.0000

> <Gold.PLP.part.buried>
-2.9125

> <Gold.PLP.part.nonpolar>
-32.2133

> <Gold.PLP.part.repulsive>
0.1165

> <Gold.PLP.ligand.clash>
0.0000

> <Gold.PLP.ligand.torsion>
0.2104

> <Gold.PLP.Chemscore.Hbond>
3.3320

> <Gold.PLP.Chemscore.CHOScore>
0.0000

> <Gold.PLP.Chemscore.Metal>
0.0000

> <Gold.Chemscore.Hbonds>
donor molecule, donor type, donor heavy atom, donor atom, acceptor molecule, acceptor atom, score
      P1  H  6896  6909       L1     3  0.90
      P1  H  6931  6943       L1    17  0.48
      P1  H  6934  6947       L1    19  0.85
      P1  H  7997  8008       L1     8  1.00

> <Gold.PLP.Chemscore.Internal.Correction>
0.0900

> <Gold.Rescore>
     Score         DG    S(hbond)    S(metal)    S(lipo)     H(rot)  DE(clash)    DE(int)     intcor
     15.37     -15.83       2.11        0.00     103.31       3.44       0.05       0.41       ----

> <Gold.Chemscore.Fitness>
15.3653

> <Gold.Chemscore.DG>
-15.8292

> <Gold.Chemscore.ZeroCoef>
-5.4800

> <Gold.Chemscore.Hbond>
2.1132

> <Gold.Chemscore.Metal>
0.0000

> <Gold.Chemscore.Lipo>
103.3095

> <Gold.Chemscore.Internal_Hbond>
0.0000

> <Gold.Chemscore.DEClash>
0.0524

> <Gold.Chemscore.DEInternal>
0.4114

> <Gold.Chemscore.Rot>
3.4359

> <Gold.Chemscore.Internal.Correction>
   9.000000E+99

> <Gold.Chemscore.Hbonds>
donor molecule, donor type, donor heavy atom, donor atom, acceptor molecule, acceptor atom, score
      P1  H  6896  6909       L1     3  0.16
      P1  H  6931  6943       L1    17  0.35
      P1  H  6934  6947       L1    19  0.15
      P1  H  7997  8008       L1     8  0.98

> <Gold.Chemscore.Hbond.Weighted>
-7.0580

> <Gold.Chemscore.Metal.Weighted>
-0.0000

> <Gold.Chemscore.Lipo.Weighted>
-12.0872

> <Gold.Chemscore.Internal_Hbond.Weighted>
0.0000

> <Gold.Chemscore.DEClash.Weighted>
0.0524

> <Gold.Chemscore.DEInternal.Weighted>
0.4114

> <Gold.Chemscore.Rot.Weighted>
8.7960

> <Gold.Chemscore.Internal.Correction.Weighted>
   9.000000E+99

> <Gold.Protein.RotatedTorsions>
[ 6907 6896 6895 6894 ] final   45.01 input  -60.11 | X-H torsion
[ 7974 7965 7964 7962 ] final -138.72 input  175.53 | X-H torsion
[ 8008 7997 7996 7995 ] final  -69.93 input   59.86 | X-H torsion
[ 10167 10162 10161 10158 ] final  -79.88 input  -65.29 | X-H torsion
[ 10718 10713 10712 10709 ] final   44.39 input   66.30 | X-H torsion
[ 10763 10752 10751 10750 ] final -166.70 input  -60.55 | X-H torsion
[ 11005 11000 10999 10996 ] final  -70.81 input  -57.11 | X-H torsion

> <Gold.Protein.ActiveResidues>
 VAL166  LYS551  ARG553  GLY616  TRP617  ASP618  TYR619  PRO620  LYS621  CYS622 
 ASP623  PHE694  ASN695  SER759  ASP760  ASP761  ALA762  ILE779  LEU786  VAL792 
 PHE793  MET794  SER795  GLU796  ALA797  LYS798  CYS799  TRP800  GLU811  SER814 

> <Gold.Protein.RotatedAtoms>
  152.2394  134.8243  160.0462 H   0  0  0  0  0  0  0  0  0  0  0  0  # atno 6907 bound_to 6896
  151.8963  133.3522  159.3823 H   0  0  0  0  0  0  0  0  0  0  0  0  # atno 6908 bound_to 6896
  150.7049  134.4799  159.5509 H   0  0  0  0  0  0  0  0  0  0  0  0  # atno 6909 bound_to 6896
  144.8735  140.6403  143.5251 H   0  0  0  0  0  0  0  0  0  0  0  0  # atno 7974 bound_to 7965
  154.4974  140.0844  156.7726 H   0  0  0  0  0  0  0  0  0  0  0  0  # atno 8008 bound_to 7997
  155.4083  140.3440  155.4243 H   0  0  0  0  0  0  0  0  0  0  0  0  # atno 8009 bound_to 7997
  156.1412  140.1530  156.8905 H   0  0  0  0  0  0  0  0  0  0  0  0  # atno 8010 bound_to 7997
  140.4554  143.2470  151.8428 H   0  0  0  0  0  0  0  0  0  0  0  0  # atno 10167 bound_to 10162
  157.4263  130.7998  149.7561 H   0  0  0  0  0  0  0  0  0  0  0  0  # atno 10718 bound_to 10713
  154.6807  135.2954  154.9617 H   0  0  0  0  0  0  0  0  0  0  0  0  # atno 10763 bound_to 10752
  154.0613  135.6631  153.4816 H   0  0  0  0  0  0  0  0  0  0  0  0  # atno 10764 bound_to 10752
  153.0545  135.5153  154.7848 H   0  0  0  0  0  0  0  0  0  0  0  0  # atno 10765 bound_to 10752
  141.1581  133.6800  156.6809 H   0  0  0  0  0  0  0  0  0  0  0  0  # atno 11005 bound_to 11000
  145.4085  139.1584  143.4138 LP  0  0  0  0  0  0  0  0  0  0  0  0  # atno 17320 bound_to 7965
  146.2947  140.4188  142.8726 LP  0  0  0  0  0  0  0  0  0  0  0  0  # atno 17321 bound_to 7965
  139.4800  144.5071  151.8982 LP  0  0  0  0  0  0  0  0  0  0  0  0  # atno 17342 bound_to 10162
  140.4158  144.2309  150.5888 LP  0  0  0  0  0  0  0  0  0  0  0  0  # atno 17343 bound_to 10162
  155.9897  130.3949  150.3059 LP  0  0  0  0  0  0  0  0  0  0  0  0  # atno 17370 bound_to 10713
  157.1212  131.0247  151.3008 LP  0  0  0  0  0  0  0  0  0  0  0  0  # atno 17371 bound_to 10713
  140.3103  134.8091  157.4171 LP  0  0  0  0  0  0  0  0  0  0  0  0  # atno 17394 bound_to 11000
  140.1184  134.5252  155.8205 LP  0  0  0  0  0  0  0  0  0  0  0  0  # atno 17395 bound_to 11000

$$$$
