AV-unprocessed.smi:896|AV-procd|sdf|4077|dock7
  -GOLD-   22720 1563D 1   1.00000     0.00000
 Structure written by MMmdl.
 49 50  0  0  0  0  0  0  0  0  2 V2000
  151.9253  142.2788  159.0915 C   0  0  0  0  0  0  0  0  0  0  0  0
  152.4576  141.1836  158.3546 O   0  0  0  0  0  0  0  0  0  0  0  0
  151.6945  140.6453  157.3389 C   0  0  0  0  0  0  0  0  0  0  0  0
  150.3272  140.9744  157.2751 C   0  0  0  0  0  0  0  0  0  0  0  0
  149.5450  140.4332  156.2378 C   0  0  0  0  0  0  0  0  0  0  0  0
  150.1556  139.5812  155.2865 C   0  0  0  0  0  0  0  0  0  0  0  0
  149.4416  138.9728  154.2161 N   0  0  0  0  0  0  0  0  0  0  0  0
  148.1836  139.2168  153.8111 C   0  0  0  0  0  0  0  0  0  0  0  0
  147.4210  140.0416  154.3150 O   0  0  0  0  0  0  0  0  0  0  0  0
  147.8559  138.4561  152.7568 N   0  0  0  0  0  0  0  0  0  0  0  0
  146.5680  138.4874  152.0733 C   0  0  0  0  0  0  0  0  0  0  0  0
  145.4844  137.7465  152.8788 C   0  0  0  0  0  0  0  0  0  0  0  0
  144.7356  136.6645  152.0752 C   0  0  2  0  0  0  0  0  0  0  0  0
  143.9585  135.7222  153.0136 C   0  0  0  0  0  0  0  0  0  0  0  0
  143.2250  134.6216  152.2297 C   0  0  0  0  0  0  0  0  0  0  0  0
  144.1722  133.8450  151.3934 N   0  3  1  0  0  0  0  0  0  0  0  0
  143.5211  132.7015  150.7189 C   0  0  0  0  0  0  0  0  0  0  0  0
  144.9134  134.7134  150.4463 C   0  0  0  0  0  0  0  0  0  0  0  0
  145.6775  135.8213  151.1913 C   0  0  0  0  0  0  0  0  0  0  0  0
  151.5327  139.2948  155.4495 C   0  0  0  0  0  0  0  0  0  0  0  0
  152.2685  138.3707  154.4952 C   0  0  0  0  0  0  0  0  0  0  0  0
  152.2846  139.8160  156.4438 N   0  0  0  0  0  0  0  0  0  0  0  0
  152.6441  142.5851  159.8511 H   0  0  0  0  0  0  0  0  0  0  0  0
  151.0014  142.0034  159.6026 H   0  0  0  0  0  0  0  0  0  0  0  0
  151.7367  143.1396  158.4483 H   0  0  0  0  0  0  0  0  0  0  0  0
  149.8844  141.6288  158.0115 H   0  0  0  0  0  0  0  0  0  0  0  0
  148.4926  140.6692  156.2006 H   0  0  0  0  0  0  0  0  0  0  0  0
  149.9766  138.3340  153.6464 H   0  0  0  0  0  0  0  0  0  0  0  0
  148.5449  137.8082  152.4033 H   0  0  0  0  0  0  0  0  0  0  0  0
  146.2823  139.5309  151.9379 H   0  0  0  0  0  0  0  0  0  0  0  0
  146.6771  138.0639  151.0744 H   0  0  0  0  0  0  0  0  0  0  0  0
  145.9231  137.2974  153.7711 H   0  0  0  0  0  0  0  0  0  0  0  0
  144.7634  138.4826  153.2380 H   0  0  0  0  0  0  0  0  0  0  0  0
  144.0114  137.1628  151.4288 H   0  0  0  0  0  0  0  0  0  0  0  0
  144.6438  135.2641  153.7286 H   0  0  0  0  0  0  0  0  0  0  0  0
  143.2366  136.2911  153.6006 H   0  0  0  0  0  0  0  0  0  0  0  0
  142.7210  133.9528  152.9285 H   0  0  0  0  0  0  0  0  0  0  0  0
  142.4521  135.0612  151.5970 H   0  0  0  0  0  0  0  0  0  0  0  0
  142.7578  133.0432  150.0188 H   0  0  0  0  0  0  0  0  0  0  0  0
  143.0471  132.0434  151.4477 H   0  0  0  0  0  0  0  0  0  0  0  0
  144.2538  132.1123  150.1663 H   0  0  0  0  0  0  0  0  0  0  0  0
  145.6181  134.1097  149.8730 H   0  0  0  0  0  0  0  0  0  0  0  0
  144.2168  135.1532  149.7306 H   0  0  0  0  0  0  0  0  0  0  0  0
  146.1837  136.4516  150.4607 H   0  0  0  0  0  0  0  0  0  0  0  0
  146.4597  135.3738  151.8063 H   0  0  0  0  0  0  0  0  0  0  0  0
  152.1916  138.7404  153.4722 H   0  0  0  0  0  0  0  0  0  0  0  0
  151.8417  137.3681  154.5342 H   0  0  0  0  0  0  0  0  0  0  0  0
  153.3274  138.2956  154.7461 H   0  0  0  0  0  0  0  0  0  0  0  0
  144.8586  133.4537  152.0229 H   0  0  0  0  0  0  0  0  0  0  0  0
  1  2  1  0  0  0  0
  1 23  1  0  0  0  0
  1 24  1  0  0  0  0
  1 25  1  0  0  0  0
  2  3  1  0  0  0  0
  3 22  1  0  0  0  0
  3  4  2  0  0  0  0
  4  5  1  0  0  0  0
  4 26  1  0  0  0  0
  5  6  2  0  0  0  0
  5 27  1  0  0  0  0
  6  7  1  0  0  0  0
  6 20  1  0  0  0  0
  7  8  1  0  0  0  0
  7 28  1  0  0  0  0
  8  9  2  0  0  0  0
  8 10  1  0  0  0  0
 10 11  1  0  0  0  0
 10 29  1  0  0  0  0
 11 12  1  0  0  0  0
 11 30  1  0  0  0  0
 11 31  1  0  0  0  0
 12 13  1  0  0  0  0
 12 32  1  0  0  0  0
 12 33  1  0  0  0  0
 13 19  1  0  0  0  0
 13 14  1  0  0  0  0
 13 34  1  0  0  0  0
 14 15  1  0  0  0  0
 14 35  1  0  0  0  0
 14 36  1  0  0  0  0
 15 16  1  0  0  0  0
 15 37  1  0  0  0  0
 15 38  1  0  0  0  0
 16 17  1  0  0  0  0
 16 18  1  0  0  0  0
 16 49  1  0  0  0  0
 17 39  1  0  0  0  0
 17 40  1  0  0  0  0
 17 41  1  0  0  0  0
 18 19  1  0  0  0  0
 18 42  1  0  0  0  0
 18 43  1  0  0  0  0
 19 44  1  0  0  0  0
 19 45  1  0  0  0  0
 20 21  1  0  0  0  0
 20 22  2  0  0  0  0
 21 46  1  0  0  0  0
 21 47  1  0  0  0  0
 21 48  1  0  0  0  0
M  CHG  1  16   1
M  END
> <s_m_source_file>
AV-unprocessed.smi

> <i_m_source_file_index>
896

> <i_lp_mmshare_version>
43012

> <i_f3d_flags>
0

> <s_epik_input>
W0NIM11PYzFbY0hdW2NIXWMoYyhuMSlbQ0gzXSlbTkhdQyg9TylbTkhdW0NIMl1bQ0gyXVtDSF0yW0NIMl1bQ0gyXU4oW0NIM10pW0NIMl1bQ0gyXTI=

> <s_epik_cmdline>
J2VwaWtfcHl0aG9uJywgJy1waCcsICc3LjAnLCAnLXRuJywgJzgnLCAnLW1hJywgJzIwMCcsICctbWV0YWxfYmluZGluZycsICctaW1hZScsICc8aW5maWxlLm1hZT4nLCAnLW9tYWUnLCAnPG91dGZpbGUubWFlPic=

> <r_lp_tautomer_probability>
1

> <r_epik_Ionization_Penalty>
0.000968128

> <r_epik_Ionization_Penalty_Charging>
0.000718523

> <r_epik_Ionization_Penalty_Neutral>
0.000249604

> <r_epik_State_Penalty>
0.00045807

> <r_epik_Charging_Adjusted_Penalty>
0.00117659

> <i_epik_Tot_Q>
1

> <i_epik_Tot_abs_Q>
1

> <r_epik_Metal_State_Penalty>
-0

> <b_epik_Metal_Only>
0

> <s_lp_Force_Field>
OPLS_2005

> <r_lp_Energy>
19.0488

> <b_lp_Chiralities_Consistent>
1

> <s_lp_Variant>
AV-unprocessed.smi:896-1

> <Gold.Version>
5.8.1

> <Gold.Id.Protein>
6NUR|6NUR_protein|mol2

> <Gold.PLP.Fitness>
42.9568

> <Gold.PLP.PLP>
-38.5897

> <Gold.PLP.part.hbond>
-3.4726

> <Gold.PLP.part.metal>
0.0000

> <Gold.PLP.part.buried>
-3.2199

> <Gold.PLP.part.nonpolar>
-32.1155

> <Gold.PLP.part.repulsive>
0.2375

> <Gold.PLP.ligand.clash>
0.0546

> <Gold.PLP.ligand.torsion>
0.8028

> <Gold.PLP.Chemscore.Hbond>
2.0000

> <Gold.PLP.Chemscore.CHOScore>
0.0000

> <Gold.PLP.Chemscore.Metal>
0.0000

> <Gold.Chemscore.Hbonds>
donor molecule, donor type, donor heavy atom, donor atom, acceptor molecule, acceptor atom, score
      L1  H    10    29       P1  7948  1.00
      P1  H  7997  8009       L1    22  0.89

> <Gold.PLP.Chemscore.Internal.Correction>
0.0274

> <Gold.Rescore>
     Score         DG    S(hbond)    S(metal)    S(lipo)     H(rot)  DE(clash)    DE(int)     intcor
     15.70     -17.72       1.84        0.00      88.25       1.65       0.07       1.94       ----

> <Gold.Chemscore.Fitness>
15.7048

> <Gold.Chemscore.DG>
-17.7230

> <Gold.Chemscore.ZeroCoef>
-5.4800

> <Gold.Chemscore.Hbond>
1.8405

> <Gold.Chemscore.Metal>
0.0000

> <Gold.Chemscore.Lipo>
88.2497

> <Gold.Chemscore.Internal_Hbond>
0.0000

> <Gold.Chemscore.DEClash>
0.0745

> <Gold.Chemscore.DEInternal>
1.9438

> <Gold.Chemscore.Rot>
1.6521

> <Gold.Chemscore.Internal.Correction>
   9.000000E+99

> <Gold.Chemscore.Hbonds>
donor molecule, donor type, donor heavy atom, donor atom, acceptor molecule, acceptor atom, score
      L1  H    10    29       P1  7948  0.95
      P1  H  7997  8009       L1    22  0.68

> <Gold.Chemscore.Hbond.Weighted>
-6.1472

> <Gold.Chemscore.Metal.Weighted>
-0.0000

> <Gold.Chemscore.Lipo.Weighted>
-10.3252

> <Gold.Chemscore.Internal_Hbond.Weighted>
0.0000

> <Gold.Chemscore.DEClash.Weighted>
0.0745

> <Gold.Chemscore.DEInternal.Weighted>
1.9438

> <Gold.Chemscore.Rot.Weighted>
4.2294

> <Gold.Chemscore.Internal.Correction.Weighted>
   9.000000E+99

> <Gold.Protein.RotatedTorsions>
[ 6907 6896 6895 6894 ] final  179.89 input  -60.11 | X-H torsion
[ 7974 7965 7964 7962 ] final  -18.85 input  175.53 | X-H torsion
[ 8008 7997 7996 7995 ] final -162.92 input   59.86 | X-H torsion
[ 10167 10162 10161 10158 ] final  -43.29 input  -65.29 | X-H torsion
[ 10718 10713 10712 10709 ] final  114.47 input   66.30 | X-H torsion
[ 10763 10752 10751 10750 ] final   45.44 input  -60.55 | X-H torsion
[ 11005 11000 10999 10996 ] final   72.74 input  -57.11 | X-H torsion

> <Gold.Protein.ActiveResidues>
 VAL166  LYS551  ARG553  GLY616  TRP617  ASP618  TYR619  PRO620  LYS621  CYS622 
 ASP623  PHE694  ASN695  SER759  ASP760  ASP761  ALA762  ILE779  LEU786  VAL792 
 PHE793  MET794  SER795  GLU796  ALA797  LYS798  CYS799  TRP800  GLU811  SER814 

> <Gold.Protein.RotatedAtoms>
  151.6643  133.3316  159.3181 H   0  0  0  0  0  0  0  0  0  0  0  0  # atno 6907 bound_to 6896
  150.7898  134.6917  159.6510 H   0  0  0  0  0  0  0  0  0  0  0  0  # atno 6908 bound_to 6896
  152.3976  134.6344  160.0135 H   0  0  0  0  0  0  0  0  0  0  0  0  # atno 6909 bound_to 6896
  146.1871  140.3979  142.8472 H   0  0  0  0  0  0  0  0  0  0  0  0  # atno 7974 bound_to 7965
  155.8138  140.0909  157.1889 H   0  0  0  0  0  0  0  0  0  0  0  0  # atno 8008 bound_to 7997
  154.3979  140.1449  156.3478 H   0  0  0  0  0  0  0  0  0  0  0  0  # atno 8009 bound_to 7997
  155.8338  140.3441  155.5591 H   0  0  0  0  0  0  0  0  0  0  0  0  # atno 8010 bound_to 7997
  140.6939  143.2991  151.3331 H   0  0  0  0  0  0  0  0  0  0  0  0  # atno 10167 bound_to 10162
  157.6279  131.0999  150.7190 H   0  0  0  0  0  0  0  0  0  0  0  0  # atno 10718 bound_to 10713
  152.9824  135.6039  154.3437 H   0  0  0  0  0  0  0  0  0  0  0  0  # atno 10763 bound_to 10752
  154.3132  135.2771  155.2557 H   0  0  0  0  0  0  0  0  0  0  0  0  # atno 10764 bound_to 10752
  154.4757  135.5930  153.6409 H   0  0  0  0  0  0  0  0  0  0  0  0  # atno 10765 bound_to 10752
  139.9475  134.7286  156.0943 H   0  0  0  0  0  0  0  0  0  0  0  0  # atno 11005 bound_to 11000
  144.8418  140.6868  143.6225 LP  0  0  0  0  0  0  0  0  0  0  0  0  # atno 17320 bound_to 7965
  145.3905  139.1617  143.4232 LP  0  0  0  0  0  0  0  0  0  0  0  0  # atno 17321 bound_to 7965
  139.6371  144.0609  152.2525 LP  0  0  0  0  0  0  0  0  0  0  0  0  # atno 17342 bound_to 10162
  140.0102  144.6229  150.7654 LP  0  0  0  0  0  0  0  0  0  0  0  0  # atno 17343 bound_to 10162
  156.7534  130.4776  149.5452 LP  0  0  0  0  0  0  0  0  0  0  0  0  # atno 17370 bound_to 10713
  156.1463  130.6279  151.0536 LP  0  0  0  0  0  0  0  0  0  0  0  0  # atno 17371 bound_to 10713
  141.1129  133.6637  156.3023 LP  0  0  0  0  0  0  0  0  0  0  0  0  # atno 17394 bound_to 11000
  140.5799  134.5756  157.5477 LP  0  0  0  0  0  0  0  0  0  0  0  0  # atno 17395 bound_to 11000

$$$$
