AV-unprocessed.smi:2982|AV-procd|sdf|11376|dock6
  -GOLD-   2272016293D 1   1.00000     0.00000
 Structure written by MMmdl.
 36 37  0  0  0  0  0  0  0  0  1 V2000
  145.2397  142.9748  154.5886 C   0  0  0  0  0  0  0  0  0  0  0  0
  146.1340  141.7298  154.6545 C   0  0  0  0  0  0  0  0  0  0  0  0
  147.5567  141.9338  154.0952 C   0  0  0  0  0  0  0  0  0  0  0  0
  148.4361  140.7940  154.2870 N   0  0  0  0  0  0  0  0  0  0  0  0
  149.6238  140.8615  155.0212 C   0  0  0  0  0  0  0  0  0  0  0  0
  149.9753  142.0775  155.5852 N   0  0  0  0  0  0  0  0  0  0  0  0
  150.4321  139.7755  155.1884 C   0  0  0  0  0  0  0  0  0  0  0  0
  151.6209  139.8010  155.9085 N   0  0  0  0  0  0  0  0  0  0  0  0
  151.7209  140.3121  157.2688 C   0  0  0  0  0  0  0  0  0  0  0  0
  152.1889  139.2021  158.2272 C   0  0  0  0  0  0  0  0  0  0  0  0
  153.4095  138.6408  157.7526 O   0  0  0  0  0  0  0  0  0  0  0  0
  153.2697  138.0631  156.4577 C   0  0  0  0  0  0  0  0  0  0  0  0
  152.8404  139.1474  155.4539 C   0  0  0  0  0  0  0  0  0  0  0  0
  150.0756  138.4840  154.5934 C   0  0  0  0  0  0  0  0  0  0  0  0
  150.7290  137.4454  154.6876 O   0  0  0  0  0  0  0  0  0  0  0  0
  148.8883  138.4808  153.8654 N   0  0  0  0  0  0  0  0  0  0  0  0
  148.0508  139.5745  153.6773 C   0  0  0  0  0  0  0  0  0  0  0  0
  147.0331  139.4410  152.9973 O   0  0  0  0  0  0  0  0  0  0  0  0
  148.6142  137.6101  153.4342 H   0  0  0  0  0  0  0  0  0  0  0  0
  144.2309  142.7443  154.9312 H   0  0  0  0  0  0  0  0  0  0  0  0
  145.1661  143.3535  153.5689 H   0  0  0  0  0  0  0  0  0  0  0  0
  145.6247  143.7755  155.2200 H   0  0  0  0  0  0  0  0  0  0  0  0
  146.1874  141.3831  155.6868 H   0  0  0  0  0  0  0  0  0  0  0  0
  145.6544  140.9273  154.0938 H   0  0  0  0  0  0  0  0  0  0  0  0
  147.5283  142.1094  153.0196 H   0  0  0  0  0  0  0  0  0  0  0  0
  148.0299  142.8254  154.5084 H   0  0  0  0  0  0  0  0  0  0  0  0
  149.3968  142.8979  155.4749 H   0  0  0  0  0  0  0  0  0  0  0  0
  150.8199  142.1919  156.1267 H   0  0  0  0  0  0  0  0  0  0  0  0
  152.4256  141.1445  157.2817 H   0  0  0  0  0  0  0  0  0  0  0  0
  150.7581  140.7083  157.5943 H   0  0  0  0  0  0  0  0  0  0  0  0
  152.3503  139.6117  159.2244 H   0  0  0  0  0  0  0  0  0  0  0  0
  151.4329  138.4222  158.3244 H   0  0  0  0  0  0  0  0  0  0  0  0
  154.2235  137.6292  156.1575 H   0  0  0  0  0  0  0  0  0  0  0  0
  152.5455  137.2479  156.4879 H   0  0  0  0  0  0  0  0  0  0  0  0
  152.6871  138.7075  154.4676 H   0  0  0  0  0  0  0  0  0  0  0  0
  153.6251  139.8973  155.3472 H   0  0  0  0  0  0  0  0  0  0  0  0
  1  2  1  0  0  0  0
  1 20  1  0  0  0  0
  1 21  1  0  0  0  0
  1 22  1  0  0  0  0
  2  3  1  0  0  0  0
  2 23  1  0  0  0  0
  2 24  1  0  0  0  0
  3  4  1  0  0  0  0
  3 25  1  0  0  0  0
  3 26  1  0  0  0  0
  4 17  1  0  0  0  0
  4  5  1  0  0  0  0
  5  6  1  0  0  0  0
  5  7  2  0  0  0  0
  6 27  1  0  0  0  0
  6 28  1  0  0  0  0
  7  8  1  0  0  0  0
  7 14  1  0  0  0  0
  8 13  1  0  0  0  0
  8  9  1  0  0  0  0
  9 10  1  0  0  0  0
  9 29  1  0  0  0  0
  9 30  1  0  0  0  0
 10 11  1  0  0  0  0
 10 31  1  0  0  0  0
 10 32  1  0  0  0  0
 11 12  1  0  0  0  0
 12 13  1  0  0  0  0
 12 33  1  0  0  0  0
 12 34  1  0  0  0  0
 13 35  1  0  0  0  0
 13 36  1  0  0  0  0
 14 15  2  0  0  0  0
 14 16  1  0  0  0  0
 16 19  1  0  0  0  0
 16 17  1  0  0  0  0
 17 18  2  0  0  0  0
M  END
> <s_m_source_file>
AV-unprocessed.smi

> <i_m_source_file_index>
2982

> <i_lp_mmshare_version>
43012

> <i_f3d_flags>
0

> <s_epik_input>
W0NIM11bQ0gyXVtDSDJdbjFjKFtOSDJdKWMoYyg9TylbbkhdYzE9TylOMltDSDJdW0NIMl1PW0NIMl1bQ0gyXTI=

> <s_epik_cmdline>
J2VwaWtfcHl0aG9uJywgJy1waCcsICc3LjAnLCAnLXRuJywgJzgnLCAnLW1hJywgJzIwMCcsICctbWV0YWxfYmluZGluZycsICctaW1hZScsICc8aW5maWxlLm1hZT4nLCAnLW9tYWUnLCAnPG91dGZpbGUubWFlPic=

> <r_lp_tautomer_probability>
1

> <r_epik_Ionization_Penalty>
1.08155e-05

> <r_epik_Ionization_Penalty_Charging>
2.81443e-06

> <r_epik_Ionization_Penalty_Neutral>
8.00112e-06

> <r_epik_State_Penalty>
-0

> <r_epik_Charging_Adjusted_Penalty>
2.81443e-06

> <i_epik_Tot_Q>
0

> <i_epik_Tot_abs_Q>
0

> <r_epik_Metal_State_Penalty>
-0

> <b_epik_Metal_Only>
0

> <s_epik_Chemistry_Notes>
This compound has an imine and may undergo hydrolysis.

> <s_lp_Force_Field>
OPLS_2005

> <r_lp_Energy>
28.8877

> <b_lp_Chiralities_Consistent>
1

> <s_lp_Variant>
AV-unprocessed.smi:2982-1

> <Gold.Version>
5.8.1

> <Gold.Id.Protein>
6NUR|6NUR_protein|mol2

> <Gold.PLP.Fitness>
41.8639

> <Gold.PLP.PLP>
-33.6065

> <Gold.PLP.part.hbond>
-4.0000

> <Gold.PLP.part.metal>
0.0000

> <Gold.PLP.part.buried>
0.8569

> <Gold.PLP.part.nonpolar>
-31.1643

> <Gold.PLP.part.repulsive>
0.7322

> <Gold.PLP.ligand.clash>
0.0086

> <Gold.PLP.ligand.torsion>
0.8166

> <Gold.PLP.Chemscore.Hbond>
2.7580

> <Gold.PLP.Chemscore.CHOScore>
0.0000

> <Gold.PLP.Chemscore.Metal>
0.0000

> <Gold.Chemscore.Hbonds>
donor molecule, donor type, donor heavy atom, donor atom, acceptor molecule, acceptor atom, score
      L1  H     6    27       P1  8028  1.00
      L1  H    16    19       P1  7948  0.74
      P1  H  7997  8010       L1    11  0.15

> <Gold.PLP.Chemscore.Internal.Correction>
1.6253

> <Gold.Rescore>
     Score         DG    S(hbond)    S(metal)    S(lipo)     H(rot)  DE(clash)    DE(int)     intcor
      9.77     -13.86       1.76        0.00      48.38       1.24       0.19       3.90       ----

> <Gold.Chemscore.Fitness>
9.7689

> <Gold.Chemscore.DG>
-13.8570

> <Gold.Chemscore.ZeroCoef>
-5.4800

> <Gold.Chemscore.Hbond>
1.7616

> <Gold.Chemscore.Metal>
0.0000

> <Gold.Chemscore.Lipo>
48.3780

> <Gold.Chemscore.Internal_Hbond>
0.0000

> <Gold.Chemscore.DEClash>
0.1852

> <Gold.Chemscore.DEInternal>
3.9030

> <Gold.Chemscore.Rot>
1.2371

> <Gold.Chemscore.Internal.Correction>
   9.000000E+99

> <Gold.Chemscore.Hbonds>
donor molecule, donor type, donor heavy atom, donor atom, acceptor molecule, acceptor atom, score
      L1  H     6    27       P1  8028  0.99
      L1  H    16    19       P1  7948  0.72

> <Gold.Chemscore.Hbond.Weighted>
-5.8837

> <Gold.Chemscore.Metal.Weighted>
-0.0000

> <Gold.Chemscore.Lipo.Weighted>
-5.6602

> <Gold.Chemscore.Internal_Hbond.Weighted>
0.0000

> <Gold.Chemscore.DEClash.Weighted>
0.1852

> <Gold.Chemscore.DEInternal.Weighted>
3.9030

> <Gold.Chemscore.Rot.Weighted>
3.1669

> <Gold.Chemscore.Internal.Correction.Weighted>
   9.000000E+99

> <Gold.Protein.RotatedTorsions>
[ 6907 6896 6895 6894 ] final    3.95 input  -60.11 | X-H torsion
[ 7974 7965 7964 7962 ] final  -35.22 input  175.53 | X-H torsion
[ 8008 7997 7996 7995 ] final   53.16 input   59.86 | X-H torsion
[ 10167 10162 10161 10158 ] final   35.84 input  -65.29 | X-H torsion
[ 10718 10713 10712 10709 ] final   70.91 input   66.30 | X-H torsion
[ 10763 10752 10751 10750 ] final  -64.83 input  -60.55 | X-H torsion
[ 11005 11000 10999 10996 ] final   40.89 input  -57.11 | X-H torsion

> <Gold.Protein.ActiveResidues>
 VAL166  LYS551  ARG553  GLY616  TRP617  ASP618  TYR619  PRO620  LYS621  CYS622 
 ASP623  PHE694  ASN695  SER759  ASP760  ASP761  ALA762  ILE779  LEU786  VAL792 
 PHE793  MET794  SER795  GLU796  ALA797  LYS798  CYS799  TRP800  GLU811  SER814 

> <Gold.Protein.RotatedAtoms>
  151.6334  135.1020  160.0126 H   0  0  0  0  0  0  0  0  0  0  0  0  # atno 6907 bound_to 6896
  152.4094  133.6935  159.6393 H   0  0  0  0  0  0  0  0  0  0  0  0  # atno 6908 bound_to 6896
  150.7986  133.8568  159.3261 H   0  0  0  0  0  0  0  0  0  0  0  0  # atno 6909 bound_to 6896
  146.0765  140.6133  142.8928 H   0  0  0  0  0  0  0  0  0  0  0  0  # atno 7974 bound_to 7965
  155.4637  140.3462  155.4316 H   0  0  0  0  0  0  0  0  0  0  0  0  # atno 8008 bound_to 7997
  156.1144  140.1470  156.9322 H   0  0  0  0  0  0  0  0  0  0  0  0  # atno 8009 bound_to 7997
  154.4779  140.0879  156.7285 H   0  0  0  0  0  0  0  0  0  0  0  0  # atno 8010 bound_to 7997
  140.4184  144.1494  150.6145 H   0  0  0  0  0  0  0  0  0  0  0  0  # atno 10167 bound_to 10162
  157.6424  130.9501  150.0716 H   0  0  0  0  0  0  0  0  0  0  0  0  # atno 10718 bound_to 10713
  154.3359  135.6167  153.5573 H   0  0  0  0  0  0  0  0  0  0  0  0  # atno 10763 bound_to 10752
  152.9808  135.5758  154.4908 H   0  0  0  0  0  0  0  0  0  0  0  0  # atno 10764 bound_to 10752
  154.4603  135.2855  155.1694 H   0  0  0  0  0  0  0  0  0  0  0  0  # atno 10765 bound_to 10752
  140.1887  134.4013  155.8158 H   0  0  0  0  0  0  0  0  0  0  0  0  # atno 11005 bound_to 11000
  144.7265  140.4540  143.6969 LP  0  0  0  0  0  0  0  0  0  0  0  0  # atno 17320 bound_to 7965
  145.6297  139.1534  143.2976 LP  0  0  0  0  0  0  0  0  0  0  0  0  # atno 17321 bound_to 7965
  140.4560  143.2467  151.9283 LP  0  0  0  0  0  0  0  0  0  0  0  0  # atno 17342 bound_to 10162
  139.4782  144.5515  151.8379 LP  0  0  0  0  0  0  0  0  0  0  0  0  # atno 17343 bound_to 10162
  156.1718  130.3647  149.9154 LP  0  0  0  0  0  0  0  0  0  0  0  0  # atno 17370 bound_to 10713
  156.7128  130.8976  151.3611 LP  0  0  0  0  0  0  0  0  0  0  0  0  # atno 17371 bound_to 10713
  141.2225  133.7036  156.8057 LP  0  0  0  0  0  0  0  0  0  0  0  0  # atno 17394 bound_to 11000
  140.2184  134.8775  157.3351 LP  0  0  0  0  0  0  0  0  0  0  0  0  # atno 17395 bound_to 11000

$$$$
