AV-unprocessed.smi:2302|AV-procd|sdf|9239|dock1
  -GOLD-   2272012453D 1   1.00000     0.00000
 Structure written by MMmdl.
 40 41  0  0  0  0  0  0  0  0  2 V2000
  153.5505  140.3999  159.5929 C   0  0  0  0  0  0  0  0  0  0  0  0
  153.0284  141.7246  159.0778 C   0  0  0  0  0  0  0  0  0  0  0  0
  153.4739  142.9427  159.6273 C   0  0  0  0  0  0  0  0  0  0  0  0
  152.9526  144.1377  159.1000 C   0  0  0  0  0  0  0  0  0  0  0  0
  152.0138  144.0663  158.0528 C   0  0  0  0  0  0  0  0  0  0  0  0
  151.6179  142.8027  157.5597 C   0  0  0  0  0  0  0  0  0  0  0  0
  150.6702  142.8388  156.5027 N   0  0  0  0  0  0  0  0  0  0  0  0
  150.1481  141.8047  155.8205 C   0  0  0  0  0  0  0  0  0  0  0  0
  150.3869  140.6161  156.0343 O   0  0  0  0  0  0  0  0  0  0  0  0
  149.3165  142.2290  154.8581 N   0  0  0  0  0  0  0  0  0  0  0  0
  148.5905  141.3651  153.9308 C   0  0  0  0  0  0  0  0  0  0  0  0
  147.0583  141.5260  154.0194 C   0  0  1  0  0  0  0  0  0  0  0  0
  146.3618  140.4288  154.8543 C   0  0  0  0  0  0  0  0  0  0  0  0
  144.9019  140.6703  154.9061 N   0  3  1  0  0  0  0  0  0  0  0  0
  144.1758  139.6228  155.6554 C   0  0  0  0  0  0  0  0  0  0  0  0
  144.6115  142.0333  155.4057 C   0  0  0  0  0  0  0  0  0  0  0  0
  145.3544  143.0811  154.5607 C   0  0  0  0  0  0  0  0  0  0  0  0
  146.7490  142.8030  154.5693 O   0  0  0  0  0  0  0  0  0  0  0  0
  152.1282  141.6558  158.0735 N   0  0  0  0  0  0  0  0  0  0  0  0
  154.1775  140.5376  160.4742 H   0  0  0  0  0  0  0  0  0  0  0  0
  154.1452  139.9049  158.8247 H   0  0  0  0  0  0  0  0  0  0  0  0
  152.7231  139.7434  159.8642 H   0  0  0  0  0  0  0  0  0  0  0  0
  154.1958  142.9639  160.4305 H   0  0  0  0  0  0  0  0  0  0  0  0
  153.2672  145.0939  159.4914 H   0  0  0  0  0  0  0  0  0  0  0  0
  151.6037  144.9751  157.6371 H   0  0  0  0  0  0  0  0  0  0  0  0
  150.3600  143.7598  156.2309 H   0  0  0  0  0  0  0  0  0  0  0  0
  149.1726  143.2233  154.7601 H   0  0  0  0  0  0  0  0  0  0  0  0
  148.9318  141.5326  152.9080 H   0  0  0  0  0  0  0  0  0  0  0  0
  148.8573  140.3361  154.1731 H   0  0  0  0  0  0  0  0  0  0  0  0
  146.6694  141.4952  153.0000 H   0  0  0  0  0  0  0  0  0  0  0  0
  146.5556  139.4490  154.4163 H   0  0  0  0  0  0  0  0  0  0  0  0
  146.7538  140.4099  155.8725 H   0  0  0  0  0  0  0  0  0  0  0  0
  144.4798  139.6077  156.7028 H   0  0  0  0  0  0  0  0  0  0  0  0
  144.3705  138.6386  155.2282 H   0  0  0  0  0  0  0  0  0  0  0  0
  143.1002  139.7974  155.6134 H   0  0  0  0  0  0  0  0  0  0  0  0
  143.5375  142.2196  155.3676 H   0  0  0  0  0  0  0  0  0  0  0  0
  144.9154  142.1145  156.4506 H   0  0  0  0  0  0  0  0  0  0  0  0
  144.9802  143.0934  153.5360 H   0  0  0  0  0  0  0  0  0  0  0  0
  145.1913  144.0779  154.9708 H   0  0  0  0  0  0  0  0  0  0  0  0
  144.5670  140.6320  153.9539 H   0  0  0  0  0  0  0  0  0  0  0  0
  1  2  1  0  0  0  0
  1 20  1  0  0  0  0
  1 21  1  0  0  0  0
  1 22  1  0  0  0  0
  2 19  1  0  0  0  0
  2  3  2  0  0  0  0
  3  4  1  0  0  0  0
  3 23  1  0  0  0  0
  4  5  2  0  0  0  0
  4 24  1  0  0  0  0
  5  6  1  0  0  0  0
  5 25  1  0  0  0  0
  6  7  1  0  0  0  0
  6 19  2  0  0  0  0
  7  8  1  0  0  0  0
  7 26  1  0  0  0  0
  8  9  2  0  0  0  0
  8 10  1  0  0  0  0
 10 11  1  0  0  0  0
 10 27  1  0  0  0  0
 11 12  1  0  0  0  0
 11 28  1  0  0  0  0
 11 29  1  0  0  0  0
 12 18  1  0  0  0  0
 12 13  1  0  0  0  0
 12 30  1  0  0  0  0
 13 14  1  0  0  0  0
 13 31  1  0  0  0  0
 13 32  1  0  0  0  0
 14 15  1  0  0  0  0
 14 16  1  0  0  0  0
 14 40  1  0  0  0  0
 15 33  1  0  0  0  0
 15 34  1  0  0  0  0
 15 35  1  0  0  0  0
 16 17  1  0  0  0  0
 16 36  1  0  0  0  0
 16 37  1  0  0  0  0
 17 18  1  0  0  0  0
 17 38  1  0  0  0  0
 17 39  1  0  0  0  0
M  CHG  1  14   1
M  END
> <s_m_source_file>
AV-unprocessed.smi

> <i_m_source_file_index>
2302

> <i_lp_mmshare_version>
43012

> <i_f3d_flags>
0

> <s_epik_input>
W0NIM11jMVtjSF1bY0hdW2NIXWMobjEpW05IXUMoPU8pW05IXVtDSDJdW0NAQEhdMltDSDJdTihbQ0gzXSlbQ0gyXVtDSDJdTzI=

> <s_epik_cmdline>
J2VwaWtfcHl0aG9uJywgJy1waCcsICc3LjAnLCAnLXRuJywgJzgnLCAnLW1hJywgJzIwMCcsICctbWV0YWxfYmluZGluZycsICctaW1hZScsICc8aW5maWxlLm1hZT4nLCAnLW9tYWUnLCAnPG91dGZpbGUubWFlPic=

> <r_epik_Ionization_Penalty>
0.204647

> <r_epik_Ionization_Penalty_Charging>
0.204578

> <r_epik_Ionization_Penalty_Neutral>
6.91954e-05

> <r_epik_State_Penalty>
0.194513

> <r_epik_Charging_Adjusted_Penalty>
0.399091

> <i_epik_Tot_Q>
1

> <i_epik_Tot_abs_Q>
1

> <r_epik_Metal_State_Penalty>
0.194515

> <b_epik_Metal_Only>
0

> <s_lp_Force_Field>
OPLS_2005

> <r_lp_Energy>
15.833

> <b_lp_Chiralities_Consistent>
1

> <s_lp_Variant>
AV-unprocessed.smi:2302-4

> <Gold.Version>
5.8.1

> <Gold.Id.Protein>
6NUR|6NUR_protein|mol2

> <Gold.PLP.Fitness>
47.9321

> <Gold.PLP.PLP>
-37.1220

> <Gold.PLP.part.hbond>
-3.0000

> <Gold.PLP.part.metal>
0.0000

> <Gold.PLP.part.buried>
-6.1184

> <Gold.PLP.part.nonpolar>
-29.6524

> <Gold.PLP.part.repulsive>
0.4838

> <Gold.PLP.ligand.clash>
0.0000

> <Gold.PLP.ligand.torsion>
0.5361

> <Gold.PLP.Chemscore.Hbond>
3.9520

> <Gold.PLP.Chemscore.CHOScore>
0.0000

> <Gold.PLP.Chemscore.Metal>
0.0000

> <Gold.Chemscore.Hbonds>
donor molecule, donor type, donor heavy atom, donor atom, acceptor molecule, acceptor atom, score
      L1  H     7    26       P1  8028  0.90
      L1  H    10    27       P1  8028  0.91
      L1  H    14    40       P1 10175  2.00

> <Gold.PLP.Chemscore.Internal.Correction>
0.0263

> <Gold.Rescore>
     Score         DG    S(hbond)    S(metal)    S(lipo)     H(rot)  DE(clash)    DE(int)     intcor
     19.61     -21.57       2.95        0.00      81.00       1.27       0.02       1.94       ----

> <Gold.Chemscore.Fitness>
19.6093

> <Gold.Chemscore.DG>
-21.5658

> <Gold.Chemscore.ZeroCoef>
-5.4800

> <Gold.Chemscore.Hbond>
2.9547

> <Gold.Chemscore.Metal>
0.0000

> <Gold.Chemscore.Lipo>
81.0042

> <Gold.Chemscore.Internal_Hbond>
0.0000

> <Gold.Chemscore.DEClash>
0.0202

> <Gold.Chemscore.DEInternal>
1.9362

> <Gold.Chemscore.Rot>
1.2736

> <Gold.Chemscore.Internal.Correction>
   9.000000E+99

> <Gold.Chemscore.Hbonds>
donor molecule, donor type, donor heavy atom, donor atom, acceptor molecule, acceptor atom, score
      L1  H     7    26       P1  8028  0.88
      L1  H    10    27       P1  8028  0.88
      L1  H    14    40       P1 10175  1.00

> <Gold.Chemscore.Hbond.Weighted>
-9.8686

> <Gold.Chemscore.Metal.Weighted>
-0.0000

> <Gold.Chemscore.Lipo.Weighted>
-9.4775

> <Gold.Chemscore.Internal_Hbond.Weighted>
0.0000

> <Gold.Chemscore.DEClash.Weighted>
0.0202

> <Gold.Chemscore.DEInternal.Weighted>
1.9362

> <Gold.Chemscore.Rot.Weighted>
3.2603

> <Gold.Chemscore.Internal.Correction.Weighted>
   9.000000E+99

> <Gold.Protein.RotatedTorsions>
[ 6907 6896 6895 6894 ] final -170.84 input  -60.11 | X-H torsion
[ 7974 7965 7964 7962 ] final  176.59 input  175.53 | X-H torsion
[ 8008 7997 7996 7995 ] final  -75.45 input   59.86 | X-H torsion
[ 10167 10162 10161 10158 ] final  -87.23 input  -65.29 | X-H torsion
[ 10718 10713 10712 10709 ] final   55.56 input   66.30 | X-H torsion
[ 10763 10752 10751 10750 ] final  -88.52 input  -60.55 | X-H torsion
[ 11005 11000 10999 10996 ] final -160.73 input  -57.11 | X-H torsion

> <Gold.Protein.ActiveResidues>
 VAL166  LYS551  ARG553  GLY616  TRP617  ASP618  TYR619  PRO620  LYS621  CYS622 
 ASP623  PHE694  ASN695  SER759  ASP760  ASP761  ALA762  ILE779  LEU786  VAL792 
 PHE793  MET794  SER795  GLU796  ALA797  LYS798  CYS799  TRP800  GLU811  SER814 

> <Gold.Protein.RotatedAtoms>
  151.5142  133.3479  159.2889 H   0  0  0  0  0  0  0  0  0  0  0  0  # atno 6907 bound_to 6896
  150.8693  134.8066  159.7154 H   0  0  0  0  0  0  0  0  0  0  0  0  # atno 6908 bound_to 6896
  152.4687  134.5023  159.9780 H   0  0  0  0  0  0  0  0  0  0  0  0  # atno 6909 bound_to 6896
  144.7182  140.0119  143.6440 H   0  0  0  0  0  0  0  0  0  0  0  0  # atno 7974 bound_to 7965
  154.5418  140.0744  156.8522 H   0  0  0  0  0  0  0  0  0  0  0  0  # atno 8008 bound_to 7997
  155.3166  140.3393  155.4224 H   0  0  0  0  0  0  0  0  0  0  0  0  # atno 8009 bound_to 7997
  156.1881  140.1676  156.8132 H   0  0  0  0  0  0  0  0  0  0  0  0  # atno 8010 bound_to 7997
  140.3864  143.2724  151.9319 H   0  0  0  0  0  0  0  0  0  0  0  0  # atno 10167 bound_to 10162
  157.5356  130.8661  149.8748 H   0  0  0  0  0  0  0  0  0  0  0  0  # atno 10718 bound_to 10713
  154.6454  135.5374  153.7839 H   0  0  0  0  0  0  0  0  0  0  0  0  # atno 10763 bound_to 10752
  153.0356  135.6469  154.1097 H   0  0  0  0  0  0  0  0  0  0  0  0  # atno 10764 bound_to 10752
  154.1018  135.2932  155.3230 H   0  0  0  0  0  0  0  0  0  0  0  0  # atno 10765 bound_to 10752
  140.6283  134.4678  157.5228 H   0  0  0  0  0  0  0  0  0  0  0  0  # atno 11005 bound_to 11000
  146.0251  139.3285  143.0789 LP  0  0  0  0  0  0  0  0  0  0  0  0  # atno 17320 bound_to 7965
  145.8521  140.9523  143.0744 LP  0  0  0  0  0  0  0  0  0  0  0  0  # atno 17321 bound_to 7965
  139.4792  144.5769  151.7997 LP  0  0  0  0  0  0  0  0  0  0  0  0  # atno 17342 bound_to 10162
  140.4884  144.1346  150.5945 LP  0  0  0  0  0  0  0  0  0  0  0  0  # atno 17343 bound_to 10162
  156.0456  130.3729  150.1327 LP  0  0  0  0  0  0  0  0  0  0  0  0  # atno 17370 bound_to 10713
  156.9509  130.9774  151.3498 LP  0  0  0  0  0  0  0  0  0  0  0  0  # atno 17371 bound_to 10713
  139.9126  134.8313  156.1475 LP  0  0  0  0  0  0  0  0  0  0  0  0  # atno 17394 bound_to 11000
  141.0693  133.6804  156.2109 LP  0  0  0  0  0  0  0  0  0  0  0  0  # atno 17395 bound_to 11000

$$$$
