AV-unprocessed.smi:2434|AV-procd|sdf|9591|dock6
  -GOLD-   2272013223D 1   1.00000     0.00000
 Structure written by MMmdl.
 36 37  0  0  0  0  0  0  0  0  1 V2000
  153.4262  141.8409  160.5847 C   0  0  0  0  0  0  0  0  0  0  0  0
  153.3257  142.4805  159.1911 C   0  0  0  0  0  0  0  0  0  0  0  0
  152.1526  143.4665  159.0187 C   0  0  0  0  0  0  0  0  0  0  0  0
  150.8209  142.6893  158.9392 C   0  0  0  0  0  0  0  0  0  0  0  0
  150.4159  142.4167  157.5619 N   0  0  0  0  0  0  0  0  0  0  0  0
  150.0958  141.2128  157.0661 C   0  0  0  0  0  0  0  0  0  0  0  0
  150.1248  140.1700  157.7203 O   0  0  0  0  0  0  0  0  0  0  0  0
  149.7131  141.2991  155.7819 N   0  0  0  0  0  0  0  0  0  0  0  0
  149.2721  140.2326  154.9579 C   0  0  0  0  0  0  0  0  0  0  0  0
  149.9308  138.9900  155.0594 C   0  0  0  0  0  0  0  0  0  0  0  0
  149.4849  137.9211  154.2563 C   0  0  0  0  0  0  0  0  0  0  0  0
  148.4441  138.0181  153.4020 N   0  0  0  0  0  0  0  0  0  0  0  0
  147.7994  139.2022  153.3265 C   0  0  0  0  0  0  0  0  0  0  0  0
  148.1626  140.3345  154.0836 C   0  0  0  0  0  0  0  0  0  0  0  0
  147.4357  141.4734  153.9834 F   0  0  0  0  0  0  0  0  0  0  0  0
  152.1473  144.6607  160.0003 C   0  0  0  0  0  0  0  0  0  0  0  0
  151.7607  145.5861  158.8481 C   0  0  0  0  0  0  0  0  0  0  0  0
  152.3419  144.5281  157.9124 C   0  0  0  0  0  0  0  0  0  0  0  0
  154.2187  141.0926  160.6051 H   0  0  0  0  0  0  0  0  0  0  0  0
  152.4969  141.3439  160.8629 H   0  0  0  0  0  0  0  0  0  0  0  0
  153.6588  142.5765  161.3541 H   0  0  0  0  0  0  0  0  0  0  0  0
  154.2758  142.9540  158.9432 H   0  0  0  0  0  0  0  0  0  0  0  0
  153.2247  141.6709  158.4673 H   0  0  0  0  0  0  0  0  0  0  0  0
  150.9155  141.7221  159.4332 H   0  0  0  0  0  0  0  0  0  0  0  0
  150.0378  143.2078  159.4932 H   0  0  0  0  0  0  0  0  0  0  0  0
  150.3571  143.2135  156.9448 H   0  0  0  0  0  0  0  0  0  0  0  0
  149.6087  142.2278  155.4010 H   0  0  0  0  0  0  0  0  0  0  0  0
  150.7685  138.8576  155.7285 H   0  0  0  0  0  0  0  0  0  0  0  0
  149.9771  136.9611  154.3035 H   0  0  0  0  0  0  0  0  0  0  0  0
  146.9581  139.2454  152.6507 H   0  0  0  0  0  0  0  0  0  0  0  0
  151.4054  144.6006  160.7972 H   0  0  0  0  0  0  0  0  0  0  0  0
  153.1351  144.8932  160.4018 H   0  0  0  0  0  0  0  0  0  0  0  0
  150.6821  145.7078  158.7389 H   0  0  0  0  0  0  0  0  0  0  0  0
  152.2823  146.5435  158.8350 H   0  0  0  0  0  0  0  0  0  0  0  0
  153.3902  144.7180  157.6742 H   0  0  0  0  0  0  0  0  0  0  0  0
  151.7583  144.3558  157.0072 H   0  0  0  0  0  0  0  0  0  0  0  0
  1  2  1  0  0  0  0
  1 19  1  0  0  0  0
  1 20  1  0  0  0  0
  1 21  1  0  0  0  0
  2  3  1  0  0  0  0
  2 22  1  0  0  0  0
  2 23  1  0  0  0  0
  3 18  1  0  0  0  0
  3  4  1  0  0  0  0
  3 16  1  0  0  0  0
  4  5  1  0  0  0  0
  4 24  1  0  0  0  0
  4 25  1  0  0  0  0
  5  6  1  0  0  0  0
  5 26  1  0  0  0  0
  6  7  2  0  0  0  0
  6  8  1  0  0  0  0
  8  9  1  0  0  0  0
  8 27  1  0  0  0  0
  9 14  1  0  0  0  0
  9 10  2  0  0  0  0
 10 11  1  0  0  0  0
 10 28  1  0  0  0  0
 11 12  2  0  0  0  0
 11 29  1  0  0  0  0
 12 13  1  0  0  0  0
 13 14  2  0  0  0  0
 13 30  1  0  0  0  0
 14 15  1  0  0  0  0
 16 17  1  0  0  0  0
 16 31  1  0  0  0  0
 16 32  1  0  0  0  0
 17 18  1  0  0  0  0
 17 33  1  0  0  0  0
 17 34  1  0  0  0  0
 18 35  1  0  0  0  0
 18 36  1  0  0  0  0
M  END
> <s_m_source_file>
AV-unprocessed.smi

> <i_m_source_file_index>
2434

> <i_lp_mmshare_version>
43012

> <i_f3d_flags>
0

> <s_epik_input>
W0NIMl0xW0NIMl1bQ0gyXUMxKFtDSDJdW0NIM10pW0NIMl1bTkhdQyg9TylbTkhdYzJbY0hdW2NIXW5bY0hdYzJG

> <s_epik_cmdline>
J2VwaWtfcHl0aG9uJywgJy1waCcsICc3LjAnLCAnLXRuJywgJzgnLCAnLW1hJywgJzIwMCcsICctbWV0YWxfYmluZGluZycsICctaW1hZScsICc8aW5maWxlLm1hZT4nLCAnLW9tYWUnLCAnPG91dGZpbGUubWFlPic=

> <r_epik_Ionization_Penalty>
0.00332283

> <r_epik_Ionization_Penalty_Charging>
0

> <r_epik_Ionization_Penalty_Neutral>
0.00332283

> <r_epik_State_Penalty>
0.00231995

> <r_epik_Charging_Adjusted_Penalty>
0.00231995

> <i_epik_Tot_Q>
0

> <i_epik_Tot_abs_Q>
0

> <r_epik_Metal_State_Penalty>
-0

> <b_epik_Metal_Only>
0

> <s_lp_Force_Field>
OPLS_2005

> <r_lp_Energy>
27.2745

> <b_lp_Chiralities_Consistent>
1

> <s_lp_Variant>
AV-unprocessed.smi:2434-1

> <Gold.Version>
5.8.1

> <Gold.Id.Protein>
6NUR|6NUR_protein|mol2

> <Gold.PLP.Fitness>
50.4461

> <Gold.PLP.PLP>
-41.7458

> <Gold.PLP.part.hbond>
-2.0000

> <Gold.PLP.part.metal>
0.0000

> <Gold.PLP.part.buried>
-2.5339

> <Gold.PLP.part.nonpolar>
-38.1420

> <Gold.PLP.part.repulsive>
2.0806

> <Gold.PLP.ligand.clash>
0.0000

> <Gold.PLP.ligand.torsion>
1.2047

> <Gold.PLP.Chemscore.Hbond>
1.5590

> <Gold.PLP.Chemscore.CHOScore>
2.0000

> <Gold.PLP.Chemscore.Metal>
0.0000

> <Gold.Chemscore.Hbonds>
donor molecule, donor type, donor heavy atom, donor atom, acceptor molecule, acceptor atom, score
      L1  C    11    29       P1  7948  0.13

> <Gold.PLP.Chemscore.Internal.Correction>
0.4326

> <Gold.Rescore>
     Score         DG    S(hbond)    S(metal)    S(lipo)     H(rot)  DE(clash)    DE(int)     intcor
     17.38     -20.73       1.66        0.00     113.45       1.40       0.64       2.70       ----

> <Gold.Chemscore.Fitness>
17.3805

> <Gold.Chemscore.DG>
-20.7279

> <Gold.Chemscore.ZeroCoef>
-5.4800

> <Gold.Chemscore.Hbond>
1.6634

> <Gold.Chemscore.Metal>
0.0000

> <Gold.Chemscore.Lipo>
113.4502

> <Gold.Chemscore.Internal_Hbond>
0.0000

> <Gold.Chemscore.DEClash>
0.6444

> <Gold.Chemscore.DEInternal>
2.7031

> <Gold.Chemscore.Rot>
1.3990

> <Gold.Chemscore.Internal.Correction>
   9.000000E+99

> <Gold.Chemscore.Hbonds>
donor molecule, donor type, donor heavy atom, donor atom, acceptor molecule, acceptor atom, score
      L1  H     5    26       P1  8028  0.03

> <Gold.Chemscore.Hbond.Weighted>
-5.5556

> <Gold.Chemscore.Metal.Weighted>
-0.0000

> <Gold.Chemscore.Lipo.Weighted>
-13.2737

> <Gold.Chemscore.Internal_Hbond.Weighted>
0.0000

> <Gold.Chemscore.DEClash.Weighted>
0.6444

> <Gold.Chemscore.DEInternal.Weighted>
2.7031

> <Gold.Chemscore.Rot.Weighted>
3.5814

> <Gold.Chemscore.Internal.Correction.Weighted>
   9.000000E+99

> <Gold.Protein.RotatedTorsions>
[ 6907 6896 6895 6894 ] final  162.81 input  -60.11 | X-H torsion
[ 7974 7965 7964 7962 ] final  -62.70 input  175.53 | X-H torsion
[ 8008 7997 7996 7995 ] final   -3.20 input   59.86 | X-H torsion
[ 10167 10162 10161 10158 ] final  -88.35 input  -65.29 | X-H torsion
[ 10718 10713 10712 10709 ] final -119.20 input   66.30 | X-H torsion
[ 10763 10752 10751 10750 ] final  -34.12 input  -60.55 | X-H torsion
[ 11005 11000 10999 10996 ] final   65.78 input  -57.11 | X-H torsion

> <Gold.Protein.ActiveResidues>
 VAL166  LYS551  ARG553  GLY616  TRP617  ASP618  TYR619  PRO620  LYS621  CYS622 
 ASP623  PHE694  ASN695  SER759  ASP760  ASP761  ALA762  ILE779  LEU786  VAL792 
 PHE793  MET794  SER795  GLU796  ALA797  LYS798  CYS799  TRP800  GLU811  SER814 

> <Gold.Protein.RotatedAtoms>
  151.9348  133.3621  159.3943 H   0  0  0  0  0  0  0  0  0  0  0  0  # atno 6907 bound_to 6896
  150.7010  134.4500  159.5341 H   0  0  0  0  0  0  0  0  0  0  0  0  # atno 6908 bound_to 6896
  152.2147  134.8469  160.0544 H   0  0  0  0  0  0  0  0  0  0  0  0  # atno 6909 bound_to 6896
  145.7881  140.8725  143.0295 H   0  0  0  0  0  0  0  0  0  0  0  0  # atno 7974 bound_to 7965
  154.6275  140.2515  155.7474 H   0  0  0  0  0  0  0  0  0  0  0  0  # atno 8008 bound_to 7997
  156.2461  140.2914  156.0531 H   0  0  0  0  0  0  0  0  0  0  0  0  # atno 8009 bound_to 7997
  155.1798  140.0388  157.2870 H   0  0  0  0  0  0  0  0  0  0  0  0  # atno 8010 bound_to 7997
  140.3755  143.2773  151.9448 H   0  0  0  0  0  0  0  0  0  0  0  0  # atno 10167 bound_to 10162
  156.1163  130.6288  150.9387 H   0  0  0  0  0  0  0  0  0  0  0  0  # atno 10718 bound_to 10713
  153.8414  135.6857  153.4802 H   0  0  0  0  0  0  0  0  0  0  0  0  # atno 10763 bound_to 10752
  153.1451  135.4641  154.9552 H   0  0  0  0  0  0  0  0  0  0  0  0  # atno 10764 bound_to 10752
  154.7843  135.3279  154.7867 H   0  0  0  0  0  0  0  0  0  0  0  0  # atno 10765 bound_to 10752
  139.9873  134.6648  156.0154 H   0  0  0  0  0  0  0  0  0  0  0  0  # atno 11005 bound_to 11000
  144.6786  140.0085  143.7484 LP  0  0  0  0  0  0  0  0  0  0  0  0  # atno 17320 bound_to 7965
  146.0005  139.3087  143.0931 LP  0  0  0  0  0  0  0  0  0  0  0  0  # atno 17321 bound_to 7965
  139.4800  144.5867  151.7841 LP  0  0  0  0  0  0  0  0  0  0  0  0  # atno 17342 bound_to 10162
  140.4990  144.1197  150.5967 LP  0  0  0  0  0  0  0  0  0  0  0  0  # atno 17343 bound_to 10162
  157.6346  131.0917  150.8373 LP  0  0  0  0  0  0  0  0  0  0  0  0  # atno 17370 bound_to 10713
  156.8476  130.5069  149.5315 LP  0  0  0  0  0  0  0  0  0  0  0  0  # atno 17371 bound_to 10713
  141.1535  133.6545  156.4088 LP  0  0  0  0  0  0  0  0  0  0  0  0  # atno 17394 bound_to 11000
  140.4978  134.6514  157.5236 LP  0  0  0  0  0  0  0  0  0  0  0  0  # atno 17395 bound_to 11000

$$$$
