AV-unprocessed.smi:43|AV-procd|sdf|391|dock1
  -GOLD-   2262016243D 1   1.00000     0.00000
 Structure written by MMmdl.
 25 26  0  0  0  0  0  0  0  0  2 V2000
  149.9302  137.6127  158.2902 C   0  0  0  0  0  0  0  0  0  0  0  0
  151.1773  138.0332  158.9032 N   0  0  0  0  0  0  0  0  0  0  0  0
  151.8559  137.1613  159.6909 N   0  0  0  0  0  0  0  0  0  0  0  0
  152.9223  137.7765  160.1095 N   0  0  0  0  0  0  0  0  0  0  0  0
  152.9833  139.0630  159.6157 N   0  0  0  0  0  0  0  0  0  0  0  0
  151.8842  139.1794  158.8787 C   0  0  0  0  0  0  0  0  0  0  0  0
  151.5116  140.3268  158.1631 N   0  0  0  0  0  0  0  0  0  0  0  0
  151.7197  141.7365  158.5046 C   0  0  0  0  0  0  0  0  0  0  0  0
  151.2670  142.5929  157.3217 C   0  0  2  0  0  0  0  0  0  0  0  0
  150.7832  143.8577  157.7226 O   0  0  0  0  0  0  0  0  0  0  0  0
  150.1943  141.7276  156.6910 C   0  0  0  0  0  0  0  0  0  0  0  0
  150.7496  140.3157  156.9079 C   0  0  1  0  0  0  0  0  0  0  0  0
  151.6060  139.8367  155.7215 C   0  0  0  0  0  0  0  0  0  0  0  0
  151.0564  139.8304  154.5988 O   0  0  0  0  0  0  0  0  0  0  0  0
  152.7874  139.4910  155.9491 O   0  5  0  0  0  0  0  0  0  0  0  0
  152.0919  142.7300  156.6214 H   0  0  0  0  0  0  0  0  0  0  0  0
  149.9129  139.6236  157.0136 H   0  0  0  0  0  0  0  0  0  0  0  0
  149.9803  137.7472  157.2103 H   0  0  0  0  0  0  0  0  0  0  0  0
  149.1037  138.1939  158.6984 H   0  0  0  0  0  0  0  0  0  0  0  0
  149.7419  136.5581  158.4949 H   0  0  0  0  0  0  0  0  0  0  0  0
  151.1240  141.9607  159.3905 H   0  0  0  0  0  0  0  0  0  0  0  0
  152.7638  141.9449  158.7339 H   0  0  0  0  0  0  0  0  0  0  0  0
  150.1076  144.1239  157.1181 H   0  0  0  0  0  0  0  0  0  0  0  0
  149.2511  141.8340  157.2292 H   0  0  0  0  0  0  0  0  0  0  0  0
  150.0112  141.9750  155.6443 H   0  0  0  0  0  0  0  0  0  0  0  0
  1  2  1  0  0  0  0
  1 18  1  0  0  0  0
  1 19  1  0  0  0  0
  1 20  1  0  0  0  0
  2  6  1  0  0  0  0
  2  3  1  0  0  0  0
  3  4  2  0  0  0  0
  4  5  1  0  0  0  0
  5  6  2  0  0  0  0
  6  7  1  0  0  0  0
  7 12  1  0  0  0  0
  7  8  1  0  0  0  0
  8  9  1  0  0  0  0
  8 21  1  0  0  0  0
  8 22  1  0  0  0  0
  9 16  1  0  0  0  0
  9 10  1  0  0  0  0
  9 11  1  0  0  0  0
 10 23  1  0  0  0  0
 11 12  1  0  0  0  0
 11 24  1  0  0  0  0
 11 25  1  0  0  0  0
 12 17  1  0  0  0  0
 12 13  1  0  0  0  0
 13 14  2  0  0  0  0
 13 15  1  0  0  0  0
M  CHG  1  15  -1
M  END
> <s_m_source_file>
AV-unprocessed.smi

> <i_m_source_file_index>
43

> <i_lp_mmshare_version>
43012

> <i_f3d_flags>
0

> <s_epik_input>
W0NIM11uMW5ubmMxTjJbQ0gyXVtDQEhdKFtPSF0pW0NIMl1bQ0BIXTJDKD1PKVtPSF0=

> <s_epik_cmdline>
J2VwaWtfcHl0aG9uJywgJy1waCcsICc3LjAnLCAnLXRuJywgJzgnLCAnLW1hJywgJzIwMCcsICctbWV0YWxfYmluZGluZycsICctaW1hZScsICc8aW5maWxlLm1hZT4nLCAnLW9tYWUnLCAnPG91dGZpbGUubWFlPic=

> <r_lp_tautomer_probability>
1

> <r_epik_Ionization_Penalty>
0.000193127

> <r_epik_Ionization_Penalty_Charging>
0.000192933

> <r_epik_Ionization_Penalty_Neutral>
1.93728e-07

> <r_epik_State_Penalty>
-0

> <r_epik_Charging_Adjusted_Penalty>
0.000192933

> <i_epik_Tot_Q>
-1

> <i_epik_Tot_abs_Q>
1

> <r_epik_Metal_State_Penalty>
-0

> <b_epik_Metal_Only>
0

> <s_lp_Force_Field>
OPLS_2005

> <r_lp_Energy>
20.0938

> <b_lp_Chiralities_Consistent>
1

> <s_lp_Variant>
AV-unprocessed.smi:43-1

> <Gold.Version>
5.8.1

> <Gold.Id.Protein>
6NUR|6NUR_protein|mol2

> <Gold.PLP.Fitness>
38.6261

> <Gold.PLP.PLP>
-24.5087

> <Gold.PLP.part.hbond>
-4.0000

> <Gold.PLP.part.metal>
0.0000

> <Gold.PLP.part.buried>
-6.1967

> <Gold.PLP.part.nonpolar>
-14.8823

> <Gold.PLP.part.repulsive>
0.0814

> <Gold.PLP.ligand.clash>
0.0000

> <Gold.PLP.ligand.torsion>
0.4433

> <Gold.PLP.Chemscore.Hbond>
5.0000

> <Gold.PLP.Chemscore.CHOScore>
0.0000

> <Gold.PLP.Chemscore.Metal>
0.0000

> <Gold.Chemscore.Hbonds>
donor molecule, donor type, donor heavy atom, donor atom, acceptor molecule, acceptor atom, score
      L1  H    10    23       P1  8028  1.00
      P1  H  6896  6909       L1     3  1.00
      P1  H  7989  7998       L1    14  1.00
      P1  H  7997  8008       L1    15  2.00

> <Gold.PLP.Chemscore.Internal.Correction>
0.0041

> <Gold.Rescore>
     Score         DG    S(hbond)    S(metal)    S(lipo)     H(rot)  DE(clash)    DE(int)     intcor
     16.67     -17.84       3.92        0.00      30.67       1.69       0.00       1.17       ----

> <Gold.Chemscore.Fitness>
16.6663

> <Gold.Chemscore.DG>
-17.8366

> <Gold.Chemscore.ZeroCoef>
-5.4800

> <Gold.Chemscore.Hbond>
3.9196

> <Gold.Chemscore.Metal>
0.0000

> <Gold.Chemscore.Lipo>
30.6676

> <Gold.Chemscore.Internal_Hbond>
0.0000

> <Gold.Chemscore.DEClash>
0.0000

> <Gold.Chemscore.DEInternal>
1.1702

> <Gold.Chemscore.Rot>
1.6887

> <Gold.Chemscore.Internal.Correction>
   9.000000E+99

> <Gold.Chemscore.Hbonds>
donor molecule, donor type, donor heavy atom, donor atom, acceptor molecule, acceptor atom, score
      L1  H    10    23       P1  8028  0.84
      P1  H  6896  6909       L1     3  0.92
      P1  H  7989  7998       L1    14  0.94
      P1  H  7997  8008       L1    15  1.00

> <Gold.Chemscore.Hbond.Weighted>
-13.0916

> <Gold.Chemscore.Metal.Weighted>
-0.0000

> <Gold.Chemscore.Lipo.Weighted>
-3.5881

> <Gold.Chemscore.Internal_Hbond.Weighted>
0.0000

> <Gold.Chemscore.DEClash.Weighted>
0.0000

> <Gold.Chemscore.DEInternal.Weighted>
1.1702

> <Gold.Chemscore.Rot.Weighted>
4.3232

> <Gold.Chemscore.Internal.Correction.Weighted>
   9.000000E+99

> <Gold.Protein.RotatedTorsions>
[ 6907 6896 6895 6894 ] final  118.85 input  -60.11 | X-H torsion
[ 7974 7965 7964 7962 ] final  109.40 input  175.53 | X-H torsion
[ 8008 7997 7996 7995 ] final  -34.07 input   59.86 | X-H torsion
[ 10167 10162 10161 10158 ] final  -74.67 input  -65.29 | X-H torsion
[ 10718 10713 10712 10709 ] final  100.57 input   66.30 | X-H torsion
[ 10763 10752 10751 10750 ] final  -76.06 input  -60.55 | X-H torsion
[ 11005 11000 10999 10996 ] final   -1.61 input  -57.11 | X-H torsion

> <Gold.Protein.ActiveResidues>
 VAL166  LYS551  ARG553  GLY616  TRP617  ASP618  TYR619  PRO620  LYS621  CYS622 
 ASP623  PHE694  ASN695  SER759  ASP760  ASP761  ALA762  ILE779  LEU786  VAL792 
 PHE793  MET794  SER795  GLU796  ALA797  LYS798  CYS799  TRP800  GLU811  SER814 

> <Gold.Protein.RotatedAtoms>
  152.4514  133.7637  159.6760 H   0  0  0  0  0  0  0  0  0  0  0  0  # atno 6907 bound_to 6896
  150.8427  133.7900  159.3061 H   0  0  0  0  0  0  0  0  0  0  0  0  # atno 6908 bound_to 6896
  151.5520  135.1070  160.0004 H   0  0  0  0  0  0  0  0  0  0  0  0  # atno 6909 bound_to 6896
  145.2683  139.2676  143.3980 H   0  0  0  0  0  0  0  0  0  0  0  0  # atno 7974 bound_to 7965
  154.4131  140.1694  156.1990 H   0  0  0  0  0  0  0  0  0  0  0  0  # atno 8008 bound_to 7997
  155.9540  140.3399  155.6408 H   0  0  0  0  0  0  0  0  0  0  0  0  # atno 8009 bound_to 7997
  155.6834  140.0725  157.2467 H   0  0  0  0  0  0  0  0  0  0  0  0  # atno 8010 bound_to 7997
  140.5007  143.2362  151.7756 H   0  0  0  0  0  0  0  0  0  0  0  0  # atno 10167 bound_to 10162
  157.6851  131.0702  150.5121 H   0  0  0  0  0  0  0  0  0  0  0  0  # atno 10718 bound_to 10713
  154.4948  135.5810  153.6486 H   0  0  0  0  0  0  0  0  0  0  0  0  # atno 10763 bound_to 10752
  152.9868  135.6121  154.3078 H   0  0  0  0  0  0  0  0  0  0  0  0  # atno 10764 bound_to 10752
  154.2981  135.2847  155.2603 H   0  0  0  0  0  0  0  0  0  0  0  0  # atno 10765 bound_to 10752
  140.6492  133.9419  155.8370 H   0  0  0  0  0  0  0  0  0  0  0  0  # atno 11005 bound_to 11000
  146.3254  140.3119  142.8627 LP  0  0  0  0  0  0  0  0  0  0  0  0  # atno 17320 bound_to 7965
  144.9357  140.8024  143.5661 LP  0  0  0  0  0  0  0  0  0  0  0  0  # atno 17321 bound_to 7965
  139.4871  144.4525  151.9637 LP  0  0  0  0  0  0  0  0  0  0  0  0  # atno 17342 bound_to 10162
  140.3614  144.2968  150.5933 LP  0  0  0  0  0  0  0  0  0  0  0  0  # atno 17343 bound_to 10162
  156.5437  130.4214  149.6141 LP  0  0  0  0  0  0  0  0  0  0  0  0  # atno 17370 bound_to 10713
  156.2963  130.7152  151.2013 LP  0  0  0  0  0  0  0  0  0  0  0  0  # atno 17371 bound_to 10713
  141.0549  134.0431  157.3735 LP  0  0  0  0  0  0  0  0  0  0  0  0  # atno 17394 bound_to 11000
  139.9052  135.0177  156.7452 LP  0  0  0  0  0  0  0  0  0  0  0  0  # atno 17395 bound_to 11000

$$$$
