AV-unprocessed.smi:3333|AV-procd|sdf|12833|dock1
  -GOLD-   2272019213D 1   1.00000     0.00000
 Structure written by MMmdl.
 41 43  0  0  0  0  0  0  0  0  1 V2000
  154.4935  140.5434  160.4157 C   0  0  0  0  0  0  0  0  0  0  0  0
  153.9732  141.6409  161.3498 C   0  0  0  0  0  0  0  0  0  0  0  0
  153.0297  142.5740  160.6676 C   0  0  0  0  0  0  0  0  0  0  0  0
  152.6743  142.4565  159.3856 N   0  0  0  0  0  0  0  0  0  0  0  0
  151.8122  143.4772  158.9683 C   0  0  0  0  0  0  0  0  0  0  0  0
  151.3142  143.5106  157.5524 C   0  0  0  0  0  0  0  0  0  0  0  0
  150.5184  142.2398  157.2542 C   0  0  0  0  0  0  0  0  0  0  0  0
  149.7335  141.7919  158.0900 O   0  0  0  0  0  0  0  0  0  0  0  0
  150.7177  141.6821  156.0501 N   0  0  0  0  0  0  0  0  0  0  0  0
  149.9890  140.5352  155.5225 C   0  0  0  0  0  0  0  0  0  0  0  0
  149.0410  140.9426  154.3745 C   0  0  2  0  0  0  0  0  0  0  0  0
  148.1021  142.1208  154.7083 C   0  0  0  0  0  0  0  0  0  0  0  0
  146.7200  141.5863  154.2855 C   0  0  2  0  0  0  0  0  0  0  0  0
  146.2483  140.5419  155.3138 C   0  0  0  0  0  0  0  0  0  0  0  0
  147.1556  139.3356  155.0107 C   0  0  0  0  0  0  0  0  0  0  0  0
  148.0541  139.8605  153.8716 C   0  0  1  0  0  0  0  0  0  0  0  0
  147.0636  140.7118  153.0839 C   0  0  0  0  0  0  0  0  0  0  0  0
  151.5190  144.3760  159.9641 C   0  0  0  0  0  0  0  0  0  0  0  0
  152.3277  143.9820  161.4555 S   0  0  0  0  0  0  0  0  0  0  0  0
  155.1842  139.8824  160.9394 H   0  0  0  0  0  0  0  0  0  0  0  0
  155.0213  140.9697  159.5619 H   0  0  0  0  0  0  0  0  0  0  0  0
  153.6755  139.9337  160.0338 H   0  0  0  0  0  0  0  0  0  0  0  0
  153.4691  141.1918  162.2066 H   0  0  0  0  0  0  0  0  0  0  0  0
  154.8085  142.2186  161.7464 H   0  0  0  0  0  0  0  0  0  0  0  0
  150.6864  144.3857  157.3790 H   0  0  0  0  0  0  0  0  0  0  0  0
  152.1475  143.5852  156.8526 H   0  0  0  0  0  0  0  0  0  0  0  0
  151.3824  142.1229  155.4305 H   0  0  0  0  0  0  0  0  0  0  0  0
  150.7153  139.7977  155.1823 H   0  0  0  0  0  0  0  0  0  0  0  0
  149.4246  140.0513  156.3211 H   0  0  0  0  0  0  0  0  0  0  0  0
  149.6605  141.2401  153.5265 H   0  0  0  0  0  0  0  0  0  0  0  0
  148.1253  142.3993  155.7629 H   0  0  0  0  0  0  0  0  0  0  0  0
  148.3746  143.0031  154.1278 H   0  0  0  0  0  0  0  0  0  0  0  0
  145.9878  142.3708  154.0923 H   0  0  0  0  0  0  0  0  0  0  0  0
  146.3538  140.8946  156.3405 H   0  0  0  0  0  0  0  0  0  0  0  0
  145.2006  140.2829  155.1545 H   0  0  0  0  0  0  0  0  0  0  0  0
  147.7146  138.9961  155.8817 H   0  0  0  0  0  0  0  0  0  0  0  0
  146.5549  138.4934  154.6657 H   0  0  0  0  0  0  0  0  0  0  0  0
  148.5330  139.0708  153.2916 H   0  0  0  0  0  0  0  0  0  0  0  0
  146.2121  140.1458  152.7018 H   0  0  0  0  0  0  0  0  0  0  0  0
  147.5220  141.2656  152.2627 H   0  0  0  0  0  0  0  0  0  0  0  0
  150.8861  145.2492  159.9066 H   0  0  0  0  0  0  0  0  0  0  0  0
  1  2  1  0  0  0  0
  1 20  1  0  0  0  0
  1 21  1  0  0  0  0
  1 22  1  0  0  0  0
  2  3  1  0  0  0  0
  2 23  1  0  0  0  0
  2 24  1  0  0  0  0
  3 19  1  0  0  0  0
  3  4  2  0  0  0  0
  4  5  1  0  0  0  0
  5  6  1  0  0  0  0
  5 18  2  0  0  0  0
  6  7  1  0  0  0  0
  6 25  1  0  0  0  0
  6 26  1  0  0  0  0
  7  8  2  0  0  0  0
  7  9  1  0  0  0  0
  9 10  1  0  0  0  0
  9 27  1  0  0  0  0
 10 11  1  0  0  0  0
 10 28  1  0  0  0  0
 10 29  1  0  0  0  0
 11 16  1  0  0  0  0
 11 12  1  0  0  0  0
 11 30  1  0  0  0  0
 12 13  1  0  0  0  0
 12 31  1  0  0  0  0
 12 32  1  0  0  0  0
 13 17  1  0  0  0  0
 13 14  1  0  0  0  0
 13 33  1  0  0  0  0
 14 15  1  0  0  0  0
 14 34  1  0  0  0  0
 14 35  1  0  0  0  0
 15 16  1  0  0  0  0
 15 36  1  0  0  0  0
 15 37  1  0  0  0  0
 16 17  1  0  0  0  0
 16 38  1  0  0  0  0
 17 39  1  0  0  0  0
 17 40  1  0  0  0  0
 18 19  1  0  0  0  0
 18 41  1  0  0  0  0
M  END
> <s_m_source_file>
AV-unprocessed.smi

> <i_m_source_file_index>
3333

> <i_lp_mmshare_version>
43012

> <i_f3d_flags>
0

> <s_epik_input>
W0NIM11bQ0gyXWMxbmMoW2NIXXMxKVtDSDJdQyg9TylbTkhdW0NIMl1bQ0BIXShbQ0gyXVtDQEBIXTIzKVtDQEBIXShbQ0gyXTMpW0NIMl1bQ0gyXTI=

> <s_epik_cmdline>
J2VwaWtfcHl0aG9uJywgJy1waCcsICc3LjAnLCAnLXRuJywgJzgnLCAnLW1hJywgJzIwMCcsICctbWV0YWxfYmluZGluZycsICctaW1hZScsICc8aW5maWxlLm1hZT4nLCAnLW9tYWUnLCAnPG91dGZpbGUubWFlPic=

> <r_lp_tautomer_probability>
1

> <r_epik_Ionization_Penalty>
6.68371e-05

> <r_epik_Ionization_Penalty_Charging>
0

> <r_epik_Ionization_Penalty_Neutral>
6.68371e-05

> <r_epik_State_Penalty>
-0

> <r_epik_Charging_Adjusted_Penalty>
0

> <i_epik_Tot_Q>
0

> <i_epik_Tot_abs_Q>
0

> <r_epik_Metal_State_Penalty>
-0

> <b_epik_Metal_Only>
0

> <s_lp_Force_Field>
OPLS_2005

> <r_lp_Energy>
42.1731

> <b_lp_Chiralities_Consistent>
1

> <s_lp_Variant>
AV-unprocessed.smi:3333-3

> <Gold.Version>
5.8.1

> <Gold.Id.Protein>
6NUR|6NUR_protein|mol2

> <Gold.PLP.Fitness>
40.4904

> <Gold.PLP.PLP>
-41.1155

> <Gold.PLP.part.hbond>
0.0000

> <Gold.PLP.part.metal>
0.0000

> <Gold.PLP.part.buried>
-2.3827

> <Gold.PLP.part.nonpolar>
-39.9951

> <Gold.PLP.part.repulsive>
0.2104

> <Gold.PLP.ligand.clash>
0.0000

> <Gold.PLP.ligand.torsion>
0.3518

> <Gold.PLP.Chemscore.Hbond>
0.0000

> <Gold.PLP.Chemscore.CHOScore>
0.0000

> <Gold.PLP.Chemscore.Metal>
0.0000

> <Gold.PLP.Chemscore.Internal.Correction>
0.0785

> <Gold.Rescore>
     Score         DG    S(hbond)    S(metal)    S(lipo)     H(rot)  DE(clash)    DE(int)     intcor
     15.77     -16.26       0.00        0.00     123.28       1.42       0.14       0.36       ----

> <Gold.Chemscore.Fitness>
15.7665

> <Gold.Chemscore.DG>
-16.2622

> <Gold.Chemscore.ZeroCoef>
-5.4800

> <Gold.Chemscore.Hbond>
0.0000

> <Gold.Chemscore.Metal>
0.0000

> <Gold.Chemscore.Lipo>
123.2845

> <Gold.Chemscore.Internal_Hbond>
0.0000

> <Gold.Chemscore.DEClash>
0.1363

> <Gold.Chemscore.DEInternal>
0.3594

> <Gold.Chemscore.Rot>
1.4227

> <Gold.Chemscore.Internal.Correction>
   9.000000E+99

> <Gold.Chemscore.Hbond.Weighted>
-0.0000

> <Gold.Chemscore.Metal.Weighted>
-0.0000

> <Gold.Chemscore.Lipo.Weighted>
-14.4243

> <Gold.Chemscore.Internal_Hbond.Weighted>
0.0000

> <Gold.Chemscore.DEClash.Weighted>
0.1363

> <Gold.Chemscore.DEInternal.Weighted>
0.3594

> <Gold.Chemscore.Rot.Weighted>
3.6421

> <Gold.Chemscore.Internal.Correction.Weighted>
   9.000000E+99

> <Gold.Protein.RotatedTorsions>
[ 6907 6896 6895 6894 ] final -109.52 input  -60.11 | X-H torsion
[ 7974 7965 7964 7962 ] final -159.79 input  175.53 | X-H torsion
[ 8008 7997 7996 7995 ] final -166.47 input   59.86 | X-H torsion
[ 10167 10162 10161 10158 ] final  139.76 input  -65.29 | X-H torsion
[ 10718 10713 10712 10709 ] final  -31.65 input   66.30 | X-H torsion
[ 10763 10752 10751 10750 ] final   27.56 input  -60.55 | X-H torsion
[ 11005 11000 10999 10996 ] final -124.89 input  -57.11 | X-H torsion

> <Gold.Protein.ActiveResidues>
 VAL166  LYS551  ARG553  GLY616  TRP617  ASP618  TYR619  PRO620  LYS621  CYS622 
 ASP623  PHE694  ASN695  SER759  ASP760  ASP761  ALA762  ILE779  LEU786  VAL792 
 PHE793  MET794  SER795  GLU796  ALA797  LYS798  CYS799  TRP800  GLU811  SER814 

> <Gold.Protein.RotatedAtoms>
  150.7567  133.9517  159.3487 H   0  0  0  0  0  0  0  0  0  0  0  0  # atno 6907 bound_to 6896
  151.7435  135.0847  160.0329 H   0  0  0  0  0  0  0  0  0  0  0  0  # atno 6908 bound_to 6896
  152.3513  133.6145  159.5982 H   0  0  0  0  0  0  0  0  0  0  0  0  # atno 6909 bound_to 6896
  144.7451  140.3634  143.6091 H   0  0  0  0  0  0  0  0  0  0  0  0  # atno 7974 bound_to 7965
  155.8643  140.0983  157.1592 H   0  0  0  0  0  0  0  0  0  0  0  0  # atno 8008 bound_to 7997
  154.3992  140.1359  156.4062 H   0  0  0  0  0  0  0  0  0  0  0  0  # atno 8009 bound_to 7997
  155.7822  140.3458  155.5306 H   0  0  0  0  0  0  0  0  0  0  0  0  # atno 8010 bound_to 7997
  139.5069  144.6275  151.5900 H   0  0  0  0  0  0  0  0  0  0  0  0  # atno 10167 bound_to 10162
  156.3846  130.4362  149.7442 H   0  0  0  0  0  0  0  0  0  0  0  0  # atno 10718 bound_to 10713
  153.0548  135.6534  154.0605 H   0  0  0  0  0  0  0  0  0  0  0  0  # atno 10763 bound_to 10752
  154.0285  135.2913  155.3373 H   0  0  0  0  0  0  0  0  0  0  0  0  # atno 10764 bound_to 10752
  154.6857  135.5302  153.8390 H   0  0  0  0  0  0  0  0  0  0  0  0  # atno 10765 bound_to 10752
  140.9805  134.0680  157.3770 H   0  0  0  0  0  0  0  0  0  0  0  0  # atno 11005 bound_to 11000
  145.7154  139.1695  143.2515 LP  0  0  0  0  0  0  0  0  0  0  0  0  # atno 17320 bound_to 7965
  146.1316  140.7177  142.9409 LP  0  0  0  0  0  0  0  0  0  0  0  0  # atno 17321 bound_to 7965
  140.5997  143.9632  150.6378 LP  0  0  0  0  0  0  0  0  0  0  0  0  # atno 17342 bound_to 10162
  140.2839  143.3370  152.1125 LP  0  0  0  0  0  0  0  0  0  0  0  0  # atno 17343 bound_to 10162
  156.4519  130.7911  151.2932 LP  0  0  0  0  0  0  0  0  0  0  0  0  # atno 17370 bound_to 10713
  157.7495  131.0093  150.3260 LP  0  0  0  0  0  0  0  0  0  0  0  0  # atno 17371 bound_to 10713
  139.8948  135.0138  156.6970 LP  0  0  0  0  0  0  0  0  0  0  0  0  # atno 17394 bound_to 11000
  140.7193  133.9154  155.8136 LP  0  0  0  0  0  0  0  0  0  0  0  0  # atno 17395 bound_to 11000

$$$$
