#       Name:                AV-unprocessed.smi:2061
#       Creating user name   scv26
#       Creation time:       Fri Mar 27 11:07:31 2020


#       File generated by GOLD software.
#

@<TRIPOS>MOLECULE
AV-unprocessed.smi:2061
    53    54     1
SMALL
NO_CHARGES


@<TRIPOS>ATOM
      1 ****        -6.5506   5.3388   0.0180 C.3            1 S1                 0.0000
      2 ****        -5.4906   4.2973   0.1270 C.2            1 S1                 0.0000
      3 ****        -4.2711   4.2731   0.7432 C.2            1 S1                 0.0000
      4 ****        -3.7882   2.9702   0.4487 C.2            1 S1                 0.0000
      5 ****        -2.5174   2.5454   0.9189 N.am           1 S1                 0.0000
      6 ****        -1.9066   1.3602   0.7392 C.2            1 S1                 0.0000
      7 ****        -2.4695   0.4559   0.1101 O.2            1 S1                 0.0000
      8 ****        -0.6705   1.3238   1.3098 N.pl3          1 S1                -1.0000
      9 ****         0.2256   0.1660   1.2878 C.3            1 S1                 0.0000
     10 ****         0.9857   0.0694  -0.0646 C.3            1 S1                 0.0000
     11 ****         1.9873   1.2250  -0.3140 C.3            1 S1                 0.0000
     12 ****         1.6049  -1.2832  -0.2198 N.4            1 S1                 1.0000
     13 ****         1.5582  -1.8012  -1.6093 C.3            1 S1                 0.0000
     14 ****         2.0196  -3.2709  -1.6635 C.3            1 S1                 0.0000
     15 ****         0.9828  -4.2583  -1.0990 C.3            1 S1                 0.0000
     16 ****         3.2964  -3.4154  -1.0404 O.3            1 S1                 0.0000
     17 ****         3.3668  -2.9467   0.3043 C.3            1 S1                 0.0000
     18 ****         4.7970  -3.1735   0.8064 C.3            1 S1                 0.0000
     19 ****         2.9694  -1.4615   0.3465 C.3            1 S1                 0.0000
     20 ****        -4.6380   2.2638  -0.2825 N.2            1 S1                 0.0000
     21 ****        -5.7332   3.1101  -0.4913 O.3            1 S1                 0.0000
     22 ****        -6.1519   6.3255   0.2540 H              1 S1                 0.0000
     23 ****        -7.3681   5.1293   0.7079 H              1 S1                 0.0000
     24 ****        -6.9592   5.3727  -0.9922 H              1 S1                 0.0000
     25 ****        -3.8011   5.0613   1.3121 H              1 S1                 0.0000
     26 ****        -1.9993   3.2283   1.4517 H              1 S1                 0.0000
     27 ****         0.9519   0.2111   2.0996 H              1 S1                 0.0000
     28 ****        -0.3228  -0.7633   1.4511 H              1 S1                 0.0000
     29 ****         0.2247   0.1473  -0.8428 H              1 S1                 0.0000
     30 ****         1.4866   2.1942  -0.3484 H              1 S1                 0.0000
     31 ****         2.4893   1.1029  -1.2739 H              1 S1                 0.0000
     32 ****         2.7603   1.2876   0.4540 H              1 S1                 0.0000
     33 ****         0.5480  -1.7229  -2.0138 H              1 S1                 0.0000
     34 ****         2.2002  -1.1864  -2.2415 H              1 S1                 0.0000
     35 ****         2.1644  -3.5341  -2.7117 H              1 S1                 0.0000
     36 ****         0.0602  -4.2218  -1.6788 H              1 S1                 0.0000
     37 ****         0.7215  -4.0394  -0.0640 H              1 S1                 0.0000
     38 ****         1.3572  -5.2812  -1.1417 H              1 S1                 0.0000
     39 ****         2.6912  -3.5255   0.9345 H              1 S1                 0.0000
     40 ****         4.9089  -2.8413   1.8388 H              1 S1                 0.0000
     41 ****         5.5206  -2.6286   0.1992 H              1 S1                 0.0000
     42 ****         5.0603  -4.2308   0.7675 H              1 S1                 0.0000
     43 ****         3.6910  -0.8734  -0.2223 H              1 S1                 0.0000
     44 ****         3.0055  -1.1054   1.3766 H              1 S1                 0.0000
     45 ****         1.0004  -1.8961   0.3089 H              1 S1                 0.0000
     46 ****        -3.3833   0.6038  -0.2680 LP             1 S1                 0.0000
     47 ****        -2.0106  -0.4229  -0.0203 LP             1 S1                 0.0000
     48 ****        -0.3516   2.1480   1.7779 LP             1 S1                 0.0000
     49 ****         3.9654  -2.9061  -1.5819 LP             1 S1                 0.0000
     50 ****         3.5350  -4.3865  -1.0434 LP             1 S1                 0.0000
     51 ****        -4.5218   1.3275  -0.6139 LP             1 S1                 0.0000
     52 ****        -5.8599   3.2610  -1.4717 LP             1 S1                 0.0000
     53 ****        -6.5580   2.6938  -0.1088 LP             1 S1                 0.0000
@<TRIPOS>BOND
    1    1    2 1     
    2    1   22 1     
    3    1   23 1     
    4    1   24 1     
    5    2   21 1     
    6    2    3 2     
    7    3    4 1     
    8    3   25 1     
    9    4    5 1     
   10    4   20 2     
   11    5    6 am    
   12    5   26 1     
   13    6    7 2     
   14    6    8 1     
   15    8    9 1     
   16    9   10 1     
   17    9   27 1     
   18    9   28 1     
   19   10   11 1     
   20   10   12 1     
   21   10   29 1     
   22   11   30 1     
   23   11   31 1     
   24   11   32 1     
   25   12   19 1     
   26   12   13 1     
   27   12   45 1     
   28   13   14 1     
   29   13   33 1     
   30   13   34 1     
   31   14   15 1     
   32   14   16 1     
   33   14   35 1     
   34   15   36 1     
   35   15   37 1     
   36   15   38 1     
   37   16   17 1     
   38   17   18 1     
   39   17   19 1     
   40   17   39 1     
   41   18   40 1     
   42   18   41 1     
   43   18   42 1     
   44   19   43 1     
   45   19   44 1     
   46   20   21 1     
   47    7   46 1     
   48    7   47 1     
   49    8   48 1     
   50   16   49 1     
   51   16   50 1     
   52   20   51 1     
   53   21   52 1     
   54   21   53 1     
@<TRIPOS>SUBSTRUCTURE
      1 S1             1
@<TRIPOS>SET
LONE_PAIRS      STATIC     ATOMS    <user>   **** ""
8 46 47 48 49 50 51 52 53
DONOR_HYDROGENS      STATIC     ATOMS    <user>   **** ""
2 26 45
ATOM$BLUE        STATIC     ATOMS    COLORGROUP SYSTEM
8 46 47 48 49 50 51 52 53
ATOM$RED        STATIC     ATOMS    COLORGROUP SYSTEM
2 26 45
