AV-unprocessed.smi:1473|AV-procd|sdf|5967|dock3
  -GOLD-   22720 6 53D 1   1.00000     0.00000
 Structure written by MMmdl.
 33 34  0  0  0  0  0  0  0  0  2 V2000
  149.2022  135.4395  154.3532 N   0  0  0  0  0  0  0  0  0  0  0  0
  150.1250  136.3776  155.4570 S   0  0  0  0  0  0  0  0  0  0  0  0
  149.3065  136.4859  156.6753 O   0  0  0  0  0  0  0  0  0  0  0  0
  151.4373  135.7175  155.5483 O   0  0  0  0  0  0  0  0  0  0  0  0
  150.1397  137.7285  154.5622 N   0  5  0  0  0  0  0  0  0  0  0  0
  151.2928  138.6131  154.6175 C   0  0  0  0  0  0  0  0  0  0  0  0
  151.0413  139.8506  155.4711 C   0  0  0  0  0  0  0  0  0  0  0  0
  150.0129  140.7585  155.1394 C   0  0  0  0  0  0  0  0  0  0  0  0
  149.8163  141.8754  155.9704 C   0  0  0  0  0  0  0  0  0  0  0  0
  150.5602  142.1238  157.0676 N   0  0  0  0  0  0  0  0  0  0  0  0
  151.5502  141.2614  157.4038 C   0  0  0  0  0  0  0  0  0  0  0  0
  152.2927  141.5741  158.5665 N   0  0  0  0  0  0  0  0  0  0  0  0
  152.6590  140.4908  159.4755 C   0  0  0  0  0  0  0  0  0  0  0  0
  153.7160  140.9645  160.4872 C   0  0  0  0  0  0  0  0  0  0  0  0
  153.2498  142.1249  161.1659 O   0  0  0  0  0  0  0  0  0  0  0  0
  153.0304  143.2053  160.2660 C   0  0  0  0  0  0  0  0  0  0  0  0
  151.9453  142.8229  159.2451 C   0  0  0  0  0  0  0  0  0  0  0  0
  151.8247  140.1116  156.6194 C   0  0  0  0  0  0  0  0  0  0  0  0
  149.4104  135.6694  153.3822 H   0  0  0  0  0  0  0  0  0  0  0  0
  148.2077  135.4483  154.5760 H   0  0  0  0  0  0  0  0  0  0  0  0
  152.1776  138.1001  154.9968 H   0  0  0  0  0  0  0  0  0  0  0  0
  151.5706  138.9543  153.6197 H   0  0  0  0  0  0  0  0  0  0  0  0
  149.3774  140.6121  154.2767 H   0  0  0  0  0  0  0  0  0  0  0  0
  149.0380  142.5904  155.7483 H   0  0  0  0  0  0  0  0  0  0  0  0
  151.7672  140.1430  159.9986 H   0  0  0  0  0  0  0  0  0  0  0  0
  153.0656  139.6473  158.9169 H   0  0  0  0  0  0  0  0  0  0  0  0
  153.9119  140.1799  161.2183 H   0  0  0  0  0  0  0  0  0  0  0  0
  154.6629  141.1778  159.9886 H   0  0  0  0  0  0  0  0  0  0  0  0
  152.7178  144.0816  160.8337 H   0  0  0  0  0  0  0  0  0  0  0  0
  153.9617  143.4693  159.7620 H   0  0  0  0  0  0  0  0  0  0  0  0
  151.8264  143.6462  158.5410 H   0  0  0  0  0  0  0  0  0  0  0  0
  150.9867  142.6931  159.7489 H   0  0  0  0  0  0  0  0  0  0  0  0
  152.6060  139.4192  156.8988 H   0  0  0  0  0  0  0  0  0  0  0  0
  1  2  1  0  0  0  0
  1 19  1  0  0  0  0
  1 20  1  0  0  0  0
  2  3  2  0  0  0  0
  2  4  2  0  0  0  0
  2  5  1  0  0  0  0
  5  6  1  0  0  0  0
  6  7  1  0  0  0  0
  6 21  1  0  0  0  0
  6 22  1  0  0  0  0
  7 18  1  0  0  0  0
  7  8  2  0  0  0  0
  8  9  1  0  0  0  0
  8 23  1  0  0  0  0
  9 10  2  0  0  0  0
  9 24  1  0  0  0  0
 10 11  1  0  0  0  0
 11 12  1  0  0  0  0
 11 18  2  0  0  0  0
 12 17  1  0  0  0  0
 12 13  1  0  0  0  0
 13 14  1  0  0  0  0
 13 25  1  0  0  0  0
 13 26  1  0  0  0  0
 14 15  1  0  0  0  0
 14 27  1  0  0  0  0
 14 28  1  0  0  0  0
 15 16  1  0  0  0  0
 16 17  1  0  0  0  0
 16 29  1  0  0  0  0
 16 30  1  0  0  0  0
 17 31  1  0  0  0  0
 17 32  1  0  0  0  0
 18 33  1  0  0  0  0
M  CHG  1   5  -1
M  END
> <s_m_source_file>
AV-unprocessed.smi

> <i_m_source_file_index>
1473

> <i_lp_mmshare_version>
43012

> <i_f3d_flags>
0

> <s_epik_input>
W05IMl1TKD1PKSg9TylbTkhdW0NIMl1jMVtjSF1bY0hdbmMoW2NIXTEpTjJbQ0gyXVtDSDJdT1tDSDJdW0NIMl0y

> <s_epik_cmdline>
J2VwaWtfcHl0aG9uJywgJy1waCcsICc3LjAnLCAnLXRuJywgJzgnLCAnLW1hJywgJzIwMCcsICctbWV0YWxfYmluZGluZycsICctaW1hZScsICc8aW5maWxlLm1hZT4nLCAnLW9tYWUnLCAnPG91dGZpbGUubWFlPic=

> <r_lp_tautomer_probability>
1

> <r_epik_Ionization_Penalty>
1.02326

> <r_epik_Ionization_Penalty_Charging>
0.789613

> <r_epik_Ionization_Penalty_Neutral>
0.233646

> <r_epik_State_Penalty>
0.93706

> <r_epik_Charging_Adjusted_Penalty>
1.72667

> <i_epik_Tot_Q>
-1

> <i_epik_Tot_abs_Q>
1

> <r_epik_Metal_State_Penalty>
0.736197

> <b_epik_Metal_Only>
0

> <s_lp_Force_Field>
OPLS_2005

> <r_lp_Energy>
11.8177

> <b_lp_Chiralities_Consistent>
1

> <s_lp_Variant>
AV-unprocessed.smi:1473-2

> <Gold.Version>
5.8.1

> <Gold.Id.Protein>
6NUR|6NUR_protein|mol2

> <Gold.PLP.Fitness>
38.8678

> <Gold.PLP.PLP>
-30.4793

> <Gold.PLP.part.hbond>
-2.0000

> <Gold.PLP.part.metal>
0.0000

> <Gold.PLP.part.buried>
-2.9136

> <Gold.PLP.part.nonpolar>
-25.9850

> <Gold.PLP.part.repulsive>
0.3956

> <Gold.PLP.ligand.clash>
0.0000

> <Gold.PLP.ligand.torsion>
0.9941

> <Gold.PLP.Chemscore.Hbond>
2.0000

> <Gold.PLP.Chemscore.CHOScore>
1.0000

> <Gold.PLP.Chemscore.Metal>
0.0000

> <Gold.Chemscore.Hbonds>
donor molecule, donor type, donor heavy atom, donor atom, acceptor molecule, acceptor atom, score
      L1  H     1    19       P1  7948  1.00
      P1  H 10752 10763       L1     4  1.00
      L1  C     9    24       P1  8028  1.00

> <Gold.PLP.Chemscore.Internal.Correction>
1.3768

> <Gold.Rescore>
     Score         DG    S(hbond)    S(metal)    S(lipo)     H(rot)  DE(clash)    DE(int)     intcor
     14.98     -16.15       1.99        0.00      75.66       1.88       0.25       0.92       ----

> <Gold.Chemscore.Fitness>
14.9786

> <Gold.Chemscore.DG>
-16.1467

> <Gold.Chemscore.ZeroCoef>
-5.4800

> <Gold.Chemscore.Hbond>
1.9853

> <Gold.Chemscore.Metal>
0.0000

> <Gold.Chemscore.Lipo>
75.6595

> <Gold.Chemscore.Internal_Hbond>
0.0000

> <Gold.Chemscore.DEClash>
0.2475

> <Gold.Chemscore.DEInternal>
0.9206

> <Gold.Chemscore.Rot>
1.8814

> <Gold.Chemscore.Internal.Correction>
   9.000000E+99

> <Gold.Chemscore.Hbonds>
donor molecule, donor type, donor heavy atom, donor atom, acceptor molecule, acceptor atom, score
      L1  H     1    19       P1  7948  0.25
      P1  H 10752 10763       L1     4  1.00

> <Gold.Chemscore.Hbond.Weighted>
-6.6310

> <Gold.Chemscore.Metal.Weighted>
-0.0000

> <Gold.Chemscore.Lipo.Weighted>
-8.8522

> <Gold.Chemscore.Internal_Hbond.Weighted>
0.0000

> <Gold.Chemscore.DEClash.Weighted>
0.2475

> <Gold.Chemscore.DEInternal.Weighted>
0.9206

> <Gold.Chemscore.Rot.Weighted>
4.8165

> <Gold.Chemscore.Internal.Correction.Weighted>
   9.000000E+99

> <Gold.Protein.RotatedTorsions>
[ 6907 6896 6895 6894 ] final  -54.82 input  -60.11 | X-H torsion
[ 7974 7965 7964 7962 ] final   10.43 input  175.53 | X-H torsion
[ 8008 7997 7996 7995 ] final -156.26 input   59.86 | X-H torsion
[ 10167 10162 10161 10158 ] final  -87.83 input  -65.29 | X-H torsion
[ 10718 10713 10712 10709 ] final -139.36 input   66.30 | X-H torsion
[ 10763 10752 10751 10750 ] final   76.70 input  -60.55 | X-H torsion
[ 11005 11000 10999 10996 ] final  137.19 input  -57.11 | X-H torsion

> <Gold.Protein.ActiveResidues>
 VAL166  LYS551  ARG553  GLY616  TRP617  ASP618  TYR619  PRO620  LYS621  CYS622 
 ASP623  PHE694  ASN695  SER759  ASP760  ASP761  ALA762  ILE779  LEU786  VAL792 
 PHE793  MET794  SER795  GLU796  ALA797  LYS798  CYS799  TRP800  GLU811  SER814 

> <Gold.Protein.RotatedAtoms>
  150.8304  134.7555  159.6848 H   0  0  0  0  0  0  0  0  0  0  0  0  # atno 6907 bound_to 6896
  152.4409  134.5588  159.9898 H   0  0  0  0  0  0  0  0  0  0  0  0  # atno 6908 bound_to 6896
  151.5751  133.3347  159.3033 H   0  0  0  0  0  0  0  0  0  0  0  0  # atno 6909 bound_to 6896
  146.2388  139.9636  142.8455 H   0  0  0  0  0  0  0  0  0  0  0  0  # atno 7974 bound_to 7965
  155.7145  140.0782  157.2357 H   0  0  0  0  0  0  0  0  0  0  0  0  # atno 8008 bound_to 7997
  154.4054  140.1624  156.2387 H   0  0  0  0  0  0  0  0  0  0  0  0  # atno 8009 bound_to 7997
  155.9253  140.3395  155.6208 H   0  0  0  0  0  0  0  0  0  0  0  0  # atno 8010 bound_to 7997
  140.3807  143.2750  151.9388 H   0  0  0  0  0  0  0  0  0  0  0  0  # atno 10167 bound_to 10162
  156.3099  130.7476  151.1549 H   0  0  0  0  0  0  0  0  0  0  0  0  # atno 10718 bound_to 10713
  153.0744  135.4942  154.8373 H   0  0  0  0  0  0  0  0  0  0  0  0  # atno 10763 bound_to 10752
  154.7067  135.3012  154.9261 H   0  0  0  0  0  0  0  0  0  0  0  0  # atno 10764 bound_to 10752
  153.9968  135.6771  153.4810 H   0  0  0  0  0  0  0  0  0  0  0  0  # atno 10765 bound_to 10752
  140.0097  134.9444  157.0251 H   0  0  0  0  0  0  0  0  0  0  0  0  # atno 11005 bound_to 11000
  145.1748  140.9738  143.4301 LP  0  0  0  0  0  0  0  0  0  0  0  0  # atno 17320 bound_to 7965
  144.9996  139.3611  143.6174 LP  0  0  0  0  0  0  0  0  0  0  0  0  # atno 17321 bound_to 7965
  139.4795  144.5821  151.7914 LP  0  0  0  0  0  0  0  0  0  0  0  0  # atno 17342 bound_to 10162
  140.4941  144.1267  150.5956 LP  0  0  0  0  0  0  0  0  0  0  0  0  # atno 17343 bound_to 10162
  157.7388  131.0536  150.5270 LP  0  0  0  0  0  0  0  0  0  0  0  0  # atno 17370 bound_to 10713
  156.5408  130.4207  149.6155 LP  0  0  0  0  0  0  0  0  0  0  0  0  # atno 17371 bound_to 10713
  140.4577  134.1517  155.7188 LP  0  0  0  0  0  0  0  0  0  0  0  0  # atno 17394 bound_to 11000
  141.1702  133.8623  157.1593 LP  0  0  0  0  0  0  0  0  0  0  0  0  # atno 17395 bound_to 11000

$$$$
