AV-unprocessed.smi:2494|AV-procd|sdf|9821|dock2
  -GOLD-   2272013453D 1   1.00000     0.00000
 Structure written by MMmdl.
 30 31  0  0  0  0  0  0  0  0  1 V2000
  148.8248  141.3723  152.9811 O   0  0  0  0  0  0  0  0  0  0  0  0
  148.0728  140.9607  154.1024 C   0  0  0  0  0  0  0  0  0  0  0  0
  149.0018  140.7864  155.3152 C   0  0  0  0  0  0  0  0  0  0  0  0
  150.3516  140.0939  154.9862 C   0  0  2  0  0  0  0  0  0  0  0  0
  150.1038  138.7032  154.3499 C   0  0  0  0  0  0  0  0  0  0  0  0
  151.3288  138.0247  154.1063 O   0  0  0  0  0  0  0  0  0  0  0  0
  152.0407  137.7902  155.3110 C   0  0  0  0  0  0  0  0  0  0  0  0
  152.4031  139.1420  155.9362 C   0  0  0  0  0  0  0  0  0  0  0  0
  151.2093  139.9487  156.1737 N   0  0  0  0  0  0  0  0  0  0  0  0
  151.4614  141.0409  156.9943 C   0  0  0  0  0  0  0  0  0  0  0  0
  151.0055  142.2384  156.6017 N   0  0  0  0  0  0  0  0  0  0  0  0
  151.2853  143.2942  157.3962 C   0  0  0  0  0  0  0  0  0  0  0  0
  152.0323  143.1473  158.5816 C   0  0  0  0  0  0  0  0  0  0  0  0
  152.3943  144.4926  159.5989 Cl  0  0  0  0  0  0  0  0  0  0  0  0
  152.4705  141.8444  158.8912 C   0  0  0  0  0  0  0  0  0  0  0  0
  152.1864  140.7939  158.0909 N   0  0  0  0  0  0  0  0  0  0  0  0
  149.0972  140.6038  152.5030 H   0  0  0  0  0  0  0  0  0  0  0  0
  147.3054  141.7105  154.2913 H   0  0  0  0  0  0  0  0  0  0  0  0
  147.5687  140.0232  153.8661 H   0  0  0  0  0  0  0  0  0  0  0  0
  149.1754  141.7787  155.7300 H   0  0  0  0  0  0  0  0  0  0  0  0
  148.4840  140.2258  156.0949 H   0  0  0  0  0  0  0  0  0  0  0  0
  150.8938  140.7091  154.2666 H   0  0  0  0  0  0  0  0  0  0  0  0
  149.4640  138.0899  154.9870 H   0  0  0  0  0  0  0  0  0  0  0  0
  149.5935  138.8021  153.3927 H   0  0  0  0  0  0  0  0  0  0  0  0
  151.4463  137.1840  155.9967 H   0  0  0  0  0  0  0  0  0  0  0  0
  152.9455  137.2257  155.0855 H   0  0  0  0  0  0  0  0  0  0  0  0
  152.9393  138.9768  156.8717 H   0  0  0  0  0  0  0  0  0  0  0  0
  153.0771  139.6895  155.2758 H   0  0  0  0  0  0  0  0  0  0  0  0
  150.9138  144.2584  157.0819 H   0  0  0  0  0  0  0  0  0  0  0  0
  153.0512  141.6433  159.7792 H   0  0  0  0  0  0  0  0  0  0  0  0
  1  2  1  0  0  0  0
  1 17  1  0  0  0  0
  2  3  1  0  0  0  0
  2 18  1  0  0  0  0
  2 19  1  0  0  0  0
  3  4  1  0  0  0  0
  3 20  1  0  0  0  0
  3 21  1  0  0  0  0
  4  9  1  0  0  0  0
  4  5  1  0  0  0  0
  4 22  1  0  0  0  0
  5  6  1  0  0  0  0
  5 23  1  0  0  0  0
  5 24  1  0  0  0  0
  6  7  1  0  0  0  0
  7  8  1  0  0  0  0
  7 25  1  0  0  0  0
  7 26  1  0  0  0  0
  8  9  1  0  0  0  0
  8 27  1  0  0  0  0
  8 28  1  0  0  0  0
  9 10  1  0  0  0  0
 10 16  1  0  0  0  0
 10 11  2  0  0  0  0
 11 12  1  0  0  0  0
 12 13  2  0  0  0  0
 12 29  1  0  0  0  0
 13 14  1  0  0  0  0
 13 15  1  0  0  0  0
 15 16  2  0  0  0  0
 15 30  1  0  0  0  0
M  END
> <s_m_source_file>
AV-unprocessed.smi

> <i_m_source_file_index>
2494

> <i_lp_mmshare_version>
43012

> <i_f3d_flags>
0

> <s_epik_input>
W09IXVtDSDJdW0NIMl1bQ0BASF0xW0NIMl1PW0NIMl1bQ0gyXU4xYzJuW2NIXWMoQ2wpW2NIXW4y

> <s_epik_cmdline>
J2VwaWtfcHl0aG9uJywgJy1waCcsICc3LjAnLCAnLXRuJywgJzgnLCAnLW1hJywgJzIwMCcsICctbWV0YWxfYmluZGluZycsICctaW1hZScsICc8aW5maWxlLm1hZT4nLCAnLW9tYWUnLCAnPG91dGZpbGUubWFlPic=

> <r_lp_tautomer_probability>
1

> <r_epik_Ionization_Penalty>
3.66811e-07

> <r_epik_Ionization_Penalty_Charging>
0

> <r_epik_Ionization_Penalty_Neutral>
3.66811e-07

> <r_epik_State_Penalty>
-0

> <r_epik_Charging_Adjusted_Penalty>
0

> <i_epik_Tot_Q>
0

> <i_epik_Tot_abs_Q>
0

> <r_epik_Metal_State_Penalty>
-0

> <b_epik_Metal_Only>
0

> <s_lp_Force_Field>
OPLS_2005

> <r_lp_Energy>
15.3646

> <b_lp_Chiralities_Consistent>
1

> <s_lp_Variant>
AV-unprocessed.smi:2494-1

> <Gold.Version>
5.8.1

> <Gold.Id.Protein>
6NUR|6NUR_protein|mol2

> <Gold.PLP.Fitness>
37.4971

> <Gold.PLP.PLP>
-29.1101

> <Gold.PLP.part.hbond>
-1.8015

> <Gold.PLP.part.metal>
0.0000

> <Gold.PLP.part.buried>
0.0334

> <Gold.PLP.part.nonpolar>
-26.4688

> <Gold.PLP.part.repulsive>
0.3020

> <Gold.PLP.ligand.clash>
0.0000

> <Gold.PLP.ligand.torsion>
0.2543

> <Gold.PLP.Chemscore.Hbond>
1.8960

> <Gold.PLP.Chemscore.CHOScore>
0.9622

> <Gold.PLP.Chemscore.Metal>
0.0000

> <Gold.Chemscore.Hbonds>
donor molecule, donor type, donor heavy atom, donor atom, acceptor molecule, acceptor atom, score
      L1  H     1    17       P1  7957  0.91
      P1  H  8011  8017       L1     1  0.94
      L1  C    12    29       P1  8028  0.97

> <Gold.PLP.Chemscore.Internal.Correction>
0.3211

> <Gold.Rescore>
     Score         DG    S(hbond)    S(metal)    S(lipo)     H(rot)  DE(clash)    DE(int)     intcor
     12.72     -14.87       1.30        0.00      87.67       2.04       0.42       1.72       ----

> <Gold.Chemscore.Fitness>
12.7214

> <Gold.Chemscore.DG>
-14.8658

> <Gold.Chemscore.ZeroCoef>
-5.4800

> <Gold.Chemscore.Hbond>
1.3046

> <Gold.Chemscore.Metal>
0.0000

> <Gold.Chemscore.Lipo>
87.6655

> <Gold.Chemscore.Internal_Hbond>
0.0000

> <Gold.Chemscore.DEClash>
0.4210

> <Gold.Chemscore.DEInternal>
1.7235

> <Gold.Chemscore.Rot>
2.0424

> <Gold.Chemscore.Internal.Correction>
   9.000000E+99

> <Gold.Chemscore.Hbonds>
donor molecule, donor type, donor heavy atom, donor atom, acceptor molecule, acceptor atom, score
      L1  H     1    17       P1  7957  0.82
      P1  H  8011  8017       L1     1  0.20

> <Gold.Chemscore.Hbond.Weighted>
-4.3574

> <Gold.Chemscore.Metal.Weighted>
-0.0000

> <Gold.Chemscore.Lipo.Weighted>
-10.2569

> <Gold.Chemscore.Internal_Hbond.Weighted>
0.0000

> <Gold.Chemscore.DEClash.Weighted>
0.4210

> <Gold.Chemscore.DEInternal.Weighted>
1.7235

> <Gold.Chemscore.Rot.Weighted>
5.2285

> <Gold.Chemscore.Internal.Correction.Weighted>
   9.000000E+99

> <Gold.Protein.RotatedTorsions>
[ 6907 6896 6895 6894 ] final -162.27 input  -60.11 | X-H torsion
[ 7974 7965 7964 7962 ] final -117.59 input  175.53 | X-H torsion
[ 8008 7997 7996 7995 ] final   19.11 input   59.86 | X-H torsion
[ 10167 10162 10161 10158 ] final  133.56 input  -65.29 | X-H torsion
[ 10718 10713 10712 10709 ] final  103.03 input   66.30 | X-H torsion
[ 10763 10752 10751 10750 ] final  138.82 input  -60.55 | X-H torsion
[ 11005 11000 10999 10996 ] final  133.90 input  -57.11 | X-H torsion

> <Gold.Protein.ActiveResidues>
 VAL166  LYS551  ARG553  GLY616  TRP617  ASP618  TYR619  PRO620  LYS621  CYS622 
 ASP623  PHE694  ASN695  SER759  ASP760  ASP761  ALA762  ILE779  LEU786  VAL792 
 PHE793  MET794  SER795  GLU796  ALA797  LYS798  CYS799  TRP800  GLU811  SER814 

> <Gold.Protein.RotatedAtoms>
  151.3776  133.3832  159.2706 H   0  0  0  0  0  0  0  0  0  0  0  0  # atno 6907 bound_to 6896
  150.9602  134.8992  159.7736 H   0  0  0  0  0  0  0  0  0  0  0  0  # atno 6908 bound_to 6896
  152.5146  134.3735  159.9378 H   0  0  0  0  0  0  0  0  0  0  0  0  # atno 6909 bound_to 6896
  145.0834  140.8441  143.4025 H   0  0  0  0  0  0  0  0  0  0  0  0  # atno 7974 bound_to 7965
  154.9159  140.3020  155.5241 H   0  0  0  0  0  0  0  0  0  0  0  0  # atno 8008 bound_to 7997
  156.3012  140.2380  156.4139 H   0  0  0  0  0  0  0  0  0  0  0  0  # atno 8009 bound_to 7997
  154.8379  140.0415  157.1510 H   0  0  0  0  0  0  0  0  0  0  0  0  # atno 8010 bound_to 7997
  139.5292  144.6610  151.5013 H   0  0  0  0  0  0  0  0  0  0  0  0  # atno 10167 bound_to 10162
  157.6784  131.0768  150.5494 H   0  0  0  0  0  0  0  0  0  0  0  0  # atno 10718 bound_to 10713
  153.8959  135.3027  155.3448 H   0  0  0  0  0  0  0  0  0  0  0  0  # atno 10763 bound_to 10752
  154.7694  135.4894  153.9621 H   0  0  0  0  0  0  0  0  0  0  0  0  # atno 10764 bound_to 10752
  153.1271  135.6795  153.9338 H   0  0  0  0  0  0  0  0  0  0  0  0  # atno 10765 bound_to 10752
  139.9881  134.9525  156.9791 H   0  0  0  0  0  0  0  0  0  0  0  0  # atno 11005 bound_to 11000
  145.1151  139.2731  143.5617 LP  0  0  0  0  0  0  0  0  0  0  0  0  # atno 17320 bound_to 7965
  146.3531  140.0758  142.8620 LP  0  0  0  0  0  0  0  0  0  0  0  0  # atno 17321 bound_to 7965
  140.6458  143.8797  150.6736 LP  0  0  0  0  0  0  0  0  0  0  0  0  # atno 17342 bound_to 10162
  140.2146  143.3856  152.1691 LP  0  0  0  0  0  0  0  0  0  0  0  0  # atno 17343 bound_to 10162
  156.5799  130.4301  149.5982 LP  0  0  0  0  0  0  0  0  0  0  0  0  # atno 17370 bound_to 10713
  156.2670  130.6995  151.1781 LP  0  0  0  0  0  0  0  0  0  0  0  0  # atno 17371 bound_to 10713
  140.4962  134.1143  155.7242 LP  0  0  0  0  0  0  0  0  0  0  0  0  # atno 17394 bound_to 11000
  141.1542  133.8913  157.2020 LP  0  0  0  0  0  0  0  0  0  0  0  0  # atno 17395 bound_to 11000

$$$$
