AV-unprocessed.smi:114|AV-procd|sdf|1111|dock10
  -GOLD-   2262018233D 1   1.00000     0.00000
 Structure written by MMmdl.
 32 34  0  0  0  0  0  0  0  0  1 V2000
  153.8554  137.8378  156.0702 N   0  0  0  0  0  0  0  0  0  0  0  0
  152.8451  138.6893  156.2957 C   0  0  0  0  0  0  0  0  0  0  0  0
  153.0361  139.6969  157.1788 N   0  0  0  0  0  0  0  0  0  0  0  0
  152.0527  140.5693  157.4339 C   0  0  0  0  0  0  0  0  0  0  0  0
  152.3321  141.5443  158.3303 F   0  0  0  0  0  0  0  0  0  0  0  0
  150.8251  140.5863  156.9027 N   0  0  0  0  0  0  0  0  0  0  0  0
  150.6312  139.5711  156.0120 C   0  0  0  0  0  0  0  0  0  0  0  0
  151.5871  138.5845  155.6538 C   0  0  0  0  0  0  0  0  0  0  0  0
  151.0411  137.7134  154.7209 N   0  0  0  0  0  0  0  0  0  0  0  0
  149.8279  138.1646  154.5427 C   0  0  0  0  0  0  0  0  0  0  0  0
  149.5016  139.2863  155.2766 N   0  0  0  0  0  0  0  0  0  0  0  0
  148.2157  140.0543  155.3121 C   0  0  2  0  0  0  0  0  0  0  0  0
  147.1808  139.1277  155.4578 O   0  0  0  0  0  0  0  0  0  0  0  0
  146.2545  139.2191  154.3759 C   0  0  2  0  0  0  0  0  0  0  0  0
  145.6392  137.8453  154.0575 C   0  0  0  0  0  0  0  0  0  0  0  0
  144.6634  137.9756  153.0465 O   0  0  0  0  0  0  0  0  0  0  0  0
  147.0448  139.8737  153.2338 C   0  0  2  0  0  0  0  0  0  0  0  0
  147.7564  138.9119  152.4721 O   0  0  0  0  0  0  0  0  0  0  0  0
  147.9646  140.8161  153.9973 C   0  0  2  0  0  0  0  0  0  0  0  0
  149.1228  141.1802  153.2663 O   0  0  0  0  0  0  0  0  0  0  0  0
  148.3006  140.7000  156.1868 H   0  0  0  0  0  0  0  0  0  0  0  0
  145.4700  139.9177  154.6737 H   0  0  0  0  0  0  0  0  0  0  0  0
  146.3879  140.4183  152.5548 H   0  0  0  0  0  0  0  0  0  0  0  0
  147.4114  141.7216  154.2500 H   0  0  0  0  0  0  0  0  0  0  0  0
  153.7361  137.0781  155.4155 H   0  0  0  0  0  0  0  0  0  0  0  0
  154.7332  137.9574  156.5546 H   0  0  0  0  0  0  0  0  0  0  0  0
  149.1355  137.6861  153.8655 H   0  0  0  0  0  0  0  0  0  0  0  0
  146.4063  137.1665  153.6834 H   0  0  0  0  0  0  0  0  0  0  0  0
  145.2036  137.3874  154.9461 H   0  0  0  0  0  0  0  0  0  0  0  0
  144.6163  138.8839  152.7898 H   0  0  0  0  0  0  0  0  0  0  0  0
  148.5584  139.3079  152.1662 H   0  0  0  0  0  0  0  0  0  0  0  0
  149.3452  140.4647  152.6901 H   0  0  0  0  0  0  0  0  0  0  0  0
  1  2  1  0  0  0  0
  1 25  1  0  0  0  0
  1 26  1  0  0  0  0
  2  8  1  0  0  0  0
  2  3  2  0  0  0  0
  3  4  1  0  0  0  0
  4  5  1  0  0  0  0
  4  6  2  0  0  0  0
  6  7  1  0  0  0  0
  7 11  1  0  0  0  0
  7  8  2  0  0  0  0
  8  9  1  0  0  0  0
  9 10  2  0  0  0  0
 10 11  1  0  0  0  0
 10 27  1  0  0  0  0
 11 12  1  0  0  0  0
 12 21  1  0  0  0  0
 12 19  1  0  0  0  0
 12 13  1  0  0  0  0
 13 14  1  0  0  0  0
 14 22  1  0  0  0  0
 14 15  1  0  0  0  0
 14 17  1  0  0  0  0
 15 16  1  0  0  0  0
 15 28  1  0  0  0  0
 15 29  1  0  0  0  0
 16 30  1  0  0  0  0
 17 23  1  0  0  0  0
 17 18  1  0  0  0  0
 17 19  1  0  0  0  0
 18 31  1  0  0  0  0
 19 24  1  0  0  0  0
 19 20  1  0  0  0  0
 20 32  1  0  0  0  0
M  END
> <s_m_source_file>
AV-unprocessed.smi

> <i_m_source_file_index>
114

> <i_lp_mmshare_version>
43012

> <i_f3d_flags>
0

> <s_epik_input>
RmMobjEpbmMoW05IMl0pYyhjMTIpbltjSF1uMltDQEBIXTNPW0NASF0oW0NIMl1bT0hdKVtDQEBIXShbT0hdKVtDQEBIXTNbT0hd

> <s_epik_cmdline>
J2VwaWtfcHl0aG9uJywgJy1waCcsICc3LjAnLCAnLXRuJywgJzgnLCAnLW1hJywgJzIwMCcsICctbWV0YWxfYmluZGluZycsICctaW1hZScsICc8aW5maWxlLm1hZT4nLCAnLW9tYWUnLCAnPG91dGZpbGUubWFlPic=

> <r_lp_tautomer_probability>
1

> <r_epik_Ionization_Penalty>
1.13199e-05

> <r_epik_Ionization_Penalty_Charging>
0

> <r_epik_Ionization_Penalty_Neutral>
1.13199e-05

> <r_epik_State_Penalty>
-0

> <r_epik_Charging_Adjusted_Penalty>
0

> <i_epik_Tot_Q>
0

> <i_epik_Tot_abs_Q>
0

> <r_epik_Metal_State_Penalty>
-0

> <b_epik_Metal_Only>
0

> <s_epik_Chemistry_Notes>
This compound contains an acetal/aminal-like group ( X-CH(R)-Y where X, Y are N, S, or O) that may be acid/base labile, releasing an aldehyde.

> <s_lp_Force_Field>
OPLS_2005

> <r_lp_Energy>
42.0109

> <b_lp_Chiralities_Consistent>
1

> <s_lp_Variant>
AV-unprocessed.smi:114-5

> <Gold.Version>
5.8.1

> <Gold.Id.Protein>
6NUR|6NUR_protein|mol2

> <Gold.PLP.Fitness>
42.2507

> <Gold.PLP.PLP>
-25.0908

> <Gold.PLP.part.hbond>
-6.5328

> <Gold.PLP.part.metal>
0.0000

> <Gold.PLP.part.buried>
-3.7095

> <Gold.PLP.part.nonpolar>
-15.6129

> <Gold.PLP.part.repulsive>
0.6251

> <Gold.PLP.ligand.clash>
0.0000

> <Gold.PLP.ligand.torsion>
0.2199

> <Gold.PLP.Chemscore.Hbond>
4.7833

> <Gold.PLP.Chemscore.CHOScore>
1.0000

> <Gold.PLP.Chemscore.Metal>
0.0000

> <Gold.Chemscore.Hbonds>
donor molecule, donor type, donor heavy atom, donor atom, acceptor molecule, acceptor atom, score
      L1  H    16    30       P1 10175  1.00
      L1  H    18    31       P1  7957  1.00
      L1  H    20    32       P1  7957  0.88
      P1  H  7997  8008       L1     3  1.00
      P1  H  8011  8017       L1    20  0.85
      L1  C    10    27       P1  7948  1.00

> <Gold.PLP.Chemscore.Internal.Correction>
0.2499

> <Gold.Rescore>
     Score         DG    S(hbond)    S(metal)    S(lipo)     H(rot)  DE(clash)    DE(int)     intcor
      8.71     -10.34       3.61        0.00      26.53       4.03       0.45       1.19       ----

> <Gold.Chemscore.Fitness>
8.7059

> <Gold.Chemscore.DG>
-10.3395

> <Gold.Chemscore.ZeroCoef>
-5.4800

> <Gold.Chemscore.Hbond>
3.6129

> <Gold.Chemscore.Metal>
0.0000

> <Gold.Chemscore.Lipo>
26.5256

> <Gold.Chemscore.Internal_Hbond>
0.0000

> <Gold.Chemscore.DEClash>
0.4479

> <Gold.Chemscore.DEInternal>
1.1857

> <Gold.Chemscore.Rot>
4.0277

> <Gold.Chemscore.Internal.Correction>
   9.000000E+99

> <Gold.Chemscore.Hbonds>
donor molecule, donor type, donor heavy atom, donor atom, acceptor molecule, acceptor atom, score
      L1  H    16    30       P1 10175  0.96
      L1  H    18    31       P1  7957  0.98
      L1  H    20    32       P1  7957  0.86
      P1  H  7997  8008       L1     3  0.32
      P1  H  8011  8017       L1    20  0.14

> <Gold.Chemscore.Hbond.Weighted>
-12.0670

> <Gold.Chemscore.Metal.Weighted>
-0.0000

> <Gold.Chemscore.Lipo.Weighted>
-3.1035

> <Gold.Chemscore.Internal_Hbond.Weighted>
0.0000

> <Gold.Chemscore.DEClash.Weighted>
0.4479

> <Gold.Chemscore.DEInternal.Weighted>
1.1857

> <Gold.Chemscore.Rot.Weighted>
10.3110

> <Gold.Chemscore.Internal.Correction.Weighted>
   9.000000E+99

> <Gold.Protein.RotatedTorsions>
[ 6907 6896 6895 6894 ] final -153.16 input  -60.11 | X-H torsion
[ 7974 7965 7964 7962 ] final   79.11 input  175.53 | X-H torsion
[ 8008 7997 7996 7995 ] final  -81.58 input   59.86 | X-H torsion
[ 10167 10162 10161 10158 ] final   22.41 input  -65.29 | X-H torsion
[ 10718 10713 10712 10709 ] final  105.55 input   66.30 | X-H torsion
[ 10763 10752 10751 10750 ] final  -93.00 input  -60.55 | X-H torsion
[ 11005 11000 10999 10996 ] final  -32.43 input  -57.11 | X-H torsion

> <Gold.Protein.ActiveResidues>
 VAL166  LYS551  ARG553  GLY616  TRP617  ASP618  TYR619  PRO620  LYS621  CYS622 
 ASP623  PHE694  ASN695  SER759  ASP760  ASP761  ALA762  ILE779  LEU786  VAL792 
 PHE793  MET794  SER795  GLU796  ALA797  LYS798  CYS799  TRP800  GLU811  SER814 

> <Gold.Protein.RotatedAtoms>
  151.2384  133.4412  159.2606 H   0  0  0  0  0  0  0  0  0  0  0  0  # atno 6907 bound_to 6896
  151.0728  134.9809  159.8327 H   0  0  0  0  0  0  0  0  0  0  0  0  # atno 6908 bound_to 6896
  152.5414  134.2328  159.8884 H   0  0  0  0  0  0  0  0  0  0  0  0  # atno 6909 bound_to 6896
  145.6685  139.2490  143.1882 H   0  0  0  0  0  0  0  0  0  0  0  0  # atno 7974 bound_to 7965
  154.5997  140.0646  156.9352 H   0  0  0  0  0  0  0  0  0  0  0  0  # atno 8008 bound_to 7997
  155.2153  140.3326  155.4305 H   0  0  0  0  0  0  0  0  0  0  0  0  # atno 8009 bound_to 7997
  156.2310  140.1841  156.7225 H   0  0  0  0  0  0  0  0  0  0  0  0  # atno 8010 bound_to 7997
  140.5351  143.9775  150.6487 H   0  0  0  0  0  0  0  0  0  0  0  0  # atno 10167 bound_to 10162
  157.6701  131.0830  150.5873 H   0  0  0  0  0  0  0  0  0  0  0  0  # atno 10718 bound_to 10713
  154.6917  135.5210  153.8401 H   0  0  0  0  0  0  0  0  0  0  0  0  # atno 10763 bound_to 10752
  153.0637  135.6577  154.0414 H   0  0  0  0  0  0  0  0  0  0  0  0  # atno 10764 bound_to 10752
  154.0287  135.2987  155.3351 H   0  0  0  0  0  0  0  0  0  0  0  0  # atno 10765 bound_to 10752
  140.9551  133.7197  156.1281 H   0  0  0  0  0  0  0  0  0  0  0  0  # atno 11005 bound_to 11000
  146.1066  140.7480  142.9523 LP  0  0  0  0  0  0  0  0  0  0  0  0  # atno 17320 bound_to 7965
  144.7065  140.3871  143.7114 LP  0  0  0  0  0  0  0  0  0  0  0  0  # atno 17321 bound_to 7965
  140.3160  143.3167  152.0831 LP  0  0  0  0  0  0  0  0  0  0  0  0  # atno 17342 bound_to 10162
  139.4968  144.6605  151.6476 LP  0  0  0  0  0  0  0  0  0  0  0  0  # atno 17343 bound_to 10162
  156.6173  130.4396  149.5835 LP  0  0  0  0  0  0  0  0  0  0  0  0  # atno 17370 bound_to 10713
  156.2383  130.6836  151.1531 LP  0  0  0  0  0  0  0  0  0  0  0  0  # atno 17371 bound_to 10713
  140.7547  134.4006  157.5536 LP  0  0  0  0  0  0  0  0  0  0  0  0  # atno 17394 bound_to 11000
  139.8860  134.8922  156.2612 LP  0  0  0  0  0  0  0  0  0  0  0  0  # atno 17395 bound_to 11000

$$$$
