AV-unprocessed.smi:123|AV-procd|sdf|1145|dock7
  -GOLD-   2262018273D 1   1.00000     0.00000
 Structure written by MMmdl.
 43 45  0  0  0  0  0  0  0  0  1 V2000
  151.6097  143.1129  157.8698 C   0  0  0  0  0  0  0  0  0  0  0  0
  152.5716  142.0562  158.4436 C   0  0  2  0  0  0  0  0  0  0  0  0
  152.0960  140.6992  158.1694 N   0  0  0  0  0  0  0  0  0  0  0  0
  150.8433  140.2391  158.3273 C   0  0  0  0  0  0  0  0  0  0  0  0
  149.9092  140.9381  158.7240 O   0  0  0  0  0  0  0  0  0  0  0  0
  150.6307  138.7574  157.9805 C   0  0  0  0  0  0  0  0  0  0  0  0
  149.2741  138.2660  158.3062 N   0  0  0  0  0  0  0  0  0  0  0  0
  148.1630  138.8430  157.6421 C   0  0  0  0  0  0  0  0  0  0  0  0
  148.3124  139.7239  156.7939 O   0  0  0  0  0  0  0  0  0  0  0  0
  146.8564  138.3322  158.0407 C   0  0  0  0  0  0  0  0  0  0  0  0
  145.7457  138.8252  157.4666 F   0  0  0  0  0  0  0  0  0  0  0  0
  146.7429  137.3736  158.9828 C   0  0  0  0  0  0  0  0  0  0  0  0
  147.8366  136.8183  159.6219 N   0  0  0  0  0  0  0  0  0  0  0  0
  147.6746  135.7580  160.6891 C   0  0  1  0  0  0  0  0  0  0  0  0
  148.1865  136.2802  162.0359 C   0  0  0  0  0  0  0  0  0  0  0  0
  146.9237  136.8452  162.6484 C   0  0  0  0  0  0  0  0  0  0  0  0
  145.8711  135.8670  162.1387 C   0  0  0  0  0  0  0  0  0  0  0  0
  146.3152  135.4654  160.8442 O   0  0  0  0  0  0  0  0  0  0  0  0
  149.1356  137.2677  159.3000 C   0  0  0  0  0  0  0  0  0  0  0  0
  150.1220  136.8087  159.8804 O   0  0  0  0  0  0  0  0  0  0  0  0
  152.9052  142.2631  159.8925 C   0  0  0  0  0  0  0  0  0  0  0  0
  153.7011  141.6026  160.7893 C   0  0  0  0  0  0  0  0  0  0  0  0
  153.5909  142.3046  162.0213 C   0  0  0  0  0  0  0  0  0  0  0  0
  152.7306  143.3392  161.7888 C   0  0  0  0  0  0  0  0  0  0  0  0
  152.3011  143.3263  160.4980 O   0  0  0  0  0  0  0  0  0  0  0  0
  152.0354  144.1130  157.9547 H   0  0  0  0  0  0  0  0  0  0  0  0
  150.6529  143.1181  158.3931 H   0  0  0  0  0  0  0  0  0  0  0  0
  151.4103  142.9309  156.8133 H   0  0  0  0  0  0  0  0  0  0  0  0
  153.5038  142.1475  157.8853 H   0  0  0  0  0  0  0  0  0  0  0  0
  152.7903  140.0443  157.8398 H   0  0  0  0  0  0  0  0  0  0  0  0
  150.8589  138.6148  156.9232 H   0  0  0  0  0  0  0  0  0  0  0  0
  151.3899  138.1671  158.4966 H   0  0  0  0  0  0  0  0  0  0  0  0
  145.7491  137.0410  159.2422 H   0  0  0  0  0  0  0  0  0  0  0  0
  148.2026  134.8763  160.3227 H   0  0  0  0  0  0  0  0  0  0  0  0
  148.5507  135.4352  162.6216 H   0  0  0  0  0  0  0  0  0  0  0  0
  148.9922  137.0068  161.9243 H   0  0  0  0  0  0  0  0  0  0  0  0
  146.9631  136.9015  163.7364 H   0  0  0  0  0  0  0  0  0  0  0  0
  146.7313  137.8465  162.2610 H   0  0  0  0  0  0  0  0  0  0  0  0
  145.8308  134.9866  162.7812 H   0  0  0  0  0  0  0  0  0  0  0  0
  144.8734  136.3051  162.1008 H   0  0  0  0  0  0  0  0  0  0  0  0
  154.2952  140.7245  160.5832 H   0  0  0  0  0  0  0  0  0  0  0  0
  154.0783  142.0806  162.9587 H   0  0  0  0  0  0  0  0  0  0  0  0
  152.3345  144.1377  162.3990 H   0  0  0  0  0  0  0  0  0  0  0  0
  1  2  1  0  0  0  0
  1 26  1  0  0  0  0
  1 27  1  0  0  0  0
  1 28  1  0  0  0  0
  2  3  1  0  0  0  0
  2 21  1  0  0  0  0
  2 29  1  0  0  0  0
  3  4  1  0  0  0  0
  3 30  1  0  0  0  0
  4  5  2  0  0  0  0
  4  6  1  0  0  0  0
  6  7  1  0  0  0  0
  6 31  1  0  0  0  0
  6 32  1  0  0  0  0
  7 19  1  0  0  0  0
  7  8  1  0  0  0  0
  8  9  2  0  0  0  0
  8 10  1  0  0  0  0
 10 11  1  0  0  0  0
 10 12  2  0  0  0  0
 12 13  1  0  0  0  0
 12 33  1  0  0  0  0
 13 14  1  0  0  0  0
 13 19  1  0  0  0  0
 14 18  1  0  0  0  0
 14 15  1  0  0  0  0
 14 34  1  0  0  0  0
 15 16  1  0  0  0  0
 15 35  1  0  0  0  0
 15 36  1  0  0  0  0
 16 17  1  0  0  0  0
 16 37  1  0  0  0  0
 16 38  1  0  0  0  0
 17 18  1  0  0  0  0
 17 39  1  0  0  0  0
 17 40  1  0  0  0  0
 19 20  2  0  0  0  0
 21 25  1  0  0  0  0
 21 22  2  0  0  0  0
 22 23  1  0  0  0  0
 22 41  1  0  0  0  0
 23 24  2  0  0  0  0
 23 42  1  0  0  0  0
 24 25  1  0  0  0  0
 24 43  1  0  0  0  0
M  END
> <s_m_source_file>
AV-unprocessed.smi

> <i_m_source_file_index>
123

> <i_lp_mmshare_version>
43012

> <i_f3d_flags>
0

> <s_epik_input>
bzFbY0hdW2NIXVtjSF1jMVtDQEhdKFtDSDNdKVtOSF1DKD1PKVtDSDJdbjJjKD1PKWMoRilbY0hdbihjMj1PKVtDQEBIXTNbQ0gyXVtDSDJdW0NIMl1PMw==

> <s_epik_cmdline>
J2VwaWtfcHl0aG9uJywgJy1waCcsICc3LjAnLCAnLXRuJywgJzgnLCAnLW1hJywgJzIwMCcsICctbWV0YWxfYmluZGluZycsICctaW1hZScsICc8aW5maWxlLm1hZT4nLCAnLW9tYWUnLCAnPG91dGZpbGUubWFlPic=

> <r_lp_tautomer_probability>
1

> <r_epik_Ionization_Penalty>
2.31906e-08

> <r_epik_Ionization_Penalty_Charging>
3.85846e-09

> <r_epik_Ionization_Penalty_Neutral>
1.93321e-08

> <r_epik_State_Penalty>
-0

> <r_epik_Charging_Adjusted_Penalty>
3.85846e-09

> <i_epik_Tot_Q>
0

> <i_epik_Tot_abs_Q>
0

> <r_epik_Metal_State_Penalty>
-0

> <b_epik_Metal_Only>
0

> <s_epik_Chemistry_Notes>
This compound contains an acetal/aminal-like group ( X-CH(R)-Y where X, Y are N, S, or O) that may be acid/base labile, releasing an aldehyde.

> <s_lp_Force_Field>
OPLS_2005

> <r_lp_Energy>
21.1126

> <b_lp_Chiralities_Consistent>
1

> <s_lp_Variant>
AV-unprocessed.smi:123-3

> <Gold.Version>
5.8.1

> <Gold.Id.Protein>
6NUR|6NUR_protein|mol2

> <Gold.PLP.Fitness>
42.8732

> <Gold.PLP.PLP>
-40.6473

> <Gold.PLP.part.hbond>
-1.5163

> <Gold.PLP.part.metal>
0.0000

> <Gold.PLP.part.buried>
-5.9231

> <Gold.PLP.part.nonpolar>
-32.7877

> <Gold.PLP.part.repulsive>
0.1506

> <Gold.PLP.ligand.clash>
0.0000

> <Gold.PLP.ligand.torsion>
0.3613

> <Gold.PLP.Chemscore.Hbond>
0.9425

> <Gold.PLP.Chemscore.CHOScore>
0.0000

> <Gold.PLP.Chemscore.Metal>
0.0000

> <Gold.Chemscore.Hbonds>
donor molecule, donor type, donor heavy atom, donor atom, acceptor molecule, acceptor atom, score
      P1  H  6896  6908       L1    20  1.00

> <Gold.PLP.Chemscore.Internal.Correction>
0.1211

> <Gold.Rescore>
     Score         DG    S(hbond)    S(metal)    S(lipo)     H(rot)  DE(clash)    DE(int)     intcor
     11.35     -13.92       0.98        0.00      93.00       2.23       0.07       2.51       ----

> <Gold.Chemscore.Fitness>
11.3460

> <Gold.Chemscore.DG>
-13.9218

> <Gold.Chemscore.ZeroCoef>
-5.4800

> <Gold.Chemscore.Hbond>
0.9826

> <Gold.Chemscore.Metal>
0.0000

> <Gold.Chemscore.Lipo>
92.9963

> <Gold.Chemscore.Internal_Hbond>
0.0000

> <Gold.Chemscore.DEClash>
0.0697

> <Gold.Chemscore.DEInternal>
2.5061

> <Gold.Chemscore.Rot>
2.2347

> <Gold.Chemscore.Internal.Correction>
   9.000000E+99

> <Gold.Chemscore.Hbonds>
donor molecule, donor type, donor heavy atom, donor atom, acceptor molecule, acceptor atom, score
      P1  H  6896  6908       L1    20  0.96

> <Gold.Chemscore.Hbond.Weighted>
-3.2820

> <Gold.Chemscore.Metal.Weighted>
-0.0000

> <Gold.Chemscore.Lipo.Weighted>
-10.8806

> <Gold.Chemscore.Internal_Hbond.Weighted>
0.0000

> <Gold.Chemscore.DEClash.Weighted>
0.0697

> <Gold.Chemscore.DEInternal.Weighted>
2.5061

> <Gold.Chemscore.Rot.Weighted>
5.7208

> <Gold.Chemscore.Internal.Correction.Weighted>
   9.000000E+99

> <Gold.Protein.RotatedTorsions>
[ 6907 6896 6895 6894 ] final -156.92 input  -60.11 | X-H torsion
[ 7974 7965 7964 7962 ] final -144.71 input  175.53 | X-H torsion
[ 8008 7997 7996 7995 ] final  140.32 input   59.86 | X-H torsion
[ 10167 10162 10161 10158 ] final -119.63 input  -65.29 | X-H torsion
[ 10718 10713 10712 10709 ] final  -39.90 input   66.30 | X-H torsion
[ 10763 10752 10751 10750 ] final -140.80 input  -60.55 | X-H torsion
[ 11005 11000 10999 10996 ] final   95.15 input  -57.11 | X-H torsion

> <Gold.Protein.ActiveResidues>
 VAL166  LYS551  ARG553  GLY616  TRP617  ASP618  TYR619  PRO620  LYS621  CYS622 
 ASP623  PHE694  ASN695  SER759  ASP760  ASP761  ALA762  ILE779  LEU786  VAL792 
 PHE793  MET794  SER795  GLU796  ALA797  LYS798  CYS799  TRP800  GLU811  SER814 

> <Gold.Protein.RotatedAtoms>
  151.2949  133.4148  159.2635 H   0  0  0  0  0  0  0  0  0  0  0  0  # atno 6907 bound_to 6896
  151.0245  134.9494  159.8088 H   0  0  0  0  0  0  0  0  0  0  0  0  # atno 6908 bound_to 6896
  152.5332  134.2911  159.9096 H   0  0  0  0  0  0  0  0  0  0  0  0  # atno 6909 bound_to 6896
  144.8278  140.5675  143.5535 H   0  0  0  0  0  0  0  0  0  0  0  0  # atno 7974 bound_to 7965
  156.2980  140.2344  156.4382 H   0  0  0  0  0  0  0  0  0  0  0  0  # atno 8008 bound_to 7997
  154.8210  140.0438  157.1431 H   0  0  0  0  0  0  0  0  0  0  0  0  # atno 8009 bound_to 7997
  154.9315  140.3017  155.5169 H   0  0  0  0  0  0  0  0  0  0  0  0  # atno 8010 bound_to 7997
  140.0446  143.5120  152.2113 H   0  0  0  0  0  0  0  0  0  0  0  0  # atno 10167 bound_to 10162
  156.2873  130.4224  149.8274 H   0  0  0  0  0  0  0  0  0  0  0  0  # atno 10718 bound_to 10713
  154.8567  135.3543  154.5765 H   0  0  0  0  0  0  0  0  0  0  0  0  # atno 10763 bound_to 10752
  153.6377  135.6999  153.5257 H   0  0  0  0  0  0  0  0  0  0  0  0  # atno 10764 bound_to 10752
  153.2997  135.4210  155.1200 H   0  0  0  0  0  0  0  0  0  0  0  0  # atno 10765 bound_to 10752
  139.8791  134.8884  156.3969 H   0  0  0  0  0  0  0  0  0  0  0  0  # atno 11005 bound_to 11000
  145.4962  139.1486  143.3682 LP  0  0  0  0  0  0  0  0  0  0  0  0  # atno 17320 bound_to 7965
  146.2582  140.5101  142.8864 LP  0  0  0  0  0  0  0  0  0  0  0  0  # atno 17321 bound_to 7965
  139.5992  144.7577  151.3213 LP  0  0  0  0  0  0  0  0  0  0  0  0  # atno 17342 bound_to 10162
  140.7245  143.7044  150.7819 LP  0  0  0  0  0  0  0  0  0  0  0  0  # atno 17343 bound_to 10162
  156.5700  130.8420  151.3354 LP  0  0  0  0  0  0  0  0  0  0  0  0  # atno 17370 bound_to 10713
  157.7332  130.9727  150.1967 LP  0  0  0  0  0  0  0  0  0  0  0  0  # atno 17371 bound_to 10713
  140.9294  133.7590  156.0005 LP  0  0  0  0  0  0  0  0  0  0  0  0  # atno 17394 bound_to 11000
  140.8348  134.3135  157.5335 LP  0  0  0  0  0  0  0  0  0  0  0  0  # atno 17395 bound_to 11000

$$$$
