AV-unprocessed.smi:1873|AV-procd|sdf|7610|dock7
  -GOLD-   22720 9333D 1   1.00000     0.00000
 Structure written by MMmdl.
 37 39  0  0  0  0  0  0  0  0  2 V2000
  150.0450  140.3391  154.0842 O   0  0  0  0  0  0  0  0  0  0  0  0
  149.5816  140.8728  155.3101 C   0  0  1  0  0  0  0  0  0  0  0  0
  150.5690  141.9318  155.8393 C   0  0  0  0  0  0  0  0  0  0  0  0
  150.9906  141.6819  157.2251 N   0  0  0  0  0  0  0  0  0  0  0  0
  151.1074  140.5051  157.8979 C   0  0  0  0  0  0  0  0  0  0  0  0
  151.5316  140.7923  159.1597 N   0  3  0  0  0  0  0  0  0  0  0  0
  151.6895  142.1729  159.2959 C   0  0  0  0  0  0  0  0  0  0  0  0
  152.0986  142.9397  160.3826 C   0  0  0  0  0  0  0  0  0  0  0  0
  152.1559  144.3353  160.1868 C   0  0  0  0  0  0  0  0  0  0  0  0
  151.8158  144.9176  158.9485 C   0  0  0  0  0  0  0  0  0  0  0  0
  151.4020  144.1306  157.8538 C   0  0  0  0  0  0  0  0  0  0  0  0
  151.3451  142.7517  158.0557 C   0  0  0  0  0  0  0  0  0  0  0  0
  148.1770  141.4442  155.1969 C   0  0  0  0  0  0  0  0  0  0  0  0
  147.4142  141.6745  156.3605 C   0  0  0  0  0  0  0  0  0  0  0  0
  146.1180  142.2160  156.2641 C   0  0  0  0  0  0  0  0  0  0  0  0
  145.5620  142.5301  155.0078 C   0  0  0  0  0  0  0  0  0  0  0  0
  144.2961  143.0704  154.9824 O   0  0  0  0  0  0  0  0  0  0  0  0
  144.1341  144.3740  154.6320 C   0  0  0  0  0  0  0  0  0  0  0  0
  144.3754  144.5254  153.3075 F   0  0  0  0  0  0  0  0  0  0  0  0
  142.8585  144.7717  154.8630 F   0  0  0  0  0  0  0  0  0  0  0  0
  146.3343  142.3120  153.8416 C   0  0  0  0  0  0  0  0  0  0  0  0
  147.6312  141.7716  153.9371 C   0  0  0  0  0  0  0  0  0  0  0  0
  149.6976  139.4653  153.9883 H   0  0  0  0  0  0  0  0  0  0  0  0
  149.5536  140.0414  156.0159 H   0  0  0  0  0  0  0  0  0  0  0  0
  151.4505  142.0060  155.2022 H   0  0  0  0  0  0  0  0  0  0  0  0
  150.0985  142.9159  155.8221 H   0  0  0  0  0  0  0  0  0  0  0  0
  150.9008  139.5209  157.5025 H   0  0  0  0  0  0  0  0  0  0  0  0
  152.3621  142.4959  161.3314 H   0  0  0  0  0  0  0  0  0  0  0  0
  152.4693  144.9717  161.0016 H   0  0  0  0  0  0  0  0  0  0  0  0
  151.8753  145.9903  158.8344 H   0  0  0  0  0  0  0  0  0  0  0  0
  151.1508  144.5875  156.9081 H   0  0  0  0  0  0  0  0  0  0  0  0
  147.8215  141.4411  157.3333 H   0  0  0  0  0  0  0  0  0  0  0  0
  145.5446  142.3910  157.1627 H   0  0  0  0  0  0  0  0  0  0  0  0
  144.8218  145.0255  155.1719 H   0  0  0  0  0  0  0  0  0  0  0  0
  145.9475  142.5629  152.8652 H   0  0  0  0  0  0  0  0  0  0  0  0
  148.2081  141.6157  153.0371 H   0  0  0  0  0  0  0  0  0  0  0  0
  151.7008  140.0952  159.8734 H   0  0  0  0  0  0  0  0  0  0  0  0
  1  2  1  0  0  0  0
  1 23  1  0  0  0  0
  2  3  1  0  0  0  0
  2 13  1  0  0  0  0
  2 24  1  0  0  0  0
  3  4  1  0  0  0  0
  3 25  1  0  0  0  0
  3 26  1  0  0  0  0
  4 12  1  0  0  0  0
  4  5  1  0  0  0  0
  5  6  2  0  0  0  0
  5 27  1  0  0  0  0
  6  7  1  0  0  0  0
  6 37  1  0  0  0  0
  7 12  2  0  0  0  0
  7  8  1  0  0  0  0
  8  9  2  0  0  0  0
  8 28  1  0  0  0  0
  9 10  1  0  0  0  0
  9 29  1  0  0  0  0
 10 11  2  0  0  0  0
 10 30  1  0  0  0  0
 11 12  1  0  0  0  0
 11 31  1  0  0  0  0
 13 22  1  0  0  0  0
 13 14  2  0  0  0  0
 14 15  1  0  0  0  0
 14 32  1  0  0  0  0
 15 16  2  0  0  0  0
 15 33  1  0  0  0  0
 16 17  1  0  0  0  0
 16 21  1  0  0  0  0
 17 18  1  0  0  0  0
 18 19  1  0  0  0  0
 18 20  1  0  0  0  0
 18 34  1  0  0  0  0
 21 22  2  0  0  0  0
 21 35  1  0  0  0  0
 22 36  1  0  0  0  0
M  CHG  1   6   1
M  END
> <s_m_source_file>
AV-unprocessed.smi

> <i_m_source_file_index>
1873

> <i_lp_mmshare_version>
43012

> <i_f3d_flags>
0

> <s_epik_input>
RltDSF0oRilPYyhbY0hdW2NIXTEpW2NIXVtjSF1jMVtDQEhdKFtPSF0pW0NIMl1uKFtjSF1uMiljKGMyMylbY0hdW2NIXVtjSF1bY0hdMw==

> <s_epik_cmdline>
J2VwaWtfcHl0aG9uJywgJy1waCcsICc3LjAnLCAnLXRuJywgJzgnLCAnLW1hJywgJzIwMCcsICctbWV0YWxfYmluZGluZycsICctaW1hZScsICc8aW5maWxlLm1hZT4nLCAnLW9tYWUnLCAnPG91dGZpbGUubWFlPic=

> <r_lp_tautomer_probability>
1

> <r_epik_Ionization_Penalty>
1.3029

> <r_epik_Ionization_Penalty_Charging>
1.3029

> <r_epik_Ionization_Penalty_Neutral>
2.50501e-07

> <r_epik_State_Penalty>
1.377

> <r_epik_Charging_Adjusted_Penalty>
2.6799

> <i_epik_Tot_Q>
1

> <i_epik_Tot_abs_Q>
1

> <r_epik_Metal_State_Penalty>
5.40879

> <b_epik_Metal_Only>
0

> <s_lp_Force_Field>
OPLS_2005

> <r_lp_Energy>
16.5832

> <b_lp_Chiralities_Consistent>
1

> <s_lp_Variant>
AV-unprocessed.smi:1873-4

> <Gold.Version>
5.8.1

> <Gold.Id.Protein>
6NUR|6NUR_protein|mol2

> <Gold.PLP.Fitness>
51.6539

> <Gold.PLP.PLP>
-52.2807

> <Gold.PLP.part.hbond>
-2.0000

> <Gold.PLP.part.metal>
0.0000

> <Gold.PLP.part.buried>
-6.7263

> <Gold.PLP.part.nonpolar>
-42.6657

> <Gold.PLP.part.repulsive>
0.3485

> <Gold.PLP.ligand.clash>
0.0000

> <Gold.PLP.ligand.torsion>
1.6263

> <Gold.PLP.Chemscore.Hbond>
0.8480

> <Gold.PLP.Chemscore.CHOScore>
0.0000

> <Gold.PLP.Chemscore.Metal>
0.0000

> <Gold.Chemscore.Hbonds>
donor molecule, donor type, donor heavy atom, donor atom, acceptor molecule, acceptor atom, score
      P1  H  7989  7998       L1     1  0.83

> <Gold.PLP.Chemscore.Internal.Correction>
0.0817

> <Gold.Rescore>
     Score         DG    S(hbond)    S(metal)    S(lipo)     H(rot)  DE(clash)    DE(int)     intcor
     14.15     -16.18       0.90        0.00     119.71       2.47       0.28       1.75       ----

> <Gold.Chemscore.Fitness>
14.1468

> <Gold.Chemscore.DG>
-16.1803

> <Gold.Chemscore.ZeroCoef>
-5.4800

> <Gold.Chemscore.Hbond>
0.9012

> <Gold.Chemscore.Metal>
0.0000

> <Gold.Chemscore.Lipo>
119.7054

> <Gold.Chemscore.Internal_Hbond>
0.0000

> <Gold.Chemscore.DEClash>
0.2790

> <Gold.Chemscore.DEInternal>
1.7545

> <Gold.Chemscore.Rot>
2.4668

> <Gold.Chemscore.Internal.Correction>
   9.000000E+99

> <Gold.Chemscore.Hbonds>
donor molecule, donor type, donor heavy atom, donor atom, acceptor molecule, acceptor atom, score
      P1  H  7989  7998       L1     1  0.79

> <Gold.Chemscore.Hbond.Weighted>
-3.0099

> <Gold.Chemscore.Metal.Weighted>
-0.0000

> <Gold.Chemscore.Lipo.Weighted>
-14.0055

> <Gold.Chemscore.Internal_Hbond.Weighted>
0.0000

> <Gold.Chemscore.DEClash.Weighted>
0.2790

> <Gold.Chemscore.DEInternal.Weighted>
1.7545

> <Gold.Chemscore.Rot.Weighted>
6.3151

> <Gold.Chemscore.Internal.Correction.Weighted>
   9.000000E+99

> <Gold.Protein.RotatedTorsions>
[ 6907 6896 6895 6894 ] final  123.45 input  -60.11 | X-H torsion
[ 7974 7965 7964 7962 ] final  -28.52 input  175.53 | X-H torsion
[ 8008 7997 7996 7995 ] final   11.48 input   59.86 | X-H torsion
[ 10167 10162 10161 10158 ] final  -67.23 input  -65.29 | X-H torsion
[ 10718 10713 10712 10709 ] final -171.60 input   66.30 | X-H torsion
[ 10763 10752 10751 10750 ] final -162.03 input  -60.55 | X-H torsion
[ 11005 11000 10999 10996 ] final   95.27 input  -57.11 | X-H torsion

> <Gold.Protein.ActiveResidues>
 VAL166  LYS551  ARG553  GLY616  TRP617  ASP618  TYR619  PRO620  LYS621  CYS622 
 ASP623  PHE694  ASN695  SER759  ASP760  ASP761  ALA762  ILE779  LEU786  VAL792 
 PHE793  MET794  SER795  GLU796  ALA797  LYS798  CYS799  TRP800  GLU811  SER814 

> <Gold.Protein.RotatedAtoms>
  152.4161  133.7040  159.6440 H   0  0  0  0  0  0  0  0  0  0  0  0  # atno 6907 bound_to 6896
  150.8038  133.8538  159.3221 H   0  0  0  0  0  0  0  0  0  0  0  0  # atno 6908 bound_to 6896
  151.6267  135.1029  160.0164 H   0  0  0  0  0  0  0  0  0  0  0  0  # atno 6909 bound_to 6896
  146.1282  140.5293  142.8705 H   0  0  0  0  0  0  0  0  0  0  0  0  # atno 7974 bound_to 7965
  154.8075  140.2862  155.5877 H   0  0  0  0  0  0  0  0  0  0  0  0  # atno 8008 bound_to 7997
  156.2984  140.2574  156.2886 H   0  0  0  0  0  0  0  0  0  0  0  0  # atno 8009 bound_to 7997
  154.9486  140.0380  157.2122 H   0  0  0  0  0  0  0  0  0  0  0  0  # atno 8010 bound_to 7997
  140.5598  143.2312  151.6750 H   0  0  0  0  0  0  0  0  0  0  0  0  # atno 10167 bound_to 10162
  156.7432  130.9350  151.3111 H   0  0  0  0  0  0  0  0  0  0  0  0  # atno 10718 bound_to 10713
  154.7251  135.3034  154.8984 H   0  0  0  0  0  0  0  0  0  0  0  0  # atno 10763 bound_to 10752
  153.9844  135.6726  153.4755 H   0  0  0  0  0  0  0  0  0  0  0  0  # atno 10764 bound_to 10752
  153.0868  135.4980  154.8531 H   0  0  0  0  0  0  0  0  0  0  0  0  # atno 10765 bound_to 10752
  139.8790  134.8890  156.3987 H   0  0  0  0  0  0  0  0  0  0  0  0  # atno 11005 bound_to 11000
  144.7664  140.5539  143.6700 LP  0  0  0  0  0  0  0  0  0  0  0  0  # atno 17320 bound_to 7965
  145.5318  139.1475  143.3495 LP  0  0  0  0  0  0  0  0  0  0  0  0  # atno 17321 bound_to 7965
  139.5065  144.3680  152.0497 LP  0  0  0  0  0  0  0  0  0  0  0  0  # atno 17342 bound_to 10162
  140.2806  144.3864  150.6120 LP  0  0  0  0  0  0  0  0  0  0  0  0  # atno 17343 bound_to 10162
  157.6809  130.9139  150.0266 LP  0  0  0  0  0  0  0  0  0  0  0  0  # atno 17370 bound_to 10713
  156.1450  130.3642  149.9523 LP  0  0  0  0  0  0  0  0  0  0  0  0  # atno 17371 bound_to 10713
  140.9282  133.7597  155.9991 LP  0  0  0  0  0  0  0  0  0  0  0  0  # atno 17394 bound_to 11000
  140.8361  134.3121  157.5331 LP  0  0  0  0  0  0  0  0  0  0  0  0  # atno 17395 bound_to 11000

$$$$
