AV-unprocessed.smi:1645|AV-procd|sdf|6623|dock4
  -GOLD-   22720 7323D 1   1.00000     0.00000
 Structure written by MMmdl.
 55 58  0  0  0  0  0  0  0  0  4 V2000
  150.9811  135.5484  154.8250 O   0  0  0  0  0  0  0  0  0  0  0  0
  149.7639  135.6369  155.0234 C   0  0  0  0  0  0  0  0  0  0  0  0
  149.2492  136.7360  155.6027 N   0  0  0  0  0  0  0  0  0  0  0  0
  149.9284  137.8611  156.1412 C   0  0  0  0  0  0  0  0  0  0  0  0
  151.2044  137.7936  156.7495 C   0  0  0  0  0  0  0  0  0  0  0  0
  151.7844  138.9631  157.2817 C   0  0  0  0  0  0  0  0  0  0  0  0
  151.0863  140.1955  157.2136 C   0  0  0  0  0  0  0  0  0  0  0  0
  151.5853  141.4141  157.7280 N   0  0  0  0  0  0  0  0  0  0  0  0
  152.2397  141.3469  159.0388 C   0  0  0  0  0  0  0  0  0  0  0  0
  153.1008  142.5937  159.3042 C   0  0  0  0  0  0  0  0  0  0  0  0
  152.2873  143.8805  159.1096 C   0  0  0  0  0  0  0  0  0  0  0  0
  151.6672  143.8957  157.7061 C   0  0  0  0  0  0  0  0  0  0  0  0
  150.8226  142.6345  157.4569 C   0  0  0  0  0  0  0  0  0  0  0  0
  149.8604  140.2004  156.6350 N   0  3  0  0  0  0  0  0  0  0  0  0
  149.2675  139.1045  156.1145 C   0  0  0  0  0  0  0  0  0  0  0  0
  148.8038  134.7290  154.7011 N   0  5  0  0  0  0  0  0  0  0  0  0
  148.9944  133.6045  153.7823 C   0  0  1  0  0  0  0  0  0  0  0  0
  149.7179  132.4238  154.4595 C   0  0  0  0  0  0  0  0  0  0  0  0
  149.0822  131.1526  153.8644 C   0  0  0  0  0  0  0  0  0  0  0  0
  148.0455  131.6293  152.9286 N   0  3  1  0  0  0  0  0  0  0  0  0
  146.8856  130.7415  152.6933 C   0  0  0  0  0  0  0  0  0  0  0  0
  145.9818  131.3621  151.6088 C   0  0  0  0  0  0  0  0  0  0  0  0
  145.5899  132.8151  151.9493 C   0  0  0  0  0  0  0  0  0  0  0  0
  146.8335  133.6693  152.2671 C   0  0  0  0  0  0  0  0  0  0  0  0
  147.6561  132.9773  153.3738 C   0  0  2  0  0  0  0  0  0  0  0  0
  148.2410  136.7852  155.6198 H   0  0  0  0  0  0  0  0  0  0  0  0
  151.7433  136.8619  156.8306 H   0  0  0  0  0  0  0  0  0  0  0  0
  152.7628  138.8869  157.7306 H   0  0  0  0  0  0  0  0  0  0  0  0
  151.4702  141.2573  159.8065 H   0  0  0  0  0  0  0  0  0  0  0  0
  152.8750  140.4661  159.1281 H   0  0  0  0  0  0  0  0  0  0  0  0
  153.5067  142.5569  160.3156 H   0  0  0  0  0  0  0  0  0  0  0  0
  153.9568  142.5973  158.6278 H   0  0  0  0  0  0  0  0  0  0  0  0
  151.5007  143.9400  159.8627 H   0  0  0  0  0  0  0  0  0  0  0  0
  152.9243  144.7543  159.2507 H   0  0  0  0  0  0  0  0  0  0  0  0
  151.0524  144.7869  157.5780 H   0  0  0  0  0  0  0  0  0  0  0  0
  152.4601  143.9565  156.9592 H   0  0  0  0  0  0  0  0  0  0  0  0
  150.4873  142.6490  156.4196 H   0  0  0  0  0  0  0  0  0  0  0  0
  149.9335  142.6468  158.0888 H   0  0  0  0  0  0  0  0  0  0  0  0
  148.2861  139.2577  155.6892 H   0  0  0  0  0  0  0  0  0  0  0  0
  149.5384  133.8830  152.8780 H   0  0  0  0  0  0  0  0  0  0  0  0
  150.7932  132.4644  154.2827 H   0  0  0  0  0  0  0  0  0  0  0  0
  149.5656  132.4295  155.5403 H   0  0  0  0  0  0  0  0  0  0  0  0
  149.8093  130.5316  153.3398 H   0  0  0  0  0  0  0  0  0  0  0  0
  148.6339  130.5501  154.6567 H   0  0  0  0  0  0  0  0  0  0  0  0
  147.2348  129.7586  152.3754 H   0  0  0  0  0  0  0  0  0  0  0  0
  146.3301  130.6033  153.6222 H   0  0  0  0  0  0  0  0  0  0  0  0
  146.5065  131.3477  150.6525 H   0  0  0  0  0  0  0  0  0  0  0  0
  145.0862  130.7543  151.4763 H   0  0  0  0  0  0  0  0  0  0  0  0
  145.0318  133.2573  151.1236 H   0  0  0  0  0  0  0  0  0  0  0  0
  144.9204  132.8168  152.8102 H   0  0  0  0  0  0  0  0  0  0  0  0
  147.4270  133.7961  151.3596 H   0  0  0  0  0  0  0  0  0  0  0  0
  146.5222  134.6673  152.5810 H   0  0  0  0  0  0  0  0  0  0  0  0
  147.0314  132.8697  154.2643 H   0  0  0  0  0  0  0  0  0  0  0  0
  148.5099  131.7581  152.0410 H   0  0  0  0  0  0  0  0  0  0  0  0
  149.3519  141.0834  156.5933 H   0  0  0  0  0  0  0  0  0  0  0  0
  1  2  2  0  0  0  0
  2  3  1  0  0  0  0
  2 16  1  0  0  0  0
  3  4  1  0  0  0  0
  3 26  1  0  0  0  0
  4 15  1  0  0  0  0
  4  5  2  0  0  0  0
  5  6  1  0  0  0  0
  5 27  1  0  0  0  0
  6  7  2  0  0  0  0
  6 28  1  0  0  0  0
  7  8  1  0  0  0  0
  7 14  1  0  0  0  0
  8 13  1  0  0  0  0
  8  9  1  0  0  0  0
  9 10  1  0  0  0  0
  9 29  1  0  0  0  0
  9 30  1  0  0  0  0
 10 11  1  0  0  0  0
 10 31  1  0  0  0  0
 10 32  1  0  0  0  0
 11 12  1  0  0  0  0
 11 33  1  0  0  0  0
 11 34  1  0  0  0  0
 12 13  1  0  0  0  0
 12 35  1  0  0  0  0
 12 36  1  0  0  0  0
 13 37  1  0  0  0  0
 13 38  1  0  0  0  0
 14 15  2  0  0  0  0
 14 55  1  0  0  0  0
 15 39  1  0  0  0  0
 16 17  1  0  0  0  0
 17 25  1  0  0  0  0
 17 18  1  0  0  0  0
 17 40  1  0  0  0  0
 18 19  1  0  0  0  0
 18 41  1  0  0  0  0
 18 42  1  0  0  0  0
 19 20  1  0  0  0  0
 19 43  1  0  0  0  0
 19 44  1  0  0  0  0
 20 25  1  0  0  0  0
 20 21  1  0  0  0  0
 20 54  1  0  0  0  0
 21 22  1  0  0  0  0
 21 45  1  0  0  0  0
 21 46  1  0  0  0  0
 22 23  1  0  0  0  0
 22 47  1  0  0  0  0
 22 48  1  0  0  0  0
 23 24  1  0  0  0  0
 23 49  1  0  0  0  0
 23 50  1  0  0  0  0
 24 25  1  0  0  0  0
 24 51  1  0  0  0  0
 24 52  1  0  0  0  0
 25 53  1  0  0  0  0
M  CHG  1  14   1
M  CHG  1  16  -1
M  CHG  1  20   1
M  END
> <s_m_source_file>
AV-unprocessed.smi

> <i_m_source_file_index>
1645

> <i_lp_mmshare_version>
43012

> <i_f3d_flags>
0

> <s_epik_input>
W0NIMl0xW0NIMl1bQ0gyXVtDSDJdW0NASF0oTjEyKVtDQEBIXShbQ0gyXVtDSDJdMilbTkhdQyg9TylbTkhdYzNbY0hdW2NIXWMobltjSF0zKU40W0NIMl1bQ0gyXVtDSDJdW0NIMl1bQ0gyXTQ=

> <s_epik_cmdline>
J2VwaWtfcHl0aG9uJywgJy1waCcsICc3LjAnLCAnLXRuJywgJzgnLCAnLW1hJywgJzIwMCcsICctbWV0YWxfYmluZGluZycsICctaW1hZScsICc8aW5maWxlLm1hZT4nLCAnLW9tYWUnLCAnPG91dGZpbGUubWFlPic=

> <r_lp_tautomer_probability>
0.999994

> <r_epik_Ionization_Penalty>
8.55589

> <r_epik_Ionization_Penalty_Charging>
8.55589

> <r_epik_Ionization_Penalty_Neutral>
3.8092e-06

> <r_epik_State_Penalty>
8.15703

> <r_epik_Charging_Adjusted_Penalty>
16.7129

> <i_epik_Tot_Q>
1

> <i_epik_Tot_abs_Q>
3

> <r_epik_Metal_State_Penalty>
4.13781

> <b_epik_Metal_Only>
1

> <s_lp_Force_Field>
OPLS_2005

> <r_lp_Energy>
51.9528

> <b_lp_Chiralities_Consistent>
1

> <s_lp_Variant>
AV-unprocessed.smi:1645-24

> <Gold.Version>
5.8.1

> <Gold.Id.Protein>
6NUR|6NUR_protein|mol2

> <Gold.PLP.Fitness>
46.2640

> <Gold.PLP.PLP>
-42.0780

> <Gold.PLP.part.hbond>
-2.0000

> <Gold.PLP.part.metal>
0.0000

> <Gold.PLP.part.buried>
-3.9788

> <Gold.PLP.part.nonpolar>
-36.2579

> <Gold.PLP.part.repulsive>
0.3179

> <Gold.PLP.ligand.clash>
0.2395

> <Gold.PLP.ligand.torsion>
0.8249

> <Gold.PLP.Chemscore.Hbond>
1.9120

> <Gold.PLP.Chemscore.CHOScore>
0.0000

> <Gold.PLP.Chemscore.Metal>
0.0000

> <Gold.Chemscore.Hbonds>
donor molecule, donor type, donor heavy atom, donor atom, acceptor molecule, acceptor atom, score
      L1  H    20    54       P1 10747  0.90
      P1  H 10752 10763       L1     1  1.00

> <Gold.PLP.Chemscore.Internal.Correction>
0.3394

> <Gold.Rescore>
     Score         DG    S(hbond)    S(metal)    S(lipo)     H(rot)  DE(clash)    DE(int)     intcor
     21.22     -22.94       1.85        0.00     118.38       1.00       0.13       1.59       ----

> <Gold.Chemscore.Fitness>
21.2169

> <Gold.Chemscore.DG>
-22.9368

> <Gold.Chemscore.ZeroCoef>
-5.4800

> <Gold.Chemscore.Hbond>
1.8463

> <Gold.Chemscore.Metal>
0.0000

> <Gold.Chemscore.Lipo>
118.3759

> <Gold.Chemscore.Internal_Hbond>
0.0000

> <Gold.Chemscore.DEClash>
0.1251

> <Gold.Chemscore.DEInternal>
1.5948

> <Gold.Chemscore.Rot>
1.0000

> <Gold.Chemscore.Internal.Correction>
   9.000000E+99

> <Gold.Chemscore.Hbonds>
donor molecule, donor type, donor heavy atom, donor atom, acceptor molecule, acceptor atom, score
      L1  H    20    54       P1 10747  0.83
      P1  H 10752 10763       L1     1  0.97

> <Gold.Chemscore.Hbond.Weighted>
-6.1668

> <Gold.Chemscore.Metal.Weighted>
-0.0000

> <Gold.Chemscore.Lipo.Weighted>
-13.8500

> <Gold.Chemscore.Internal_Hbond.Weighted>
0.0000

> <Gold.Chemscore.DEClash.Weighted>
0.1251

> <Gold.Chemscore.DEInternal.Weighted>
1.5948

> <Gold.Chemscore.Rot.Weighted>
2.5600

> <Gold.Chemscore.Internal.Correction.Weighted>
   9.000000E+99

> <Gold.Protein.RotatedTorsions>
[ 6907 6896 6895 6894 ] final -162.64 input  -60.11 | X-H torsion
[ 7974 7965 7964 7962 ] final  124.60 input  175.53 | X-H torsion
[ 8008 7997 7996 7995 ] final -134.98 input   59.86 | X-H torsion
[ 10167 10162 10161 10158 ] final -154.49 input  -65.29 | X-H torsion
[ 10718 10713 10712 10709 ] final   60.26 input   66.30 | X-H torsion
[ 10763 10752 10751 10750 ] final   58.23 input  -60.55 | X-H torsion
[ 11005 11000 10999 10996 ] final -124.01 input  -57.11 | X-H torsion

> <Gold.Protein.ActiveResidues>
 VAL166  LYS551  ARG553  GLY616  TRP617  ASP618  TYR619  PRO620  LYS621  CYS622 
 ASP623  PHE694  ASN695  SER759  ASP760  ASP761  ALA762  ILE779  LEU786  VAL792 
 PHE793  MET794  SER795  GLU796  ALA797  LYS798  CYS799  TRP800  GLU811  SER814 

> <Gold.Protein.RotatedAtoms>
  151.3835  133.3813  159.2712 H   0  0  0  0  0  0  0  0  0  0  0  0  # atno 6907 bound_to 6896
  150.9559  134.8954  159.7711 H   0  0  0  0  0  0  0  0  0  0  0  0  # atno 6908 bound_to 6896
  152.5130  134.3792  159.9397 H   0  0  0  0  0  0  0  0  0  0  0  0  # atno 6909 bound_to 6896
  145.0825  139.3646  143.4902 H   0  0  0  0  0  0  0  0  0  0  0  0  # atno 7974 bound_to 7965
  155.3710  140.0488  157.3045 H   0  0  0  0  0  0  0  0  0  0  0  0  # atno 8008 bound_to 7997
  154.5130  140.2198  155.9083 H   0  0  0  0  0  0  0  0  0  0  0  0  # atno 8009 bound_to 7997
  156.1604  140.3117  155.8803 H   0  0  0  0  0  0  0  0  0  0  0  0  # atno 8010 bound_to 7997
  139.7009  143.9265  152.2428 H   0  0  0  0  0  0  0  0  0  0  0  0  # atno 10167 bound_to 10162
  157.5739  130.8929  149.9313 H   0  0  0  0  0  0  0  0  0  0  0  0  # atno 10718 bound_to 10713
  152.9866  135.5614  154.5519 H   0  0  0  0  0  0  0  0  0  0  0  0  # atno 10763 bound_to 10752
  154.4955  135.2795  155.1465 H   0  0  0  0  0  0  0  0  0  0  0  0  # atno 10764 bound_to 10752
  154.2917  135.6325  153.5441 H   0  0  0  0  0  0  0  0  0  0  0  0  # atno 10765 bound_to 10752
  140.9874  134.0587  157.3694 H   0  0  0  0  0  0  0  0  0  0  0  0  # atno 11005 bound_to 11000
  146.3531  140.0622  142.8628 LP  0  0  0  0  0  0  0  0  0  0  0  0  # atno 17320 bound_to 7965
  145.1161  140.9434  143.4628 LP  0  0  0  0  0  0  0  0  0  0  0  0  # atno 17321 bound_to 7965
  139.9107  144.6858  150.8565 LP  0  0  0  0  0  0  0  0  0  0  0  0  # atno 17342 bound_to 10162
  140.7709  143.3445  151.2138 LP  0  0  0  0  0  0  0  0  0  0  0  0  # atno 17343 bound_to 10162
  156.0784  130.3676  150.0631 LP  0  0  0  0  0  0  0  0  0  0  0  0  # atno 17370 bound_to 10713
  156.8780  130.9547  151.3602 LP  0  0  0  0  0  0  0  0  0  0  0  0  # atno 17371 bound_to 10713
  139.8977  135.0151  156.7112 LP  0  0  0  0  0  0  0  0  0  0  0  0  # atno 17394 bound_to 11000
  140.7092  133.9238  155.8074 LP  0  0  0  0  0  0  0  0  0  0  0  0  # atno 17395 bound_to 11000

$$$$
