AV-unprocessed.smi:2002|AV-procd|sdf|8115|dock3
  -GOLD-   2272010343D 1   1.00000     0.00000
 Structure written by MMmdl.
 39 40  0  0  0  0  0  0  0  0  2 V2000
  145.3402  132.3890  150.0302 C   0  0  0  0  0  0  0  0  0  0  0  0
  144.0831  133.1361  149.5650 C   0  0  0  0  0  0  0  0  0  0  0  0
  143.7183  134.2436  150.4799 N   0  3  1  0  0  0  0  0  0  0  0  0
  143.4635  133.8394  151.8803 C   0  0  0  0  0  0  0  0  0  0  0  0
  143.8255  135.0576  152.7235 C   0  0  0  0  0  0  0  0  0  0  0  0
  145.0302  135.6324  151.9795 C   0  0  2  0  0  0  0  0  0  0  0  0
  145.3465  137.1113  152.2750 C   0  0  0  0  0  0  0  0  0  0  0  0
  146.7646  137.3308  152.5428 N   0  0  0  0  0  0  0  0  0  0  0  0
  147.2652  138.2806  153.3467 C   0  0  0  0  0  0  0  0  0  0  0  0
  146.5661  139.0673  153.9860 O   0  0  0  0  0  0  0  0  0  0  0  0
  148.6088  138.2537  153.3574 N   0  0  0  0  0  0  0  0  0  0  0  0
  149.4844  139.1085  154.0745 C   0  0  0  0  0  0  0  0  0  0  0  0
  148.9911  140.2578  154.7475 C   0  0  0  0  0  0  0  0  0  0  0  0
  150.1179  140.7976  155.3011 C   0  0  0  0  0  0  0  0  0  0  0  0
  150.3572  142.0045  156.1419 C   0  0  0  0  0  0  0  0  0  0  0  0
  151.2065  140.0424  154.9914 O   0  0  0  0  0  0  0  0  0  0  0  0
  150.7940  138.9607  154.2040 N   0  0  0  0  0  0  0  0  0  0  0  0
  144.6939  135.3605  150.5052 C   0  0  0  0  0  0  0  0  0  0  0  0
  145.5598  131.5540  149.3645 H   0  0  0  0  0  0  0  0  0  0  0  0
  145.2098  131.9855  151.0348 H   0  0  0  0  0  0  0  0  0  0  0  0
  146.2160  133.0383  150.0389 H   0  0  0  0  0  0  0  0  0  0  0  0
  144.2184  133.5180  148.5521 H   0  0  0  0  0  0  0  0  0  0  0  0
  143.2539  132.4284  149.5257 H   0  0  0  0  0  0  0  0  0  0  0  0
  142.4306  133.5230  152.0271 H   0  0  0  0  0  0  0  0  0  0  0  0
  144.1132  133.0056  152.1522 H   0  0  0  0  0  0  0  0  0  0  0  0
  142.9997  135.7707  152.7197 H   0  0  0  0  0  0  0  0  0  0  0  0
  144.0467  134.8007  153.7598 H   0  0  0  0  0  0  0  0  0  0  0  0
  145.9010  135.0279  152.2395 H   0  0  0  0  0  0  0  0  0  0  0  0
  145.0785  137.7190  151.4104 H   0  0  0  0  0  0  0  0  0  0  0  0
  144.7358  137.4766  153.1026 H   0  0  0  0  0  0  0  0  0  0  0  0
  147.4153  136.7281  152.0600 H   0  0  0  0  0  0  0  0  0  0  0  0
  149.0550  137.5541  152.7830 H   0  0  0  0  0  0  0  0  0  0  0  0
  147.9790  140.6277  154.8163 H   0  0  0  0  0  0  0  0  0  0  0  0
  149.4372  142.5734  156.2770 H   0  0  0  0  0  0  0  0  0  0  0  0
  151.0943  142.6597  155.6774 H   0  0  0  0  0  0  0  0  0  0  0  0
  150.7278  141.7215  157.1273 H   0  0  0  0  0  0  0  0  0  0  0  0
  145.5976  135.1418  149.9342 H   0  0  0  0  0  0  0  0  0  0  0  0
  144.2199  136.2279  150.0440 H   0  0  0  0  0  0  0  0  0  0  0  0
  142.8569  134.6419  150.1338 H   0  0  0  0  0  0  0  0  0  0  0  0
  1  2  1  0  0  0  0
  1 19  1  0  0  0  0
  1 20  1  0  0  0  0
  1 21  1  0  0  0  0
  2  3  1  0  0  0  0
  2 22  1  0  0  0  0
  2 23  1  0  0  0  0
  3 18  1  0  0  0  0
  3  4  1  0  0  0  0
  3 39  1  0  0  0  0
  4  5  1  0  0  0  0
  4 24  1  0  0  0  0
  4 25  1  0  0  0  0
  5  6  1  0  0  0  0
  5 26  1  0  0  0  0
  5 27  1  0  0  0  0
  6  7  1  0  0  0  0
  6 18  1  0  0  0  0
  6 28  1  0  0  0  0
  7  8  1  0  0  0  0
  7 29  1  0  0  0  0
  7 30  1  0  0  0  0
  8  9  1  0  0  0  0
  8 31  1  0  0  0  0
  9 10  2  0  0  0  0
  9 11  1  0  0  0  0
 11 12  1  0  0  0  0
 11 32  1  0  0  0  0
 12 17  2  0  0  0  0
 12 13  1  0  0  0  0
 13 14  2  0  0  0  0
 13 33  1  0  0  0  0
 14 15  1  0  0  0  0
 14 16  1  0  0  0  0
 15 34  1  0  0  0  0
 15 35  1  0  0  0  0
 15 36  1  0  0  0  0
 16 17  1  0  0  0  0
 18 37  1  0  0  0  0
 18 38  1  0  0  0  0
M  CHG  1   3   1
M  END
> <s_m_source_file>
AV-unprocessed.smi

> <i_m_source_file_index>
2002

> <i_lp_mmshare_version>
43012

> <i_f3d_flags>
0

> <s_epik_input>
W0NIM11bQ0gyXU4xW0NIMl1bQ0gyXVtDQEhdKFtDSDJdMSlbQ0gyXVtOSF1DKD1PKVtOSF1jMltjSF1jKFtDSDNdKW9uMg==

> <s_epik_cmdline>
J2VwaWtfcHl0aG9uJywgJy1waCcsICc3LjAnLCAnLXRuJywgJzgnLCAnLW1hJywgJzIwMCcsICctbWV0YWxfYmluZGluZycsICctaW1hZScsICc8aW5maWxlLm1hZT4nLCAnLW9tYWUnLCAnPG91dGZpbGUubWFlPic=

> <r_epik_Ionization_Penalty>
0.000632871

> <r_epik_Ionization_Penalty_Charging>
0.000610951

> <r_epik_Ionization_Penalty_Neutral>
2.19198e-05

> <r_epik_State_Penalty>
0.000385263

> <r_epik_Charging_Adjusted_Penalty>
0.000996214

> <i_epik_Tot_Q>
1

> <i_epik_Tot_abs_Q>
1

> <r_epik_Metal_State_Penalty>
-0

> <b_epik_Metal_Only>
0

> <s_lp_Force_Field>
OPLS_2005

> <r_lp_Energy>
25.0308

> <b_lp_Chiralities_Consistent>
1

> <s_lp_Variant>
AV-unprocessed.smi:2002-3

> <Gold.Version>
5.8.1

> <Gold.Id.Protein>
6NUR|6NUR_protein|mol2

> <Gold.PLP.Fitness>
43.2717

> <Gold.PLP.PLP>
-31.9869

> <Gold.PLP.part.hbond>
-5.5832

> <Gold.PLP.part.metal>
0.0000

> <Gold.PLP.part.buried>
-0.5635

> <Gold.PLP.part.nonpolar>
-25.9918

> <Gold.PLP.part.repulsive>
0.4975

> <Gold.PLP.ligand.clash>
0.0000

> <Gold.PLP.ligand.torsion>
0.8912

> <Gold.PLP.Chemscore.Hbond>
4.3520

> <Gold.PLP.Chemscore.CHOScore>
0.0000

> <Gold.PLP.Chemscore.Metal>
0.0000

> <Gold.Chemscore.Hbonds>
donor molecule, donor type, donor heavy atom, donor atom, acceptor molecule, acceptor atom, score
      L1  H     3    39       P1 10186  2.00
      L1  H     8    31       P1  7948  0.99
      L1  H    11    32       P1  7948  1.00
      P1  H  7989  7998       L1    16  0.36

> <Gold.PLP.Chemscore.Internal.Correction>
0.0113

> <Gold.Rescore>
     Score         DG    S(hbond)    S(metal)    S(lipo)     H(rot)  DE(clash)    DE(int)     intcor
     16.41     -18.78       2.82        0.00      66.47       1.52       0.09       2.28       ----

> <Gold.Chemscore.Fitness>
16.4121

> <Gold.Chemscore.DG>
-18.7753

> <Gold.Chemscore.ZeroCoef>
-5.4800

> <Gold.Chemscore.Hbond>
2.8190

> <Gold.Chemscore.Metal>
0.0000

> <Gold.Chemscore.Lipo>
66.4697

> <Gold.Chemscore.Internal_Hbond>
0.0000

> <Gold.Chemscore.DEClash>
0.0869

> <Gold.Chemscore.DEInternal>
2.2763

> <Gold.Chemscore.Rot>
1.5223

> <Gold.Chemscore.Internal.Correction>
   9.000000E+99

> <Gold.Chemscore.Hbonds>
donor molecule, donor type, donor heavy atom, donor atom, acceptor molecule, acceptor atom, score
      L1  H     3    39       P1 10186  0.62
      L1  H     8    31       P1  7948  0.92
      L1  H    11    32       P1  7948  0.94

> <Gold.Chemscore.Hbond.Weighted>
-9.4154

> <Gold.Chemscore.Metal.Weighted>
-0.0000

> <Gold.Chemscore.Lipo.Weighted>
-7.7770

> <Gold.Chemscore.Internal_Hbond.Weighted>
0.0000

> <Gold.Chemscore.DEClash.Weighted>
0.0869

> <Gold.Chemscore.DEInternal.Weighted>
2.2763

> <Gold.Chemscore.Rot.Weighted>
3.8971

> <Gold.Chemscore.Internal.Correction.Weighted>
   9.000000E+99

> <Gold.Protein.RotatedTorsions>
[ 6907 6896 6895 6894 ] final -128.07 input  -60.11 | X-H torsion
[ 7974 7965 7964 7962 ] final -170.36 input  175.53 | X-H torsion
[ 8008 7997 7996 7995 ] final  -49.79 input   59.86 | X-H torsion
[ 10167 10162 10161 10158 ] final   57.29 input  -65.29 | X-H torsion
[ 10718 10713 10712 10709 ] final   29.27 input   66.30 | X-H torsion
[ 10763 10752 10751 10750 ] final  -93.74 input  -60.55 | X-H torsion
[ 11005 11000 10999 10996 ] final  124.58 input  -57.11 | X-H torsion

> <Gold.Protein.ActiveResidues>
 VAL166  LYS551  ARG553  GLY616  TRP617  ASP618  TYR619  PRO620  LYS621  CYS622 
 ASP623  PHE694  ASN695  SER759  ASP760  ASP761  ALA762  ILE779  LEU786  VAL792 
 PHE793  MET794  SER795  GLU796  ALA797  LYS798  CYS799  TRP800  GLU811  SER814 

> <Gold.Protein.RotatedAtoms>
  150.9140  133.6962  159.2847 H   0  0  0  0  0  0  0  0  0  0  0  0  # atno 6907 bound_to 6896
  151.4439  135.1022  159.9688 H   0  0  0  0  0  0  0  0  0  0  0  0  # atno 6908 bound_to 6896
  152.4945  133.8542  159.7272 H   0  0  0  0  0  0  0  0  0  0  0  0  # atno 6909 bound_to 6896
  144.7171  140.2083  143.6330 H   0  0  0  0  0  0  0  0  0  0  0  0  # atno 7974 bound_to 7965
  154.4050  140.1288  156.4560 H   0  0  0  0  0  0  0  0  0  0  0  0  # atno 8008 bound_to 7997
  155.7319  140.3491  155.5044 H   0  0  0  0  0  0  0  0  0  0  0  0  # atno 8009 bound_to 7997
  155.9119  140.1037  157.1263 H   0  0  0  0  0  0  0  0  0  0  0  0  # atno 8010 bound_to 7997
  140.1996  144.4001  150.6535 H   0  0  0  0  0  0  0  0  0  0  0  0  # atno 10167 bound_to 10162
  157.2443  130.7084  149.6374 H   0  0  0  0  0  0  0  0  0  0  0  0  # atno 10718 bound_to 10713
  154.6988  135.5183  153.8497 H   0  0  0  0  0  0  0  0  0  0  0  0  # atno 10763 bound_to 10752
  153.0688  135.6594  154.0304 H   0  0  0  0  0  0  0  0  0  0  0  0  # atno 10764 bound_to 10752
  154.0166  135.2997  155.3365 H   0  0  0  0  0  0  0  0  0  0  0  0  # atno 10765 bound_to 10752
  139.9365  134.9639  156.8431 H   0  0  0  0  0  0  0  0  0  0  0  0  # atno 11005 bound_to 11000
  145.8615  139.2225  143.1714 LP  0  0  0  0  0  0  0  0  0  0  0  0  # atno 17320 bound_to 7965
  146.0169  140.8384  142.9943 LP  0  0  0  0  0  0  0  0  0  0  0  0  # atno 17321 bound_to 7965
  140.6399  143.2201  151.6312 LP  0  0  0  0  0  0  0  0  0  0  0  0  # atno 17342 bound_to 10162
  139.5222  144.3169  152.0945 LP  0  0  0  0  0  0  0  0  0  0  0  0  # atno 17343 bound_to 10162
  155.9668  130.4448  150.5475 LP  0  0  0  0  0  0  0  0  0  0  0  0  # atno 17370 bound_to 10713
  157.3345  131.0705  151.1835 LP  0  0  0  0  0  0  0  0  0  0  0  0  # atno 17371 bound_to 10713
  140.6061  134.0126  155.7557 LP  0  0  0  0  0  0  0  0  0  0  0  0  # atno 17394 bound_to 11000
  141.0982  133.9810  157.3125 LP  0  0  0  0  0  0  0  0  0  0  0  0  # atno 17395 bound_to 11000

$$$$
