#       Name:                AV-unprocessed.smi:1240
#       Creating user name   scv26
#       Creation time:       Fri Mar 27 04:29:47 2020


#       File generated by GOLD software.
#

@<TRIPOS>MOLECULE
AV-unprocessed.smi:1240
    55    57     1
SMALL
NO_CHARGES


@<TRIPOS>ATOM
      1 ****        -2.8881   0.1402  -0.5725 O.2            1 S1                 0.0000
      2 ****        -2.1178   0.8928   0.0224 C.2            1 S1                 0.0000
      3 ****        -0.9492   0.4931   0.5413 N.am           1 S1                 0.0000
      4 ****        -0.4064  -0.8569   0.4425 C.3            1 S1                 0.0000
      5 ****         1.1429  -0.8816   0.5411 C.3            1 S1                 0.0000
      6 ****         1.8565  -0.1712  -0.6449 C.3            1 S1                 0.0000
      7 ****         3.3741  -0.2537  -0.5982 C.3            1 S1                 0.0000
      8 ****         3.7854   0.8510  -1.5623 C.3            1 S1                 0.0000
      9 ****         2.8245   1.8796  -1.3707 O.3            1 S1                 0.0000
     10 ****         1.6673   1.3505  -0.7306 C.3            1 S1                 0.0000
     11 ****         1.6692  -2.2726   0.6885 N.4            1 S1                 1.0000
     12 ****         1.5321  -2.8320   2.0556 C.3            1 S1                 0.0000
     13 ****         2.2738  -4.1763   2.1534 C.3            1 S1                 0.0000
     14 ****         1.7803  -5.0720   1.1641 O.3            1 S1                 0.0000
     15 ****         1.9811  -4.5777  -0.1548 C.3            1 S1                 0.0000
     16 ****         1.2156  -3.2556  -0.3285 C.3            1 S1                 0.0000
     17 ****        -2.3279   2.2006   0.2523 N.am           1 S1                 0.0000
     18 ****        -3.4110   3.0174  -0.1736 C.ar           1 S1                 0.0000
     19 ****        -3.6095   4.2405   0.5049 C.ar           1 S1                 0.0000
     20 ****        -4.6576   5.0953   0.1072 C.ar           1 S1                 0.0000
     21 ****        -5.4571   4.7447  -0.9226 N.pl3          1 S1                 1.0000
     22 ****        -5.2994   3.5931  -1.6097 C.ar           1 S1                 0.0000
     23 ****        -4.2686   2.6980  -1.2577 C.ar           1 S1                 0.0000
     24 ****        -0.3853   1.1760   1.0262 H              1 S1                 0.0000
     25 ****        -0.8562  -1.4458   1.2418 H              1 S1                 0.0000
     26 ****        -0.7233  -1.3087  -0.4988 H              1 S1                 0.0000
     27 ****         1.4277  -0.3433   1.4468 H              1 S1                 0.0000
     28 ****         1.5212  -0.6031  -1.5889 H              1 S1                 0.0000
     29 ****         3.7399  -0.0297   0.4051 H              1 S1                 0.0000
     30 ****         3.7627  -1.2284  -0.8948 H              1 S1                 0.0000
     31 ****         4.7991   1.2103  -1.3846 H              1 S1                 0.0000
     32 ****         3.7232   0.5005  -2.5934 H              1 S1                 0.0000
     33 ****         0.7691   1.6241  -1.2844 H              1 S1                 0.0000
     34 ****         1.6008   1.7944   0.2633 H              1 S1                 0.0000
     35 ****         1.9427  -2.1367   2.7885 H              1 S1                 0.0000
     36 ****         0.4794  -2.9743   2.3013 H              1 S1                 0.0000
     37 ****         3.3492  -4.0376   2.0303 H              1 S1                 0.0000
     38 ****         2.1208  -4.6186   3.1381 H              1 S1                 0.0000
     39 ****         3.0463  -4.4403  -0.3479 H              1 S1                 0.0000
     40 ****         1.6204  -5.3183  -0.8687 H              1 S1                 0.0000
     41 ****         0.1466  -3.4445  -0.2239 H              1 S1                 0.0000
     42 ****         1.3797  -2.8710  -1.3346 H              1 S1                 0.0000
     43 ****        -1.6421   2.6629   0.8313 H              1 S1                 0.0000
     44 ****        -2.9681   4.5241   1.3269 H              1 S1                 0.0000
     45 ****        -4.8762   6.0432   0.5769 H              1 S1                 0.0000
     46 ****        -5.9938   3.4258  -2.4201 H              1 S1                 0.0000
     47 ****        -4.1506   1.7941  -1.8351 H              1 S1                 0.0000
     48 ****         2.6655  -2.1822   0.5484 H              1 S1                 0.0000
     49 ****        -6.2088   5.3783  -1.1961 H              1 S1                 0.0000
     50 ****        -2.6539  -0.8250  -0.6888 LP             1 S1                 0.0000
     51 ****        -3.7484   0.4937  -0.9398 LP             1 S1                 0.0000
     52 ****         2.5668   2.2618  -2.2581 LP             1 S1                 0.0000
     53 ****         3.2191   2.5995  -0.7997 LP             1 S1                 0.0000
     54 ****         0.8006  -5.2073   1.3118 LP             1 S1                 0.0000
     55 ****         2.2553  -5.9472   1.2560 LP             1 S1                 0.0000
@<TRIPOS>BOND
    1    1    2 2     
    2    2    3 am    
    3    2   17 am    
    4    3    4 1     
    5    3   24 1     
    6    4    5 1     
    7    4   25 1     
    8    4   26 1     
    9    5    6 1     
   10    5   11 1     
   11    5   27 1     
   12    6   10 1     
   13    6    7 1     
   14    6   28 1     
   15    7    8 1     
   16    7   29 1     
   17    7   30 1     
   18    8    9 1     
   19    8   31 1     
   20    8   32 1     
   21    9   10 1     
   22   10   33 1     
   23   10   34 1     
   24   11   16 1     
   25   11   12 1     
   26   11   48 1     
   27   12   13 1     
   28   12   35 1     
   29   12   36 1     
   30   13   14 1     
   31   13   37 1     
   32   13   38 1     
   33   14   15 1     
   34   15   16 1     
   35   15   39 1     
   36   15   40 1     
   37   16   41 1     
   38   16   42 1     
   39   17   18 1     
   40   17   43 1     
   41   18   23 ar    
   42   18   19 ar    
   43   19   20 ar    
   44   19   44 1     
   45   20   21 ar    
   46   20   45 1     
   47   21   22 ar    
   48   21   49 1     
   49   22   23 ar    
   50   22   46 1     
   51   23   47 1     
   52    1   50 1     
   53    1   51 1     
   54    9   52 1     
   55    9   53 1     
   56   14   54 1     
   57   14   55 1     
@<TRIPOS>SUBSTRUCTURE
      1 S1             1
@<TRIPOS>SET
LONE_PAIRS      STATIC     ATOMS    <user>   **** ""
6 50 51 52 53 54 55
DONOR_HYDROGENS      STATIC     ATOMS    <user>   **** ""
4 24 48 43 49
ATOM$BLUE        STATIC     ATOMS    COLORGROUP SYSTEM
6 50 51 52 53 54 55
ATOM$RED        STATIC     ATOMS    COLORGROUP SYSTEM
4 24 48 43 49
