AV-unprocessed.smi:2410|AV-procd|sdf|9529|dock6
  -GOLD-   2272013163D 1   1.00000     0.00000
 Structure written by MMmdl.
 47 49  0  0  0  0  0  0  0  0  2 V2000
  152.1817  144.5185  161.1347 C   0  0  0  0  0  0  0  0  0  0  0  0
  152.0600  143.5003  160.0139 C   0  0  0  0  0  0  0  0  0  0  0  0
  151.2902  143.8372  158.8772 C   0  0  0  0  0  0  0  0  0  0  0  0
  151.1986  142.8854  157.8684 C   0  0  0  0  0  0  0  0  0  0  0  0
  150.5282  142.9088  156.6431 N   0  3  0  0  0  0  0  0  0  0  0  0
  150.7350  141.7320  155.9889 C   0  0  0  0  0  0  0  0  0  0  0  0
  151.5269  140.9582  156.7796 N   0  0  0  0  0  0  0  0  0  0  0  0
  152.0532  139.6046  156.5646 C   0  0  0  0  0  0  0  0  0  0  0  0
  151.0816  138.7115  155.7690 C   0  0  1  0  0  0  0  0  0  0  0  0
  151.1189  139.1160  154.4141 O   0  0  0  0  0  0  0  0  0  0  0  0
  151.4671  137.2191  155.8601 C   0  0  0  0  0  0  0  0  0  0  0  0
  150.2976  136.3626  156.1165 N   0  0  0  0  0  0  0  0  0  0  0  0
  149.5783  135.9360  154.9886 C   0  0  0  0  0  0  0  0  0  0  0  0
  148.5360  135.1786  155.0949 N   0  0  0  0  0  0  0  0  0  0  0  0
  148.0974  134.7686  156.3575 C   0  0  0  0  0  0  0  0  0  0  0  0
  146.8680  133.8775  156.3667 C   0  0  0  0  0  0  0  0  0  0  0  0
  148.7437  135.1565  157.4907 C   0  0  0  0  0  0  0  0  0  0  0  0
  148.3109  134.7432  158.8918 C   0  0  0  0  0  0  0  0  0  0  0  0
  149.9287  136.0230  157.3859 C   0  0  0  0  0  0  0  0  0  0  0  0
  150.5527  136.4268  158.3699 O   0  0  0  0  0  0  0  0  0  0  0  0
  151.8408  141.6360  157.9618 C   0  0  0  0  0  0  0  0  0  0  0  0
  152.6017  141.2865  159.0746 C   0  0  0  0  0  0  0  0  0  0  0  0
  152.7060  142.2404  160.1119 C   0  0  0  0  0  0  0  0  0  0  0  0
  153.5301  141.8874  161.3383 C   0  0  0  0  0  0  0  0  0  0  0  0
  151.6527  145.4416  160.8951 H   0  0  0  0  0  0  0  0  0  0  0  0
  153.2273  144.7715  161.3118 H   0  0  0  0  0  0  0  0  0  0  0  0
  151.7589  144.1223  162.0583 H   0  0  0  0  0  0  0  0  0  0  0  0
  150.7946  144.7935  158.7962 H   0  0  0  0  0  0  0  0  0  0  0  0
  150.3403  141.4613  155.0201 H   0  0  0  0  0  0  0  0  0  0  0  0
  153.0088  139.6947  156.0460 H   0  0  0  0  0  0  0  0  0  0  0  0
  152.2711  139.1709  157.5415 H   0  0  0  0  0  0  0  0  0  0  0  0
  150.0697  138.8657  156.1447 H   0  0  0  0  0  0  0  0  0  0  0  0
  151.0827  138.3453  153.8685 H   0  0  0  0  0  0  0  0  0  0  0  0
  152.0265  136.9093  154.9746 H   0  0  0  0  0  0  0  0  0  0  0  0
  152.1719  137.0744  156.6809 H   0  0  0  0  0  0  0  0  0  0  0  0
  149.9572  136.2887  154.0278 H   0  0  0  0  0  0  0  0  0  0  0  0
  147.1005  132.9102  156.8129 H   0  0  0  0  0  0  0  0  0  0  0  0
  146.4987  133.6992  155.3560 H   0  0  0  0  0  0  0  0  0  0  0  0
  146.0636  134.3418  156.9381 H   0  0  0  0  0  0  0  0  0  0  0  0
  148.0817  135.6260  159.4898 H   0  0  0  0  0  0  0  0  0  0  0  0
  149.1140  134.1968  159.3875 H   0  0  0  0  0  0  0  0  0  0  0  0
  147.4285  134.1054  158.8981 H   0  0  0  0  0  0  0  0  0  0  0  0
  153.0923  140.3267  159.1484 H   0  0  0  0  0  0  0  0  0  0  0  0
  153.9267  140.8736  161.2736 H   0  0  0  0  0  0  0  0  0  0  0  0
  152.9226  141.9492  162.2413 H   0  0  0  0  0  0  0  0  0  0  0  0
  154.3738  142.5702  161.4397 H   0  0  0  0  0  0  0  0  0  0  0  0
  149.9693  143.6697  156.2784 H   0  0  0  0  0  0  0  0  0  0  0  0
  1  2  1  0  0  0  0
  1 25  1  0  0  0  0
  1 26  1  0  0  0  0
  1 27  1  0  0  0  0
  2 23  1  0  0  0  0
  2  3  2  0  0  0  0
  3  4  1  0  0  0  0
  3 28  1  0  0  0  0
  4 21  2  0  0  0  0
  4  5  1  0  0  0  0
  5  6  2  0  0  0  0
  5 47  1  0  0  0  0
  6  7  1  0  0  0  0
  6 29  1  0  0  0  0
  7  8  1  0  0  0  0
  7 21  1  0  0  0  0
  8  9  1  0  0  0  0
  8 30  1  0  0  0  0
  8 31  1  0  0  0  0
  9 10  1  0  0  0  0
  9 11  1  0  0  0  0
  9 32  1  0  0  0  0
 10 33  1  0  0  0  0
 11 12  1  0  0  0  0
 11 34  1  0  0  0  0
 11 35  1  0  0  0  0
 12 19  1  0  0  0  0
 12 13  1  0  0  0  0
 13 14  2  0  0  0  0
 13 36  1  0  0  0  0
 14 15  1  0  0  0  0
 15 16  1  0  0  0  0
 15 17  2  0  0  0  0
 16 37  1  0  0  0  0
 16 38  1  0  0  0  0
 16 39  1  0  0  0  0
 17 18  1  0  0  0  0
 17 19  1  0  0  0  0
 18 40  1  0  0  0  0
 18 41  1  0  0  0  0
 18 42  1  0  0  0  0
 19 20  2  0  0  0  0
 21 22  1  0  0  0  0
 22 23  2  0  0  0  0
 22 43  1  0  0  0  0
 23 24  1  0  0  0  0
 24 44  1  0  0  0  0
 24 45  1  0  0  0  0
 24 46  1  0  0  0  0
M  CHG  1   5   1
M  END
> <s_m_source_file>
AV-unprocessed.smi

> <i_m_source_file_index>
2410

> <i_lp_mmshare_version>
43012

> <i_f3d_flags>
0

> <s_epik_input>
W0NIM11jKFtjSF0xKWMoW0NIM10pW2NIXWMoYzEyKW4oW2NIXW4yKVtDSDJdW0NASF0oW09IXSlbQ0gyXW4zW2NIXW5jKFtDSDNdKWMoW0NIM10pYzM9Tw==

> <s_epik_cmdline>
J2VwaWtfcHl0aG9uJywgJy1waCcsICc3LjAnLCAnLXRuJywgJzgnLCAnLW1hJywgJzIwMCcsICctbWV0YWxfYmluZGluZycsICctaW1hZScsICc8aW5maWxlLm1hZT4nLCAnLW9tYWUnLCAnPG91dGZpbGUubWFlPic=

> <r_lp_tautomer_probability>
1

> <r_epik_Ionization_Penalty>
1.03571

> <r_epik_Ionization_Penalty_Charging>
1.03568

> <r_epik_Ionization_Penalty_Neutral>
3.18232e-05

> <r_epik_State_Penalty>
1.08724

> <r_epik_Charging_Adjusted_Penalty>
2.12292

> <i_epik_Tot_Q>
1

> <i_epik_Tot_abs_Q>
1

> <r_epik_Metal_State_Penalty>
1.18374

> <b_epik_Metal_Only>
0

> <s_lp_Force_Field>
OPLS_2005

> <r_lp_Energy>
24.5117

> <b_lp_Chiralities_Consistent>
1

> <s_lp_Variant>
AV-unprocessed.smi:2410-4

> <Gold.Version>
5.8.1

> <Gold.Id.Protein>
6NUR|6NUR_protein|mol2

> <Gold.PLP.Fitness>
51.8574

> <Gold.PLP.PLP>
-40.2039

> <Gold.PLP.part.hbond>
-3.0000

> <Gold.PLP.part.metal>
0.0000

> <Gold.PLP.part.buried>
-5.6688

> <Gold.PLP.part.nonpolar>
-31.4911

> <Gold.PLP.part.repulsive>
0.1635

> <Gold.PLP.ligand.clash>
0.0000

> <Gold.PLP.ligand.torsion>
1.4765

> <Gold.PLP.Chemscore.Hbond>
3.8649

> <Gold.PLP.Chemscore.CHOScore>
1.0000

> <Gold.PLP.Chemscore.Metal>
0.0000

> <Gold.Chemscore.Hbonds>
donor molecule, donor type, donor heavy atom, donor atom, acceptor molecule, acceptor atom, score
      L1  H     5    47       P1  8028  2.00
      P1  H  6896  6907       L1    20  0.84
      P1  H  7989  7998       L1    10  0.99
      L1  C    13    36       P1  7948  1.00

> <Gold.PLP.Chemscore.Internal.Correction>
0.0120

> <Gold.Rescore>
     Score         DG    S(hbond)    S(metal)    S(lipo)     H(rot)  DE(clash)    DE(int)     intcor
     19.13     -20.62       2.72        0.00     104.34       2.41       0.07       1.42       ----

> <Gold.Chemscore.Fitness>
19.1295

> <Gold.Chemscore.DG>
-20.6226

> <Gold.Chemscore.ZeroCoef>
-5.4800

> <Gold.Chemscore.Hbond>
2.7222

> <Gold.Chemscore.Metal>
0.0000

> <Gold.Chemscore.Lipo>
104.3404

> <Gold.Chemscore.Internal_Hbond>
0.0000

> <Gold.Chemscore.DEClash>
0.0724

> <Gold.Chemscore.DEInternal>
1.4207

> <Gold.Chemscore.Rot>
2.4052

> <Gold.Chemscore.Internal.Correction>
   9.000000E+99

> <Gold.Chemscore.Hbonds>
donor molecule, donor type, donor heavy atom, donor atom, acceptor molecule, acceptor atom, score
      L1  H     5    47       P1  8028  0.99
      P1  H  6896  6907       L1    20  0.72
      P1  H  7989  7998       L1    10  0.86

> <Gold.Chemscore.Hbond.Weighted>
-9.0920

> <Gold.Chemscore.Metal.Weighted>
-0.0000

> <Gold.Chemscore.Lipo.Weighted>
-12.2078

> <Gold.Chemscore.Internal_Hbond.Weighted>
0.0000

> <Gold.Chemscore.DEClash.Weighted>
0.0724

> <Gold.Chemscore.DEInternal.Weighted>
1.4207

> <Gold.Chemscore.Rot.Weighted>
6.1573

> <Gold.Chemscore.Internal.Correction.Weighted>
   9.000000E+99

> <Gold.Protein.RotatedTorsions>
[ 6907 6896 6895 6894 ] final  -37.96 input  -60.11 | X-H torsion
[ 7974 7965 7964 7962 ] final   15.32 input  175.53 | X-H torsion
[ 8008 7997 7996 7995 ] final -110.56 input   59.86 | X-H torsion
[ 10167 10162 10161 10158 ] final  173.63 input  -65.29 | X-H torsion
[ 10718 10713 10712 10709 ] final    0.51 input   66.30 | X-H torsion
[ 10763 10752 10751 10750 ] final  144.99 input  -60.55 | X-H torsion
[ 11005 11000 10999 10996 ] final   41.75 input  -57.11 | X-H torsion

> <Gold.Protein.ActiveResidues>
 VAL166  LYS551  ARG553  GLY616  TRP617  ASP618  TYR619  PRO620  LYS621  CYS622 
 ASP623  PHE694  ASN695  SER759  ASP760  ASP761  ALA762  ILE779  LEU786  VAL792 
 PHE793  MET794  SER795  GLU796  ALA797  LYS798  CYS799  TRP800  GLU811  SER814 

> <Gold.Protein.RotatedAtoms>
  151.0083  134.9376  159.7992 H   0  0  0  0  0  0  0  0  0  0  0  0  # atno 6907 bound_to 6896
  152.5296  134.3062  159.9107 H   0  0  0  0  0  0  0  0  0  0  0  0  # atno 6908 bound_to 6896
  151.3068  133.4056  159.2678 H   0  0  0  0  0  0  0  0  0  0  0  0  # atno 6909 bound_to 6896
  146.2281  139.8912  142.8554 H   0  0  0  0  0  0  0  0  0  0  0  0  # atno 7974 bound_to 7965
  154.9764  140.0397  157.2258 H   0  0  0  0  0  0  0  0  0  0  0  0  # atno 8008 bound_to 7997
  154.7754  140.2809  155.6082 H   0  0  0  0  0  0  0  0  0  0  0  0  # atno 8009 bound_to 7997
  156.2928  140.2602  156.2567 H   0  0  0  0  0  0  0  0  0  0  0  0  # atno 8010 bound_to 7997
  139.5114  144.3239  152.0176 H   0  0  0  0  0  0  0  0  0  0  0  0  # atno 10167 bound_to 10162
  156.8344  130.5499  149.5683 H   0  0  0  0  0  0  0  0  0  0  0  0  # atno 10718 bound_to 10713
  153.9979  135.2926  155.3405 H   0  0  0  0  0  0  0  0  0  0  0  0  # atno 10763 bound_to 10752
  154.7176  135.5123  153.8765 H   0  0  0  0  0  0  0  0  0  0  0  0  # atno 10764 bound_to 10752
  153.0779  135.6669  154.0224 H   0  0  0  0  0  0  0  0  0  0  0  0  # atno 10765 bound_to 10752
  140.1805  134.4110  155.8203 H   0  0  0  0  0  0  0  0  0  0  0  0  # atno 11005 bound_to 11000
  145.2416  141.0011  143.3932 LP  0  0  0  0  0  0  0  0  0  0  0  0  # atno 17320 bound_to 7965
  144.9447  139.4149  143.6432 LP  0  0  0  0  0  0  0  0  0  0  0  0  # atno 17321 bound_to 7965
  140.2680  144.3995  150.6161 LP  0  0  0  0  0  0  0  0  0  0  0  0  # atno 17342 bound_to 10162
  140.6109  143.2169  151.6888 LP  0  0  0  0  0  0  0  0  0  0  0  0  # atno 17343 bound_to 10162
  156.0916  130.5900  150.9742 LP  0  0  0  0  0  0  0  0  0  0  0  0  # atno 17370 bound_to 10713
  157.6389  131.0912  150.8291 LP  0  0  0  0  0  0  0  0  0  0  0  0  # atno 17371 bound_to 10713
  141.2222  133.6998  156.7921 LP  0  0  0  0  0  0  0  0  0  0  0  0  # atno 17394 bound_to 11000
  140.2273  134.8712  157.3440 LP  0  0  0  0  0  0  0  0  0  0  0  0  # atno 17395 bound_to 11000

$$$$
