#       Name:                AV-unprocessed.smi:1100
#       Creating user name   scv26
#       Creation time:       Fri Mar 27 03:30:18 2020


#       File generated by GOLD software.
#

@<TRIPOS>MOLECULE
AV-unprocessed.smi:1100
    50    51     1
SMALL
NO_CHARGES


@<TRIPOS>ATOM
      1 ****        -3.1765   0.1194  -0.4907 C.3            1 S1                 0.0000
      2 ****        -2.1716  -0.7268   0.3318 C.3            1 S1                 0.0000
      3 ****        -0.8704   0.0251   0.7186 C.3            1 S1                 0.0000
      4 ****        -0.0907   0.3507  -0.4752 N.pl3          1 S1                -1.0000
      5 ****         1.1969   0.7906  -0.4617 C.2            1 S1                 0.0000
      6 ****         1.9089   0.9890   0.5292 O.2            1 S1                 0.0000
      7 ****         1.6573   1.0268  -1.7063 N.am           1 S1                 0.0000
      8 ****         2.9331   1.4219  -2.1393 C.2            1 S1                 0.0000
      9 ****         3.0634   1.8941  -3.5013 C.2            1 S1                 0.0000
     10 ****         4.2588   2.2601  -4.0031 C.2            1 S1                 0.0000
     11 ****         5.4796   2.1975  -3.1961 C.2            1 S1                 0.0000
     12 ****         6.5798   2.5250  -3.6424 O.2            1 S1                 0.0000
     13 ****         5.3179   1.7504  -1.9171 N.am           1 S1                 0.0000
     14 ****         6.4800   1.6441  -1.0309 C.3            1 S1                 0.0000
     15 ****         4.0657   1.3597  -1.4046 C.2            1 S1                 0.0000
     16 ****        -2.7927  -1.3547   1.5399 N.4            1 S1                 1.0000
     17 ****        -3.7214  -0.5021   2.3338 C.3            1 S1                 0.0000
     18 ****        -4.1369  -1.2331   3.6201 C.3            1 S1                 0.0000
     19 ****        -4.7502  -2.4715   3.2831 O.3            1 S1                 0.0000
     20 ****        -3.8607  -3.3344   2.5848 C.3            1 S1                 0.0000
     21 ****        -3.4158  -2.6742   1.2687 C.3            1 S1                 0.0000
     22 ****        -2.7536   0.4373  -1.4453 H              1 S1                 0.0000
     23 ****        -3.4998   1.0196   0.0348 H              1 S1                 0.0000
     24 ****        -4.0691  -0.4598  -0.7273 H              1 S1                 0.0000
     25 ****        -1.8536  -1.5476  -0.3136 H              1 S1                 0.0000
     26 ****        -1.1277   0.9165   1.2917 H              1 S1                 0.0000
     27 ****        -0.2998  -0.6075   1.4007 H              1 S1                 0.0000
     28 ****         0.9813   0.9051  -2.4458 H              1 S1                 0.0000
     29 ****         2.1876   1.9566  -4.1307 H              1 S1                 0.0000
     30 ****         4.3202   2.6079  -5.0236 H              1 S1                 0.0000
     31 ****         6.2058   1.4009  -0.0039 H              1 S1                 0.0000
     32 ****         7.0324   2.5845  -0.9991 H              1 S1                 0.0000
     33 ****         7.1554   0.8642  -1.3848 H              1 S1                 0.0000
     34 ****         4.1107   0.9934  -0.3914 H              1 S1                 0.0000
     35 ****        -3.2497   0.4465   2.5917 H              1 S1                 0.0000
     36 ****        -4.6136  -0.2700   1.7509 H              1 S1                 0.0000
     37 ****        -3.2765  -1.4007   4.2702 H              1 S1                 0.0000
     38 ****        -4.8487  -0.6286   4.1825 H              1 S1                 0.0000
     39 ****        -2.9992  -3.5700   3.2118 H              1 S1                 0.0000
     40 ****        -4.3707  -4.2757   2.3789 H              1 S1                 0.0000
     41 ****        -4.2702  -2.5482   0.6023 H              1 S1                 0.0000
     42 ****        -2.7058  -3.3289   0.7621 H              1 S1                 0.0000
     43 ****        -2.0104  -1.5538   2.1474 H              1 S1                 0.0000
     44 ****        -0.5353   0.2424  -1.3644 LP             1 S1                 0.0000
     45 ****         1.5467   0.8233   1.4464 LP             1 S1                 0.0000
     46 ****         2.8471   1.3153   0.4135 LP             1 S1                 0.0000
     47 ****         6.6611   2.8470  -4.5857 LP             1 S1                 0.0000
     48 ****         7.3919   2.4690  -3.0615 LP             1 S1                 0.0000
     49 ****        -5.5455  -2.2909   2.7044 LP             1 S1                 0.0000
     50 ****        -5.0459  -2.9247   4.1240 LP             1 S1                 0.0000
@<TRIPOS>BOND
    1    1    2 1     
    2    1   22 1     
    3    1   23 1     
    4    1   24 1     
    5    2    3 1     
    6    2   16 1     
    7    2   25 1     
    8    3    4 1     
    9    3   26 1     
   10    3   27 1     
   11    4    5 1     
   12    5    6 2     
   13    5    7 am    
   14    7    8 1     
   15    7   28 1     
   16    8   15 2     
   17    8    9 1     
   18    9   10 2     
   19    9   29 1     
   20   10   11 1     
   21   10   30 1     
   22   11   12 2     
   23   11   13 am    
   24   13   14 1     
   25   13   15 1     
   26   14   31 1     
   27   14   32 1     
   28   14   33 1     
   29   15   34 1     
   30   16   21 1     
   31   16   17 1     
   32   16   43 1     
   33   17   18 1     
   34   17   35 1     
   35   17   36 1     
   36   18   19 1     
   37   18   37 1     
   38   18   38 1     
   39   19   20 1     
   40   20   21 1     
   41   20   39 1     
   42   20   40 1     
   43   21   41 1     
   44   21   42 1     
   45    4   44 1     
   46    6   45 1     
   47    6   46 1     
   48   12   47 1     
   49   12   48 1     
   50   19   49 1     
   51   19   50 1     
@<TRIPOS>SUBSTRUCTURE
      1 S1             1
@<TRIPOS>SET
LONE_PAIRS      STATIC     ATOMS    <user>   **** ""
7 44 45 46 47 48 49 50
DONOR_HYDROGENS      STATIC     ATOMS    <user>   **** ""
2 28 43
ATOM$BLUE        STATIC     ATOMS    COLORGROUP SYSTEM
7 44 45 46 47 48 49 50
ATOM$RED        STATIC     ATOMS    COLORGROUP SYSTEM
2 28 43
