AV-unprocessed.smi:1421|AV-procd|sdf|5791|dock4
  -GOLD-   22720 5443D 1   1.00000     0.00000
 Structure written by MMmdl.
 44 45  0  0  0  0  0  0  0  0  2 V2000
  144.3963  143.8652  162.4544 C   0  0  0  0  0  0  0  0  0  0  0  0
  145.8103  143.9653  161.2752 S   0  0  0  0  0  0  0  0  0  0  0  0
  146.4578  145.2524  161.5696 O   0  0  0  0  0  0  0  0  0  0  0  0
  146.6163  142.7526  161.4952 O   0  0  0  0  0  0  0  0  0  0  0  0
  145.0614  144.0074  159.8318 N   0  5  0  0  0  0  0  0  0  0  0  0
  145.2568  142.9528  158.8474 C   0  0  0  0  0  0  0  0  0  0  0  0
  146.5164  143.2539  158.0062 C   0  0  0  0  0  0  0  0  0  0  0  0
  147.4253  142.0330  157.7981 C   0  0  0  0  0  0  0  0  0  0  0  0
  147.1764  140.9582  158.3491 O   0  0  0  0  0  0  0  0  0  0  0  0
  148.5055  142.2208  157.0242 N   0  0  0  0  0  0  0  0  0  0  0  0
  149.4807  141.1893  156.6975 C   0  0  0  0  0  0  0  0  0  0  0  0
  150.7252  141.2542  157.5797 C   0  0  0  0  0  0  0  0  0  0  0  0
  150.9041  142.3543  158.4490 C   0  0  0  0  0  0  0  0  0  0  0  0
  152.0652  142.4309  159.2384 C   0  0  0  0  0  0  0  0  0  0  0  0
  153.0162  141.4023  159.1234 C   0  0  0  0  0  0  0  0  0  0  0  0
  152.8662  140.3487  158.2952 N   0  0  0  0  0  0  0  0  0  0  0  0
  151.7481  140.2674  157.5330 C   0  0  0  0  0  0  0  0  0  0  0  0
  151.6190  139.1386  156.7042 N   0  0  0  0  0  0  0  0  0  0  0  0
  152.5121  139.0581  155.5534 C   0  0  0  0  0  0  0  0  0  0  0  0
  152.0967  137.8798  154.6559 C   0  0  0  0  0  0  0  0  0  0  0  0
  152.0911  136.6772  155.4207 O   0  0  0  0  0  0  0  0  0  0  0  0
  151.1696  136.7352  156.5066 C   0  0  0  0  0  0  0  0  0  0  0  0
  151.5520  137.8884  157.4503 C   0  0  0  0  0  0  0  0  0  0  0  0
  144.7768  143.9317  163.4729 H   0  0  0  0  0  0  0  0  0  0  0  0
  143.8724  142.9181  162.3318 H   0  0  0  0  0  0  0  0  0  0  0  0
  143.7102  144.6915  162.2710 H   0  0  0  0  0  0  0  0  0  0  0  0
  145.3699  141.9763  159.3197 H   0  0  0  0  0  0  0  0  0  0  0  0
  144.3956  142.8653  158.1836 H   0  0  0  0  0  0  0  0  0  0  0  0
  146.2248  143.6516  157.0324 H   0  0  0  0  0  0  0  0  0  0  0  0
  147.1047  144.0354  158.4892 H   0  0  0  0  0  0  0  0  0  0  0  0
  148.6520  143.1360  156.6239 H   0  0  0  0  0  0  0  0  0  0  0  0
  148.9823  140.2225  156.7556 H   0  0  0  0  0  0  0  0  0  0  0  0
  149.8029  141.3100  155.6622 H   0  0  0  0  0  0  0  0  0  0  0  0
  150.1638  143.1387  158.5094 H   0  0  0  0  0  0  0  0  0  0  0  0
  152.2253  143.2603  159.9113 H   0  0  0  0  0  0  0  0  0  0  0  0
  153.9221  141.4254  159.7109 H   0  0  0  0  0  0  0  0  0  0  0  0
  152.4774  139.9914  154.9902 H   0  0  0  0  0  0  0  0  0  0  0  0
  153.5404  138.9175  155.8900 H   0  0  0  0  0  0  0  0  0  0  0  0
  151.1109  138.0512  154.2203 H   0  0  0  0  0  0  0  0  0  0  0  0
  152.7974  137.7719  153.8280 H   0  0  0  0  0  0  0  0  0  0  0  0
  150.1539  136.8633  156.1289 H   0  0  0  0  0  0  0  0  0  0  0  0
  151.1925  135.7870  157.0438 H   0  0  0  0  0  0  0  0  0  0  0  0
  152.5232  137.6911  157.9065 H   0  0  0  0  0  0  0  0  0  0  0  0
  150.8272  137.9643  158.2618 H   0  0  0  0  0  0  0  0  0  0  0  0
  1  2  1  0  0  0  0
  1 24  1  0  0  0  0
  1 25  1  0  0  0  0
  1 26  1  0  0  0  0
  2  3  2  0  0  0  0
  2  4  2  0  0  0  0
  2  5  1  0  0  0  0
  5  6  1  0  0  0  0
  6  7  1  0  0  0  0
  6 27  1  0  0  0  0
  6 28  1  0  0  0  0
  7  8  1  0  0  0  0
  7 29  1  0  0  0  0
  7 30  1  0  0  0  0
  8  9  2  0  0  0  0
  8 10  1  0  0  0  0
 10 11  1  0  0  0  0
 10 31  1  0  0  0  0
 11 12  1  0  0  0  0
 11 32  1  0  0  0  0
 11 33  1  0  0  0  0
 12 17  1  0  0  0  0
 12 13  2  0  0  0  0
 13 14  1  0  0  0  0
 13 34  1  0  0  0  0
 14 15  2  0  0  0  0
 14 35  1  0  0  0  0
 15 16  1  0  0  0  0
 15 36  1  0  0  0  0
 16 17  2  0  0  0  0
 17 18  1  0  0  0  0
 18 23  1  0  0  0  0
 18 19  1  0  0  0  0
 19 20  1  0  0  0  0
 19 37  1  0  0  0  0
 19 38  1  0  0  0  0
 20 21  1  0  0  0  0
 20 39  1  0  0  0  0
 20 40  1  0  0  0  0
 21 22  1  0  0  0  0
 22 23  1  0  0  0  0
 22 41  1  0  0  0  0
 22 42  1  0  0  0  0
 23 43  1  0  0  0  0
 23 44  1  0  0  0  0
M  CHG  1   5  -1
M  END
> <s_m_source_file>
AV-unprocessed.smi

> <i_m_source_file_index>
1421

> <i_lp_mmshare_version>
43012

> <i_f3d_flags>
0

> <s_epik_input>
W0NIM11TKD1PKSg9TylbTkhdW0NIMl1bQ0gyXUMoPU8pW05IXVtDSDJdYzFbY0hdW2NIXVtjSF1uYzFOMltDSDJdW0NIMl1PW0NIMl1bQ0gyXTI=

> <s_epik_cmdline>
J2VwaWtfcHl0aG9uJywgJy1waCcsICc3LjAnLCAnLXRuJywgJzgnLCAnLW1hJywgJzIwMCcsICctbWV0YWxfYmluZGluZycsICctaW1hZScsICc8aW5maWxlLm1hZT4nLCAnLW9tYWUnLCAnPG91dGZpbGUubWFlPic=

> <r_lp_tautomer_probability>
1

> <r_epik_Ionization_Penalty>
6.31253

> <r_epik_Ionization_Penalty_Charging>
6.30704

> <r_epik_Ionization_Penalty_Neutral>
0.00548981

> <r_epik_State_Penalty>
6.31049

> <r_epik_Charging_Adjusted_Penalty>
12.6175

> <i_epik_Tot_Q>
-1

> <i_epik_Tot_abs_Q>
1

> <r_epik_Metal_State_Penalty>
2.24651

> <b_epik_Metal_Only>
1

> <s_lp_Force_Field>
OPLS_2005

> <r_lp_Energy>
12.571

> <b_lp_Chiralities_Consistent>
1

> <s_lp_Variant>
AV-unprocessed.smi:1421-2

> <Gold.Version>
5.8.1

> <Gold.Id.Protein>
6NUR|6NUR_protein|mol2

> <Gold.PLP.Fitness>
46.6972

> <Gold.PLP.PLP>
-35.5423

> <Gold.PLP.part.hbond>
-7.0000

> <Gold.PLP.part.metal>
0.0000

> <Gold.PLP.part.buried>
-3.9722

> <Gold.PLP.part.nonpolar>
-23.9197

> <Gold.PLP.part.repulsive>
0.3546

> <Gold.PLP.ligand.clash>
0.0000

> <Gold.PLP.ligand.torsion>
1.3347

> <Gold.PLP.Chemscore.Hbond>
4.1894

> <Gold.PLP.Chemscore.CHOScore>
0.0000

> <Gold.PLP.Chemscore.Metal>
0.0000

> <Gold.Chemscore.Hbonds>
donor molecule, donor type, donor heavy atom, donor atom, acceptor molecule, acceptor atom, score
      L1  H    10    31       P1  8028  1.00
      P1  H  6933  6944       L1     4  0.72
      P1  H  6934  6946       L1     4  0.62
      P1  H  7997  8009       L1    16  0.61
      P1  H 10752 10763       L1    21  1.00

> <Gold.PLP.Chemscore.Internal.Correction>
1.2561

> <Gold.Rescore>
     Score         DG    S(hbond)    S(metal)    S(lipo)     H(rot)  DE(clash)    DE(int)     intcor
     19.42     -20.80       3.93        0.00      72.57       2.46       0.14       1.25       ----

> <Gold.Chemscore.Fitness>
19.4163

> <Gold.Chemscore.DG>
-20.8013

> <Gold.Chemscore.ZeroCoef>
-5.4800

> <Gold.Chemscore.Hbond>
3.9326

> <Gold.Chemscore.Metal>
0.0000

> <Gold.Chemscore.Lipo>
72.5681

> <Gold.Chemscore.Internal_Hbond>
0.0000

> <Gold.Chemscore.DEClash>
0.1381

> <Gold.Chemscore.DEInternal>
1.2468

> <Gold.Chemscore.Rot>
2.4625

> <Gold.Chemscore.Internal.Correction>
   9.000000E+99

> <Gold.Chemscore.Hbonds>
donor molecule, donor type, donor heavy atom, donor atom, acceptor molecule, acceptor atom, score
      L1  H    10    31       P1  8028  0.82
      P1  H  6933  6944       L1     4  0.72
      P1  H  6934  6946       L1     4  0.58
      P1  H  7997  8009       L1    16  0.23
      P1  H 10752 10763       L1    21  0.81

> <Gold.Chemscore.Hbond.Weighted>
-13.1348

> <Gold.Chemscore.Metal.Weighted>
-0.0000

> <Gold.Chemscore.Lipo.Weighted>
-8.4905

> <Gold.Chemscore.Internal_Hbond.Weighted>
0.0000

> <Gold.Chemscore.DEClash.Weighted>
0.1381

> <Gold.Chemscore.DEInternal.Weighted>
1.2468

> <Gold.Chemscore.Rot.Weighted>
6.3040

> <Gold.Chemscore.Internal.Correction.Weighted>
   9.000000E+99

> <Gold.Protein.RotatedTorsions>
[ 6907 6896 6895 6894 ] final   17.35 input  -60.11 | X-H torsion
[ 7974 7965 7964 7962 ] final  -96.01 input  175.53 | X-H torsion
[ 8008 7997 7996 7995 ] final  164.63 input   59.86 | X-H torsion
[ 10167 10162 10161 10158 ] final   -2.80 input  -65.29 | X-H torsion
[ 10718 10713 10712 10709 ] final  -79.90 input   66.30 | X-H torsion
[ 10763 10752 10751 10750 ] final   72.00 input  -60.55 | X-H torsion
[ 11005 11000 10999 10996 ] final   26.56 input  -57.11 | X-H torsion

> <Gold.Protein.ActiveResidues>
 VAL166  LYS551  ARG553  GLY616  TRP617  ASP618  TYR619  PRO620  LYS621  CYS622 
 ASP623  PHE694  ASN695  SER759  ASP760  ASP761  ALA762  ILE779  LEU786  VAL792 
 PHE793  MET794  SER795  GLU796  ALA797  LYS798  CYS799  TRP800  GLU811  SER814 

> <Gold.Protein.RotatedAtoms>
  151.8482  135.0567  160.0455 H   0  0  0  0  0  0  0  0  0  0  0  0  # atno 6907 bound_to 6896
  152.2756  133.5418  159.5474 H   0  0  0  0  0  0  0  0  0  0  0  0  # atno 6908 bound_to 6896
  150.7169  134.0552  159.3854 H   0  0  0  0  0  0  0  0  0  0  0  0  # atno 6909 bound_to 6896
  145.3525  140.9479  143.2546 H   0  0  0  0  0  0  0  0  0  0  0  0  # atno 7974 bound_to 7965
  156.1864  140.1691  156.8176 H   0  0  0  0  0  0  0  0  0  0  0  0  # atno 8008 bound_to 7997
  154.5419  140.0735  156.8557 H   0  0  0  0  0  0  0  0  0  0  0  0  # atno 8009 bound_to 7997
  155.3197  140.3372  155.4244 H   0  0  0  0  0  0  0  0  0  0  0  0  # atno 8010 bound_to 7997
  140.6865  143.6615  150.8263 H   0  0  0  0  0  0  0  0  0  0  0  0  # atno 10167 bound_to 10162
  156.0082  130.4559  150.3718 H   0  0  0  0  0  0  0  0  0  0  0  0  # atno 10718 bound_to 10713
  153.0432  135.5116  154.7677 H   0  0  0  0  0  0  0  0  0  0  0  0  # atno 10763 bound_to 10752
  154.6598  135.2937  154.9883 H   0  0  0  0  0  0  0  0  0  0  0  0  # atno 10764 bound_to 10752
  154.0738  135.6674  153.4880 H   0  0  0  0  0  0  0  0  0  0  0  0  # atno 10765 bound_to 10752
  140.3357  134.2388  155.7696 H   0  0  0  0  0  0  0  0  0  0  0  0  # atno 11005 bound_to 11000
  144.8707  139.5042  143.6769 LP  0  0  0  0  0  0  0  0  0  0  0  0  # atno 17320 bound_to 7965
  146.2962  139.7285  142.9125 LP  0  0  0  0  0  0  0  0  0  0  0  0  # atno 17321 bound_to 7965
  140.0322  143.5431  152.2755 LP  0  0  0  0  0  0  0  0  0  0  0  0  # atno 17342 bound_to 10162
  139.6228  144.7632  151.2702 LP  0  0  0  0  0  0  0  0  0  0  0  0  # atno 17343 bound_to 10162
  157.1802  131.0390  151.2752 LP  0  0  0  0  0  0  0  0  0  0  0  0  # atno 17370 bound_to 10713
  157.4152  130.7407  149.6870 LP  0  0  0  0  0  0  0  0  0  0  0  0  # atno 17371 bound_to 10713
  141.2052  133.7867  157.0247 LP  0  0  0  0  0  0  0  0  0  0  0  0  # atno 17394 bound_to 11000
  140.0823  134.9641  157.1644 LP  0  0  0  0  0  0  0  0  0  0  0  0  # atno 17395 bound_to 11000

$$$$
