AV-unprocessed.smi:1346|AV-procd|sdf|5515|dock1
  -GOLD-   22720 5103D 1   1.00000     0.00000
 Structure written by MMmdl.
 47 48  0  0  0  0  0  0  0  0  1 V2000
  154.3780  136.9192  164.4223 C   0  0  0  0  0  0  0  0  0  0  0  0
  154.6094  135.5660  163.8126 C   0  0  0  0  0  0  0  0  0  0  0  0
  154.3221  134.4843  164.5168 N   0  0  0  0  0  0  0  0  0  0  0  0
  154.6515  133.3971  163.7021 O   0  0  0  0  0  0  0  0  0  0  0  0
  155.1334  133.8727  162.5259 C   0  0  0  0  0  0  0  0  0  0  0  0
  155.5515  132.8599  161.5145 C   0  0  0  0  0  0  0  0  0  0  0  0
  155.1318  135.2404  162.5263 C   0  0  0  0  0  0  0  0  0  0  0  0
  155.5822  136.1751  161.4324 C   0  0  0  0  0  0  0  0  0  0  0  0
  154.3621  136.8261  160.7815 C   0  0  0  0  0  0  0  0  0  0  0  0
  153.4798  136.1275  160.2833 O   0  0  0  0  0  0  0  0  0  0  0  0
  154.3369  138.1657  160.7777 N   0  0  0  0  0  0  0  0  0  0  0  0
  153.3198  138.9797  160.1289 C   0  0  0  0  0  0  0  0  0  0  0  0
  153.5824  140.4640  160.4036 C   0  0  0  0  0  0  0  0  0  0  0  0
  152.4844  141.2156  159.9064 O   0  0  0  0  0  0  0  0  0  0  0  0
  152.6964  142.6204  159.8524 C   0  0  1  0  0  0  0  0  0  0  0  0
  151.9176  143.2160  158.6590 C   0  0  0  0  0  0  0  0  0  0  0  0
  151.9931  144.7496  158.6421 C   0  0  0  0  0  0  0  0  0  0  0  0
  151.4923  145.3395  159.9674 C   0  0  0  0  0  0  0  0  0  0  0  0
  152.2727  144.7604  161.1568 C   0  0  0  0  0  0  0  0  0  0  0  0
  152.2049  143.2203  161.1899 C   0  0  2  0  0  0  0  0  0  0  0  0
  152.9962  142.6692  162.3873 C   0  0  0  0  0  0  0  0  0  0  0  0
  154.2509  137.6843  163.6568 H   0  0  0  0  0  0  0  0  0  0  0  0
  155.2225  137.2112  165.0461 H   0  0  0  0  0  0  0  0  0  0  0  0
  153.4845  136.9286  165.0469 H   0  0  0  0  0  0  0  0  0  0  0  0
  156.4690  133.1698  161.0138 H   0  0  0  0  0  0  0  0  0  0  0  0
  154.7790  132.7315  160.7567 H   0  0  0  0  0  0  0  0  0  0  0  0
  155.7341  131.8915  161.9810 H   0  0  0  0  0  0  0  0  0  0  0  0
  156.2322  136.9596  161.8213 H   0  0  0  0  0  0  0  0  0  0  0  0
  156.1660  135.6504  160.6750 H   0  0  0  0  0  0  0  0  0  0  0  0
  155.1060  138.6572  161.2093 H   0  0  0  0  0  0  0  0  0  0  0  0
  153.3200  138.7941  159.0535 H   0  0  0  0  0  0  0  0  0  0  0  0
  152.3372  138.6959  160.5076 H   0  0  0  0  0  0  0  0  0  0  0  0
  153.6860  140.6298  161.4768 H   0  0  0  0  0  0  0  0  0  0  0  0
  154.5177  140.7682  159.9338 H   0  0  0  0  0  0  0  0  0  0  0  0
  153.7611  142.8363  159.7436 H   0  0  0  0  0  0  0  0  0  0  0  0
  152.3025  142.8311  157.7154 H   0  0  0  0  0  0  0  0  0  0  0  0
  150.8731  142.9071  158.7133 H   0  0  0  0  0  0  0  0  0  0  0  0
  153.0226  145.0637  158.4656 H   0  0  0  0  0  0  0  0  0  0  0  0
  151.4025  145.1421  157.8138 H   0  0  0  0  0  0  0  0  0  0  0  0
  151.5894  146.4255  159.9516 H   0  0  0  0  0  0  0  0  0  0  0  0
  150.4295  145.1248  160.0865 H   0  0  0  0  0  0  0  0  0  0  0  0
  153.3133  145.0827  161.0982 H   0  0  0  0  0  0  0  0  0  0  0  0
  151.8754  145.1710  162.0856 H   0  0  0  0  0  0  0  0  0  0  0  0
  151.1600  142.9364  161.3255 H   0  0  0  0  0  0  0  0  0  0  0  0
  154.0569  142.9080  162.3049 H   0  0  0  0  0  0  0  0  0  0  0  0
  152.9043  141.5852  162.4601 H   0  0  0  0  0  0  0  0  0  0  0  0
  152.6322  143.0898  163.3249 H   0  0  0  0  0  0  0  0  0  0  0  0
  1  2  1  0  0  0  0
  1 22  1  0  0  0  0
  1 23  1  0  0  0  0
  1 24  1  0  0  0  0
  2  7  1  0  0  0  0
  2  3  2  0  0  0  0
  3  4  1  0  0  0  0
  4  5  1  0  0  0  0
  5  6  1  0  0  0  0
  5  7  2  0  0  0  0
  6 25  1  0  0  0  0
  6 26  1  0  0  0  0
  6 27  1  0  0  0  0
  7  8  1  0  0  0  0
  8  9  1  0  0  0  0
  8 28  1  0  0  0  0
  8 29  1  0  0  0  0
  9 10  2  0  0  0  0
  9 11  1  0  0  0  0
 11 12  1  0  0  0  0
 11 30  1  0  0  0  0
 12 13  1  0  0  0  0
 12 31  1  0  0  0  0
 12 32  1  0  0  0  0
 13 14  1  0  0  0  0
 13 33  1  0  0  0  0
 13 34  1  0  0  0  0
 14 15  1  0  0  0  0
 15 20  1  0  0  0  0
 15 16  1  0  0  0  0
 15 35  1  0  0  0  0
 16 17  1  0  0  0  0
 16 36  1  0  0  0  0
 16 37  1  0  0  0  0
 17 18  1  0  0  0  0
 17 38  1  0  0  0  0
 17 39  1  0  0  0  0
 18 19  1  0  0  0  0
 18 40  1  0  0  0  0
 18 41  1  0  0  0  0
 19 20  1  0  0  0  0
 19 42  1  0  0  0  0
 19 43  1  0  0  0  0
 20 21  1  0  0  0  0
 20 44  1  0  0  0  0
 21 45  1  0  0  0  0
 21 46  1  0  0  0  0
 21 47  1  0  0  0  0
M  END
> <s_m_source_file>
AV-unprocessed.smi

> <i_m_source_file_index>
1346

> <i_lp_mmshare_version>
43012

> <i_f3d_flags>
0

> <s_epik_input>
W0NIM11jMW5vYyhbQ0gzXSljMVtDSDJdQyg9TylbTkhdW0NIMl1bQ0gyXU9bQ0BASF0yW0NIMl1bQ0gyXVtDSDJdW0NIMl1bQ0BIXTJbQ0gzXQ==

> <s_epik_cmdline>
J2VwaWtfcHl0aG9uJywgJy1waCcsICc3LjAnLCAnLXRuJywgJzgnLCAnLW1hJywgJzIwMCcsICctbWV0YWxfYmluZGluZycsICctaW1hZScsICc8aW5maWxlLm1hZT4nLCAnLW9tYWUnLCAnPG91dGZpbGUubWFlPic=

> <r_lp_tautomer_probability>
1

> <r_epik_Ionization_Penalty>
3.26154e-08

> <r_epik_Ionization_Penalty_Charging>
0

> <r_epik_Ionization_Penalty_Neutral>
3.26154e-08

> <r_epik_State_Penalty>
-0

> <r_epik_Charging_Adjusted_Penalty>
0

> <i_epik_Tot_Q>
0

> <i_epik_Tot_abs_Q>
0

> <r_epik_Metal_State_Penalty>
-0

> <b_epik_Metal_Only>
0

> <s_lp_Force_Field>
OPLS_2005

> <r_lp_Energy>
4.3429

> <b_lp_Chiralities_Consistent>
1

> <s_lp_Variant>
AV-unprocessed.smi:1346-4

> <Gold.Version>
5.8.1

> <Gold.Id.Protein>
6NUR|6NUR_protein|mol2

> <Gold.PLP.Fitness>
50.2188

> <Gold.PLP.PLP>
-48.3771

> <Gold.PLP.part.hbond>
-1.0000

> <Gold.PLP.part.metal>
0.0000

> <Gold.PLP.part.buried>
-7.1064

> <Gold.PLP.part.nonpolar>
-40.5936

> <Gold.PLP.part.repulsive>
0.1130

> <Gold.PLP.ligand.clash>
0.0000

> <Gold.PLP.ligand.torsion>
0.6195

> <Gold.PLP.Chemscore.Hbond>
1.0000

> <Gold.PLP.Chemscore.CHOScore>
0.0000

> <Gold.PLP.Chemscore.Metal>
0.0000

> <Gold.Chemscore.Hbonds>
donor molecule, donor type, donor heavy atom, donor atom, acceptor molecule, acceptor atom, score
      P1  H  6896  6908       L1    10  1.00

> <Gold.PLP.Chemscore.Internal.Correction>
0.0807

> <Gold.Rescore>
     Score         DG    S(hbond)    S(metal)    S(lipo)     H(rot)  DE(clash)    DE(int)     intcor
     19.37     -20.01       0.99        0.00     133.81       1.74       0.03       0.61       ----

> <Gold.Chemscore.Fitness>
19.3735

> <Gold.Chemscore.DG>
-20.0124

> <Gold.Chemscore.ZeroCoef>
-5.4800

> <Gold.Chemscore.Hbond>
0.9937

> <Gold.Chemscore.Metal>
0.0000

> <Gold.Chemscore.Lipo>
133.8065

> <Gold.Chemscore.Internal_Hbond>
0.0000

> <Gold.Chemscore.DEClash>
0.0264

> <Gold.Chemscore.DEInternal>
0.6125

> <Gold.Chemscore.Rot>
1.7352

> <Gold.Chemscore.Internal.Correction>
   9.000000E+99

> <Gold.Chemscore.Hbonds>
donor molecule, donor type, donor heavy atom, donor atom, acceptor molecule, acceptor atom, score
      P1  H  6896  6908       L1    10  1.00

> <Gold.Chemscore.Hbond.Weighted>
-3.3191

> <Gold.Chemscore.Metal.Weighted>
-0.0000

> <Gold.Chemscore.Lipo.Weighted>
-15.6554

> <Gold.Chemscore.Internal_Hbond.Weighted>
0.0000

> <Gold.Chemscore.DEClash.Weighted>
0.0264

> <Gold.Chemscore.DEInternal.Weighted>
0.6125

> <Gold.Chemscore.Rot.Weighted>
4.4420

> <Gold.Chemscore.Internal.Correction.Weighted>
   9.000000E+99

> <Gold.Protein.RotatedTorsions>
[ 6907 6896 6895 6894 ] final  -83.20 input  -60.11 | X-H torsion
[ 7974 7965 7964 7962 ] final -131.44 input  175.53 | X-H torsion
[ 8008 7997 7996 7995 ] final  -25.09 input   59.86 | X-H torsion
[ 10167 10162 10161 10158 ] final -101.33 input  -65.29 | X-H torsion
[ 10718 10713 10712 10709 ] final  135.13 input   66.30 | X-H torsion
[ 10763 10752 10751 10750 ] final   15.36 input  -60.55 | X-H torsion
[ 11005 11000 10999 10996 ] final  -98.11 input  -57.11 | X-H torsion

> <Gold.Protein.ActiveResidues>
 VAL166  LYS551  ARG553  GLY616  TRP617  ASP618  TYR619  PRO620  LYS621  CYS622 
 ASP623  PHE694  ASN695  SER759  ASP760  ASP761  ALA762  ILE779  LEU786  VAL792 
 PHE793  MET794  SER795  GLU796  ALA797  LYS798  CYS799  TRP800  GLU811  SER814 

> <Gold.Protein.RotatedAtoms>
  150.6888  134.3548  159.4924 H   0  0  0  0  0  0  0  0  0  0  0  0  # atno 6907 bound_to 6896
  152.1384  134.9078  160.0564 H   0  0  0  0  0  0  0  0  0  0  0  0  # atno 6908 bound_to 6896
  152.0221  133.3868  159.4299 H   0  0  0  0  0  0  0  0  0  0  0  0  # atno 6909 bound_to 6896
  144.9379  140.7205  143.4865 H   0  0  0  0  0  0  0  0  0  0  0  0  # atno 7974 bound_to 7965
  154.4494  140.1936  156.0565 H   0  0  0  0  0  0  0  0  0  0  0  0  # atno 8008 bound_to 7997
  156.0615  140.3296  155.7440 H   0  0  0  0  0  0  0  0  0  0  0  0  # atno 8009 bound_to 7997
  155.5404  140.0586  157.2862 H   0  0  0  0  0  0  0  0  0  0  0  0  # atno 8010 bound_to 7997
  140.2424  143.3529  152.0789 H   0  0  0  0  0  0  0  0  0  0  0  0  # atno 10167 bound_to 10162
  157.4602  131.1073  150.9929 H   0  0  0  0  0  0  0  0  0  0  0  0  # atno 10718 bound_to 10713
  153.1532  135.6782  153.8851 H   0  0  0  0  0  0  0  0  0  0  0  0  # atno 10763 bound_to 10752
  153.8270  135.3122  155.3416 H   0  0  0  0  0  0  0  0  0  0  0  0  # atno 10764 bound_to 10752
  154.7878  135.4852  154.0072 H   0  0  0  0  0  0  0  0  0  0  0  0  # atno 10765 bound_to 10752
  141.1356  133.8221  157.0795 H   0  0  0  0  0  0  0  0  0  0  0  0  # atno 11005 bound_to 11000
  145.3037  139.1842  143.4676 LP  0  0  0  0  0  0  0  0  0  0  0  0  # atno 17320 bound_to 7965
  146.3274  140.3032  142.8622 LP  0  0  0  0  0  0  0  0  0  0  0  0  # atno 17321 bound_to 7965
  139.5073  144.6829  151.5962 LP  0  0  0  0  0  0  0  0  0  0  0  0  # atno 17342 bound_to 10162
  140.6103  143.9448  150.6448 LP  0  0  0  0  0  0  0  0  0  0  0  0  # atno 17343 bound_to 10162
  157.0729  130.5871  149.5406 LP  0  0  0  0  0  0  0  0  0  0  0  0  # atno 17370 bound_to 10713
  156.0025  130.5107  150.7714 LP  0  0  0  0  0  0  0  0  0  0  0  0  # atno 17371 bound_to 10713
  140.0460  134.9830  157.1050 LP  0  0  0  0  0  0  0  0  0  0  0  0  # atno 17394 bound_to 11000
  140.4062  134.2030  155.7163 LP  0  0  0  0  0  0  0  0  0  0  0  0  # atno 17395 bound_to 11000

$$$$
