AV-unprocessed.smi:1976|AV-procd|sdf|7988|dock3
  -GOLD-   2272010173D 1   1.00000     0.00000
 Structure written by MMmdl.
 45 47  0  0  0  0  0  0  0  0  2 V2000
  147.1113  132.9601  154.9704 O   0  0  0  0  0  0  0  0  0  0  0  0
  147.8941  133.7746  154.4793 C   0  0  0  0  0  0  0  0  0  0  0  0
  149.2923  133.9861  155.0778 C   0  0  0  0  0  0  0  0  0  0  0  0
  149.4145  135.2303  155.8565 N   0  0  0  0  0  0  0  0  0  0  0  0
  149.5782  136.4271  155.1317 C   0  0  0  0  0  0  0  0  0  0  0  0
  149.7123  137.6298  155.7230 C   0  0  0  0  0  0  0  0  0  0  0  0
  149.8304  138.9109  154.9121 C   0  0  0  0  0  0  0  0  0  0  0  0
  150.9244  138.8980  154.1503 F   0  0  0  0  0  0  0  0  0  0  0  0
  148.7709  139.0407  154.1148 F   0  0  0  0  0  0  0  0  0  0  0  0
  149.8857  139.9809  155.7063 F   0  0  0  0  0  0  0  0  0  0  0  0
  149.6456  137.6476  157.1710 C   0  0  0  0  0  0  0  0  0  0  0  0
  149.4778  136.5136  157.8792 C   0  0  0  0  0  0  0  0  0  0  0  0
  149.3546  135.2105  157.2220 C   0  0  0  0  0  0  0  0  0  0  0  0
  149.2030  134.1663  157.8571 O   0  0  0  0  0  0  0  0  0  0  0  0
  147.5950  134.5273  153.4100 N   0  0  0  0  0  0  0  0  0  0  0  0
  146.3433  134.4668  152.6609 C   0  0  1  0  0  0  0  0  0  0  0  0
  145.6984  135.8444  152.4553 C   0  0  0  0  0  0  0  0  0  0  0  0
  145.0976  135.8069  151.0358 C   0  0  0  0  0  0  0  0  0  0  0  0
  145.3442  134.4469  150.5024 N   0  3  2  0  0  0  0  0  0  0  0  0
  144.1495  133.5684  150.6379 C   0  0  0  0  0  0  0  0  0  0  0  0
  144.4668  132.1042  150.3084 C   0  0  0  0  0  0  0  0  0  0  0  0
  145.5870  131.5900  151.2159 C   0  0  0  0  0  0  0  0  0  0  0  0
  146.8317  132.4630  151.0293 C   0  0  0  0  0  0  0  0  0  0  0  0
  146.5494  133.9705  151.2237 C   0  0  2  0  0  0  0  0  0  0  0  0
  149.5477  133.1313  155.7071 H   0  0  0  0  0  0  0  0  0  0  0  0
  150.0179  133.9669  154.2633 H   0  0  0  0  0  0  0  0  0  0  0  0
  149.5798  136.3059  154.0582 H   0  0  0  0  0  0  0  0  0  0  0  0
  149.7338  138.5863  157.6978 H   0  0  0  0  0  0  0  0  0  0  0  0
  149.4332  136.5646  158.9572 H   0  0  0  0  0  0  0  0  0  0  0  0
  148.2941  135.1775  153.0804 H   0  0  0  0  0  0  0  0  0  0  0  0
  145.6213  133.8277  153.1724 H   0  0  0  0  0  0  0  0  0  0  0  0
  144.9376  136.0378  153.2124 H   0  0  0  0  0  0  0  0  0  0  0  0
  146.4369  136.6450  152.5214 H   0  0  0  0  0  0  0  0  0  0  0  0
  144.0398  136.0743  151.0254 H   0  0  0  0  0  0  0  0  0  0  0  0
  145.6164  136.5252  150.3999 H   0  0  0  0  0  0  0  0  0  0  0  0
  143.7544  133.6310  151.6531 H   0  0  0  0  0  0  0  0  0  0  0  0
  143.3637  133.9339  149.9757 H   0  0  0  0  0  0  0  0  0  0  0  0
  143.5736  131.4921  150.4367 H   0  0  0  0  0  0  0  0  0  0  0  0
  144.7603  132.0118  149.2616 H   0  0  0  0  0  0  0  0  0  0  0  0
  145.2666  131.6064  152.2582 H   0  0  0  0  0  0  0  0  0  0  0  0
  145.8187  130.5519  150.9766 H   0  0  0  0  0  0  0  0  0  0  0  0
  147.6278  132.1319  151.6964 H   0  0  0  0  0  0  0  0  0  0  0  0
  147.2110  132.3082  150.0183 H   0  0  0  0  0  0  0  0  0  0  0  0
  147.3978  134.5151  150.8038 H   0  0  0  0  0  0  0  0  0  0  0  0
  145.5601  134.5082  149.5175 H   0  0  0  0  0  0  0  0  0  0  0  0
  1  2  2  0  0  0  0
  2  3  1  0  0  0  0
  2 15  1  0  0  0  0
  3  4  1  0  0  0  0
  3 25  1  0  0  0  0
  3 26  1  0  0  0  0
  4 13  1  0  0  0  0
  4  5  1  0  0  0  0
  5  6  2  0  0  0  0
  5 27  1  0  0  0  0
  6  7  1  0  0  0  0
  6 11  1  0  0  0  0
  7  8  1  0  0  0  0
  7  9  1  0  0  0  0
  7 10  1  0  0  0  0
 11 12  2  0  0  0  0
 11 28  1  0  0  0  0
 12 13  1  0  0  0  0
 12 29  1  0  0  0  0
 13 14  2  0  0  0  0
 15 16  1  0  0  0  0
 15 30  1  0  0  0  0
 16 24  1  0  0  0  0
 16 17  1  0  0  0  0
 16 31  1  0  0  0  0
 17 18  1  0  0  0  0
 17 32  1  0  0  0  0
 17 33  1  0  0  0  0
 18 19  1  0  0  0  0
 18 34  1  0  0  0  0
 18 35  1  0  0  0  0
 19 24  1  0  0  0  0
 19 20  1  0  0  0  0
 19 45  1  0  0  0  0
 20 21  1  0  0  0  0
 20 36  1  0  0  0  0
 20 37  1  0  0  0  0
 21 22  1  0  0  0  0
 21 38  1  0  0  0  0
 21 39  1  0  0  0  0
 22 23  1  0  0  0  0
 22 40  1  0  0  0  0
 22 41  1  0  0  0  0
 23 24  1  0  0  0  0
 23 42  1  0  0  0  0
 23 43  1  0  0  0  0
 24 44  1  0  0  0  0
M  CHG  1  19   1
M  END
> <s_m_source_file>
AV-unprocessed.smi

> <i_m_source_file_index>
1976

> <i_lp_mmshare_version>
43012

> <i_f3d_flags>
0

> <s_epik_input>
W0NIMl0xW0NIMl1bQ0gyXVtDSDJdW0NASF0oTjEyKVtDQEBIXShbQ0gyXVtDSDJdMilbTkhdQyg9TylbQ0gyXW4zW2NIXWMoQyhGKShGKUYpW2NIXVtjSF1jMz1P

> <s_epik_cmdline>
J2VwaWtfcHl0aG9uJywgJy1waCcsICc3LjAnLCAnLXRuJywgJzgnLCAnLW1hJywgJzIwMCcsICctbWV0YWxfYmluZGluZycsICctaW1hZScsICc8aW5maWxlLm1hZT4nLCAnLW9tYWUnLCAnPG91dGZpbGUubWFlPic=

> <r_lp_tautomer_probability>
1

> <r_epik_Ionization_Penalty>
0.00171506

> <r_epik_Ionization_Penalty_Charging>
0.00171498

> <r_epik_Ionization_Penalty_Neutral>
7.81737e-08

> <r_epik_State_Penalty>
0.00115937

> <r_epik_Charging_Adjusted_Penalty>
0.00287436

> <i_epik_Tot_Q>
1

> <i_epik_Tot_abs_Q>
1

> <r_epik_Metal_State_Penalty>
-0

> <b_epik_Metal_Only>
0

> <s_lp_Force_Field>
OPLS_2005

> <r_lp_Energy>
48.7142

> <b_lp_Chiralities_Consistent>
1

> <s_lp_Variant>
AV-unprocessed.smi:1976-6

> <Gold.Version>
5.8.1

> <Gold.Id.Protein>
6NUR|6NUR_protein|mol2

> <Gold.PLP.Fitness>
46.1790

> <Gold.PLP.PLP>
-35.2286

> <Gold.PLP.part.hbond>
-3.0000

> <Gold.PLP.part.metal>
0.0000

> <Gold.PLP.part.buried>
-1.6424

> <Gold.PLP.part.nonpolar>
-30.8476

> <Gold.PLP.part.repulsive>
0.0712

> <Gold.PLP.ligand.clash>
0.0000

> <Gold.PLP.ligand.torsion>
0.5334

> <Gold.PLP.Chemscore.Hbond>
2.9913

> <Gold.PLP.Chemscore.CHOScore>
1.0000

> <Gold.PLP.Chemscore.Metal>
0.0000

> <Gold.Chemscore.Hbonds>
donor molecule, donor type, donor heavy atom, donor atom, acceptor molecule, acceptor atom, score
      L1  H    15    30       P1  7948  1.00
      L1  H    19    45       P1  7921  1.00
      P1  H  6896  6907       L1    14  0.83
      L1  C     5    27       P1  7948  1.00

> <Gold.PLP.Chemscore.Internal.Correction>
0.0433

> <Gold.Rescore>
     Score         DG    S(hbond)    S(metal)    S(lipo)     H(rot)  DE(clash)    DE(int)     intcor
     17.44     -19.35       2.59        0.00      79.17       1.58       1.56       0.35       ----

> <Gold.Chemscore.Fitness>
17.4372

> <Gold.Chemscore.DG>
-19.3501

> <Gold.Chemscore.ZeroCoef>
-5.4800

> <Gold.Chemscore.Hbond>
2.5925

> <Gold.Chemscore.Metal>
0.0000

> <Gold.Chemscore.Lipo>
79.1748

> <Gold.Chemscore.Internal_Hbond>
0.0000

> <Gold.Chemscore.DEClash>
1.5583

> <Gold.Chemscore.DEInternal>
0.3546

> <Gold.Chemscore.Rot>
1.5830

> <Gold.Chemscore.Internal.Correction>
   9.000000E+99

> <Gold.Chemscore.Hbonds>
donor molecule, donor type, donor heavy atom, donor atom, acceptor molecule, acceptor atom, score
      L1  H    15    30       P1  7948  0.91
      L1  H    19    45       P1  7921  0.90
      P1  H  6896  6907       L1    14  0.63

> <Gold.Chemscore.Hbond.Weighted>
-8.6591

> <Gold.Chemscore.Metal.Weighted>
-0.0000

> <Gold.Chemscore.Lipo.Weighted>
-9.2635

> <Gold.Chemscore.Internal_Hbond.Weighted>
0.0000

> <Gold.Chemscore.DEClash.Weighted>
1.5583

> <Gold.Chemscore.DEInternal.Weighted>
0.3546

> <Gold.Chemscore.Rot.Weighted>
4.0524

> <Gold.Chemscore.Internal.Correction.Weighted>
   9.000000E+99

> <Gold.Protein.RotatedTorsions>
[ 6907 6896 6895 6894 ] final -111.03 input  -60.11 | X-H torsion
[ 7974 7965 7964 7962 ] final  -35.44 input  175.53 | X-H torsion
[ 8008 7997 7996 7995 ] final  142.32 input   59.86 | X-H torsion
[ 10167 10162 10161 10158 ] final  174.73 input  -65.29 | X-H torsion
[ 10718 10713 10712 10709 ] final   74.81 input   66.30 | X-H torsion
[ 10763 10752 10751 10750 ] final  160.33 input  -60.55 | X-H torsion
[ 11005 11000 10999 10996 ] final  -28.77 input  -57.11 | X-H torsion

> <Gold.Protein.ActiveResidues>
 VAL166  LYS551  ARG553  GLY616  TRP617  ASP618  TYR619  PRO620  LYS621  CYS622 
 ASP623  PHE694  ASN695  SER759  ASP760  ASP761  ALA762  ILE779  LEU786  VAL792 
 PHE793  MET794  SER795  GLU796  ALA797  LYS798  CYS799  TRP800  GLU811  SER814 

> <Gold.Protein.RotatedAtoms>
  150.7664  133.9294  159.3422 H   0  0  0  0  0  0  0  0  0  0  0  0  # atno 6907 bound_to 6896
  151.7191  135.0896  160.0290 H   0  0  0  0  0  0  0  0  0  0  0  0  # atno 6908 bound_to 6896
  152.3661  133.6321  159.6087 H   0  0  0  0  0  0  0  0  0  0  0  0  # atno 6909 bound_to 6896
  146.0746  140.6160  142.8937 H   0  0  0  0  0  0  0  0  0  0  0  0  # atno 7974 bound_to 7965
  156.2951  140.2292  156.4709 H   0  0  0  0  0  0  0  0  0  0  0  0  # atno 8008 bound_to 7997
  154.7936  140.0452  157.1241 H   0  0  0  0  0  0  0  0  0  0  0  0  # atno 8009 bound_to 7997
  154.9615  140.3055  155.5032 H   0  0  0  0  0  0  0  0  0  0  0  0  # atno 8010 bound_to 7997
  139.5152  144.3113  152.0289 H   0  0  0  0  0  0  0  0  0  0  0  0  # atno 10167 bound_to 10162
  157.6608  130.9696  150.1263 H   0  0  0  0  0  0  0  0  0  0  0  0  # atno 10718 bound_to 10713
  154.2458  135.2773  155.2836 H   0  0  0  0  0  0  0  0  0  0  0  0  # atno 10763 bound_to 10752
  154.5507  135.5676  153.6923 H   0  0  0  0  0  0  0  0  0  0  0  0  # atno 10764 bound_to 10752
  152.9990  135.6273  154.2603 H   0  0  0  0  0  0  0  0  0  0  0  0  # atno 10765 bound_to 10752
  140.9238  133.7382  156.0838 H   0  0  0  0  0  0  0  0  0  0  0  0  # atno 11005 bound_to 11000
  144.7253  140.4505  143.6978 LP  0  0  0  0  0  0  0  0  0  0  0  0  # atno 17320 bound_to 7965
  145.6330  139.1539  143.2958 LP  0  0  0  0  0  0  0  0  0  0  0  0  # atno 17321 bound_to 7965
  140.2557  144.4121  150.6204 LP  0  0  0  0  0  0  0  0  0  0  0  0  # atno 17342 bound_to 10162
  140.6193  143.2175  151.6728 LP  0  0  0  0  0  0  0  0  0  0  0  0  # atno 17343 bound_to 10162
  156.2121  130.3667  149.8657 LP  0  0  0  0  0  0  0  0  0  0  0  0  # atno 17370 bound_to 10713
  156.6533  130.8752  151.3535 LP  0  0  0  0  0  0  0  0  0  0  0  0  # atno 17371 bound_to 10713
  140.7953  134.3571  157.5454 LP  0  0  0  0  0  0  0  0  0  0  0  0  # atno 17394 bound_to 11000
  139.8781  134.9165  156.3156 LP  0  0  0  0  0  0  0  0  0  0  0  0  # atno 17395 bound_to 11000

$$$$
