AV-unprocessed.smi:3012|AV-procd|sdf|11461|dock6
  -GOLD-   2272016393D 1   1.00000     0.00000
 Structure written by MMmdl.
 17 17  0  0  0  0  0  0  0  0  2 V2000
  153.5386  138.8881  154.6979 O   0  0  0  0  0  0  0  0  0  0  0  0
  152.5043  138.2196  154.9144 C   0  0  0  0  0  0  0  0  0  0  0  0
  152.0637  137.3014  154.1887 O   0  5  0  0  0  0  0  0  0  0  0  0
  151.7087  138.5563  156.1759 C   0  0  0  0  0  0  0  0  0  0  0  0
  151.0823  139.9403  156.1270 C   0  0  0  0  0  0  0  0  0  0  0  0
  151.3422  140.9127  157.0384 C   0  0  0  0  0  0  0  0  0  0  0  0
  150.7194  142.2310  156.9218 C   0  0  0  0  0  0  0  0  0  0  0  0
  150.8926  143.1673  157.6994 O   0  0  0  0  0  0  0  0  0  0  0  0
  149.8713  142.3823  155.8176 N   0  0  0  0  0  0  0  0  0  0  0  0
  149.6037  141.3926  154.8706 C   0  0  0  0  0  0  0  0  0  0  0  0
  148.8488  141.5940  153.9225 O   0  0  0  0  0  0  0  0  0  0  0  0
  150.2381  140.1621  155.0551 N   0  0  0  0  0  0  0  0  0  0  0  0
  149.4190  143.2768  155.6974 H   0  0  0  0  0  0  0  0  0  0  0  0
  150.0568  139.4284  154.3854 H   0  0  0  0  0  0  0  0  0  0  0  0
  150.9200  137.8153  156.3118 H   0  0  0  0  0  0  0  0  0  0  0  0
  152.3636  138.4677  157.0443 H   0  0  0  0  0  0  0  0  0  0  0  0
  152.0145  140.7164  157.8615 H   0  0  0  0  0  0  0  0  0  0  0  0
  1  2  2  0  0  0  0
  2  3  1  0  0  0  0
  2  4  1  0  0  0  0
  4  5  1  0  0  0  0
  4 15  1  0  0  0  0
  4 16  1  0  0  0  0
  5 12  1  0  0  0  0
  5  6  2  0  0  0  0
  6  7  1  0  0  0  0
  6 17  1  0  0  0  0
  7  8  2  0  0  0  0
  7  9  1  0  0  0  0
  9 13  1  0  0  0  0
  9 10  1  0  0  0  0
 10 11  2  0  0  0  0
 10 12  1  0  0  0  0
 12 14  1  0  0  0  0
M  CHG  1   3  -1
M  END
> <s_m_source_file>
AV-unprocessed.smi

> <i_m_source_file_index>
3012

> <i_lp_mmshare_version>
43012

> <i_f3d_flags>
0

> <s_epik_input>
Tz1DKFtPSF0pW0NIMl1jMVtjSF1jKD1PKVtuSF1jKD1PKVtuSF0x

> <s_epik_cmdline>
J2VwaWtfcHl0aG9uJywgJy1waCcsICc3LjAnLCAnLXRuJywgJzgnLCAnLW1hJywgJzIwMCcsICctbWV0YWxfYmluZGluZycsICctaW1hZScsICc8aW5maWxlLm1hZT4nLCAnLW9tYWUnLCAnPG91dGZpbGUubWFlPic=

> <r_lp_tautomer_probability>
1

> <r_epik_Ionization_Penalty>
0.00187741

> <r_epik_Ionization_Penalty_Charging>
0.00187741

> <r_epik_Ionization_Penalty_Neutral>
1.02484e-13

> <r_epik_State_Penalty>
-0

> <r_epik_Charging_Adjusted_Penalty>
0.00187741

> <i_epik_Tot_Q>
-1

> <i_epik_Tot_abs_Q>
1

> <r_epik_Metal_State_Penalty>
0.67268

> <b_epik_Metal_Only>
0

> <s_lp_Force_Field>
OPLS_2005

> <r_lp_Energy>
0.757272

> <b_lp_Chiralities_Consistent>
1

> <s_lp_Variant>
AV-unprocessed.smi:3012-1

> <Gold.Version>
5.8.1

> <Gold.Id.Protein>
6NUR|6NUR_protein|mol2

> <Gold.PLP.Fitness>
36.5128

> <Gold.PLP.PLP>
-19.9720

> <Gold.PLP.part.hbond>
-4.0000

> <Gold.PLP.part.metal>
0.0000

> <Gold.PLP.part.buried>
-5.4484

> <Gold.PLP.part.nonpolar>
-13.4611

> <Gold.PLP.part.repulsive>
0.7928

> <Gold.PLP.ligand.clash>
0.0000

> <Gold.PLP.ligand.torsion>
0.0462

> <Gold.PLP.Chemscore.Hbond>
5.5440

> <Gold.PLP.Chemscore.CHOScore>
0.0000

> <Gold.PLP.Chemscore.Metal>
0.0000

> <Gold.Chemscore.Hbonds>
donor molecule, donor type, donor heavy atom, donor atom, acceptor molecule, acceptor atom, score
      L1  H     9    13       P1  8028  1.00
      P1  H  7997  8008       L1     1  2.00
      P1  H  8011  8017       L1    11  0.66
      P1  H 10752 10765       L1     3  1.89

> <Gold.PLP.Chemscore.Internal.Correction>
0.0012

> <Gold.Rescore>
     Score         DG    S(hbond)    S(metal)    S(lipo)     H(rot)  DE(clash)    DE(int)     intcor
     14.74     -14.75       3.55        0.00      15.18       1.70       0.01       0.01       ----

> <Gold.Chemscore.Fitness>
14.7393

> <Gold.Chemscore.DG>
-14.7542

> <Gold.Chemscore.ZeroCoef>
-5.4800

> <Gold.Chemscore.Hbond>
3.5476

> <Gold.Chemscore.Metal>
0.0000

> <Gold.Chemscore.Lipo>
15.1823

> <Gold.Chemscore.Internal_Hbond>
0.0000

> <Gold.Chemscore.DEClash>
0.0060

> <Gold.Chemscore.DEInternal>
0.0089

> <Gold.Chemscore.Rot>
1.6997

> <Gold.Chemscore.Internal.Correction>
   9.000000E+99

> <Gold.Chemscore.Hbonds>
donor molecule, donor type, donor heavy atom, donor atom, acceptor molecule, acceptor atom, score
      L1  H     9    13       P1  8028  0.93
      P1  H  7997  8008       L1     1  0.93
      P1  H  8011  8017       L1    11  0.52
      P1  H 10752 10765       L1     3  0.86

> <Gold.Chemscore.Hbond.Weighted>
-11.8491

> <Gold.Chemscore.Metal.Weighted>
-0.0000

> <Gold.Chemscore.Lipo.Weighted>
-1.7763

> <Gold.Chemscore.Internal_Hbond.Weighted>
0.0000

> <Gold.Chemscore.DEClash.Weighted>
0.0060

> <Gold.Chemscore.DEInternal.Weighted>
0.0089

> <Gold.Chemscore.Rot.Weighted>
4.3512

> <Gold.Chemscore.Internal.Correction.Weighted>
   9.000000E+99

> <Gold.Protein.RotatedTorsions>
[ 6907 6896 6895 6894 ] final   21.33 input  -60.11 | X-H torsion
[ 7974 7965 7964 7962 ] final -179.79 input  175.53 | X-H torsion
[ 8008 7997 7996 7995 ] final  -17.27 input   59.86 | X-H torsion
[ 10167 10162 10161 10158 ] final -100.19 input  -65.29 | X-H torsion
[ 10718 10713 10712 10709 ] final  153.95 input   66.30 | X-H torsion
[ 10763 10752 10751 10750 ] final  159.36 input  -60.55 | X-H torsion
[ 11005 11000 10999 10996 ] final  149.07 input  -57.11 | X-H torsion

> <Gold.Protein.ActiveResidues>
 VAL166  LYS551  ARG553  GLY616  TRP617  ASP618  TYR619  PRO620  LYS621  CYS622 
 ASP623  PHE694  ASN695  SER759  ASP760  ASP761  ALA762  ILE779  LEU786  VAL792 
 PHE793  MET794  SER795  GLU796  ALA797  LYS798  CYS799  TRP800  GLU811  SER814 

> <Gold.Protein.RotatedAtoms>
  151.9102  135.0342  160.0513 H   0  0  0  0  0  0  0  0  0  0  0  0  # atno 6907 bound_to 6896
  152.2286  133.5035  159.5211 H   0  0  0  0  0  0  0  0  0  0  0  0  # atno 6908 bound_to 6896
  150.7019  134.1164  159.4061 H   0  0  0  0  0  0  0  0  0  0  0  0  # atno 6909 bound_to 6896
  144.7139  140.0665  143.6431 H   0  0  0  0  0  0  0  0  0  0  0  0  # atno 7974 bound_to 7965
  154.4991  140.2147  155.9385 H   0  0  0  0  0  0  0  0  0  0  0  0  # atno 8008 bound_to 7997
  156.1409  140.3180  155.8462 H   0  0  0  0  0  0  0  0  0  0  0  0  # atno 8009 bound_to 7997
  155.4121  140.0491  157.3022 H   0  0  0  0  0  0  0  0  0  0  0  0  # atno 8010 bound_to 7997
  140.2545  143.3449  152.0683 H   0  0  0  0  0  0  0  0  0  0  0  0  # atno 10167 bound_to 10162
  157.2380  131.0753  151.1810 H   0  0  0  0  0  0  0  0  0  0  0  0  # atno 10718 bound_to 10713
  154.2306  135.2778  155.2891 H   0  0  0  0  0  0  0  0  0  0  0  0  # atno 10763 bound_to 10752
  154.5627  135.5642  153.7026 H   0  0  0  0  0  0  0  0  0  0  0  0  # atno 10764 bound_to 10752
  153.0021  135.6302  154.2447 H   0  0  0  0  0  0  0  0  0  0  0  0  # atno 10765 bound_to 10752
  140.1013  134.8981  157.1800 H   0  0  0  0  0  0  0  0  0  0  0  0  # atno 11005 bound_to 11000
  145.9820  139.2948  143.1036 LP  0  0  0  0  0  0  0  0  0  0  0  0  # atno 17320 bound_to 7965
  145.9000  140.9249  143.0508 LP  0  0  0  0  0  0  0  0  0  0  0  0  # atno 17321 bound_to 7965
  139.5036  144.6758  151.6132 LP  0  0  0  0  0  0  0  0  0  0  0  0  # atno 17342 bound_to 10162
  140.6014  143.9602  150.6389 LP  0  0  0  0  0  0  0  0  0  0  0  0  # atno 17343 bound_to 10162
  157.3408  130.7032  149.6380 LP  0  0  0  0  0  0  0  0  0  0  0  0  # atno 17370 bound_to 10713
  155.9671  130.4280  150.4770 LP  0  0  0  0  0  0  0  0  0  0  0  0  # atno 17371 bound_to 10713
  140.3216  134.2910  155.7245 LP  0  0  0  0  0  0  0  0  0  0  0  0  # atno 17394 bound_to 11000
  141.2106  133.7713  156.9919 LP  0  0  0  0  0  0  0  0  0  0  0  0  # atno 17395 bound_to 11000

$$$$
