#       Name:                AV-unprocessed.smi:1068
#       Creating user name   scv26
#       Creation time:       Fri Mar 27 03:18:50 2020


#       File generated by GOLD software.
#

@<TRIPOS>MOLECULE
AV-unprocessed.smi:1068
    57    58     1
SMALL
NO_CHARGES


@<TRIPOS>ATOM
      1 ****        -5.6037   3.0665  -2.4620 C.3            1 S1                 0.0000
      2 ****        -4.6710   3.0372  -1.2281 C.3            1 S1                 0.0000
      3 ****        -4.4658   4.5128  -0.8121 C.3            1 S1                 0.0000
      4 ****        -5.3551   2.2681  -0.0831 C.3            1 S1                 0.0000
      5 ****        -3.3282   2.3657  -1.5640 C.ar           1 S1                 0.0000
      6 ****        -3.3563   1.3431  -2.4288 N.ar           1 S1                 0.0000
      7 ****        -2.2085   0.6644  -2.6340 C.ar           1 S1                 0.0000
      8 ****        -1.0187   0.9842  -1.9503 C.ar           1 S1                 0.0000
      9 ****         0.1469   0.2130  -2.2058 N.am           1 S1                 0.0000
     10 ****         1.4176   0.4718  -1.8547 C.2            1 S1                 0.0000
     11 ****         1.8052   1.4824  -1.2700 O.2            1 S1                 0.0000
     12 ****         2.2348  -0.5236  -2.2291 N.am           1 S1                 0.0000
     13 ****         3.6777  -0.5688  -1.9885 C.3            1 S1                 0.0000
     14 ****         4.0865  -1.0633  -0.5912 C.2            1 S1                 0.0000
     15 ****         5.2812  -1.1079  -0.3009 O.2            1 S1                 0.0000
     16 ****         3.1160  -1.4331   0.2622 N.am           1 S1                 0.0000
     17 ****         3.3167  -1.9094   1.6266 C.3            1 S1                 0.0000
     18 ****         3.6510  -3.4154   1.6335 C.3            1 S1                 0.0000
     19 ****         3.7821  -3.9558   3.0667 C.3            1 S1                 0.0000
     20 ****         2.5167  -3.6687   3.8896 C.3            1 S1                 0.0000
     21 ****         2.1843  -2.1682   3.8905 C.3            1 S1                 0.0000
     22 ****         2.0514  -1.6257   2.4584 C.3            1 S1                 0.0000
     23 ****        -1.1115   2.0486  -1.0216 C.ar           1 S1                 0.0000
     24 ****        -2.2673   2.7187  -0.8264 N.ar           1 S1                 0.0000
     25 ****        -6.5366   3.5871  -2.2426 H              1 S1                 0.0000
     26 ****        -5.8747   2.0635  -2.7935 H              1 S1                 0.0000
     27 ****        -5.1341   3.5773  -3.3035 H              1 S1                 0.0000
     28 ****        -3.9575   5.0789  -1.5937 H              1 S1                 0.0000
     29 ****        -3.8740   4.6026   0.0994 H              1 S1                 0.0000
     30 ****        -5.4184   5.0067  -0.6174 H              1 S1                 0.0000
     31 ****        -6.3125   2.7177   0.1825 H              1 S1                 0.0000
     32 ****        -4.7352   2.2597   0.8142 H              1 S1                 0.0000
     33 ****        -5.5444   1.2306  -0.3608 H              1 S1                 0.0000
     34 ****        -2.2445  -0.1466  -3.3470 H              1 S1                 0.0000
     35 ****        -0.0030  -0.6299  -2.7411 H              1 S1                 0.0000
     36 ****         1.8312  -1.3147  -2.7090 H              1 S1                 0.0000
     37 ****         4.1205  -1.2351  -2.7290 H              1 S1                 0.0000
     38 ****         4.1171   0.4153  -2.1598 H              1 S1                 0.0000
     39 ****         2.1607  -1.3626  -0.0566 H              1 S1                 0.0000
     40 ****         4.1467  -1.3606   2.0763 H              1 S1                 0.0000
     41 ****         2.8709  -3.9689   1.1088 H              1 S1                 0.0000
     42 ****         4.5781  -3.5986   1.0894 H              1 S1                 0.0000
     43 ****         3.9752  -5.0286   3.0434 H              1 S1                 0.0000
     44 ****         4.6447  -3.4968   3.5516 H              1 S1                 0.0000
     45 ****         1.6770  -4.2292   3.4768 H              1 S1                 0.0000
     46 ****         2.6504  -4.0206   4.9130 H              1 S1                 0.0000
     47 ****         1.2598  -1.9928   4.4413 H              1 S1                 0.0000
     48 ****         2.9667  -1.6203   4.4171 H              1 S1                 0.0000
     49 ****         1.8574  -0.5527   2.4895 H              1 S1                 0.0000
     50 ****         1.1837  -2.0822   1.9798 H              1 S1                 0.0000
     51 ****        -0.2848   2.3661  -0.4061 H              1 S1                 0.0000
     52 ****        -4.1986   1.0915  -2.9056 LP             1 S1                 0.0000
     53 ****         1.1513   2.1954  -1.0169 LP             1 S1                 0.0000
     54 ****         2.7741   1.5908  -1.0478 LP             1 S1                 0.0000
     55 ****         5.9690  -0.8251  -0.9694 LP             1 S1                 0.0000
     56 ****         5.5644  -1.4270   0.6035 LP             1 S1                 0.0000
     57 ****        -2.3294   3.4550  -0.1526 LP             1 S1                 0.0000
@<TRIPOS>BOND
    1    1    2 1     
    2    1   25 1     
    3    1   26 1     
    4    1   27 1     
    5    2    3 1     
    6    2    4 1     
    7    2    5 1     
    8    3   28 1     
    9    3   29 1     
   10    3   30 1     
   11    4   31 1     
   12    4   32 1     
   13    4   33 1     
   14    5   24 ar    
   15    5    6 ar    
   16    6    7 ar    
   17    7    8 ar    
   18    7   34 1     
   19    8    9 1     
   20    8   23 ar    
   21    9   10 am    
   22    9   35 1     
   23   10   11 2     
   24   10   12 am    
   25   12   13 1     
   26   12   36 1     
   27   13   14 1     
   28   13   37 1     
   29   13   38 1     
   30   14   15 2     
   31   14   16 am    
   32   16   17 1     
   33   16   39 1     
   34   17   22 1     
   35   17   18 1     
   36   17   40 1     
   37   18   19 1     
   38   18   41 1     
   39   18   42 1     
   40   19   20 1     
   41   19   43 1     
   42   19   44 1     
   43   20   21 1     
   44   20   45 1     
   45   20   46 1     
   46   21   22 1     
   47   21   47 1     
   48   21   48 1     
   49   22   49 1     
   50   22   50 1     
   51   23   24 ar    
   52   23   51 1     
   53    6   52 1     
   54   11   53 1     
   55   11   54 1     
   56   15   55 1     
   57   15   56 1     
   58   24   57 1     
@<TRIPOS>SUBSTRUCTURE
      1 S1             1
@<TRIPOS>SET
LONE_PAIRS      STATIC     ATOMS    <user>   **** ""
6 52 53 54 55 56 57
DONOR_HYDROGENS      STATIC     ATOMS    <user>   **** ""
3 35 36 39
ATOM$BLUE        STATIC     ATOMS    COLORGROUP SYSTEM
6 52 53 54 55 56 57
ATOM$RED        STATIC     ATOMS    COLORGROUP SYSTEM
3 35 36 39
