AV-unprocessed.smi:2044|AV-procd|sdf|8298|dock10
  -GOLD-   2272010563D 1   1.00000     0.00000
 Structure written by MMmdl.
 39 40  0  0  0  0  0  0  0  0  1 V2000
  143.6498  132.3926  149.1196 C   0  0  0  0  0  0  0  0  0  0  0  0
  144.6900  133.0880  149.9292 C   0  0  0  0  0  0  0  0  0  0  0  0
  144.7543  134.3333  150.4882 C   0  0  0  0  0  0  0  0  0  0  0  0
  146.0282  134.3369  151.1161 C   0  0  0  0  0  0  0  0  0  0  0  0
  146.4888  135.4777  151.8217 N   0  0  0  0  0  0  0  0  0  0  0  0
  145.7605  136.3361  152.5557 C   0  0  0  0  0  0  0  0  0  0  0  0
  144.5424  136.2684  152.7235 O   0  0  0  0  0  0  0  0  0  0  0  0
  146.5317  137.2948  153.0882 N   0  0  0  0  0  0  0  0  0  0  0  0
  146.0631  138.3999  153.9225 C   0  0  0  0  0  0  0  0  0  0  0  0
  146.9005  139.6906  153.7222 C   0  0  2  0  0  0  0  0  0  0  0  0
  147.1041  139.9134  152.2066 C   0  0  0  0  0  0  0  0  0  0  0  0
  148.1602  139.7187  154.4985 N   0  0  0  0  0  0  0  0  0  0  0  0
  149.1495  138.7592  153.9981 C   0  0  0  0  0  0  0  0  0  0  0  0
  150.4698  138.8028  154.7868 C   0  0  0  0  0  0  0  0  0  0  0  0
  151.0023  140.1205  154.7571 O   0  0  0  0  0  0  0  0  0  0  0  0
  150.1013  141.0762  155.3001 C   0  0  0  0  0  0  0  0  0  0  0  0
  148.7801  141.0471  154.5126 C   0  0  0  0  0  0  0  0  0  0  0  0
  146.6823  133.1966  150.9552 N   0  0  0  0  0  0  0  0  0  0  0  0
  145.8282  132.3907  150.1930 O   0  0  0  0  0  0  0  0  0  0  0  0
  142.6693  132.8420  149.2778 H   0  0  0  0  0  0  0  0  0  0  0  0
  143.5851  131.3384  149.3905 H   0  0  0  0  0  0  0  0  0  0  0  0
  143.8836  132.4554  148.0569 H   0  0  0  0  0  0  0  0  0  0  0  0
  144.0088  135.1137  150.4508 H   0  0  0  0  0  0  0  0  0  0  0  0
  147.4804  135.6572  151.7650 H   0  0  0  0  0  0  0  0  0  0  0  0
  147.5208  137.2722  152.8876 H   0  0  0  0  0  0  0  0  0  0  0  0
  145.0083  138.6062  153.7341 H   0  0  0  0  0  0  0  0  0  0  0  0
  146.0910  138.0758  154.9621 H   0  0  0  0  0  0  0  0  0  0  0  0
  146.2761  140.5150  154.0700 H   0  0  0  0  0  0  0  0  0  0  0  0
  146.1729  139.7702  151.6578 H   0  0  0  0  0  0  0  0  0  0  0  0
  147.8384  139.2206  151.7948 H   0  0  0  0  0  0  0  0  0  0  0  0
  147.4352  140.9268  151.9818 H   0  0  0  0  0  0  0  0  0  0  0  0
  148.7632  137.7430  154.0643 H   0  0  0  0  0  0  0  0  0  0  0  0
  149.3520  138.9525  152.9435 H   0  0  0  0  0  0  0  0  0  0  0  0
  150.3135  138.4877  155.8197 H   0  0  0  0  0  0  0  0  0  0  0  0
  151.1952  138.1168  154.3489 H   0  0  0  0  0  0  0  0  0  0  0  0
  149.9273  140.8650  156.3563 H   0  0  0  0  0  0  0  0  0  0  0  0
  150.5548  142.0656  155.2421 H   0  0  0  0  0  0  0  0  0  0  0  0
  148.9620  141.3813  153.4900 H   0  0  0  0  0  0  0  0  0  0  0  0
  148.1126  141.7767  154.9682 H   0  0  0  0  0  0  0  0  0  0  0  0
  1  2  1  0  0  0  0
  1 20  1  0  0  0  0
  1 21  1  0  0  0  0
  1 22  1  0  0  0  0
  2 19  1  0  0  0  0
  2  3  2  0  0  0  0
  3  4  1  0  0  0  0
  3 23  1  0  0  0  0
  4  5  1  0  0  0  0
  4 18  2  0  0  0  0
  5  6  1  0  0  0  0
  5 24  1  0  0  0  0
  6  7  2  0  0  0  0
  6  8  1  0  0  0  0
  8  9  1  0  0  0  0
  8 25  1  0  0  0  0
  9 10  1  0  0  0  0
  9 26  1  0  0  0  0
  9 27  1  0  0  0  0
 10 11  1  0  0  0  0
 10 12  1  0  0  0  0
 10 28  1  0  0  0  0
 11 29  1  0  0  0  0
 11 30  1  0  0  0  0
 11 31  1  0  0  0  0
 12 17  1  0  0  0  0
 12 13  1  0  0  0  0
 13 14  1  0  0  0  0
 13 32  1  0  0  0  0
 13 33  1  0  0  0  0
 14 15  1  0  0  0  0
 14 34  1  0  0  0  0
 14 35  1  0  0  0  0
 15 16  1  0  0  0  0
 16 17  1  0  0  0  0
 16 36  1  0  0  0  0
 16 37  1  0  0  0  0
 17 38  1  0  0  0  0
 17 39  1  0  0  0  0
 18 19  1  0  0  0  0
M  END
> <s_m_source_file>
AV-unprocessed.smi

> <i_m_source_file_index>
2044

> <i_lp_mmshare_version>
43012

> <i_f3d_flags>
0

> <s_epik_input>
W0NIM11jMVtjSF1jKG5vMSlbTkhdQyg9TylbTkhdW0NIMl1bQ0BIXShbQ0gzXSlOMltDSDJdW0NIMl1PW0NIMl1bQ0gyXTI=

> <s_epik_cmdline>
J2VwaWtfcHl0aG9uJywgJy1waCcsICc3LjAnLCAnLXRuJywgJzgnLCAnLW1hJywgJzIwMCcsICctbWV0YWxfYmluZGluZycsICctaW1hZScsICc8aW5maWxlLm1hZT4nLCAnLW9tYWUnLCAnPG91dGZpbGUubWFlPic=

> <r_epik_Ionization_Penalty>
0.214073

> <r_epik_Ionization_Penalty_Charging>
0

> <r_epik_Ionization_Penalty_Neutral>
0.214073

> <r_epik_State_Penalty>
0.204211

> <r_epik_Charging_Adjusted_Penalty>
0.204211

> <i_epik_Tot_Q>
0

> <i_epik_Tot_abs_Q>
0

> <r_epik_Metal_State_Penalty>
0.217151

> <b_epik_Metal_Only>
0

> <s_lp_Force_Field>
OPLS_2005

> <r_lp_Energy>
29.787

> <b_lp_Chiralities_Consistent>
1

> <s_lp_Variant>
AV-unprocessed.smi:2044-1

> <Gold.Version>
5.8.1

> <Gold.Id.Protein>
6NUR|6NUR_protein|mol2

> <Gold.PLP.Fitness>
36.7465

> <Gold.PLP.PLP>
-29.5261

> <Gold.PLP.part.hbond>
-3.0000

> <Gold.PLP.part.metal>
0.0000

> <Gold.PLP.part.buried>
0.5399

> <Gold.PLP.part.nonpolar>
-27.3749

> <Gold.PLP.part.repulsive>
0.7508

> <Gold.PLP.ligand.clash>
0.0000

> <Gold.PLP.ligand.torsion>
0.6749

> <Gold.PLP.Chemscore.Hbond>
2.8424

> <Gold.PLP.Chemscore.CHOScore>
0.0000

> <Gold.PLP.Chemscore.Metal>
0.0000

> <Gold.Chemscore.Hbonds>
donor molecule, donor type, donor heavy atom, donor atom, acceptor molecule, acceptor atom, score
      L1  H     5    24       P1  7948  1.00
      L1  H     8    25       P1  7948  0.84
      P1  H  7989  7998       L1    15  1.00

> <Gold.PLP.Chemscore.Internal.Correction>
0.0429

> <Gold.Rescore>
     Score         DG    S(hbond)    S(metal)    S(lipo)     H(rot)  DE(clash)    DE(int)     intcor
     15.70     -19.21       2.65        0.00      76.12       1.58       1.58       1.93       ----

> <Gold.Chemscore.Fitness>
15.6980

> <Gold.Chemscore.DG>
-19.2141

> <Gold.Chemscore.ZeroCoef>
-5.4800

> <Gold.Chemscore.Hbond>
2.6529

> <Gold.Chemscore.Metal>
0.0000

> <Gold.Chemscore.Lipo>
76.1232

> <Gold.Chemscore.Internal_Hbond>
0.0000

> <Gold.Chemscore.DEClash>
1.5848

> <Gold.Chemscore.DEInternal>
1.9313

> <Gold.Chemscore.Rot>
1.5753

> <Gold.Chemscore.Internal.Correction>
   9.000000E+99

> <Gold.Chemscore.Hbonds>
donor molecule, donor type, donor heavy atom, donor atom, acceptor molecule, acceptor atom, score
      L1  H     5    24       P1  7948  0.94
      L1  H     8    25       P1  7948  0.77
      P1  H  7989  7998       L1    15  0.44

> <Gold.Chemscore.Hbond.Weighted>
-8.8605

> <Gold.Chemscore.Metal.Weighted>
-0.0000

> <Gold.Chemscore.Lipo.Weighted>
-8.9064

> <Gold.Chemscore.Internal_Hbond.Weighted>
0.0000

> <Gold.Chemscore.DEClash.Weighted>
1.5848

> <Gold.Chemscore.DEInternal.Weighted>
1.9313

> <Gold.Chemscore.Rot.Weighted>
4.0329

> <Gold.Chemscore.Internal.Correction.Weighted>
   9.000000E+99

> <Gold.Protein.RotatedTorsions>
[ 6907 6896 6895 6894 ] final  -99.34 input  -60.11 | X-H torsion
[ 7974 7965 7964 7962 ] final  111.53 input  175.53 | X-H torsion
[ 8008 7997 7996 7995 ] final  -43.85 input   59.86 | X-H torsion
[ 10167 10162 10161 10158 ] final   45.95 input  -65.29 | X-H torsion
[ 10718 10713 10712 10709 ] final  143.87 input   66.30 | X-H torsion
[ 10763 10752 10751 10750 ] final -112.52 input  -60.55 | X-H torsion
[ 11005 11000 10999 10996 ] final  -18.77 input  -57.11 | X-H torsion

> <Gold.Protein.ActiveResidues>
 VAL166  LYS551  ARG553  GLY616  TRP617  ASP618  TYR619  PRO620  LYS621  CYS622 
 ASP623  PHE694  ASN695  SER759  ASP760  ASP761  ALA762  ILE779  LEU786  VAL792 
 PHE793  MET794  SER795  GLU796  ALA797  LYS798  CYS799  TRP800  GLU811  SER814 

> <Gold.Protein.RotatedAtoms>
  150.7076  134.1056  159.3981 H   0  0  0  0  0  0  0  0  0  0  0  0  # atno 6907 bound_to 6896
  151.9042  135.0363  160.0518 H   0  0  0  0  0  0  0  0  0  0  0  0  # atno 6908 bound_to 6896
  152.2389  133.5083  159.5295 H   0  0  0  0  0  0  0  0  0  0  0  0  # atno 6909 bound_to 6896
  145.2411  139.2778  143.4117 H   0  0  0  0  0  0  0  0  0  0  0  0  # atno 7974 bound_to 7965
  154.3997  140.1437  156.3586 H   0  0  0  0  0  0  0  0  0  0  0  0  # atno 8008 bound_to 7997
  155.8202  140.3469  155.5489 H   0  0  0  0  0  0  0  0  0  0  0  0  # atno 8009 bound_to 7997
  155.8296  140.0910  157.1791 H   0  0  0  0  0  0  0  0  0  0  0  0  # atno 8010 bound_to 7997
  140.3189  144.2730  150.6186 H   0  0  0  0  0  0  0  0  0  0  0  0  # atno 10167 bound_to 10162
  157.3639  131.0969  151.0890 H   0  0  0  0  0  0  0  0  0  0  0  0  # atno 10718 bound_to 10713
  154.8353  135.4487  154.1207 H   0  0  0  0  0  0  0  0  0  0  0  0  # atno 10763 bound_to 10752
  153.2444  135.6920  153.7754 H   0  0  0  0  0  0  0  0  0  0  0  0  # atno 10764 bound_to 10752
  153.7089  135.3360  155.3218 H   0  0  0  0  0  0  0  0  0  0  0  0  # atno 10765 bound_to 10752
  140.8300  133.8004  155.9749 H   0  0  0  0  0  0  0  0  0  0  0  0  # atno 11005 bound_to 11000
  146.3328  140.2774  142.8608 LP  0  0  0  0  0  0  0  0  0  0  0  0  # atno 17320 bound_to 7965
  144.9588  140.8254  143.5526 LP  0  0  0  0  0  0  0  0  0  0  0  0  # atno 17321 bound_to 7965
  140.5501  143.2208  151.7941 LP  0  0  0  0  0  0  0  0  0  0  0  0  # atno 17342 bound_to 10162
  139.4878  144.4487  151.9679 LP  0  0  0  0  0  0  0  0  0  0  0  0  # atno 17343 bound_to 10162
  157.2020  130.6399  149.5742 LP  0  0  0  0  0  0  0  0  0  0  0  0  # atno 17370 bound_to 10713
  155.9742  130.4688  150.6372 LP  0  0  0  0  0  0  0  0  0  0  0  0  # atno 17371 bound_to 10713
  140.9008  134.2381  157.5043 LP  0  0  0  0  0  0  0  0  0  0  0  0  # atno 17394 bound_to 11000
  139.8705  134.9705  156.4705 LP  0  0  0  0  0  0  0  0  0  0  0  0  # atno 17395 bound_to 11000

$$$$
