AV-unprocessed.smi:1943|AV-procd|sdf|7851|dock5
  -GOLD-   22720 9593D 1   1.00000     0.00000
 Structure written by MMmdl.
 48 49  0  0  0  0  0  0  0  0  2 V2000
  145.5413  136.3381  150.3383 C   0  0  0  0  0  0  0  0  0  0  0  0
  146.0315  135.2817  151.2633 N   0  3  0  0  0  0  0  0  0  0  0  0
  146.2265  134.0073  150.5233 C   0  0  0  0  0  0  0  0  0  0  0  0
  145.2903  135.1745  152.5728 C   0  0  0  0  0  0  0  0  0  0  0  0
  145.2255  136.5480  153.2868 C   0  0  0  0  0  0  0  0  0  0  0  0
  143.8343  134.6852  152.3486 C   0  0  0  0  0  0  0  0  0  0  0  0
  146.0128  134.1180  153.4634 C   0  0  0  0  0  0  0  0  0  0  0  0
  147.3225  134.5502  153.9494 N   0  0  0  0  0  0  0  0  0  0  0  0
  147.7551  134.4663  155.2186 C   0  0  0  0  0  0  0  0  0  0  0  0
  147.0753  134.0128  156.1396 O   0  0  0  0  0  0  0  0  0  0  0  0
  149.1703  134.9230  155.4355 C   0  0  0  0  0  0  0  0  0  0  0  0
  149.5520  136.0603  154.8069 N   0  0  0  0  0  0  0  0  0  0  0  0
  150.7958  136.5150  155.0046 C   0  0  0  0  0  0  0  0  0  0  0  0
  151.1717  137.6880  154.3387 N   0  0  0  0  0  0  0  0  0  0  0  0
  150.1895  138.6087  153.7677 C   0  0  0  0  0  0  0  0  0  0  0  0
  149.8989  139.7391  154.7713 C   0  0  0  0  0  0  0  0  0  0  0  0
  151.1158  140.4081  155.0964 O   0  0  0  0  0  0  0  0  0  0  0  0
  152.0874  139.5331  155.6668 C   0  0  0  0  0  0  0  0  0  0  0  0
  152.4046  138.3992  154.6746 C   0  0  0  0  0  0  0  0  0  0  0  0
  151.7092  135.9286  155.7872 N   0  0  0  0  0  0  0  0  0  0  0  0
  151.3536  134.7943  156.4251 C   0  0  0  0  0  0  0  0  0  0  0  0
  150.0705  134.2310  156.2851 C   0  0  0  0  0  0  0  0  0  0  0  0
  149.6819  132.7573  157.1047 Cl  0  0  0  0  0  0  0  0  0  0  0  0
  144.5769  136.0716  149.9046 H   0  0  0  0  0  0  0  0  0  0  0  0
  146.2427  136.4684  149.5137 H   0  0  0  0  0  0  0  0  0  0  0  0
  145.4418  137.3105  150.8161 H   0  0  0  0  0  0  0  0  0  0  0  0
  145.2745  133.5227  150.3047 H   0  0  0  0  0  0  0  0  0  0  0  0
  146.8570  133.3097  151.0738 H   0  0  0  0  0  0  0  0  0  0  0  0
  146.7325  134.1862  149.5740 H   0  0  0  0  0  0  0  0  0  0  0  0
  144.5868  136.5103  154.1697 H   0  0  0  0  0  0  0  0  0  0  0  0
  144.8160  137.3224  152.6382 H   0  0  0  0  0  0  0  0  0  0  0  0
  146.2073  136.8812  153.6241 H   0  0  0  0  0  0  0  0  0  0  0  0
  143.3058  134.5280  153.2891 H   0  0  0  0  0  0  0  0  0  0  0  0
  143.8096  133.7404  151.8041 H   0  0  0  0  0  0  0  0  0  0  0  0
  143.2355  135.4091  151.7952 H   0  0  0  0  0  0  0  0  0  0  0  0
  145.4003  133.9015  154.3396 H   0  0  0  0  0  0  0  0  0  0  0  0
  146.1268  133.1651  152.9487 H   0  0  0  0  0  0  0  0  0  0  0  0
  147.9588  134.9380  153.2673 H   0  0  0  0  0  0  0  0  0  0  0  0
  150.6015  139.0301  152.8500 H   0  0  0  0  0  0  0  0  0  0  0  0
  149.2676  138.1066  153.4749 H   0  0  0  0  0  0  0  0  0  0  0  0
  149.2036  140.4582  154.3381 H   0  0  0  0  0  0  0  0  0  0  0  0
  149.4327  139.3470  155.6767 H   0  0  0  0  0  0  0  0  0  0  0  0
  152.9896  140.1028  155.8893 H   0  0  0  0  0  0  0  0  0  0  0  0
  151.7205  139.1317  156.6130 H   0  0  0  0  0  0  0  0  0  0  0  0
  153.1723  137.7430  155.0832 H   0  0  0  0  0  0  0  0  0  0  0  0
  152.8256  138.8177  153.7597 H   0  0  0  0  0  0  0  0  0  0  0  0
  152.1032  134.3294  157.0482 H   0  0  0  0  0  0  0  0  0  0  0  0
  146.9650  135.5693  151.5206 H   0  0  0  0  0  0  0  0  0  0  0  0
  1  2  1  0  0  0  0
  1 24  1  0  0  0  0
  1 25  1  0  0  0  0
  1 26  1  0  0  0  0
  2  3  1  0  0  0  0
  2  4  1  0  0  0  0
  2 48  1  0  0  0  0
  3 27  1  0  0  0  0
  3 28  1  0  0  0  0
  3 29  1  0  0  0  0
  4  5  1  0  0  0  0
  4  6  1  0  0  0  0
  4  7  1  0  0  0  0
  5 30  1  0  0  0  0
  5 31  1  0  0  0  0
  5 32  1  0  0  0  0
  6 33  1  0  0  0  0
  6 34  1  0  0  0  0
  6 35  1  0  0  0  0
  7  8  1  0  0  0  0
  7 36  1  0  0  0  0
  7 37  1  0  0  0  0
  8  9  1  0  0  0  0
  8 38  1  0  0  0  0
  9 10  2  0  0  0  0
  9 11  1  0  0  0  0
 11 22  1  0  0  0  0
 11 12  2  0  0  0  0
 12 13  1  0  0  0  0
 13 14  1  0  0  0  0
 13 20  2  0  0  0  0
 14 19  1  0  0  0  0
 14 15  1  0  0  0  0
 15 16  1  0  0  0  0
 15 39  1  0  0  0  0
 15 40  1  0  0  0  0
 16 17  1  0  0  0  0
 16 41  1  0  0  0  0
 16 42  1  0  0  0  0
 17 18  1  0  0  0  0
 18 19  1  0  0  0  0
 18 43  1  0  0  0  0
 18 44  1  0  0  0  0
 19 45  1  0  0  0  0
 19 46  1  0  0  0  0
 20 21  1  0  0  0  0
 21 22  2  0  0  0  0
 21 47  1  0  0  0  0
 22 23  1  0  0  0  0
M  CHG  1   2   1
M  END
> <s_m_source_file>
AV-unprocessed.smi

> <i_m_source_file_index>
1943

> <i_lp_mmshare_version>
43012

> <i_f3d_flags>
0

> <s_epik_input>
W0NIM11OKFtDSDNdKUMoW0NIM10pKFtDSDNdKVtDSDJdW05IXUMoPU8pYzFuYyhuW2NIXWMxQ2wpTjJbQ0gyXVtDSDJdT1tDSDJdW0NIMl0y

> <s_epik_cmdline>
J2VwaWtfcHl0aG9uJywgJy1waCcsICc3LjAnLCAnLXRuJywgJzgnLCAnLW1hJywgJzIwMCcsICctbWV0YWxfYmluZGluZycsICctaW1hZScsICc8aW5maWxlLm1hZT4nLCAnLW9tYWUnLCAnPG91dGZpbGUubWFlPic=

> <r_lp_tautomer_probability>
1

> <r_epik_Ionization_Penalty>
0.00747112

> <r_epik_Ionization_Penalty_Charging>
0.00734137

> <r_epik_Ionization_Penalty_Neutral>
0.000129757

> <r_epik_State_Penalty>
0.00547931

> <r_epik_Charging_Adjusted_Penalty>
0.0128207

> <i_epik_Tot_Q>
1

> <i_epik_Tot_abs_Q>
1

> <r_epik_Metal_State_Penalty>
0.0979204

> <b_epik_Metal_Only>
0

> <s_lp_Force_Field>
OPLS_2005

> <r_lp_Energy>
30.7364

> <b_lp_Chiralities_Consistent>
1

> <s_lp_Variant>
AV-unprocessed.smi:1943-1

> <Gold.Version>
5.8.1

> <Gold.Id.Protein>
6NUR|6NUR_protein|mol2

> <Gold.PLP.Fitness>
42.5447

> <Gold.PLP.PLP>
-30.4175

> <Gold.PLP.part.hbond>
-3.4599

> <Gold.PLP.part.metal>
0.0000

> <Gold.PLP.part.buried>
-0.0057

> <Gold.PLP.part.nonpolar>
-26.6853

> <Gold.PLP.part.repulsive>
0.4147

> <Gold.PLP.ligand.clash>
0.0000

> <Gold.PLP.ligand.torsion>
0.9175

> <Gold.PLP.Chemscore.Hbond>
4.5525

> <Gold.PLP.Chemscore.CHOScore>
0.0000

> <Gold.PLP.Chemscore.Metal>
0.0000

> <Gold.Chemscore.Hbonds>
donor molecule, donor type, donor heavy atom, donor atom, acceptor molecule, acceptor atom, score
      L1  H     2    48       P1  7948  1.76
      L1  H     8    38       P1  7948  0.75
      P1  H  7989  7998       L1    17  1.00
      P1  H 10752 10764       L1    20  1.00

> <Gold.PLP.Chemscore.Internal.Correction>
0.3049

> <Gold.Rescore>
     Score         DG    S(hbond)    S(metal)    S(lipo)     H(rot)  DE(clash)    DE(int)     intcor
     15.80     -17.97       2.14        0.00      76.84       1.43       0.46       1.71       ----

> <Gold.Chemscore.Fitness>
15.7980

> <Gold.Chemscore.DG>
-17.9693

> <Gold.Chemscore.ZeroCoef>
-5.4800

> <Gold.Chemscore.Hbond>
2.1435

> <Gold.Chemscore.Metal>
0.0000

> <Gold.Chemscore.Lipo>
76.8417

> <Gold.Chemscore.Internal_Hbond>
0.0000

> <Gold.Chemscore.DEClash>
0.4609

> <Gold.Chemscore.DEInternal>
1.7104

> <Gold.Chemscore.Rot>
1.4298

> <Gold.Chemscore.Internal.Correction>
   9.000000E+99

> <Gold.Chemscore.Hbonds>
donor molecule, donor type, donor heavy atom, donor atom, acceptor molecule, acceptor atom, score
      L1  H     2    48       P1  7948  0.85
      L1  H     8    38       P1  7948  0.73
      P1  H  7989  7998       L1    17  0.17
      P1  H 10752 10764       L1    20  0.24

> <Gold.Chemscore.Hbond.Weighted>
-7.1592

> <Gold.Chemscore.Metal.Weighted>
-0.0000

> <Gold.Chemscore.Lipo.Weighted>
-8.9905

> <Gold.Chemscore.Internal_Hbond.Weighted>
0.0000

> <Gold.Chemscore.DEClash.Weighted>
0.4609

> <Gold.Chemscore.DEInternal.Weighted>
1.7104

> <Gold.Chemscore.Rot.Weighted>
3.6604

> <Gold.Chemscore.Internal.Correction.Weighted>
   9.000000E+99

> <Gold.Protein.RotatedTorsions>
[ 6907 6896 6895 6894 ] final -151.74 input  -60.11 | X-H torsion
[ 7974 7965 7964 7962 ] final -122.01 input  175.53 | X-H torsion
[ 8008 7997 7996 7995 ] final -179.76 input   59.86 | X-H torsion
[ 10167 10162 10161 10158 ] final   82.08 input  -65.29 | X-H torsion
[ 10718 10713 10712 10709 ] final -119.72 input   66.30 | X-H torsion
[ 10763 10752 10751 10750 ] final  -23.49 input  -60.55 | X-H torsion
[ 11005 11000 10999 10996 ] final  -48.75 input  -57.11 | X-H torsion

> <Gold.Protein.ActiveResidues>
 VAL166  LYS551  ARG553  GLY616  TRP617  ASP618  TYR619  PRO620  LYS621  CYS622 
 ASP623  PHE694  ASN695  SER759  ASP760  ASP761  ALA762  ILE779  LEU786  VAL792 
 PHE793  MET794  SER795  GLU796  ALA797  LYS798  CYS799  TRP800  GLU811  SER814 

> <Gold.Protein.RotatedAtoms>
  151.2175  133.4521  159.2599 H   0  0  0  0  0  0  0  0  0  0  0  0  # atno 6907 bound_to 6896
  151.0917  134.9920  159.8416 H   0  0  0  0  0  0  0  0  0  0  0  0  # atno 6908 bound_to 6896
  152.5435  134.2108  159.8802 H   0  0  0  0  0  0  0  0  0  0  0  0  # atno 6909 bound_to 6896
  145.0341  140.8091  143.4306 H   0  0  0  0  0  0  0  0  0  0  0  0  # atno 7974 bound_to 7965
  156.0342  140.1289  157.0226 H   0  0  0  0  0  0  0  0  0  0  0  0  # atno 8008 bound_to 7997
  154.4363  140.1043  156.6213 H   0  0  0  0  0  0  0  0  0  0  0  0  # atno 8009 bound_to 7997
  155.5763  140.3467  155.4530 H   0  0  0  0  0  0  0  0  0  0  0  0  # atno 8010 bound_to 7997
  139.9325  144.6143  150.8331 H   0  0  0  0  0  0  0  0  0  0  0  0  # atno 10167 bound_to 10162
  156.1203  130.6317  150.9451 H   0  0  0  0  0  0  0  0  0  0  0  0  # atno 10718 bound_to 10713
  153.6686  135.6973  153.5154 H   0  0  0  0  0  0  0  0  0  0  0  0  # atno 10763 bound_to 10752
  153.2575  135.4255  155.0860 H   0  0  0  0  0  0  0  0  0  0  0  0  # atno 10764 bound_to 10752
  154.8433  135.3547  154.6230 H   0  0  0  0  0  0  0  0  0  0  0  0  # atno 10765 bound_to 10752
  141.0719  133.6676  156.3487 H   0  0  0  0  0  0  0  0  0  0  0  0  # atno 11005 bound_to 11000
  145.1733  139.2392  143.5331 LP  0  0  0  0  0  0  0  0  0  0  0  0  # atno 17320 bound_to 7965
  146.3502  140.1489  142.8593 LP  0  0  0  0  0  0  0  0  0  0  0  0  # atno 17321 bound_to 7965
  140.7633  143.3221  151.2599 LP  0  0  0  0  0  0  0  0  0  0  0  0  # atno 17342 bound_to 10162
  139.6771  143.9919  152.2787 LP  0  0  0  0  0  0  0  0  0  0  0  0  # atno 17343 bound_to 10162
  157.6386  131.0913  150.8298 LP  0  0  0  0  0  0  0  0  0  0  0  0  # atno 17370 bound_to 10713
  156.8395  130.5043  149.5322 LP  0  0  0  0  0  0  0  0  0  0  0  0  # atno 17371 bound_to 10713
  140.5655  134.5892  157.5444 LP  0  0  0  0  0  0  0  0  0  0  0  0  # atno 17394 bound_to 11000
  139.9532  134.7580  156.0400 LP  0  0  0  0  0  0  0  0  0  0  0  0  # atno 17395 bound_to 11000

$$$$
