#       Name:                AV-unprocessed.smi:257
#       Creating user name   scv26
#       Creation time:       Thu Mar 26 21:11:19 2020


#       File generated by GOLD software.
#

@<TRIPOS>MOLECULE
AV-unprocessed.smi:257
    59    62     1
SMALL
NO_CHARGES


@<TRIPOS>ATOM
      1 ****        -4.7759  -2.6803   0.9913 C.3            1 S1                 0.0000
      2 ****        -3.9953  -1.6022   1.5778 N.am           1 S1                 0.0000
      3 ****        -3.9007  -0.3699   1.0586 C.2            1 S1                 0.0000
      4 ****        -4.4834  -0.0290   0.0279 O.2            1 S1                 0.0000
      5 ****        -3.0178   0.6249   1.8341 C.3            1 S1                 0.0000
      6 ****        -3.8378   1.4347   2.8538 C.3            1 S1                 0.0000
      7 ****        -4.2806   2.6791   2.0865 C.3            1 S1                 0.0000
      8 ****        -3.0963   2.9519   1.1604 C.3            1 S1                 0.0000
      9 ****        -2.4519   1.6569   0.9644 N.pl3          1 S1                 0.0000
     10 ****        -1.3697   1.4963   0.1525 C.ar           1 S1                 0.0000
     11 ****        -0.9604   2.5701  -0.5745 N.ar           1 S1                 0.0000
     12 ****         0.0903   2.4835  -1.3933 C.ar           1 S1                 0.0000
     13 ****         0.8714   1.4318  -1.6357 N.ar           1 S1                 0.0000
     14 ****         0.4770   0.3470  -0.9113 C.ar           1 S1                 0.0000
     15 ****        -0.6213   0.2884  -0.0029 C.ar           1 S1                 0.0000
     16 ****        -0.7000  -0.9920   0.5363 N.2            1 S1                 0.0000
     17 ****         0.2830  -1.6450  -0.0178 C.2            1 S1                 0.0000
     18 ****         1.0489  -0.9135  -0.8945 N.pl3          1 S1                 0.0000
     19 ****         2.2013  -1.3876  -1.6474 C.3            1 S1                 0.0000
     20 ****         3.5311  -1.3806  -0.8443 C.3            1 S1                 0.0000
     21 ****         3.3736  -2.2645   0.2507 O.3            1 S1                 0.0000
     22 ****         4.7105  -1.9051  -1.6876 C.3            1 S1                 0.0000
     23 ****         5.1786  -0.8634  -2.7203 C.3            1 S1                 0.0000
     24 ****         5.5166   0.3543  -2.0652 O.3            1 S1                 0.0000
     25 ****         4.4152   0.9457  -1.3847 C.3            1 S1                 0.0000
     26 ****         3.9162   0.0023  -0.2757 C.3            1 S1                 0.0000
     27 ****        -4.7014  -3.5730   1.6119 H              1 S1                 0.0000
     28 ****        -4.4081  -2.9261  -0.0058 H              1 S1                 0.0000
     29 ****        -5.8280  -2.4024   0.9161 H              1 S1                 0.0000
     30 ****        -3.4882  -1.8062   2.4269 H              1 S1                 0.0000
     31 ****        -2.2298   0.0893   2.3644 H              1 S1                 0.0000
     32 ****        -4.6799   0.8833   3.2747 H              1 S1                 0.0000
     33 ****        -3.1954   1.7293   3.6849 H              1 S1                 0.0000
     34 ****        -5.1695   2.4515   1.4964 H              1 S1                 0.0000
     35 ****        -4.5144   3.5225   2.7365 H              1 S1                 0.0000
     36 ****        -3.4271   3.3917   0.2187 H              1 S1                 0.0000
     37 ****        -2.3903   3.6365   1.6324 H              1 S1                 0.0000
     38 ****         0.3401   3.3862  -1.9310 H              1 S1                 0.0000
     39 ****         0.4811  -2.6838   0.2031 H              1 S1                 0.0000
     40 ****         1.9803  -2.3976  -1.9955 H              1 S1                 0.0000
     41 ****         2.2883  -0.7781  -2.5464 H              1 S1                 0.0000
     42 ****         4.1811  -2.2811   0.7417 H              1 S1                 0.0000
     43 ****         5.5537  -2.1383  -1.0353 H              1 S1                 0.0000
     44 ****         4.4434  -2.8379  -2.1859 H              1 S1                 0.0000
     45 ****         6.0597  -1.2321  -3.2456 H              1 S1                 0.0000
     46 ****         4.4161  -0.6836  -3.4787 H              1 S1                 0.0000
     47 ****         4.7394   1.8912  -0.9502 H              1 S1                 0.0000
     48 ****         3.6228   1.1819  -2.0949 H              1 S1                 0.0000
     49 ****         3.0867   0.4566   0.2662 H              1 S1                 0.0000
     50 ****         4.7191  -0.1144   0.4539 H              1 S1                 0.0000
     51 ****        -5.0590  -0.6844  -0.4611 LP             1 S1                 0.0000
     52 ****        -4.3808   0.9031  -0.3195 LP             1 S1                 0.0000
     53 ****        -1.4533   3.4365  -0.4946 LP             1 S1                 0.0000
     54 ****         1.6466   1.4377  -2.2673 LP             1 S1                 0.0000
     55 ****        -1.3634  -1.3351   1.2013 LP             1 S1                 0.0000
     56 ****         3.1639  -3.1829  -0.0847 LP             1 S1                 0.0000
     57 ****         2.6288  -1.9457   0.8371 LP             1 S1                 0.0000
     58 ****         5.8527   1.0014  -2.7495 LP             1 S1                 0.0000
     59 ****         6.2392   0.1678  -1.3995 LP             1 S1                 0.0000
@<TRIPOS>BOND
    1    1    2 1     
    2    1   27 1     
    3    1   28 1     
    4    1   29 1     
    5    2    3 am    
    6    2   30 1     
    7    3    4 2     
    8    3    5 1     
    9    5    9 1     
   10    5    6 1     
   11    5   31 1     
   12    6    7 1     
   13    6   32 1     
   14    6   33 1     
   15    7    8 1     
   16    7   34 1     
   17    7   35 1     
   18    8    9 1     
   19    8   36 1     
   20    8   37 1     
   21    9   10 1     
   22   10   15 ar    
   23   10   11 ar    
   24   11   12 ar    
   25   12   13 ar    
   26   12   38 1     
   27   13   14 ar    
   28   14   18 1     
   29   14   15 ar    
   30   15   16 1     
   31   16   17 2     
   32   17   18 1     
   33   17   39 1     
   34   18   19 1     
   35   19   20 1     
   36   19   40 1     
   37   19   41 1     
   38   20   26 1     
   39   20   21 1     
   40   20   22 1     
   41   21   42 1     
   42   22   23 1     
   43   22   43 1     
   44   22   44 1     
   45   23   24 1     
   46   23   45 1     
   47   23   46 1     
   48   24   25 1     
   49   25   26 1     
   50   25   47 1     
   51   25   48 1     
   52   26   49 1     
   53   26   50 1     
   54    4   51 1     
   55    4   52 1     
   56   11   53 1     
   57   13   54 1     
   58   16   55 1     
   59   21   56 1     
   60   21   57 1     
   61   24   58 1     
   62   24   59 1     
@<TRIPOS>SUBSTRUCTURE
      1 S1             1
@<TRIPOS>SET
LONE_PAIRS      STATIC     ATOMS    <user>   **** ""
9 51 52 53 54 55 56 57 58 59
DONOR_HYDROGENS      STATIC     ATOMS    <user>   **** ""
2 30 42
ATOM$BLUE        STATIC     ATOMS    COLORGROUP SYSTEM
9 51 52 53 54 55 56 57 58 59
ATOM$RED        STATIC     ATOMS    COLORGROUP SYSTEM
2 30 42
