AV-unprocessed.smi:814|AV-procd|sdf|3823|dock7
  -GOLD-   22720 1263D 1   1.00000     0.00000
 Structure written by MMmdl.
 36 37  0  0  0  0  0  0  0  0  1 V2000
  153.9802  136.8224  164.1724 C   0  0  0  0  0  0  0  0  0  0  0  0
  154.4502  136.4760  162.8450 N   0  0  0  0  0  0  0  0  0  0  0  0
  154.7010  135.1921  162.3786 C   0  0  0  0  0  0  0  0  0  0  0  0
  155.1357  135.3219  161.0817 C   0  0  0  0  0  0  0  0  0  0  0  0
  155.1573  136.6684  160.7354 N   0  0  0  0  0  0  0  0  0  0  0  0
  154.7324  137.3061  161.8221 C   0  0  0  0  0  0  0  0  0  0  0  0
  154.6131  138.7959  161.9160 C   0  0  0  0  0  0  0  0  0  0  0  0
  155.0994  139.5022  160.6404 C   0  0  0  0  0  0  0  0  0  0  0  0
  154.1888  140.5660  160.2336 N   0  0  0  0  0  0  0  0  0  0  0  0
  153.7519  141.5532  161.0308 C   0  0  0  0  0  0  0  0  0  0  0  0
  154.0892  141.6665  162.2097 O   0  0  0  0  0  0  0  0  0  0  0  0
  152.7840  142.5647  160.4022 C   0  0  2  0  0  0  0  0  0  0  0  0
  153.4204  143.2671  159.1802 C   0  0  0  0  0  0  0  0  0  0  0  0
  152.5903  144.4446  158.7002 C   0  0  0  0  0  0  0  0  0  0  0  0
  151.6239  145.0176  159.4380 C   0  0  0  0  0  0  0  0  0  0  0  0
  151.2558  144.5565  160.8372 C   0  0  0  0  0  0  0  0  0  0  0  0
  152.3105  143.6065  161.4358 C   0  0  0  0  0  0  0  0  0  0  0  0
  153.9687  135.9377  164.8098 H   0  0  0  0  0  0  0  0  0  0  0  0
  152.9695  137.2268  164.1113 H   0  0  0  0  0  0  0  0  0  0  0  0
  154.6400  137.5670  164.6179 H   0  0  0  0  0  0  0  0  0  0  0  0
  154.5567  134.3152  162.9925 H   0  0  0  0  0  0  0  0  0  0  0  0
  155.4330  134.5580  160.3784 H   0  0  0  0  0  0  0  0  0  0  0  0
  153.5673  139.0426  162.1035 H   0  0  0  0  0  0  0  0  0  0  0  0
  155.1682  139.1542  162.7833 H   0  0  0  0  0  0  0  0  0  0  0  0
  156.0804  139.9457  160.8126 H   0  0  0  0  0  0  0  0  0  0  0  0
  155.2231  138.7829  159.8288 H   0  0  0  0  0  0  0  0  0  0  0  0
  153.8596  140.5461  159.2792 H   0  0  0  0  0  0  0  0  0  0  0  0
  151.9026  142.0218  160.0554 H   0  0  0  0  0  0  0  0  0  0  0  0
  154.4221  143.6346  159.4086 H   0  0  0  0  0  0  0  0  0  0  0  0
  153.5231  142.5566  158.3592 H   0  0  0  0  0  0  0  0  0  0  0  0
  152.8153  144.8311  157.7170 H   0  0  0  0  0  0  0  0  0  0  0  0
  151.0590  145.8444  159.0332 H   0  0  0  0  0  0  0  0  0  0  0  0
  151.1317  145.4268  161.4822 H   0  0  0  0  0  0  0  0  0  0  0  0
  150.2869  144.0592  160.7843 H   0  0  0  0  0  0  0  0  0  0  0  0
  151.9002  143.1161  162.3199 H   0  0  0  0  0  0  0  0  0  0  0  0
  153.1642  144.1932  161.7793 H   0  0  0  0  0  0  0  0  0  0  0  0
  1  2  1  0  0  0  0
  1 18  1  0  0  0  0
  1 19  1  0  0  0  0
  1 20  1  0  0  0  0
  2  6  1  0  0  0  0
  2  3  1  0  0  0  0
  3  4  2  0  0  0  0
  3 21  1  0  0  0  0
  4  5  1  0  0  0  0
  4 22  1  0  0  0  0
  5  6  2  0  0  0  0
  6  7  1  0  0  0  0
  7  8  1  0  0  0  0
  7 23  1  0  0  0  0
  7 24  1  0  0  0  0
  8  9  1  0  0  0  0
  8 25  1  0  0  0  0
  8 26  1  0  0  0  0
  9 10  1  0  0  0  0
  9 27  1  0  0  0  0
 10 11  2  0  0  0  0
 10 12  1  0  0  0  0
 12 17  1  0  0  0  0
 12 13  1  0  0  0  0
 12 28  1  0  0  0  0
 13 14  1  0  0  0  0
 13 29  1  0  0  0  0
 13 30  1  0  0  0  0
 14 15  2  0  0  0  0
 14 31  1  0  0  0  0
 15 16  1  0  0  0  0
 15 32  1  0  0  0  0
 16 17  1  0  0  0  0
 16 33  1  0  0  0  0
 16 34  1  0  0  0  0
 17 35  1  0  0  0  0
 17 36  1  0  0  0  0
M  END
> <s_m_source_file>
AV-unprocessed.smi

> <i_m_source_file_index>
814

> <i_lp_mmshare_version>
43012

> <i_f3d_flags>
0

> <s_epik_input>
W0NIM11uMVtjSF1bY0hdbmMxW0NIMl1bQ0gyXVtOSF1DKD1PKVtDQEBIXTJbQ0gyXVtDSF09W0NIXVtDSDJdW0NIMl0y

> <s_epik_cmdline>
J2VwaWtfcHl0aG9uJywgJy1waCcsICc3LjAnLCAnLXRuJywgJzgnLCAnLW1hJywgJzIwMCcsICctbWV0YWxfYmluZGluZycsICctaW1hZScsICc8aW5maWxlLm1hZT4nLCAnLW9tYWUnLCAnPG91dGZpbGUubWFlPic=

> <r_lp_tautomer_probability>
1

> <r_epik_Ionization_Penalty>
1.21249

> <r_epik_Ionization_Penalty_Charging>
1.21249

> <r_epik_Ionization_Penalty_Neutral>
1.60917e-08

> <r_epik_State_Penalty>
1.27906

> <r_epik_Charging_Adjusted_Penalty>
2.49154

> <i_epik_Tot_Q>
0

> <i_epik_Tot_abs_Q>
0

> <r_epik_Metal_State_Penalty>
0.409603

> <b_epik_Metal_Only>
0

> <s_lp_Force_Field>
OPLS_2005

> <r_lp_Energy>
6.39824

> <b_lp_Chiralities_Consistent>
1

> <s_lp_Variant>
AV-unprocessed.smi:814-3

> <Gold.Version>
5.8.1

> <Gold.Id.Protein>
6NUR|6NUR_protein|mol2

> <Gold.PLP.Fitness>
43.6833

> <Gold.PLP.PLP>
-44.3906

> <Gold.PLP.part.hbond>
-1.0000

> <Gold.PLP.part.metal>
0.0000

> <Gold.PLP.part.buried>
-4.6748

> <Gold.PLP.part.nonpolar>
-39.0155

> <Gold.PLP.part.repulsive>
0.0573

> <Gold.PLP.ligand.clash>
0.0000

> <Gold.PLP.ligand.torsion>
0.3657

> <Gold.PLP.Chemscore.Hbond>
0.0000

> <Gold.PLP.Chemscore.CHOScore>
0.0000

> <Gold.PLP.Chemscore.Metal>
0.0000

> <Gold.PLP.Chemscore.Internal.Correction>
0.0240

> <Gold.Rescore>
     Score         DG    S(hbond)    S(metal)    S(lipo)     H(rot)  DE(clash)    DE(int)     intcor
     12.74     -14.20       0.00        0.00     109.12       1.58       0.01       1.44       ----

> <Gold.Chemscore.Fitness>
12.7434

> <Gold.Chemscore.DG>
-14.2002

> <Gold.Chemscore.ZeroCoef>
-5.4800

> <Gold.Chemscore.Hbond>
0.0000

> <Gold.Chemscore.Metal>
0.0000

> <Gold.Chemscore.Lipo>
109.1232

> <Gold.Chemscore.Internal_Hbond>
0.0000

> <Gold.Chemscore.DEClash>
0.0127

> <Gold.Chemscore.DEInternal>
1.4442

> <Gold.Chemscore.Rot>
1.5809

> <Gold.Chemscore.Internal.Correction>
   9.000000E+99

> <Gold.Chemscore.Hbond.Weighted>
-0.0000

> <Gold.Chemscore.Metal.Weighted>
-0.0000

> <Gold.Chemscore.Lipo.Weighted>
-12.7674

> <Gold.Chemscore.Internal_Hbond.Weighted>
0.0000

> <Gold.Chemscore.DEClash.Weighted>
0.0127

> <Gold.Chemscore.DEInternal.Weighted>
1.4442

> <Gold.Chemscore.Rot.Weighted>
4.0472

> <Gold.Chemscore.Internal.Correction.Weighted>
   9.000000E+99

> <Gold.Protein.RotatedTorsions>
[ 6907 6896 6895 6894 ] final  117.33 input  -60.11 | X-H torsion
[ 7974 7965 7964 7962 ] final  -10.85 input  175.53 | X-H torsion
[ 8008 7997 7996 7995 ] final  146.90 input   59.86 | X-H torsion
[ 10167 10162 10161 10158 ] final  -65.78 input  -65.29 | X-H torsion
[ 10718 10713 10712 10709 ] final  -16.15 input   66.30 | X-H torsion
[ 10763 10752 10751 10750 ] final -142.59 input  -60.55 | X-H torsion
[ 11005 11000 10999 10996 ] final   54.03 input  -57.11 | X-H torsion

> <Gold.Protein.ActiveResidues>
 VAL166  LYS551  ARG553  GLY616  TRP617  ASP618  TYR619  PRO620  LYS621  CYS622 
 ASP623  PHE694  ASN695  SER759  ASP760  ASP761  ALA762  ILE779  LEU786  VAL792 
 PHE793  MET794  SER795  GLU796  ALA797  LYS798  CYS799  TRP800  GLU811  SER814 

> <Gold.Protein.RotatedAtoms>
  152.4619  133.7840  159.6865 H   0  0  0  0  0  0  0  0  0  0  0  0  # atno 6907 bound_to 6896
  150.8566  133.7696  159.3013 H   0  0  0  0  0  0  0  0  0  0  0  0  # atno 6908 bound_to 6896
  151.5274  135.1071  159.9946 H   0  0  0  0  0  0  0  0  0  0  0  0  # atno 6909 bound_to 6896
  146.2207  140.2825  142.8363 H   0  0  0  0  0  0  0  0  0  0  0  0  # atno 7974 bound_to 7965
  156.2841  140.2170  156.5451 H   0  0  0  0  0  0  0  0  0  0  0  0  # atno 8008 bound_to 7997
  154.7337  140.0493  157.0772 H   0  0  0  0  0  0  0  0  0  0  0  0  # atno 8009 bound_to 7997
  155.0320  140.3136  155.4758 H   0  0  0  0  0  0  0  0  0  0  0  0  # atno 8010 bound_to 7997
  140.5705  143.2317  151.6548 H   0  0  0  0  0  0  0  0  0  0  0  0  # atno 10167 bound_to 10162
  156.5917  130.4800  149.6277 H   0  0  0  0  0  0  0  0  0  0  0  0  # atno 10718 bound_to 10713
  154.8503  135.3492  154.6052 H   0  0  0  0  0  0  0  0  0  0  0  0  # atno 10763 bound_to 10752
  153.6660  135.6987  153.5167 H   0  0  0  0  0  0  0  0  0  0  0  0  # atno 10764 bound_to 10752
  153.2780  135.4272  155.1008 H   0  0  0  0  0  0  0  0  0  0  0  0  # atno 10765 bound_to 10752
  140.0719  134.5457  155.9037 H   0  0  0  0  0  0  0  0  0  0  0  0  # atno 11005 bound_to 11000
  144.9186  140.7842  143.5762 LP  0  0  0  0  0  0  0  0  0  0  0  0  # atno 17320 bound_to 7965
  145.2760  139.1936  143.4816 LP  0  0  0  0  0  0  0  0  0  0  0  0  # atno 17321 bound_to 7965
  139.5115  144.3507  152.0654 LP  0  0  0  0  0  0  0  0  0  0  0  0  # atno 17342 bound_to 10162
  140.2644  144.4032  150.6174 LP  0  0  0  0  0  0  0  0  0  0  0  0  # atno 17343 bound_to 10162
  156.2544  130.6926  151.1674 LP  0  0  0  0  0  0  0  0  0  0  0  0  # atno 17370 bound_to 10713
  157.7302  131.0618  150.5738 LP  0  0  0  0  0  0  0  0  0  0  0  0  # atno 17371 bound_to 10713
  141.2015  133.6619  156.5954 LP  0  0  0  0  0  0  0  0  0  0  0  0  # atno 17394 bound_to 11000
  140.3614  134.7684  157.4536 LP  0  0  0  0  0  0  0  0  0  0  0  0  # atno 17395 bound_to 11000

$$$$
