#       Name:                AV-unprocessed.smi:2086
#       Creating user name   scv26
#       Creation time:       Fri Mar 27 11:23:28 2020


#       File generated by GOLD software.
#

@<TRIPOS>MOLECULE
AV-unprocessed.smi:2086
    40    41     1
SMALL
NO_CHARGES


@<TRIPOS>ATOM
      1 ****        -1.3885   2.4031  -1.4370 O.2            1 S1                 0.0000
      2 ****        -0.8483   1.2932  -1.3740 C.2            1 S1                 0.0000
      3 ****        -1.4048   0.0504  -1.4000 N.pl3          1 S1                -1.0000
      4 ****        -2.8459  -0.1984  -1.4037 C.3            1 S1                 0.0000
      5 ****        -3.1433  -1.6744  -1.0801 C.3            1 S1                 0.0000
      6 ****        -4.4622  -1.8681  -1.0959 F              1 S1                 0.0000
      7 ****        -2.5872  -2.4798  -1.9866 F              1 S1                 0.0000
      8 ****        -2.6843  -1.9939   0.1310 F              1 S1                 0.0000
      9 ****         0.6582   1.2499  -1.3211 C.ar           1 S1                 0.0000
     10 ****         1.3819   1.9719  -2.2962 C.ar           1 S1                 0.0000
     11 ****         2.7875   1.9460  -2.2826 C.ar           1 S1                 0.0000
     12 ****         3.4268   1.1975  -1.2803 C.ar           1 S1                 0.0000
     13 ****         2.7584   0.5193  -0.3265 N.ar           1 S1                 0.0000
     14 ****         1.4014   0.5417  -0.3259 C.ar           1 S1                 0.0000
     15 ****         0.7687  -0.1336   0.7385 N.3            1 S1                 0.0000
     16 ****         1.4084  -1.3360   1.2602 C.3            1 S1                 0.0000
     17 ****         0.4377  -2.0757   2.1963 C.3            1 S1                 0.0000
     18 ****        -0.0010  -1.1942   3.2269 O.3            1 S1                 0.0000
     19 ****        -0.6919  -0.0618   2.7047 C.3            1 S1                 0.0000
     20 ****         0.2445   0.7372   1.7826 C.3            1 S1                 0.0000
     21 ****        -3.3649   0.4284  -0.6766 H              1 S1                 0.0000
     22 ****        -3.2861   0.0474  -2.3712 H              1 S1                 0.0000
     23 ****         0.8656   2.5339  -3.0612 H              1 S1                 0.0000
     24 ****         3.3594   2.4826  -3.0248 H              1 S1                 0.0000
     25 ****         4.5048   1.1489  -1.2373 H              1 S1                 0.0000
     26 ****         1.7038  -1.9871   0.4365 H              1 S1                 0.0000
     27 ****         2.3135  -1.0639   1.8048 H              1 S1                 0.0000
     28 ****        -0.4204  -2.4586   1.6416 H              1 S1                 0.0000
     29 ****         0.9333  -2.9343   2.6492 H              1 S1                 0.0000
     30 ****        -1.5848  -0.3830   2.1656 H              1 S1                 0.0000
     31 ****        -1.0272   0.5632   3.5322 H              1 S1                 0.0000
     32 ****         1.0771   1.1460   2.3564 H              1 S1                 0.0000
     33 ****        -0.2916   1.5832   1.3529 H              1 S1                 0.0000
     34 ****        -2.3826   2.4713  -1.5207 LP             1 S1                 0.0000
     35 ****        -0.8314   3.2329  -1.4042 LP             1 S1                 0.0000
     36 ****        -0.7913  -0.7392  -1.4176 LP             1 S1                 0.0000
     37 ****         3.2564   0.0057   0.3724 LP             1 S1                 0.0000
     38 ****        -0.0230  -0.5119   0.2588 LP             1 S1                 0.0000
     39 ****         0.7960  -0.8771   3.7411 LP             1 S1                 0.0000
     40 ****        -0.6151  -1.6931   3.8384 LP             1 S1                 0.0000
@<TRIPOS>BOND
    1    1    2 2     
    2    2    3 1     
    3    2    9 1     
    4    3    4 1     
    5    4    5 1     
    6    4   21 1     
    7    4   22 1     
    8    5    6 1     
    9    5    7 1     
   10    5    8 1     
   11    9   14 ar    
   12    9   10 ar    
   13   10   11 ar    
   14   10   23 1     
   15   11   12 ar    
   16   11   24 1     
   17   12   13 ar    
   18   12   25 1     
   19   13   14 ar    
   20   14   15 1     
   21   15   20 1     
   22   15   16 1     
   23   16   17 1     
   24   16   26 1     
   25   16   27 1     
   26   17   18 1     
   27   17   28 1     
   28   17   29 1     
   29   18   19 1     
   30   19   20 1     
   31   19   30 1     
   32   19   31 1     
   33   20   32 1     
   34   20   33 1     
   35    1   34 1     
   36    1   35 1     
   37    3   36 1     
   38   13   37 1     
   39   15   38 1     
   40   18   39 1     
   41   18   40 1     
@<TRIPOS>SUBSTRUCTURE
      1 S1             1
@<TRIPOS>SET
LONE_PAIRS      STATIC     ATOMS    <user>   **** ""
7 34 35 36 37 38 39 40
ATOM$BLUE        STATIC     ATOMS    COLORGROUP SYSTEM
7 34 35 36 37 38 39 40
