AV-unprocessed.smi:1289|AV-procd|sdf|5386|dock2
  -GOLD-   22720 4533D 1   1.00000     0.00000
 Structure written by MMmdl.
 37 39  0  0  0  0  0  0  0  0  1 V2000
  142.9809  146.2921  153.5709 N   0  0  0  0  0  0  0  0  0  0  0  0
  143.7171  145.4490  153.8637 C   0  0  0  0  0  0  0  0  0  0  0  0
  144.6421  144.3901  154.2315 C   0  0  0  0  0  0  0  0  0  0  0  0
  144.6910  143.9219  155.5592 C   0  0  0  0  0  0  0  0  0  0  0  0
  145.5863  142.8934  155.9113 C   0  0  0  0  0  0  0  0  0  0  0  0
  146.4409  142.3178  154.9484 C   0  0  0  0  0  0  0  0  0  0  0  0
  147.2793  141.3113  155.3777 O   0  0  0  0  0  0  0  0  0  0  0  0
  148.0887  140.6530  154.4120 C   0  0  0  0  0  0  0  0  0  0  0  0
  149.4637  140.3529  155.0295 C   0  0  1  0  0  0  0  0  0  0  0  0
  150.3004  139.8220  154.0197 O   0  0  0  0  0  0  0  0  0  0  0  0
  150.1198  141.6230  155.6062 C   0  0  0  0  0  0  0  0  0  0  0  0
  151.0644  141.3323  156.6708 N   0  0  0  0  0  0  0  0  0  0  0  0
  151.7444  140.1854  156.8629 C   0  0  0  0  0  0  0  0  0  0  0  0
  152.5635  140.1301  157.9091 N   0  0  0  0  0  0  0  0  0  0  0  0
  152.4000  141.3901  158.4587 C   0  0  0  0  0  0  0  0  0  0  0  0
  152.9942  141.9782  159.5983 C   0  0  0  0  0  0  0  0  0  0  0  0
  152.6694  143.2990  159.9718 C   0  0  0  0  0  0  0  0  0  0  0  0
  151.7479  144.0508  159.2140 C   0  0  0  0  0  0  0  0  0  0  0  0
  151.1420  143.4858  158.0752 C   0  0  0  0  0  0  0  0  0  0  0  0
  151.4688  142.1679  157.7059 C   0  0  0  0  0  0  0  0  0  0  0  0
  146.3893  142.7984  153.6153 C   0  0  0  0  0  0  0  0  0  0  0  0
  145.4944  143.8269  153.2613 C   0  0  0  0  0  0  0  0  0  0  0  0
  144.0432  144.3458  156.3133 H   0  0  0  0  0  0  0  0  0  0  0  0
  145.6147  142.5399  156.9316 H   0  0  0  0  0  0  0  0  0  0  0  0
  147.6229  139.7340  154.0508 H   0  0  0  0  0  0  0  0  0  0  0  0
  148.2124  141.3220  153.5587 H   0  0  0  0  0  0  0  0  0  0  0  0
  149.3561  139.6143  155.8251 H   0  0  0  0  0  0  0  0  0  0  0  0
  149.7958  139.7420  153.2248 H   0  0  0  0  0  0  0  0  0  0  0  0
  150.6398  142.1722  154.8197 H   0  0  0  0  0  0  0  0  0  0  0  0
  149.3574  142.2949  156.0027 H   0  0  0  0  0  0  0  0  0  0  0  0
  151.6273  139.3412  156.1990 H   0  0  0  0  0  0  0  0  0  0  0  0
  153.7014  141.4120  160.1861 H   0  0  0  0  0  0  0  0  0  0  0  0
  153.1302  143.7380  160.8446 H   0  0  0  0  0  0  0  0  0  0  0  0
  151.5062  145.0616  159.5080 H   0  0  0  0  0  0  0  0  0  0  0  0
  150.4348  144.0572  157.4925 H   0  0  0  0  0  0  0  0  0  0  0  0
  147.0266  142.3948  152.8433 H   0  0  0  0  0  0  0  0  0  0  0  0
  145.4668  144.1789  152.2398 H   0  0  0  0  0  0  0  0  0  0  0  0
  1  2  3  0  0  0  0
  2  3  1  0  0  0  0
  3 22  1  0  0  0  0
  3  4  2  0  0  0  0
  4  5  1  0  0  0  0
  4 23  1  0  0  0  0
  5  6  2  0  0  0  0
  5 24  1  0  0  0  0
  6  7  1  0  0  0  0
  6 21  1  0  0  0  0
  7  8  1  0  0  0  0
  8  9  1  0  0  0  0
  8 25  1  0  0  0  0
  8 26  1  0  0  0  0
  9 10  1  0  0  0  0
  9 11  1  0  0  0  0
  9 27  1  0  0  0  0
 10 28  1  0  0  0  0
 11 12  1  0  0  0  0
 11 29  1  0  0  0  0
 11 30  1  0  0  0  0
 12 20  1  0  0  0  0
 12 13  1  0  0  0  0
 13 14  2  0  0  0  0
 13 31  1  0  0  0  0
 14 15  1  0  0  0  0
 15 20  2  0  0  0  0
 15 16  1  0  0  0  0
 16 17  2  0  0  0  0
 16 32  1  0  0  0  0
 17 18  1  0  0  0  0
 17 33  1  0  0  0  0
 18 19  2  0  0  0  0
 18 34  1  0  0  0  0
 19 20  1  0  0  0  0
 19 35  1  0  0  0  0
 21 22  2  0  0  0  0
 21 36  1  0  0  0  0
 22 37  1  0  0  0  0
M  END
> <s_m_source_file>
AV-unprocessed.smi

> <i_m_source_file_index>
1289

> <i_lp_mmshare_version>
43012

> <i_f3d_flags>
0

> <s_epik_input>
TiNDYzFbY0hdW2NIXWMoW2NIXVtjSF0xKU9bQ0gyXVtDQEhdKFtPSF0pW0NIMl1uKFtjSF1uMiljKGMyMylbY0hdW2NIXVtjSF1bY0hdMw==

> <s_epik_cmdline>
J2VwaWtfcHl0aG9uJywgJy1waCcsICc3LjAnLCAnLXRuJywgJzgnLCAnLW1hJywgJzIwMCcsICctbWV0YWxfYmluZGluZycsICctaW1hZScsICc8aW5maWxlLm1hZT4nLCAnLW9tYWUnLCAnPG91dGZpbGUubWFlPic=

> <r_epik_Ionization_Penalty>
0.0590811

> <r_epik_Ionization_Penalty_Charging>
0

> <r_epik_Ionization_Penalty_Neutral>
0.0590811

> <r_epik_State_Penalty>
0.0511328

> <r_epik_Charging_Adjusted_Penalty>
0.0511328

> <i_epik_Tot_Q>
0

> <i_epik_Tot_abs_Q>
0

> <r_epik_Metal_State_Penalty>
5.34017e-05

> <b_epik_Metal_Only>
0

> <s_lp_Force_Field>
OPLS_2005

> <r_lp_Energy>
16.0199

> <b_lp_Chiralities_Consistent>
1

> <s_lp_Variant>
AV-unprocessed.smi:1289-2

> <Gold.Version>
5.8.1

> <Gold.Id.Protein>
6NUR|6NUR_protein|mol2

> <Gold.PLP.Fitness>
57.2978

> <Gold.PLP.PLP>
-49.9887

> <Gold.PLP.part.hbond>
-4.4743

> <Gold.PLP.part.metal>
0.0000

> <Gold.PLP.part.buried>
-7.3890

> <Gold.PLP.part.nonpolar>
-37.1780

> <Gold.PLP.part.repulsive>
0.1456

> <Gold.PLP.ligand.clash>
0.0000

> <Gold.PLP.ligand.torsion>
0.9400

> <Gold.PLP.Chemscore.Hbond>
3.0000

> <Gold.PLP.Chemscore.CHOScore>
0.0000

> <Gold.PLP.Chemscore.Metal>
0.0000

> <Gold.Chemscore.Hbonds>
donor molecule, donor type, donor heavy atom, donor atom, acceptor molecule, acceptor atom, score
      L1  H    10    28       P1  7957  0.84
      P1  H  7989  7998       L1    10  1.00
      P1  H  7997  8010       L1    14  0.62

> <Gold.PLP.Chemscore.Internal.Correction>
0.1891

> <Gold.Rescore>
     Score         DG    S(hbond)    S(metal)    S(lipo)     H(rot)  DE(clash)    DE(int)     intcor
     18.60     -19.77       2.14        0.00     115.80       2.50       0.22       0.95       ----

> <Gold.Chemscore.Fitness>
18.5998

> <Gold.Chemscore.DG>
-19.7730

> <Gold.Chemscore.ZeroCoef>
-5.4800

> <Gold.Chemscore.Hbond>
2.1356

> <Gold.Chemscore.Metal>
0.0000

> <Gold.Chemscore.Lipo>
115.7978

> <Gold.Chemscore.Internal_Hbond>
0.0000

> <Gold.Chemscore.DEClash>
0.2185

> <Gold.Chemscore.DEInternal>
0.9546

> <Gold.Chemscore.Rot>
2.4954

> <Gold.Chemscore.Internal.Correction>
   9.000000E+99

> <Gold.Chemscore.Hbonds>
donor molecule, donor type, donor heavy atom, donor atom, acceptor molecule, acceptor atom, score
      L1  H    10    28       P1  7957  0.77
      P1  H  7989  7998       L1    10  0.27
      P1  H  7997  8010       L1    14  0.09

> <Gold.Chemscore.Hbond.Weighted>
-7.1330

> <Gold.Chemscore.Metal.Weighted>
-0.0000

> <Gold.Chemscore.Lipo.Weighted>
-13.5483

> <Gold.Chemscore.Internal_Hbond.Weighted>
0.0000

> <Gold.Chemscore.DEClash.Weighted>
0.2185

> <Gold.Chemscore.DEInternal.Weighted>
0.9546

> <Gold.Chemscore.Rot.Weighted>
6.3883

> <Gold.Chemscore.Internal.Correction.Weighted>
   9.000000E+99

> <Gold.Protein.RotatedTorsions>
[ 6907 6896 6895 6894 ] final    3.67 input  -60.11 | X-H torsion
[ 7974 7965 7964 7962 ] final  -44.11 input  175.53 | X-H torsion
[ 8008 7997 7996 7995 ] final   47.66 input   59.86 | X-H torsion
[ 10167 10162 10161 10158 ] final  -67.78 input  -65.29 | X-H torsion
[ 10718 10713 10712 10709 ] final  -38.26 input   66.30 | X-H torsion
[ 10763 10752 10751 10750 ] final    7.30 input  -60.55 | X-H torsion
[ 11005 11000 10999 10996 ] final  -60.18 input  -57.11 | X-H torsion

> <Gold.Protein.ActiveResidues>
 VAL166  LYS551  ARG553  GLY616  TRP617  ASP618  TYR619  PRO620  LYS621  CYS622 
 ASP623  PHE694  ASN695  SER759  ASP760  ASP761  ALA762  ILE779  LEU786  VAL792 
 PHE793  MET794  SER795  GLU796  ALA797  LYS798  CYS799  TRP800  GLU811  SER814 

> <Gold.Protein.RotatedAtoms>
  151.6288  135.1025  160.0117 H   0  0  0  0  0  0  0  0  0  0  0  0  # atno 6907 bound_to 6896
  152.4118  133.6971  159.6412 H   0  0  0  0  0  0  0  0  0  0  0  0  # atno 6908 bound_to 6896
  150.8008  133.8528  159.3251 H   0  0  0  0  0  0  0  0  0  0  0  0  # atno 6909 bound_to 6896
  145.9953  140.7136  142.9297 H   0  0  0  0  0  0  0  0  0  0  0  0  # atno 7974 bound_to 7965
  155.3728  140.3424  155.4244 H   0  0  0  0  0  0  0  0  0  0  0  0  # atno 8008 bound_to 7997
  156.1653  140.1614  156.8576 H   0  0  0  0  0  0  0  0  0  0  0  0  # atno 8009 bound_to 7997
  154.5179  140.0774  156.8099 H   0  0  0  0  0  0  0  0  0  0  0  0  # atno 8010 bound_to 7997
  140.5557  143.2312  151.6826 H   0  0  0  0  0  0  0  0  0  0  0  0  # atno 10167 bound_to 10162
  156.3058  130.4246  149.8098 H   0  0  0  0  0  0  0  0  0  0  0  0  # atno 10718 bound_to 10713
  153.2379  135.6900  153.7816 H   0  0  0  0  0  0  0  0  0  0  0  0  # atno 10763 bound_to 10752
  153.6957  135.3305  155.3213 H   0  0  0  0  0  0  0  0  0  0  0  0  # atno 10764 bound_to 10752
  154.8342  135.4556  154.1289 H   0  0  0  0  0  0  0  0  0  0  0  0  # atno 10765 bound_to 10752
  141.1277  133.6620  156.5184 H   0  0  0  0  0  0  0  0  0  0  0  0  # atno 11005 bound_to 11000
  144.6901  140.3139  143.7243 LP  0  0  0  0  0  0  0  0  0  0  0  0  # atno 17320 bound_to 7965
  145.7569  139.1812  143.2289 LP  0  0  0  0  0  0  0  0  0  0  0  0  # atno 17321 bound_to 7965
  139.5047  144.3745  152.0437 LP  0  0  0  0  0  0  0  0  0  0  0  0  # atno 17342 bound_to 10162
  140.2867  144.3800  150.6101 LP  0  0  0  0  0  0  0  0  0  0  0  0  # atno 17343 bound_to 10162
  156.5459  130.8320  151.3284 LP  0  0  0  0  0  0  0  0  0  0  0  0  # atno 17370 bound_to 10713
  157.7379  130.9804  150.2221 LP  0  0  0  0  0  0  0  0  0  0  0  0  # atno 17371 bound_to 10713
  140.4312  134.7100  157.4943 LP  0  0  0  0  0  0  0  0  0  0  0  0  # atno 17394 bound_to 11000
  140.0293  134.6431  155.9129 LP  0  0  0  0  0  0  0  0  0  0  0  0  # atno 17395 bound_to 11000

$$$$
