#       Name:                AV-unprocessed.smi:3168
#       Creating user name   scv26
#       Creation time:       Fri Mar 27 17:53:38 2020


#       File generated by GOLD software.
#

@<TRIPOS>MOLECULE
AV-unprocessed.smi:3168
    38    39     1
SMALL
NO_CHARGES


@<TRIPOS>ATOM
      1 ****        -2.1929  -1.0920   3.0386 C.3            1 S1                 0.0000
      2 ****        -1.8026  -0.2394   1.8138 C.3            1 S1                 0.0000
      3 ****        -0.2868  -0.0168   1.7113 C.2            1 S1                 0.0000
      4 ****         0.5013  -0.8952   2.0635 O.2            1 S1                 0.0000
      5 ****         0.1037   1.1613   1.1999 N.am           1 S1                 0.0000
      6 ****         1.4812   1.5467   0.9149 C.3            1 S1                 0.0000
      7 ****         1.8226   1.3357  -0.5695 C.3            1 S1                 0.0000
      8 ****         1.8222  -0.1191  -1.0369 C.3            1 S1                 0.0000
      9 ****         2.7227  -0.0896  -2.2599 C.3            1 S1                 0.0000
     10 ****         3.5236   1.2078  -2.1034 C.3            1 S1                 0.0000
     11 ****         3.1564   1.7360  -0.8351 O.3            1 S1                 0.0000
     12 ****        -2.3063  -0.7904   0.5601 N.pl3          1 S1                 0.0000
     13 ****        -2.8142  -0.1013  -0.5230 C.2            1 S1                 0.0000
     14 ****        -3.1113  -1.0166  -1.4915 C.2            1 S1                 0.0000
     15 ****        -2.7317  -2.2578  -0.9104 C.2            1 S1                 0.0000
     16 ****        -2.2405  -2.1193   0.3097 N.2            1 S1                 0.0000
     17 ****        -1.8424  -0.6322   3.9633 H              1 S1                 0.0000
     18 ****        -1.7734  -2.0980   2.9930 H              1 S1                 0.0000
     19 ****        -3.2762  -1.1892   3.1135 H              1 S1                 0.0000
     20 ****        -2.2722   0.7373   1.9432 H              1 S1                 0.0000
     21 ****        -0.6131   1.8250   0.9454 H              1 S1                 0.0000
     22 ****         1.5920   2.6015   1.1665 H              1 S1                 0.0000
     23 ****         2.1843   1.0062   1.5509 H              1 S1                 0.0000
     24 ****         1.1519   1.9266  -1.1964 H              1 S1                 0.0000
     25 ****         2.2647  -0.7595  -0.2727 H              1 S1                 0.0000
     26 ****         0.8216  -0.4955  -1.2530 H              1 S1                 0.0000
     27 ****         3.3679  -0.9679  -2.2970 H              1 S1                 0.0000
     28 ****         2.1354  -0.0644  -3.1786 H              1 S1                 0.0000
     29 ****         4.6000   1.0419  -2.1544 H              1 S1                 0.0000
     30 ****         3.2529   1.9212  -2.8829 H              1 S1                 0.0000
     31 ****        -2.9193   0.9735  -0.5148 H              1 S1                 0.0000
     32 ****        -3.5298  -0.8278  -2.4688 H              1 S1                 0.0000
     33 ****        -2.7923  -3.2478  -1.3379 H              1 S1                 0.0000
     34 ****         0.1558  -1.7632   2.4202 LP             1 S1                 0.0000
     35 ****         1.4867  -0.7405   1.9927 LP             1 S1                 0.0000
     36 ****         3.7663   1.3782  -0.1280 LP             1 S1                 0.0000
     37 ****         3.2152   2.7341  -0.8522 LP             1 S1                 0.0000
     38 ****        -1.8963  -2.8378   0.9141 LP             1 S1                 0.0000
@<TRIPOS>BOND
    1    1    2 1     
    2    1   17 1     
    3    1   18 1     
    4    1   19 1     
    5    2    3 1     
    6    2   12 1     
    7    2   20 1     
    8    3    4 2     
    9    3    5 am    
   10    5    6 1     
   11    5   21 1     
   12    6    7 1     
   13    6   22 1     
   14    6   23 1     
   15    7   11 1     
   16    7    8 1     
   17    7   24 1     
   18    8    9 1     
   19    8   25 1     
   20    8   26 1     
   21    9   10 1     
   22    9   27 1     
   23    9   28 1     
   24   10   11 1     
   25   10   29 1     
   26   10   30 1     
   27   12   16 1     
   28   12   13 1     
   29   13   14 2     
   30   13   31 1     
   31   14   15 1     
   32   14   32 1     
   33   15   16 2     
   34   15   33 1     
   35    4   34 1     
   36    4   35 1     
   37   11   36 1     
   38   11   37 1     
   39   16   38 1     
@<TRIPOS>SUBSTRUCTURE
      1 S1             1
@<TRIPOS>SET
LONE_PAIRS      STATIC     ATOMS    <user>   **** ""
5 34 35 36 37 38
DONOR_HYDROGENS      STATIC     ATOMS    <user>   **** ""
1 21
ATOM$BLUE        STATIC     ATOMS    COLORGROUP SYSTEM
5 34 35 36 37 38
ATOM$RED        STATIC     ATOMS    COLORGROUP SYSTEM
1 21
