AV-unprocessed.smi:2790|AV-procd|sdf|10767|dock7
  -GOLD-   2272015203D 1   1.00000     0.00000
 Structure written by MMmdl.
 47 48  0  0  0  0  0  0  0  0  3 V2000
  147.4230  134.7291  154.4684 C   0  0  0  0  0  0  0  0  0  0  0  0
  148.8639  135.0611  154.5660 N   0  3  0  0  0  0  0  0  0  0  0  0
  149.7136  133.8614  154.4033 C   0  0  0  0  0  0  0  0  0  0  0  0
  149.2036  135.8299  155.7912 C   0  0  0  0  0  0  0  0  0  0  0  0
  149.2999  134.9543  157.0447 C   0  0  0  0  0  0  0  0  0  0  0  0
  150.2360  134.1671  157.1860 O   0  0  0  0  0  0  0  0  0  0  0  0
  148.3130  135.0979  157.9423 N   0  0  0  0  0  0  0  0  0  0  0  0
  148.1975  134.3680  159.2051 C   0  0  0  0  0  0  0  0  0  0  0  0
  146.8051  134.5315  159.8871 C   0  0  0  0  0  0  0  0  0  0  0  0
  145.7114  134.0482  158.9064 C   0  0  0  0  0  0  0  0  0  0  0  0
  145.6949  132.6948  158.4823 C   0  0  0  0  0  0  0  0  0  0  0  0
  144.7020  132.2438  157.5897 C   0  0  0  0  0  0  0  0  0  0  0  0
  143.7694  133.1038  157.1328 N   0  3  0  0  0  0  0  0  0  0  0  0
  143.7419  134.4036  157.4923 C   0  0  0  0  0  0  0  0  0  0  0  0
  144.7111  134.9099  158.3822 C   0  0  0  0  0  0  0  0  0  0  0  0
  146.7418  133.6564  161.1740 C   0  0  0  0  0  0  0  0  0  0  0  0
  147.6651  134.1306  162.3120 C   0  0  0  0  0  0  0  0  0  0  0  0
  147.3943  135.5923  162.6839 C   0  0  0  0  0  0  0  0  0  0  0  0
  147.5052  136.4962  161.4519 C   0  0  0  0  0  0  0  0  0  0  0  0
  146.5750  136.0133  160.3242 C   0  0  0  0  0  0  0  0  0  0  0  0
  147.1182  134.0698  155.2820 H   0  0  0  0  0  0  0  0  0  0  0  0
  147.2094  134.2261  153.5246 H   0  0  0  0  0  0  0  0  0  0  0  0
  146.8050  135.6266  154.5080 H   0  0  0  0  0  0  0  0  0  0  0  0
  149.5668  133.1630  155.2285 H   0  0  0  0  0  0  0  0  0  0  0  0
  150.7684  134.1363  154.3703 H   0  0  0  0  0  0  0  0  0  0  0  0
  149.4792  133.3454  153.4716 H   0  0  0  0  0  0  0  0  0  0  0  0
  150.1323  136.3832  155.6397 H   0  0  0  0  0  0  0  0  0  0  0  0
  148.4256  136.5697  155.9859 H   0  0  0  0  0  0  0  0  0  0  0  0
  147.5780  135.7585  157.7342 H   0  0  0  0  0  0  0  0  0  0  0  0
  148.3713  133.3174  158.9711 H   0  0  0  0  0  0  0  0  0  0  0  0
  149.0107  134.6391  159.8776 H   0  0  0  0  0  0  0  0  0  0  0  0
  146.4378  131.9945  158.8334 H   0  0  0  0  0  0  0  0  0  0  0  0
  144.6277  131.2277  157.2301 H   0  0  0  0  0  0  0  0  0  0  0  0
  142.9499  134.9975  157.0599 H   0  0  0  0  0  0  0  0  0  0  0  0
  144.6592  135.9557  158.6420 H   0  0  0  0  0  0  0  0  0  0  0  0
  145.7173  133.6516  161.5496 H   0  0  0  0  0  0  0  0  0  0  0  0
  146.9813  132.6169  160.9509 H   0  0  0  0  0  0  0  0  0  0  0  0
  147.5189  133.4988  163.1886 H   0  0  0  0  0  0  0  0  0  0  0  0
  148.7100  134.0094  162.0264 H   0  0  0  0  0  0  0  0  0  0  0  0
  146.3961  135.6811  163.1146 H   0  0  0  0  0  0  0  0  0  0  0  0
  148.0943  135.9192  163.4534 H   0  0  0  0  0  0  0  0  0  0  0  0
  147.2460  137.5190  161.7266 H   0  0  0  0  0  0  0  0  0  0  0  0
  148.5388  136.5320  161.1091 H   0  0  0  0  0  0  0  0  0  0  0  0
  146.6670  136.6911  159.4755 H   0  0  0  0  0  0  0  0  0  0  0  0
  145.5537  136.1241  160.6920 H   0  0  0  0  0  0  0  0  0  0  0  0
  149.0780  135.6660  153.7852 H   0  0  0  0  0  0  0  0  0  0  0  0
  143.0572  132.7577  156.4889 H   0  0  0  0  0  0  0  0  0  0  0  0
  1  2  1  0  0  0  0
  1 21  1  0  0  0  0
  1 22  1  0  0  0  0
  1 23  1  0  0  0  0
  2  3  1  0  0  0  0
  2  4  1  0  0  0  0
  2 46  1  0  0  0  0
  3 24  1  0  0  0  0
  3 25  1  0  0  0  0
  3 26  1  0  0  0  0
  4  5  1  0  0  0  0
  4 27  1  0  0  0  0
  4 28  1  0  0  0  0
  5  6  2  0  0  0  0
  5  7  1  0  0  0  0
  7  8  1  0  0  0  0
  7 29  1  0  0  0  0
  8  9  1  0  0  0  0
  8 30  1  0  0  0  0
  8 31  1  0  0  0  0
  9 20  1  0  0  0  0
  9 10  1  0  0  0  0
  9 16  1  0  0  0  0
 10 15  1  0  0  0  0
 10 11  2  0  0  0  0
 11 12  1  0  0  0  0
 11 32  1  0  0  0  0
 12 13  2  0  0  0  0
 12 33  1  0  0  0  0
 13 14  1  0  0  0  0
 13 47  1  0  0  0  0
 14 15  2  0  0  0  0
 14 34  1  0  0  0  0
 15 35  1  0  0  0  0
 16 17  1  0  0  0  0
 16 36  1  0  0  0  0
 16 37  1  0  0  0  0
 17 18  1  0  0  0  0
 17 38  1  0  0  0  0
 17 39  1  0  0  0  0
 18 19  1  0  0  0  0
 18 40  1  0  0  0  0
 18 41  1  0  0  0  0
 19 20  1  0  0  0  0
 19 42  1  0  0  0  0
 19 43  1  0  0  0  0
 20 44  1  0  0  0  0
 20 45  1  0  0  0  0
M  CHG  1   2   1
M  CHG  1  13   1
M  END
> <s_m_source_file>
AV-unprocessed.smi

> <i_m_source_file_index>
2790

> <i_lp_mmshare_version>
43012

> <i_f3d_flags>
0

> <s_epik_input>
W0NIM11OKFtDSDNdKVtDSDJdQyg9TylbTkhdW0NIMl1DMShbQ0gyXVtDSDJdW0NIMl1bQ0gyXVtDSDJdMSljMltjSF1bY0hdbltjSF1bY0hdMg==

> <s_epik_cmdline>
J2VwaWtfcHl0aG9uJywgJy1waCcsICc3LjAnLCAnLXRuJywgJzgnLCAnLW1hJywgJzIwMCcsICctbWV0YWxfYmluZGluZycsICctaW1hZScsICc8aW5maWxlLm1hZT4nLCAnLW9tYWUnLCAnPG91dGZpbGUubWFlPic=

> <r_epik_Ionization_Penalty>
1.49613

> <r_epik_Ionization_Penalty_Charging>
1.4961

> <r_epik_Ionization_Penalty_Neutral>
2.84587e-05

> <r_epik_State_Penalty>
1.54102

> <r_epik_Charging_Adjusted_Penalty>
3.03712

> <i_epik_Tot_Q>
2

> <i_epik_Tot_abs_Q>
2

> <r_epik_Metal_State_Penalty>
1.62888

> <b_epik_Metal_Only>
0

> <s_lp_Force_Field>
OPLS_2005

> <r_lp_Energy>
33.1663

> <b_lp_Chiralities_Consistent>
1

> <s_lp_Variant>
AV-unprocessed.smi:2790-2

> <Gold.Version>
5.8.1

> <Gold.Id.Protein>
6NUR|6NUR_protein|mol2

> <Gold.PLP.Fitness>
37.6360

> <Gold.PLP.PLP>
-24.4319

> <Gold.PLP.part.hbond>
-3.0000

> <Gold.PLP.part.metal>
0.0000

> <Gold.PLP.part.buried>
-3.7315

> <Gold.PLP.part.nonpolar>
-17.6977

> <Gold.PLP.part.repulsive>
0.0647

> <Gold.PLP.ligand.clash>
0.0000

> <Gold.PLP.ligand.torsion>
0.3493

> <Gold.PLP.Chemscore.Hbond>
4.6205

> <Gold.PLP.Chemscore.CHOScore>
0.0000

> <Gold.PLP.Chemscore.Metal>
0.0000

> <Gold.Chemscore.Hbonds>
donor molecule, donor type, donor heavy atom, donor atom, acceptor molecule, acceptor atom, score
      L1  H     2    46       P1  7948  2.00
      L1  H    13    47       P1 10957  1.89
      P1  H  6896  6908       L1     6  0.52

> <Gold.PLP.Chemscore.Internal.Correction>
0.0413

> <Gold.Rescore>
     Score         DG    S(hbond)    S(metal)    S(lipo)     H(rot)  DE(clash)    DE(int)     intcor
     15.82     -16.20       2.54        0.00      57.09       1.73       0.00       0.38       ----

> <Gold.Chemscore.Fitness>
15.8165

> <Gold.Chemscore.DG>
-16.1971

> <Gold.Chemscore.ZeroCoef>
-5.4800

> <Gold.Chemscore.Hbond>
2.5376

> <Gold.Chemscore.Metal>
0.0000

> <Gold.Chemscore.Lipo>
57.0946

> <Gold.Chemscore.Internal_Hbond>
0.0000

> <Gold.Chemscore.DEClash>
0.0009

> <Gold.Chemscore.DEInternal>
0.3797

> <Gold.Chemscore.Rot>
1.7339

> <Gold.Chemscore.Internal.Correction>
   9.000000E+99

> <Gold.Chemscore.Hbonds>
donor molecule, donor type, donor heavy atom, donor atom, acceptor molecule, acceptor atom, score
      L1  H     2    46       P1  7948  0.78
      L1  H    13    47       P1 10957  0.91
      P1  H  6896  6908       L1     6  0.41

> <Gold.Chemscore.Hbond.Weighted>
-8.4757

> <Gold.Chemscore.Metal.Weighted>
-0.0000

> <Gold.Chemscore.Lipo.Weighted>
-6.6801

> <Gold.Chemscore.Internal_Hbond.Weighted>
0.0000

> <Gold.Chemscore.DEClash.Weighted>
0.0009

> <Gold.Chemscore.DEInternal.Weighted>
0.3797

> <Gold.Chemscore.Rot.Weighted>
4.4387

> <Gold.Chemscore.Internal.Correction.Weighted>
   9.000000E+99

> <Gold.Protein.RotatedTorsions>
[ 6907 6896 6895 6894 ] final  129.39 input  -60.11 | X-H torsion
[ 7974 7965 7964 7962 ] final  134.73 input  175.53 | X-H torsion
[ 8008 7997 7996 7995 ] final  -30.74 input   59.86 | X-H torsion
[ 10167 10162 10161 10158 ] final   73.61 input  -65.29 | X-H torsion
[ 10718 10713 10712 10709 ] final  178.10 input   66.30 | X-H torsion
[ 10763 10752 10751 10750 ] final  -10.07 input  -60.55 | X-H torsion
[ 11005 11000 10999 10996 ] final -125.23 input  -57.11 | X-H torsion

> <Gold.Protein.ActiveResidues>
 VAL166  LYS551  ARG553  GLY616  TRP617  ASP618  TYR619  PRO620  LYS621  CYS622 
 ASP623  PHE694  ASN695  SER759  ASP760  ASP761  ALA762  ILE779  LEU786  VAL792 
 PHE793  MET794  SER795  GLU796  ALA797  LYS798  CYS799  TRP800  GLU811  SER814 

> <Gold.Protein.RotatedAtoms>
  152.3628  133.6318  159.6027 H   0  0  0  0  0  0  0  0  0  0  0  0  # atno 6907 bound_to 6896
  150.7613  133.9396  159.3461 H   0  0  0  0  0  0  0  0  0  0  0  0  # atno 6908 bound_to 6896
  151.7231  135.0891  160.0338 H   0  0  0  0  0  0  0  0  0  0  0  0  # atno 6909 bound_to 6896
  144.9734  139.4581  143.5422 H   0  0  0  0  0  0  0  0  0  0  0  0  # atno 7974 bound_to 7965
  154.4239  140.1783  156.1456 H   0  0  0  0  0  0  0  0  0  0  0  0  # atno 8008 bound_to 7997
  155.9957  140.3365  155.6771 H   0  0  0  0  0  0  0  0  0  0  0  0  # atno 8009 bound_to 7997
  155.6312  140.0670  157.2639 H   0  0  0  0  0  0  0  0  0  0  0  0  # atno 8010 bound_to 7997
  140.0226  144.5529  150.7570 H   0  0  0  0  0  0  0  0  0  0  0  0  # atno 10167 bound_to 10162
  156.8955  130.9861  151.3043 H   0  0  0  0  0  0  0  0  0  0  0  0  # atno 10718 bound_to 10713
  153.4638  135.7016  153.6034 H   0  0  0  0  0  0  0  0  0  0  0  0  # atno 10763 bound_to 10752
  153.4317  135.3801  155.2175 H   0  0  0  0  0  0  0  0  0  0  0  0  # atno 10764 bound_to 10752
  154.8727  135.3952  154.4067 H   0  0  0  0  0  0  0  0  0  0  0  0  # atno 10765 bound_to 10752
  140.9778  134.0715  157.3798 H   0  0  0  0  0  0  0  0  0  0  0  0  # atno 11005 bound_to 11000
  146.3388  139.8961  142.8801 LP  0  0  0  0  0  0  0  0  0  0  0  0  # atno 17320 bound_to 7965
  145.2525  141.0049  143.3873 LP  0  0  0  0  0  0  0  0  0  0  0  0  # atno 17321 bound_to 7965
  140.7336  143.2719  151.3862 LP  0  0  0  0  0  0  0  0  0  0  0  0  # atno 17342 bound_to 10162
  139.6130  144.1060  152.2317 LP  0  0  0  0  0  0  0  0  0  0  0  0  # atno 17343 bound_to 10162
  157.6058  130.8546  149.8872 LP  0  0  0  0  0  0  0  0  0  0  0  0  # atno 17370 bound_to 10713
  156.0607  130.3700  150.0988 LP  0  0  0  0  0  0  0  0  0  0  0  0  # atno 17371 bound_to 10713
  139.8938  135.0132  156.6916 LP  0  0  0  0  0  0  0  0  0  0  0  0  # atno 17394 bound_to 11000
  140.7232  133.9123  155.8161 LP  0  0  0  0  0  0  0  0  0  0  0  0  # atno 17395 bound_to 11000

$$$$
