AV-unprocessed.smi:1853|AV-procd|sdf|7527|dock7
  -GOLD-   22720 9233D 1   1.00000     0.00000
 Structure written by MMmdl.
 42 44  0  0  0  0  0  0  0  0  1 V2000
  143.4286  132.7093  149.1475 C   0  0  0  0  0  0  0  0  0  0  0  0
  144.3481  133.1445  150.2699 C   0  0  0  0  0  0  0  0  0  0  0  0
  144.1099  134.3486  150.9615 C   0  0  0  0  0  0  0  0  0  0  0  0
  144.9676  134.7446  152.0056 C   0  0  0  0  0  0  0  0  0  0  0  0
  146.0706  133.9483  152.3767 C   0  0  0  0  0  0  0  0  0  0  0  0
  146.8563  134.4108  153.4105 O   0  0  0  0  0  0  0  0  0  0  0  0
  147.9660  133.6212  153.8130 C   0  0  0  0  0  0  0  0  0  0  0  0
  149.0608  134.5513  154.3491 C   0  0  0  0  0  0  0  0  0  0  0  0
  150.0256  133.8329  155.1673 N   0  0  0  0  0  0  0  0  0  0  0  0
  150.7111  134.2733  156.2540 C   0  0  0  0  0  0  0  0  0  0  0  0
  150.5553  135.6718  156.7936 C   0  0  0  0  0  0  0  0  0  0  0  0
  149.2044  135.8629  157.3155 N   0  0  0  0  0  0  0  0  0  0  0  0
  148.9074  136.2264  158.5715 C   0  0  0  0  0  0  0  0  0  0  0  0
  149.7411  136.4486  159.4480 O   0  0  0  0  0  0  0  0  0  0  0  0
  151.5196  133.3762  156.8253 N   0  0  0  0  0  0  0  0  0  0  0  0
  151.3633  132.2644  156.0222 C   0  0  0  0  0  0  0  0  0  0  0  0
  151.9616  130.9859  156.0962 C   0  0  0  0  0  0  0  0  0  0  0  0
  151.6414  129.9922  155.1480 C   0  0  0  0  0  0  0  0  0  0  0  0
  150.7210  130.2620  154.1146 C   0  0  0  0  0  0  0  0  0  0  0  0
  150.1133  131.5289  154.0237 C   0  0  0  0  0  0  0  0  0  0  0  0
  150.4359  132.5175  154.9730 C   0  0  0  0  0  0  0  0  0  0  0  0
  146.3043  132.7374  151.6768 C   0  0  0  0  0  0  0  0  0  0  0  0
  145.4472  132.3411  150.6317 C   0  0  0  0  0  0  0  0  0  0  0  0
  142.8136  133.5384  148.7964 H   0  0  0  0  0  0  0  0  0  0  0  0
  142.7676  131.9132  149.4907 H   0  0  0  0  0  0  0  0  0  0  0  0
  144.0073  132.3357  148.3024 H   0  0  0  0  0  0  0  0  0  0  0  0
  143.2692  134.9726  150.6958 H   0  0  0  0  0  0  0  0  0  0  0  0
  144.7753  135.6694  152.5295 H   0  0  0  0  0  0  0  0  0  0  0  0
  147.6643  132.9191  154.5922 H   0  0  0  0  0  0  0  0  0  0  0  0
  148.3457  133.0494  152.9663 H   0  0  0  0  0  0  0  0  0  0  0  0
  149.5781  135.0582  153.5346 H   0  0  0  0  0  0  0  0  0  0  0  0
  148.6118  135.3382  154.9559 H   0  0  0  0  0  0  0  0  0  0  0  0
  151.2830  135.8878  157.5751 H   0  0  0  0  0  0  0  0  0  0  0  0
  150.7299  136.3824  155.9858 H   0  0  0  0  0  0  0  0  0  0  0  0
  148.4414  135.6960  156.6758 H   0  0  0  0  0  0  0  0  0  0  0  0
  147.8178  136.2967  158.7118 H   0  0  0  0  0  0  0  0  0  0  0  0
  152.6688  130.7693  156.8832 H   0  0  0  0  0  0  0  0  0  0  0  0
  152.1045  129.0184  155.2135 H   0  0  0  0  0  0  0  0  0  0  0  0
  150.4815  129.4957  153.3919 H   0  0  0  0  0  0  0  0  0  0  0  0
  149.4086  131.7378  153.2326 H   0  0  0  0  0  0  0  0  0  0  0  0
  147.1351  132.0930  151.9220 H   0  0  0  0  0  0  0  0  0  0  0  0
  145.6367  131.4156  150.1078 H   0  0  0  0  0  0  0  0  0  0  0  0
  1  2  1  0  0  0  0
  1 24  1  0  0  0  0
  1 25  1  0  0  0  0
  1 26  1  0  0  0  0
  2 23  1  0  0  0  0
  2  3  2  0  0  0  0
  3  4  1  0  0  0  0
  3 27  1  0  0  0  0
  4  5  2  0  0  0  0
  4 28  1  0  0  0  0
  5  6  1  0  0  0  0
  5 22  1  0  0  0  0
  6  7  1  0  0  0  0
  7  8  1  0  0  0  0
  7 29  1  0  0  0  0
  7 30  1  0  0  0  0
  8  9  1  0  0  0  0
  8 31  1  0  0  0  0
  8 32  1  0  0  0  0
  9 21  1  0  0  0  0
  9 10  1  0  0  0  0
 10 11  1  0  0  0  0
 10 15  2  0  0  0  0
 11 12  1  0  0  0  0
 11 33  1  0  0  0  0
 11 34  1  0  0  0  0
 12 13  1  0  0  0  0
 12 35  1  0  0  0  0
 13 14  2  0  0  0  0
 13 36  1  0  0  0  0
 15 16  1  0  0  0  0
 16 21  2  0  0  0  0
 16 17  1  0  0  0  0
 17 18  2  0  0  0  0
 17 37  1  0  0  0  0
 18 19  1  0  0  0  0
 18 38  1  0  0  0  0
 19 20  2  0  0  0  0
 19 39  1  0  0  0  0
 20 21  1  0  0  0  0
 20 40  1  0  0  0  0
 22 23  2  0  0  0  0
 22 41  1  0  0  0  0
 23 42  1  0  0  0  0
M  END
> <s_m_source_file>
AV-unprocessed.smi

> <i_m_source_file_index>
1853

> <i_lp_mmshare_version>
43012

> <i_f3d_flags>
0

> <s_epik_input>
W0NIM11jMVtjSF1bY0hdYyhbY0hdW2NIXTEpT1tDSDJdW0NIMl1uKGMobjIpW0NIMl1bTkhdW0NIXT1PKWMoYzIzKVtjSF1bY0hdW2NIXVtjSF0z

> <s_epik_cmdline>
J2VwaWtfcHl0aG9uJywgJy1waCcsICc3LjAnLCAnLXRuJywgJzgnLCAnLW1hJywgJzIwMCcsICctbWV0YWxfYmluZGluZycsICctaW1hZScsICc8aW5maWxlLm1hZT4nLCAnLW9tYWUnLCAnPG91dGZpbGUubWFlPic=

> <r_lp_tautomer_probability>
1

> <r_epik_Ionization_Penalty>
0.0586177

> <r_epik_Ionization_Penalty_Charging>
0

> <r_epik_Ionization_Penalty_Neutral>
0.0586177

> <r_epik_State_Penalty>
0.0507031

> <r_epik_Charging_Adjusted_Penalty>
0.0507031

> <i_epik_Tot_Q>
0

> <i_epik_Tot_abs_Q>
0

> <r_epik_Metal_State_Penalty>
0.0461069

> <b_epik_Metal_Only>
0

> <s_lp_Force_Field>
OPLS_2005

> <r_lp_Energy>
12.744

> <b_lp_Chiralities_Consistent>
1

> <s_lp_Variant>
AV-unprocessed.smi:1853-1

> <Gold.Version>
5.8.1

> <Gold.Id.Protein>
6NUR|6NUR_protein|mol2

> <Gold.PLP.Fitness>
44.6220

> <Gold.PLP.PLP>
-40.8974

> <Gold.PLP.part.hbond>
-1.9039

> <Gold.PLP.part.metal>
0.0000

> <Gold.PLP.part.buried>
-4.7703

> <Gold.PLP.part.nonpolar>
-35.1960

> <Gold.PLP.part.repulsive>
0.4975

> <Gold.PLP.ligand.clash>
0.0000

> <Gold.PLP.ligand.torsion>
0.6772

> <Gold.PLP.Chemscore.Hbond>
1.6820

> <Gold.PLP.Chemscore.CHOScore>
0.0000

> <Gold.PLP.Chemscore.Metal>
0.0000

> <Gold.Chemscore.Hbonds>
donor molecule, donor type, donor heavy atom, donor atom, acceptor molecule, acceptor atom, score
      P1  H  6896  6908       L1    15  0.09
      P1  H  6896  6909       L1    14  1.00

> <Gold.PLP.Chemscore.Internal.Correction>
0.0330

> <Gold.Rescore>
     Score         DG    S(hbond)    S(metal)    S(lipo)     H(rot)  DE(clash)    DE(int)     intcor
     15.05     -16.57       1.73        0.00      97.89       2.40       0.05       1.47       ----

> <Gold.Chemscore.Fitness>
15.0528

> <Gold.Chemscore.DG>
-16.5715

> <Gold.Chemscore.ZeroCoef>
-5.4800

> <Gold.Chemscore.Hbond>
1.7287

> <Gold.Chemscore.Metal>
0.0000

> <Gold.Chemscore.Lipo>
97.8945

> <Gold.Chemscore.Internal_Hbond>
0.0000

> <Gold.Chemscore.DEClash>
0.0524

> <Gold.Chemscore.DEInternal>
1.4662

> <Gold.Chemscore.Rot>
2.3969

> <Gold.Chemscore.Internal.Correction>
   9.000000E+99

> <Gold.Chemscore.Hbonds>
donor molecule, donor type, donor heavy atom, donor atom, acceptor molecule, acceptor atom, score
      P1  H  6896  6908       L1    15  0.07
      P1  H  6896  6909       L1    14  0.92

> <Gold.Chemscore.Hbond.Weighted>
-5.7739

> <Gold.Chemscore.Metal.Weighted>
-0.0000

> <Gold.Chemscore.Lipo.Weighted>
-11.4537

> <Gold.Chemscore.Internal_Hbond.Weighted>
0.0000

> <Gold.Chemscore.DEClash.Weighted>
0.0524

> <Gold.Chemscore.DEInternal.Weighted>
1.4662

> <Gold.Chemscore.Rot.Weighted>
6.1361

> <Gold.Chemscore.Internal.Correction.Weighted>
   9.000000E+99

> <Gold.Protein.RotatedTorsions>
[ 6907 6896 6895 6894 ] final   84.25 input  -60.11 | X-H torsion
[ 7974 7965 7964 7962 ] final  -34.28 input  175.53 | X-H torsion
[ 8008 7997 7996 7995 ] final -145.41 input   59.86 | X-H torsion
[ 10167 10162 10161 10158 ] final -123.75 input  -65.29 | X-H torsion
[ 10718 10713 10712 10709 ] final  -50.26 input   66.30 | X-H torsion
[ 10763 10752 10751 10750 ] final -151.69 input  -60.55 | X-H torsion
[ 11005 11000 10999 10996 ] final -112.67 input  -57.11 | X-H torsion

> <Gold.Protein.ActiveResidues>
 VAL166  LYS551  ARG553  GLY616  TRP617  ASP618  TYR619  PRO620  LYS621  CYS622 
 ASP623  PHE694  ASN695  SER759  ASP760  ASP761  ALA762  ILE779  LEU786  VAL792 
 PHE793  MET794  SER795  GLU796  ALA797  LYS798  CYS799  TRP800  GLU811  SER814 

> <Gold.Protein.RotatedAtoms>
  152.5348  134.2770  159.8992 H   0  0  0  0  0  0  0  0  0  0  0  0  # atno 6907 bound_to 6896
  151.2725  133.4242  159.2629 H   0  0  0  0  0  0  0  0  0  0  0  0  # atno 6908 bound_to 6896
  151.0355  134.9585  159.8190 H   0  0  0  0  0  0  0  0  0  0  0  0  # atno 6909 bound_to 6896
  146.0842  140.6020  142.8894 H   0  0  0  0  0  0  0  0  0  0  0  0  # atno 7974 bound_to 7965
  155.5427  140.0609  157.2866 H   0  0  0  0  0  0  0  0  0  0  0  0  # atno 8008 bound_to 7997
  154.4447  140.1916  156.0651 H   0  0  0  0  0  0  0  0  0  0  0  0  # atno 8009 bound_to 7997
  156.0573  140.3277  155.7424 H   0  0  0  0  0  0  0  0  0  0  0  0  # atno 8010 bound_to 7997
  140.0001  143.5549  152.2307 H   0  0  0  0  0  0  0  0  0  0  0  0  # atno 10167 bound_to 10162
  156.1817  130.4150  149.9498 H   0  0  0  0  0  0  0  0  0  0  0  0  # atno 10718 bound_to 10713
  154.8042  135.3254  154.7475 H   0  0  0  0  0  0  0  0  0  0  0  0  # atno 10763 bound_to 10752
  153.8136  135.6893  153.4841 H   0  0  0  0  0  0  0  0  0  0  0  0  # atno 10764 bound_to 10752
  153.1776  135.4599  154.9930 H   0  0  0  0  0  0  0  0  0  0  0  0  # atno 10765 bound_to 10752
  141.0661  133.9457  157.2576 H   0  0  0  0  0  0  0  0  0  0  0  0  # atno 11005 bound_to 11000
  144.7314  140.4682  143.6935 LP  0  0  0  0  0  0  0  0  0  0  0  0  # atno 17320 bound_to 7965
  145.6161  139.1518  143.3048 LP  0  0  0  0  0  0  0  0  0  0  0  0  # atno 17321 bound_to 7965
  139.6278  144.7640  151.2602 LP  0  0  0  0  0  0  0  0  0  0  0  0  # atno 17342 bound_to 10162
  140.7422  143.6533  150.8229 LP  0  0  0  0  0  0  0  0  0  0  0  0  # atno 17343 bound_to 10162
  156.7266  130.9027  151.3622 LP  0  0  0  0  0  0  0  0  0  0  0  0  # atno 17370 bound_to 10713
  157.6872  130.9197  150.0418 LP  0  0  0  0  0  0  0  0  0  0  0  0  # atno 17371 bound_to 10713
  139.9477  135.0181  156.8903 LP  0  0  0  0  0  0  0  0  0  0  0  0  # atno 17394 bound_to 11000
  140.5771  134.0388  155.7450 LP  0  0  0  0  0  0  0  0  0  0  0  0  # atno 17395 bound_to 11000

$$$$
