#       Name:                AV-unprocessed.smi:2276
#       Creating user name   scv26
#       Creation time:       Fri Mar 27 12:38:52 2020


#       File generated by GOLD software.
#

@<TRIPOS>MOLECULE
AV-unprocessed.smi:2276
    57    58     1
SMALL
NO_CHARGES


@<TRIPOS>ATOM
      1 ****        -4.0366   4.3674   0.6641 C.3            1 S1                 0.0000
      2 ****        -3.1905   3.2872   1.3047 C.ar           1 S1                 0.0000
      3 ****        -2.4204   3.5709   2.4483 C.ar           1 S1                 0.0000
      4 ****        -1.6524   2.5318   3.0082 C.ar           1 S1                 0.0000
      5 ****        -0.7957   2.7685   4.2340 C.3            1 S1                 0.0000
      6 ****        -1.6180   1.2840   2.4951 N.ar           1 S1                 0.0000
      7 ****        -2.3570   0.9975   1.3942 C.ar           1 S1                 0.0000
      8 ****        -2.3529  -0.2717   0.7574 N.am           1 S1                 0.0000
      9 ****        -1.6635  -1.3648   1.1260 C.2            1 S1                 0.0000
     10 ****        -0.8890  -1.4226   2.0813 O.2            1 S1                 0.0000
     11 ****        -1.8986  -2.3898   0.2931 N.am           1 S1                 0.0000
     12 ****        -1.1606  -3.6529   0.2519 C.3            1 S1                 0.0000
     13 ****         0.3672  -3.4878   0.0405 C.3            1 S1                 0.0000
     14 ****         1.0333  -4.8616  -0.1334 C.3            1 S1                 0.0000
     15 ****         0.7069  -2.5432  -1.1423 C.3            1 S1                 0.0000
     16 ****         2.1036  -2.0903  -1.1789 N.3            1 S1                 0.0000
     17 ****         2.3886  -1.3254  -2.3974 C.3            1 S1                 0.0000
     18 ****         1.6986   0.0603  -2.3995 C.3            1 S1                 0.0000
     19 ****         2.0856   0.8475  -1.2043 N.4            1 S1                 1.0000
     20 ****         1.4524   2.1833  -1.1701 C.3            1 S1                 0.0000
     21 ****         1.8431   0.0777   0.0365 C.3            1 S1                 0.0000
     22 ****         2.5509  -1.2901  -0.0308 C.3            1 S1                 0.0000
     23 ****        -3.1559   1.9824   0.7713 C.ar           1 S1                 0.0000
     24 ****        -4.8862   4.6083   1.3033 H              1 S1                 0.0000
     25 ****        -4.4175   4.0492  -0.3068 H              1 S1                 0.0000
     26 ****        -3.4489   5.2741   0.5175 H              1 S1                 0.0000
     27 ****        -2.4213   4.5592   2.8845 H              1 S1                 0.0000
     28 ****        -1.0526   3.7112   4.7179 H              1 S1                 0.0000
     29 ****         0.2580   2.8015   3.9565 H              1 S1                 0.0000
     30 ****        -0.9353   1.9665   4.9597 H              1 S1                 0.0000
     31 ****        -2.7841  -0.2977  -0.1548 H              1 S1                 0.0000
     32 ****        -2.5784  -2.2491  -0.4399 H              1 S1                 0.0000
     33 ****        -1.3569  -4.2082   1.1702 H              1 S1                 0.0000
     34 ****        -1.5805  -4.2451  -0.5617 H              1 S1                 0.0000
     35 ****         0.7525  -3.0681   0.9663 H              1 S1                 0.0000
     36 ****         0.6861  -5.3593  -1.0394 H              1 S1                 0.0000
     37 ****         0.8114  -5.5151   0.7107 H              1 S1                 0.0000
     38 ****         2.1177  -4.7703  -0.1986 H              1 S1                 0.0000
     39 ****         0.4813  -3.0614  -2.0753 H              1 S1                 0.0000
     40 ****         0.0551  -1.6738  -1.1269 H              1 S1                 0.0000
     41 ****         3.4683  -1.1941  -2.4815 H              1 S1                 0.0000
     42 ****         2.0834  -1.9006  -3.2723 H              1 S1                 0.0000
     43 ****         1.9952   0.6070  -3.2951 H              1 S1                 0.0000
     44 ****         0.6136  -0.0376  -2.4481 H              1 S1                 0.0000
     45 ****         0.3675   2.1011  -1.0881 H              1 S1                 0.0000
     46 ****         1.6872   2.7438  -2.0753 H              1 S1                 0.0000
     47 ****         1.8153   2.7584  -0.3176 H              1 S1                 0.0000
     48 ****         2.2238   0.6417   0.8888 H              1 S1                 0.0000
     49 ****         0.7733  -0.0416   0.1985 H              1 S1                 0.0000
     50 ****         2.4204  -1.8310   0.9044 H              1 S1                 0.0000
     51 ****         3.6267  -1.1327  -0.1217 H              1 S1                 0.0000
     52 ****        -3.7343   1.7410  -0.1091 H              1 S1                 0.0000
     53 ****         3.0832   0.9932  -1.2639 H              1 S1                 0.0000
     54 ****        -1.0534   0.5778   2.9221 LP             1 S1                 0.0000
     55 ****        -0.7353  -0.6145   2.6499 LP             1 S1                 0.0000
     56 ****        -0.4137  -2.2776   2.2886 LP             1 S1                 0.0000
     57 ****         2.6158  -2.9487  -1.1512 LP             1 S1                 0.0000
@<TRIPOS>BOND
    1    1    2 1     
    2    1   24 1     
    3    1   25 1     
    4    1   26 1     
    5    2   23 ar    
    6    2    3 ar    
    7    3    4 ar    
    8    3   27 1     
    9    4    5 1     
   10    4    6 ar    
   11    5   28 1     
   12    5   29 1     
   13    5   30 1     
   14    6    7 ar    
   15    7    8 1     
   16    7   23 ar    
   17    8    9 am    
   18    8   31 1     
   19    9   10 2     
   20    9   11 am    
   21   11   12 1     
   22   11   32 1     
   23   12   13 1     
   24   12   33 1     
   25   12   34 1     
   26   13   14 1     
   27   13   15 1     
   28   13   35 1     
   29   14   36 1     
   30   14   37 1     
   31   14   38 1     
   32   15   16 1     
   33   15   39 1     
   34   15   40 1     
   35   16   22 1     
   36   16   17 1     
   37   17   18 1     
   38   17   41 1     
   39   17   42 1     
   40   18   19 1     
   41   18   43 1     
   42   18   44 1     
   43   19   20 1     
   44   19   21 1     
   45   19   53 1     
   46   20   45 1     
   47   20   46 1     
   48   20   47 1     
   49   21   22 1     
   50   21   48 1     
   51   21   49 1     
   52   22   50 1     
   53   22   51 1     
   54   23   52 1     
   55    6   54 1     
   56   10   55 1     
   57   10   56 1     
   58   16   57 1     
@<TRIPOS>SUBSTRUCTURE
      1 S1             1
@<TRIPOS>SET
LONE_PAIRS      STATIC     ATOMS    <user>   **** ""
4 54 55 56 57
DONOR_HYDROGENS      STATIC     ATOMS    <user>   **** ""
3 31 32 53
ATOM$BLUE        STATIC     ATOMS    COLORGROUP SYSTEM
4 54 55 56 57
ATOM$RED        STATIC     ATOMS    COLORGROUP SYSTEM
3 31 32 53
