AV-unprocessed.smi:1813|AV-procd|sdf|7344|dock8
  -GOLD-   22720 9 03D 1   1.00000     0.00000
 Structure written by MMmdl.
 39 40  0  0  0  0  0  0  0  0  3 V2000
  152.3234  140.9936  158.5451 C   0  0  0  0  0  0  0  0  0  0  0  0
  152.4911  140.2635  157.2940 N   0  5  0  0  0  0  0  0  0  0  0  0
  151.7086  140.4607  156.1994 C   0  0  0  0  0  0  0  0  0  0  0  0
  151.8906  140.1639  155.0140 O   0  0  0  0  0  0  0  0  0  0  0  0
  150.3891  141.1427  156.5781 C   0  0  0  0  0  0  0  0  0  0  0  0
  149.2715  140.5471  155.8044 N   0  3  2  0  0  0  0  0  0  0  0  0
  149.2493  141.0078  154.3932 C   0  0  0  0  0  0  0  0  0  0  0  0
  148.1835  140.2529  153.5817 C   0  0  0  0  0  0  0  0  0  0  0  0
  146.7913  140.3970  154.2172 C   0  0  1  0  0  0  0  0  0  0  0  0
  145.8259  139.5884  153.4786 N   0  0  0  0  0  0  0  0  0  0  0  0
  145.8143  138.2484  153.4315 C   0  0  0  0  0  0  0  0  0  0  0  0
  146.6320  137.5414  154.0213 O   0  0  0  0  0  0  0  0  0  0  0  0
  144.8083  137.7981  152.6616 N   0  0  0  0  0  0  0  0  0  0  0  0
  144.4498  136.4530  152.3838 C   0  0  0  0  0  0  0  0  0  0  0  0
  143.6975  135.6912  153.1866 N   0  0  0  0  0  0  0  0  0  0  0  0
  143.4988  134.4125  152.6601 C   0  0  0  0  0  0  0  0  0  0  0  0
  144.1118  134.2163  151.4477 C   0  0  0  0  0  0  0  0  0  0  0  0
  144.9674  135.6387  150.9149 S   0  0  0  0  0  0  0  0  0  0  0  0
  146.8488  139.9626  155.6932 C   0  0  0  0  0  0  0  0  0  0  0  0
  147.9458  140.7227  156.4560 C   0  0  0  0  0  0  0  0  0  0  0  0
  152.9929  140.6255  159.3222 H   0  0  0  0  0  0  0  0  0  0  0  0
  151.3122  140.9131  158.9450 H   0  0  0  0  0  0  0  0  0  0  0  0
  152.5353  142.0575  158.4340 H   0  0  0  0  0  0  0  0  0  0  0  0
  150.1803  141.1023  157.6496 H   0  0  0  0  0  0  0  0  0  0  0  0
  150.4968  142.1988  156.3266 H   0  0  0  0  0  0  0  0  0  0  0  0
  149.0589  142.0818  154.3623 H   0  0  0  0  0  0  0  0  0  0  0  0
  150.2261  140.8445  153.9363 H   0  0  0  0  0  0  0  0  0  0  0  0
  148.1678  140.6262  152.5571 H   0  0  0  0  0  0  0  0  0  0  0  0
  148.4574  139.1983  153.5223 H   0  0  0  0  0  0  0  0  0  0  0  0
  146.4983  141.4477  154.1656 H   0  0  0  0  0  0  0  0  0  0  0  0
  145.1142  140.0868  152.9644 H   0  0  0  0  0  0  0  0  0  0  0  0
  144.2247  138.4984  152.2285 H   0  0  0  0  0  0  0  0  0  0  0  0
  142.9050  133.7022  153.2163 H   0  0  0  0  0  0  0  0  0  0  0  0
  144.1107  133.3253  150.8377 H   0  0  0  0  0  0  0  0  0  0  0  0
  145.8848  140.1320  156.1747 H   0  0  0  0  0  0  0  0  0  0  0  0
  147.0415  138.8905  155.7584 H   0  0  0  0  0  0  0  0  0  0  0  0
  147.9764  140.3592  157.4831 H   0  0  0  0  0  0  0  0  0  0  0  0
  147.7018  141.7851  156.5063 H   0  0  0  0  0  0  0  0  0  0  0  0
  149.4571  139.5545  155.7774 H   0  0  0  0  0  0  0  0  0  0  0  0
  1  2  1  0  0  0  0
  1 21  1  0  0  0  0
  1 22  1  0  0  0  0
  1 23  1  0  0  0  0
  2  3  1  0  0  0  0
  3  4  2  0  0  0  0
  3  5  1  0  0  0  0
  5  6  1  0  0  0  0
  5 24  1  0  0  0  0
  5 25  1  0  0  0  0
  6 20  1  0  0  0  0
  6  7  1  0  0  0  0
  6 39  1  0  0  0  0
  7  8  1  0  0  0  0
  7 26  1  0  0  0  0
  7 27  1  0  0  0  0
  8  9  1  0  0  0  0
  8 28  1  0  0  0  0
  8 29  1  0  0  0  0
  9 10  1  0  0  0  0
  9 19  1  0  0  0  0
  9 30  1  0  0  0  0
 10 11  1  0  0  0  0
 10 31  1  0  0  0  0
 11 12  2  0  0  0  0
 11 13  1  0  0  0  0
 13 14  1  0  0  0  0
 13 32  1  0  0  0  0
 14 18  1  0  0  0  0
 14 15  2  0  0  0  0
 15 16  1  0  0  0  0
 16 17  2  0  0  0  0
 16 33  1  0  0  0  0
 17 18  1  0  0  0  0
 17 34  1  0  0  0  0
 19 20  1  0  0  0  0
 19 35  1  0  0  0  0
 19 36  1  0  0  0  0
 20 37  1  0  0  0  0
 20 38  1  0  0  0  0
M  CHG  1   2  -1
M  CHG  1   6   1
M  END
> <s_m_source_file>
AV-unprocessed.smi

> <i_m_source_file_index>
1813

> <i_lp_mmshare_version>
43012

> <i_f3d_flags>
0

> <s_epik_input>
W0NIM11bTkhdQyg9TylbQ0gyXU4xW0NIMl1bQ0gyXVtDSF0oW0NIMl1bQ0gyXTEpW05IXUMoPU8pW05IXWMybltjSF1bY0hdczI=

> <s_epik_cmdline>
J2VwaWtfcHl0aG9uJywgJy1waCcsICc3LjAnLCAnLXRuJywgJzgnLCAnLW1hJywgJzIwMCcsICctbWV0YWxfYmluZGluZycsICctaW1hZScsICc8aW5maWxlLm1hZT4nLCAnLW9tYWUnLCAnPG91dGZpbGUubWFlPic=

> <r_lp_tautomer_probability>
0.999

> <r_epik_Ionization_Penalty>
6.14232

> <r_epik_Ionization_Penalty_Charging>
6.14218

> <r_epik_Ionization_Penalty_Neutral>
0.000139308

> <r_epik_State_Penalty>
6.98503

> <r_epik_Charging_Adjusted_Penalty>
13.1272

> <i_epik_Tot_Q>
0

> <i_epik_Tot_abs_Q>
2

> <r_epik_Metal_State_Penalty>
2.95036

> <b_epik_Metal_Only>
1

> <s_lp_Force_Field>
OPLS_2005

> <r_lp_Energy>
7.46639

> <b_lp_Chiralities_Consistent>
1

> <s_lp_Variant>
AV-unprocessed.smi:1813-5

> <Gold.Version>
5.8.1

> <Gold.Id.Protein>
6NUR|6NUR_protein|mol2

> <Gold.PLP.Fitness>
42.2533

> <Gold.PLP.PLP>
-27.7589

> <Gold.PLP.part.hbond>
-4.8242

> <Gold.PLP.part.metal>
0.0000

> <Gold.PLP.part.buried>
-0.9456

> <Gold.PLP.part.nonpolar>
-21.7478

> <Gold.PLP.part.repulsive>
0.2980

> <Gold.PLP.ligand.clash>
0.0000

> <Gold.PLP.ligand.torsion>
1.3333

> <Gold.PLP.Chemscore.Hbond>
4.7120

> <Gold.PLP.Chemscore.CHOScore>
0.9842

> <Gold.PLP.Chemscore.Metal>
0.0000

> <Gold.Chemscore.Hbonds>
donor molecule, donor type, donor heavy atom, donor atom, acceptor molecule, acceptor atom, score
      L1  H    10    31       P1 10175  1.00
      L1  H    13    32       P1 10175  0.82
      P1  H  7989  7998       L1     4  0.85
      P1  H  7997  8009       L1     2  1.95
      L1  C    16    33       P1 10957  1.00

> <Gold.PLP.Chemscore.Internal.Correction>
0.0726

> <Gold.Rescore>
     Score         DG    S(hbond)    S(metal)    S(lipo)     H(rot)  DE(clash)    DE(int)     intcor
     13.49     -18.02       3.29        0.00      51.09       1.73       0.70       3.83       ----

> <Gold.Chemscore.Fitness>
13.4932

> <Gold.Chemscore.DG>
-18.0231

> <Gold.Chemscore.ZeroCoef>
-5.4800

> <Gold.Chemscore.Hbond>
3.2925

> <Gold.Chemscore.Metal>
0.0000

> <Gold.Chemscore.Lipo>
51.0930

> <Gold.Chemscore.Internal_Hbond>
0.0000

> <Gold.Chemscore.DEClash>
0.6969

> <Gold.Chemscore.DEInternal>
3.8329

> <Gold.Chemscore.Rot>
1.7312

> <Gold.Chemscore.Internal.Correction>
   9.000000E+99

> <Gold.Chemscore.Hbonds>
donor molecule, donor type, donor heavy atom, donor atom, acceptor molecule, acceptor atom, score
      L1  H    10    31       P1 10175  0.95
      L1  H    13    32       P1 10175  0.77
      P1  H  7989  7998       L1     4  0.83
      P1  H  7997  8009       L1     2  0.42

> <Gold.Chemscore.Hbond.Weighted>
-10.9970

> <Gold.Chemscore.Metal.Weighted>
-0.0000

> <Gold.Chemscore.Lipo.Weighted>
-5.9779

> <Gold.Chemscore.Internal_Hbond.Weighted>
0.0000

> <Gold.Chemscore.DEClash.Weighted>
0.6969

> <Gold.Chemscore.DEInternal.Weighted>
3.8329

> <Gold.Chemscore.Rot.Weighted>
4.4319

> <Gold.Chemscore.Internal.Correction.Weighted>
   9.000000E+99

> <Gold.Protein.RotatedTorsions>
[ 6907 6896 6895 6894 ] final   16.34 input  -60.11 | X-H torsion
[ 7974 7965 7964 7962 ] final  -99.25 input  175.53 | X-H torsion
[ 8008 7997 7996 7995 ] final -174.58 input   59.86 | X-H torsion
[ 10167 10162 10161 10158 ] final   97.64 input  -65.29 | X-H torsion
[ 10718 10713 10712 10709 ] final  -65.89 input   66.30 | X-H torsion
[ 10763 10752 10751 10750 ] final -160.86 input  -60.55 | X-H torsion
[ 11005 11000 10999 10996 ] final  -65.79 input  -57.11 | X-H torsion

> <Gold.Protein.ActiveResidues>
 VAL166  LYS551  ARG553  GLY616  TRP617  ASP618  TYR619  PRO620  LYS621  CYS622 
 ASP623  PHE694  ASN695  SER759  ASP760  ASP761  ALA762  ILE779  LEU786  VAL792 
 PHE793  MET794  SER795  GLU796  ALA797  LYS798  CYS799  TRP800  GLU811  SER814 

> <Gold.Protein.RotatedAtoms>
  151.8324  135.0617  160.0438 H   0  0  0  0  0  0  0  0  0  0  0  0  # atno 6907 bound_to 6896
  152.2871  133.5521  159.5542 H   0  0  0  0  0  0  0  0  0  0  0  0  # atno 6908 bound_to 6896
  150.7214  134.0398  159.3804 H   0  0  0  0  0  0  0  0  0  0  0  0  # atno 6909 bound_to 6896
  145.3101  140.9398  143.2774 H   0  0  0  0  0  0  0  0  0  0  0  0  # atno 7974 bound_to 7965
  155.9719  140.1164  157.0805 H   0  0  0  0  0  0  0  0  0  0  0  0  # atno 8008 bound_to 7997
  154.4158  140.1161  156.5385 H   0  0  0  0  0  0  0  0  0  0  0  0  # atno 8009 bound_to 7997
  155.6586  140.3473  155.4776 H   0  0  0  0  0  0  0  0  0  0  0  0  # atno 8010 bound_to 7997
  139.7782  144.6898  151.0060 H   0  0  0  0  0  0  0  0  0  0  0  0  # atno 10167 bound_to 10162
  156.0643  130.4254  150.1630 H   0  0  0  0  0  0  0  0  0  0  0  0  # atno 10718 bound_to 10713
  154.7353  135.3056  154.8821 H   0  0  0  0  0  0  0  0  0  0  0  0  # atno 10763 bound_to 10752
  153.9652  135.6748  153.4750 H   0  0  0  0  0  0  0  0  0  0  0  0  # atno 10764 bound_to 10752
  153.0957  135.4937  154.8696 H   0  0  0  0  0  0  0  0  0  0  0  0  # atno 10765 bound_to 10752
  141.1464  133.6688  156.6040 H   0  0  0  0  0  0  0  0  0  0  0  0  # atno 11005 bound_to 11000
  144.9023  139.4634  143.6626 LP  0  0  0  0  0  0  0  0  0  0  0  0  # atno 17320 bound_to 7965
  146.3121  139.7784  142.9012 LP  0  0  0  0  0  0  0  0  0  0  0  0  # atno 17321 bound_to 7965
  140.7817  143.4512  151.0410 LP  0  0  0  0  0  0  0  0  0  0  0  0  # atno 17342 bound_to 10162
  139.8194  143.7841  152.3176 LP  0  0  0  0  0  0  0  0  0  0  0  0  # atno 17343 bound_to 10162
  156.9693  130.9829  151.3462 LP  0  0  0  0  0  0  0  0  0  0  0  0  # atno 17370 bound_to 10713
  157.5674  130.8287  149.8346 LP  0  0  0  0  0  0  0  0  0  0  0  0  # atno 17371 bound_to 10713
  140.3666  134.7642  157.4570 LP  0  0  0  0  0  0  0  0  0  0  0  0  # atno 17394 bound_to 11000
  140.0743  134.5819  155.8608 LP  0  0  0  0  0  0  0  0  0  0  0  0  # atno 17395 bound_to 11000

$$$$
