AV-unprocessed.smi:1285|AV-procd|sdf|5368|dock3
  -GOLD-   22720 4513D 1   1.00000     0.00000
 Structure written by MMmdl.
 46 47  0  0  0  0  0  0  0  0  1 V2000
  149.0404  140.4144  154.3472 C   0  0  0  0  0  0  0  0  0  0  0  0
  148.5152  141.7702  154.8532 C   0  0  0  0  0  0  0  0  0  0  0  0
  147.7339  141.7303  156.2058 C   0  0  2  0  0  0  0  0  0  0  0  0
  147.3657  143.2019  156.5377 C   0  0  0  0  0  0  0  0  0  0  0  0
  148.6976  141.1936  157.3148 C   0  0  0  0  0  0  0  0  0  0  0  0
  149.5819  142.2206  157.8618 N   0  0  0  0  0  0  0  0  0  0  0  0
  150.8945  142.0849  158.1098 C   0  0  0  0  0  0  0  0  0  0  0  0
  151.5387  141.0811  157.8028 O   0  0  0  0  0  0  0  0  0  0  0  0
  151.5634  143.2603  158.8419 C   0  0  2  0  0  0  0  0  0  0  0  0
  152.6436  143.9655  157.9967 C   0  0  0  0  0  0  0  0  0  0  0  0
  152.0843  142.8146  160.1295 N   0  0  0  0  0  0  0  0  0  0  0  0
  153.0465  141.9320  160.4076 C   0  0  0  0  0  0  0  0  0  0  0  0
  153.3114  141.8131  161.7009 N   0  0  0  0  0  0  0  0  0  0  0  0
  152.4184  142.7180  162.2005 C   0  0  0  0  0  0  0  0  0  0  0  0
  151.6648  143.3518  161.3025 N   0  0  0  0  0  0  0  0  0  0  0  0
  146.5004  140.9017  156.0893 N   0  0  0  0  0  0  0  0  0  0  0  0
  145.5457  141.3419  155.0646 C   0  0  0  0  0  0  0  0  0  0  0  0
  144.3735  140.3580  154.9082 C   0  0  0  0  0  0  0  0  0  0  0  0
  143.7211  140.1852  156.1604 O   0  0  0  0  0  0  0  0  0  0  0  0
  144.6011  139.7037  157.1690 C   0  0  0  0  0  0  0  0  0  0  0  0
  145.7716  140.6853  157.3451 C   0  0  0  0  0  0  0  0  0  0  0  0
  149.5797  140.5414  153.4086 H   0  0  0  0  0  0  0  0  0  0  0  0
  148.2298  139.7106  154.1606 H   0  0  0  0  0  0  0  0  0  0  0  0
  149.7282  139.9544  155.0565 H   0  0  0  0  0  0  0  0  0  0  0  0
  149.3502  142.4676  154.9194 H   0  0  0  0  0  0  0  0  0  0  0  0
  147.8807  142.1813  154.0671 H   0  0  0  0  0  0  0  0  0  0  0  0
  148.2052  143.8805  156.3841 H   0  0  0  0  0  0  0  0  0  0  0  0
  147.0610  143.3207  157.5777 H   0  0  0  0  0  0  0  0  0  0  0  0
  146.5465  143.5630  155.9157 H   0  0  0  0  0  0  0  0  0  0  0  0
  148.1417  140.7180  158.1229 H   0  0  0  0  0  0  0  0  0  0  0  0
  149.3505  140.4208  156.9111 H   0  0  0  0  0  0  0  0  0  0  0  0
  149.1412  143.0846  158.1416 H   0  0  0  0  0  0  0  0  0  0  0  0
  150.7810  143.9927  159.0475 H   0  0  0  0  0  0  0  0  0  0  0  0
  152.2261  144.3496  157.0655 H   0  0  0  0  0  0  0  0  0  0  0  0
  153.4645  143.2948  157.7395 H   0  0  0  0  0  0  0  0  0  0  0  0
  153.0671  144.8128  158.5368 H   0  0  0  0  0  0  0  0  0  0  0  0
  153.5719  141.3725  159.6475 H   0  0  0  0  0  0  0  0  0  0  0  0
  152.3259  142.9209  163.2572 H   0  0  0  0  0  0  0  0  0  0  0  0
  145.1449  142.3237  155.3160 H   0  0  0  0  0  0  0  0  0  0  0  0
  146.0303  141.4368  154.0944 H   0  0  0  0  0  0  0  0  0  0  0  0
  143.6547  140.7376  154.1820 H   0  0  0  0  0  0  0  0  0  0  0  0
  144.7255  139.3941  154.5369 H   0  0  0  0  0  0  0  0  0  0  0  0
  144.0489  139.6012  158.1032 H   0  0  0  0  0  0  0  0  0  0  0  0
  144.9665  138.7108  156.9018 H   0  0  0  0  0  0  0  0  0  0  0  0
  146.4284  140.2852  158.1152 H   0  0  0  0  0  0  0  0  0  0  0  0
  145.3787  141.6292  157.7226 H   0  0  0  0  0  0  0  0  0  0  0  0
  1  2  1  0  0  0  0
  1 22  1  0  0  0  0
  1 23  1  0  0  0  0
  1 24  1  0  0  0  0
  2  3  1  0  0  0  0
  2 25  1  0  0  0  0
  2 26  1  0  0  0  0
  3  4  1  0  0  0  0
  3  5  1  0  0  0  0
  3 16  1  0  0  0  0
  4 27  1  0  0  0  0
  4 28  1  0  0  0  0
  4 29  1  0  0  0  0
  5  6  1  0  0  0  0
  5 30  1  0  0  0  0
  5 31  1  0  0  0  0
  6  7  1  0  0  0  0
  6 32  1  0  0  0  0
  7  8  2  0  0  0  0
  7  9  1  0  0  0  0
  9 10  1  0  0  0  0
  9 11  1  0  0  0  0
  9 33  1  0  0  0  0
 10 34  1  0  0  0  0
 10 35  1  0  0  0  0
 10 36  1  0  0  0  0
 11 15  1  0  0  0  0
 11 12  1  0  0  0  0
 12 13  2  0  0  0  0
 12 37  1  0  0  0  0
 13 14  1  0  0  0  0
 14 15  2  0  0  0  0
 14 38  1  0  0  0  0
 16 21  1  0  0  0  0
 16 17  1  0  0  0  0
 17 18  1  0  0  0  0
 17 39  1  0  0  0  0
 17 40  1  0  0  0  0
 18 19  1  0  0  0  0
 18 41  1  0  0  0  0
 18 42  1  0  0  0  0
 19 20  1  0  0  0  0
 20 21  1  0  0  0  0
 20 43  1  0  0  0  0
 20 44  1  0  0  0  0
 21 45  1  0  0  0  0
 21 46  1  0  0  0  0
M  END
> <s_m_source_file>
AV-unprocessed.smi

> <i_m_source_file_index>
1285

> <i_lp_mmshare_version>
43012

> <i_f3d_flags>
0

> <s_epik_input>
W0NIMl0xW0NIMl1PW0NIMl1bQ0gyXU4xW0NAQF0oW0NIM10pKFtDSDJdW0NIM10pW0NIMl1bTkhdQyg9TylbQ0BIXShbQ0gzXSluMltjSF1uW2NIXW4y

> <s_epik_cmdline>
J2VwaWtfcHl0aG9uJywgJy1waCcsICc3LjAnLCAnLXRuJywgJzgnLCAnLW1hJywgJzIwMCcsICctbWV0YWxfYmluZGluZycsICctaW1hZScsICc8aW5maWxlLm1hZT4nLCAnLW9tYWUnLCAnPG91dGZpbGUubWFlPic=

> <r_lp_tautomer_probability>
1

> <r_epik_Ionization_Penalty>
0.285697

> <r_epik_Ionization_Penalty_Charging>
0

> <r_epik_Ionization_Penalty_Neutral>
0.285697

> <r_epik_State_Penalty>
0.278478

> <r_epik_Charging_Adjusted_Penalty>
0.278478

> <i_epik_Tot_Q>
0

> <i_epik_Tot_abs_Q>
0

> <r_epik_Metal_State_Penalty>
0.278477

> <b_epik_Metal_Only>
0

> <s_lp_Force_Field>
OPLS_2005

> <r_lp_Energy>
47.2582

> <b_lp_Chiralities_Consistent>
1

> <s_lp_Variant>
AV-unprocessed.smi:1285-2

> <Gold.Version>
5.8.1

> <Gold.Id.Protein>
6NUR|6NUR_protein|mol2

> <Gold.PLP.Fitness>
33.0167

> <Gold.PLP.PLP>
-33.4370

> <Gold.PLP.part.hbond>
-1.2735

> <Gold.PLP.part.metal>
0.0000

> <Gold.PLP.part.buried>
-3.9006

> <Gold.PLP.part.nonpolar>
-28.4051

> <Gold.PLP.part.repulsive>
0.2908

> <Gold.PLP.ligand.clash>
0.0000

> <Gold.PLP.ligand.torsion>
0.6149

> <Gold.PLP.Chemscore.Hbond>
0.1539

> <Gold.PLP.Chemscore.CHOScore>
0.0000

> <Gold.PLP.Chemscore.Metal>
0.0000

> <Gold.PLP.Chemscore.Internal.Correction>
0.3478

> <Gold.Rescore>
     Score         DG    S(hbond)    S(metal)    S(lipo)     H(rot)  DE(clash)    DE(int)     intcor
      3.73      -4.30       0.00        0.00      48.64       2.68       0.06       0.51       ----

> <Gold.Chemscore.Fitness>
3.7302

> <Gold.Chemscore.DG>
-4.3049

> <Gold.Chemscore.ZeroCoef>
-5.4800

> <Gold.Chemscore.Hbond>
0.0000

> <Gold.Chemscore.Metal>
0.0000

> <Gold.Chemscore.Lipo>
48.6416

> <Gold.Chemscore.Internal_Hbond>
0.0000

> <Gold.Chemscore.DEClash>
0.0614

> <Gold.Chemscore.DEInternal>
0.5134

> <Gold.Chemscore.Rot>
2.6821

> <Gold.Chemscore.Internal.Correction>
   9.000000E+99

> <Gold.Chemscore.Hbond.Weighted>
-0.0000

> <Gold.Chemscore.Metal.Weighted>
-0.0000

> <Gold.Chemscore.Lipo.Weighted>
-5.6911

> <Gold.Chemscore.Internal_Hbond.Weighted>
0.0000

> <Gold.Chemscore.DEClash.Weighted>
0.0614

> <Gold.Chemscore.DEInternal.Weighted>
0.5134

> <Gold.Chemscore.Rot.Weighted>
6.8661

> <Gold.Chemscore.Internal.Correction.Weighted>
   9.000000E+99

> <Gold.Protein.RotatedTorsions>
[ 6907 6896 6895 6894 ] final  130.90 input  -60.11 | X-H torsion
[ 7974 7965 7964 7962 ] final -151.18 input  175.53 | X-H torsion
[ 8008 7997 7996 7995 ] final  119.12 input   59.86 | X-H torsion
[ 10167 10162 10161 10158 ] final   95.02 input  -65.29 | X-H torsion
[ 10718 10713 10712 10709 ] final   41.65 input   66.30 | X-H torsion
[ 10763 10752 10751 10750 ] final  114.41 input  -60.55 | X-H torsion
[ 11005 11000 10999 10996 ] final  -66.75 input  -57.11 | X-H torsion

> <Gold.Protein.ActiveResidues>
 VAL166  LYS551  ARG553  GLY616  TRP617  ASP618  TYR619  PRO620  LYS621  CYS622 
 ASP623  PHE694  ASN695  SER759  ASP760  ASP761  ALA762  ILE779  LEU786  VAL792 
 PHE793  MET794  SER795  GLU796  ALA797  LYS798  CYS799  TRP800  GLU811  SER814 

> <Gold.Protein.RotatedAtoms>
  152.3480  133.6146  159.5924 H   0  0  0  0  0  0  0  0  0  0  0  0  # atno 6907 bound_to 6896
  150.7520  133.9618  159.3527 H   0  0  0  0  0  0  0  0  0  0  0  0  # atno 6908 bound_to 6896
  151.7474  135.0841  160.0376 H   0  0  0  0  0  0  0  0  0  0  0  0  # atno 6909 bound_to 6896
  144.7864  140.4832  143.5803 H   0  0  0  0  0  0  0  0  0  0  0  0  # atno 7974 bound_to 7965
  156.2580  140.2860  156.0941 H   0  0  0  0  0  0  0  0  0  0  0  0  # atno 8008 bound_to 7997
  155.1431  140.0396  157.2820 H   0  0  0  0  0  0  0  0  0  0  0  0  # atno 8009 bound_to 7997
  154.6515  140.2546  155.7214 H   0  0  0  0  0  0  0  0  0  0  0  0  # atno 8010 bound_to 7997
  139.8028  144.6806  150.9742 H   0  0  0  0  0  0  0  0  0  0  0  0  # atno 10167 bound_to 10162
  157.3959  130.7833  149.7308 H   0  0  0  0  0  0  0  0  0  0  0  0  # atno 10718 bound_to 10713
  153.5069  135.3626  155.2567 H   0  0  0  0  0  0  0  0  0  0  0  0  # atno 10763 bound_to 10752
  154.8744  135.4013  154.3413 H   0  0  0  0  0  0  0  0  0  0  0  0  # atno 10764 bound_to 10752
  153.4059  135.7076  153.6459 H   0  0  0  0  0  0  0  0  0  0  0  0  # atno 10765 bound_to 10752
  141.1490  133.6705  156.6187 H   0  0  0  0  0  0  0  0  0  0  0  0  # atno 11005 bound_to 11000
  145.5910  139.1495  143.3182 LP  0  0  0  0  0  0  0  0  0  0  0  0  # atno 17320 bound_to 7965
  146.2098  140.6036  142.9065 LP  0  0  0  0  0  0  0  0  0  0  0  0  # atno 17321 bound_to 7965
  140.7820  143.4264  151.0762 LP  0  0  0  0  0  0  0  0  0  0  0  0  # atno 17342 bound_to 10162
  139.7935  143.8185  152.3154 LP  0  0  0  0  0  0  0  0  0  0  0  0  # atno 17343 bound_to 10162
  155.9810  130.4023  150.3494 LP  0  0  0  0  0  0  0  0  0  0  0  0  # atno 17370 bound_to 10713
  157.1616  131.0346  151.2838 LP  0  0  0  0  0  0  0  0  0  0  0  0  # atno 17371 bound_to 10713
  140.3558  134.7730  157.4499 LP  0  0  0  0  0  0  0  0  0  0  0  0  # atno 17394 bound_to 11000
  140.0824  134.5712  155.8526 LP  0  0  0  0  0  0  0  0  0  0  0  0  # atno 17395 bound_to 11000

$$$$
