AV-unprocessed.smi:671|AV-procd|sdf|3274|dock7
  -GOLD-   22720 0233D 1   1.00000     0.00000
 Structure written by MMmdl.
 49 50  0  0  0  0  0  0  0  0  1 V2000
  151.6441  138.3855  155.9065 C   0  0  0  0  0  0  0  0  0  0  0  0
  150.2459  137.8850  156.1311 C   0  0  0  0  0  0  0  0  0  0  0  0
  149.9701  136.6101  155.9120 N   0  0  0  0  0  0  0  0  0  0  0  0
  148.6552  136.4903  156.1845 N   0  0  0  0  0  0  0  0  0  0  0  0
  148.0126  135.1993  156.0342 C   0  0  0  0  0  0  0  0  0  0  0  0
  148.1013  137.6904  156.5854 C   0  0  0  0  0  0  0  0  0  0  0  0
  146.6557  137.8236  156.9416 C   0  0  0  0  0  0  0  0  0  0  0  0
  149.1038  138.6224  156.5610 C   0  0  0  0  0  0  0  0  0  0  0  0
  149.0273  140.0934  156.8892 C   0  0  0  0  0  0  0  0  0  0  0  0
  149.5776  140.9781  155.7535 C   0  0  1  0  0  0  0  0  0  0  0  0
  148.5681  141.1344  154.6065 C   0  0  0  0  0  0  0  0  0  0  0  0
  149.9573  142.2953  156.2759 N   0  0  0  0  0  0  0  0  0  0  0  0
  150.5772  142.5932  157.4315 C   0  0  0  0  0  0  0  0  0  0  0  0
  150.9027  141.7222  158.2358 O   0  0  0  0  0  0  0  0  0  0  0  0
  150.7911  143.9036  157.6328 N   0  0  0  0  0  0  0  0  0  0  0  0
  151.4686  144.4795  158.7898 C   0  0  2  0  0  0  0  0  0  0  0  0
  152.7849  143.7397  159.1088 C   0  0  0  0  0  0  0  0  0  0  0  0
  152.5977  143.1018  160.4869 C   0  0  0  0  0  0  0  0  0  0  0  0
  151.5577  143.9799  161.1749 C   0  0  0  0  0  0  0  0  0  0  0  0
  150.5892  144.3541  160.0506 C   0  0  1  0  0  0  0  0  0  0  0  0
  149.7479  145.6024  160.3479 C   0  0  0  0  0  0  0  0  0  0  0  0
  151.6413  139.2888  155.2961 H   0  0  0  0  0  0  0  0  0  0  0  0
  152.2615  137.6460  155.3948 H   0  0  0  0  0  0  0  0  0  0  0  0
  152.1286  138.6252  156.8532 H   0  0  0  0  0  0  0  0  0  0  0  0
  147.1286  135.3008  155.4039 H   0  0  0  0  0  0  0  0  0  0  0  0
  147.7126  134.8239  157.0127 H   0  0  0  0  0  0  0  0  0  0  0  0
  148.6925  134.4812  155.5733 H   0  0  0  0  0  0  0  0  0  0  0  0
  146.4637  138.7597  157.4658 H   0  0  0  0  0  0  0  0  0  0  0  0
  146.3353  137.0091  157.5915 H   0  0  0  0  0  0  0  0  0  0  0  0
  146.0355  137.8079  156.0452 H   0  0  0  0  0  0  0  0  0  0  0  0
  147.9969  140.3820  157.0990 H   0  0  0  0  0  0  0  0  0  0  0  0
  149.5772  140.3072  157.8065 H   0  0  0  0  0  0  0  0  0  0  0  0
  150.4598  140.4700  155.3616 H   0  0  0  0  0  0  0  0  0  0  0  0
  148.2826  140.1634  154.2012 H   0  0  0  0  0  0  0  0  0  0  0  0
  148.9884  141.7202  153.7885 H   0  0  0  0  0  0  0  0  0  0  0  0
  147.6594  141.6353  154.9421 H   0  0  0  0  0  0  0  0  0  0  0  0
  149.6658  143.0826  155.7146 H   0  0  0  0  0  0  0  0  0  0  0  0
  150.4783  144.5481  156.9218 H   0  0  0  0  0  0  0  0  0  0  0  0
  151.6915  145.5311  158.5978 H   0  0  0  0  0  0  0  0  0  0  0  0
  153.0556  142.9947  158.3590 H   0  0  0  0  0  0  0  0  0  0  0  0
  153.6014  144.4618  159.1482 H   0  0  0  0  0  0  0  0  0  0  0  0
  152.2045  142.0908  160.3729 H   0  0  0  0  0  0  0  0  0  0  0  0
  153.5295  143.0355  161.0490 H   0  0  0  0  0  0  0  0  0  0  0  0
  151.0630  143.4710  162.0025 H   0  0  0  0  0  0  0  0  0  0  0  0
  152.0398  144.8745  161.5719 H   0  0  0  0  0  0  0  0  0  0  0  0
  149.9098  143.5087  159.9240 H   0  0  0  0  0  0  0  0  0  0  0  0
  150.3772  146.4807  160.4945 H   0  0  0  0  0  0  0  0  0  0  0  0
  149.1509  145.4647  161.2496 H   0  0  0  0  0  0  0  0  0  0  0  0
  149.0637  145.8158  159.5261 H   0  0  0  0  0  0  0  0  0  0  0  0
  1  2  1  0  0  0  0
  1 22  1  0  0  0  0
  1 23  1  0  0  0  0
  1 24  1  0  0  0  0
  2  8  1  0  0  0  0
  2  3  2  0  0  0  0
  3  4  1  0  0  0  0
  4  5  1  0  0  0  0
  4  6  1  0  0  0  0
  5 25  1  0  0  0  0
  5 26  1  0  0  0  0
  5 27  1  0  0  0  0
  6  7  1  0  0  0  0
  6  8  2  0  0  0  0
  7 28  1  0  0  0  0
  7 29  1  0  0  0  0
  7 30  1  0  0  0  0
  8  9  1  0  0  0  0
  9 10  1  0  0  0  0
  9 31  1  0  0  0  0
  9 32  1  0  0  0  0
 10 11  1  0  0  0  0
 10 12  1  0  0  0  0
 10 33  1  0  0  0  0
 11 34  1  0  0  0  0
 11 35  1  0  0  0  0
 11 36  1  0  0  0  0
 12 13  1  0  0  0  0
 12 37  1  0  0  0  0
 13 14  2  0  0  0  0
 13 15  1  0  0  0  0
 15 16  1  0  0  0  0
 15 38  1  0  0  0  0
 16 20  1  0  0  0  0
 16 17  1  0  0  0  0
 16 39  1  0  0  0  0
 17 18  1  0  0  0  0
 17 40  1  0  0  0  0
 17 41  1  0  0  0  0
 18 19  1  0  0  0  0
 18 42  1  0  0  0  0
 18 43  1  0  0  0  0
 19 20  1  0  0  0  0
 19 44  1  0  0  0  0
 19 45  1  0  0  0  0
 20 21  1  0  0  0  0
 20 46  1  0  0  0  0
 21 47  1  0  0  0  0
 21 48  1  0  0  0  0
 21 49  1  0  0  0  0
M  END
> <s_m_source_file>
AV-unprocessed.smi

> <i_m_source_file_index>
671

> <i_lp_mmshare_version>
43012

> <i_f3d_flags>
0

> <s_epik_input>
W0NIM11jMW5uKFtDSDNdKWMoW0NIM10pYzFbQ0gyXVtDQEhdKFtDSDNdKVtOSF1DKD1PKVtOSF1bQ0BASF0yW0NIMl1bQ0gyXVtDSDJdW0NASF0yW0NIM10=

> <s_epik_cmdline>
J2VwaWtfcHl0aG9uJywgJy1waCcsICc3LjAnLCAnLXRuJywgJzgnLCAnLW1hJywgJzIwMCcsICctbWV0YWxfYmluZGluZycsICctaW1hZScsICc8aW5maWxlLm1hZT4nLCAnLW9tYWUnLCAnPG91dGZpbGUubWFlPic=

> <r_lp_tautomer_probability>
1

> <r_epik_Ionization_Penalty>
0.0126855

> <r_epik_Ionization_Penalty_Charging>
0

> <r_epik_Ionization_Penalty_Neutral>
0.0126855

> <r_epik_State_Penalty>
0.00977547

> <r_epik_Charging_Adjusted_Penalty>
0.00977547

> <i_epik_Tot_Q>
0

> <i_epik_Tot_abs_Q>
0

> <r_epik_Metal_State_Penalty>
0.00957132

> <b_epik_Metal_Only>
0

> <s_lp_Force_Field>
OPLS_2005

> <r_lp_Energy>
23.179

> <b_lp_Chiralities_Consistent>
1

> <s_lp_Variant>
AV-unprocessed.smi:671-2

> <Gold.Version>
5.8.1

> <Gold.Id.Protein>
6NUR|6NUR_protein|mol2

> <Gold.PLP.Fitness>
51.5788

> <Gold.PLP.PLP>
-43.7570

> <Gold.PLP.part.hbond>
-3.0000

> <Gold.PLP.part.metal>
0.0000

> <Gold.PLP.part.buried>
-4.0217

> <Gold.PLP.part.nonpolar>
-35.9186

> <Gold.PLP.part.repulsive>
0.3244

> <Gold.PLP.ligand.clash>
0.0000

> <Gold.PLP.ligand.torsion>
0.5941

> <Gold.PLP.Chemscore.Hbond>
2.9920

> <Gold.PLP.Chemscore.CHOScore>
0.0000

> <Gold.PLP.Chemscore.Metal>
0.0000

> <Gold.Chemscore.Hbonds>
donor molecule, donor type, donor heavy atom, donor atom, acceptor molecule, acceptor atom, score
      L1  H    12    37       P1  8028  0.96
      L1  H    15    38       P1  8028  0.77

> <Gold.PLP.Chemscore.Internal.Correction>
0.0341

> <Gold.Rescore>
     Score         DG    S(hbond)    S(metal)    S(lipo)     H(rot)  DE(clash)    DE(int)     intcor
     20.24     -24.63       2.81        0.00     115.11       1.45       0.58       3.82       ----

> <Gold.Chemscore.Fitness>
20.2415

> <Gold.Chemscore.DG>
-24.6328

> <Gold.Chemscore.ZeroCoef>
-5.4800

> <Gold.Chemscore.Hbond>
2.8134

> <Gold.Chemscore.Metal>
0.0000

> <Gold.Chemscore.Lipo>
115.1113

> <Gold.Chemscore.Internal_Hbond>
0.0000

> <Gold.Chemscore.DEClash>
0.5762

> <Gold.Chemscore.DEInternal>
3.8152

> <Gold.Chemscore.Rot>
1.4499

> <Gold.Chemscore.Internal.Correction>
   9.000000E+99

> <Gold.Chemscore.Hbonds>
donor molecule, donor type, donor heavy atom, donor atom, acceptor molecule, acceptor atom, score
      L1  H    12    37       P1  8028  0.92
      L1  H    15    38       P1  8028  0.62

> <Gold.Chemscore.Hbond.Weighted>
-9.3966

> <Gold.Chemscore.Metal.Weighted>
-0.0000

> <Gold.Chemscore.Lipo.Weighted>
-13.4680

> <Gold.Chemscore.Internal_Hbond.Weighted>
0.0000

> <Gold.Chemscore.DEClash.Weighted>
0.5762

> <Gold.Chemscore.DEInternal.Weighted>
3.8152

> <Gold.Chemscore.Rot.Weighted>
3.7118

> <Gold.Chemscore.Internal.Correction.Weighted>
   9.000000E+99

> <Gold.Protein.RotatedTorsions>
[ 6907 6896 6895 6894 ] final  170.27 input  -60.11 | X-H torsion
[ 7974 7965 7964 7962 ] final  -79.35 input  175.53 | X-H torsion
[ 8008 7997 7996 7995 ] final   59.49 input   59.86 | X-H torsion
[ 10167 10162 10161 10158 ] final  -51.26 input  -65.29 | X-H torsion
[ 10718 10713 10712 10709 ] final  -13.77 input   66.30 | X-H torsion
[ 10763 10752 10751 10750 ] final   52.90 input  -60.55 | X-H torsion
[ 11005 11000 10999 10996 ] final  167.73 input  -57.11 | X-H torsion

> <Gold.Protein.ActiveResidues>
 VAL166  LYS551  ARG553  GLY616  TRP617  ASP618  TYR619  PRO620  LYS621  CYS622 
 ASP623  PHE694  ASN695  SER759  ASP760  ASP761  ALA762  ILE779  LEU786  VAL792 
 PHE793  MET794  SER795  GLU796  ALA797  LYS798  CYS799  TRP800  GLU811  SER814 

> <Gold.Protein.RotatedAtoms>
  151.8188  133.3391  159.3577 H   0  0  0  0  0  0  0  0  0  0  0  0  # atno 6907 bound_to 6896
  150.7301  134.5594  159.5844 H   0  0  0  0  0  0  0  0  0  0  0  0  # atno 6908 bound_to 6896
  152.3021  134.7599  160.0406 H   0  0  0  0  0  0  0  0  0  0  0  0  # atno 6909 bound_to 6896
  145.5744  140.9460  143.1378 H   0  0  0  0  0  0  0  0  0  0  0  0  # atno 7974 bound_to 7965
  155.5670  140.3489  155.4505 H   0  0  0  0  0  0  0  0  0  0  0  0  # atno 8008 bound_to 7997
  156.0472  140.1309  157.0116 H   0  0  0  0  0  0  0  0  0  0  0  0  # atno 8009 bound_to 7997
  154.4418  140.1012  156.6308 H   0  0  0  0  0  0  0  0  0  0  0  0  # atno 8010 bound_to 7997
  140.6597  143.2626  151.4478 H   0  0  0  0  0  0  0  0  0  0  0  0  # atno 10167 bound_to 10162
  156.6255  130.4887  149.6148 H   0  0  0  0  0  0  0  0  0  0  0  0  # atno 10718 bound_to 10713
  152.9791  135.5797  154.4655 H   0  0  0  0  0  0  0  0  0  0  0  0  # atno 10763 bound_to 10752
  154.4225  135.2772  155.1968 H   0  0  0  0  0  0  0  0  0  0  0  0  # atno 10764 bound_to 10752
  154.3711  135.6167  153.5794 H   0  0  0  0  0  0  0  0  0  0  0  0  # atno 10765 bound_to 10752
  140.2798  134.7759  157.3748 H   0  0  0  0  0  0  0  0  0  0  0  0  # atno 11005 bound_to 11000
  144.7423  139.7416  143.7306 LP  0  0  0  0  0  0  0  0  0  0  0  0  # atno 17320 bound_to 7965
  146.1761  139.4932  142.9896 LP  0  0  0  0  0  0  0  0  0  0  0  0  # atno 17321 bound_to 7965
  139.5828  144.1672  152.1990 LP  0  0  0  0  0  0  0  0  0  0  0  0  # atno 17342 bound_to 10162
  140.1003  144.5545  150.6994 LP  0  0  0  0  0  0  0  0  0  0  0  0  # atno 17343 bound_to 10162
  156.2276  130.6775  151.1432 LP  0  0  0  0  0  0  0  0  0  0  0  0  # atno 17370 bound_to 10713
  157.7215  131.0678  150.6115 LP  0  0  0  0  0  0  0  0  0  0  0  0  # atno 17371 bound_to 10713
  140.1294  134.5115  155.8118 LP  0  0  0  0  0  0  0  0  0  0  0  0  # atno 17394 bound_to 11000
  141.2164  133.6784  156.7011 LP  0  0  0  0  0  0  0  0  0  0  0  0  # atno 17395 bound_to 11000

$$$$
