#       Name:                AV-unprocessed.smi:1795
#       Creating user name   scv26
#       Creation time:       Fri Mar 27 08:48:56 2020


#       File generated by GOLD software.
#

@<TRIPOS>MOLECULE
AV-unprocessed.smi:1795
    54    55     1
SMALL
NO_CHARGES


@<TRIPOS>ATOM
      1 ****        -0.8996  -3.4023   3.4333 C.3            1 S1                 0.0000
      2 ****        -1.6233  -2.0765   3.1749 C.3            1 S1                 0.0000
      3 ****        -0.9250  -1.2393   2.0867 C.3            1 S1                 0.0000
      4 ****        -1.6441  -0.0024   1.7605 N.3            1 S1                 0.0000
      5 ****        -0.9822   0.7721   0.6844 C.3            1 S1                 0.0000
      6 ****        -1.7661   2.0506   0.2937 C.3            1 S1                 0.0000
      7 ****         0.4838   1.1735   1.0203 C.3            1 S1                 0.0000
      8 ****         1.1653   1.8457  -0.0826 N.am           1 S1                 0.0000
      9 ****         1.6584   1.2319  -1.1690 C.2            1 S1                 0.0000
     10 ****         1.5683   0.0173  -1.3547 O.2            1 S1                 0.0000
     11 ****         2.3366   2.1383  -2.2063 C.3            1 S1                 0.0000
     12 ****         3.2787   1.4188  -3.0801 N.am           1 S1                 0.0000
     13 ****         2.8077   1.0302  -4.3502 C.2            1 S1                 0.0000
     14 ****         3.5837   0.3684  -5.2231 C.2            1 S1                 0.0000
     15 ****         4.9376   0.0548  -4.8317 C.2            1 S1                 0.0000
     16 ****         5.3969   0.4179  -3.6175 C.2            1 S1                 0.0000
     17 ****         4.5510   1.1390  -2.6591 C.2            1 S1                 0.0000
     18 ****         4.9611   1.4714  -1.5465 O.2            1 S1                 0.0000
     19 ****        -3.0253  -0.3624   1.4206 C.3            1 S1                 0.0000
     20 ****        -3.7181  -1.1967   2.5147 C.3            1 S1                 0.0000
     21 ****        -5.1317  -1.6258   2.1078 C.3            1 S1                 0.0000
     22 ****        -2.9517  -2.3684   2.7610 O.3            1 S1                 0.0000
     23 ****         0.1237  -3.2321   3.7688 H              1 S1                 0.0000
     24 ****        -0.8589  -4.0114   2.5297 H              1 S1                 0.0000
     25 ****        -1.4099  -3.9816   4.2030 H              1 S1                 0.0000
     26 ****        -1.6585  -1.5093   4.1068 H              1 S1                 0.0000
     27 ****         0.0729  -1.0177   2.4580 H              1 S1                 0.0000
     28 ****        -0.8025  -1.8418   1.1851 H              1 S1                 0.0000
     29 ****        -0.9473   0.1390  -0.2036 H              1 S1                 0.0000
     30 ****        -1.2431   2.6470  -0.4529 H              1 S1                 0.0000
     31 ****        -1.9366   2.6891   1.1611 H              1 S1                 0.0000
     32 ****        -2.7327   1.8210  -0.1524 H              1 S1                 0.0000
     33 ****         0.4973   1.8373   1.8855 H              1 S1                 0.0000
     34 ****         1.0992   0.3155   1.2855 H              1 S1                 0.0000
     35 ****         1.2751   2.8469  -0.0099 H              1 S1                 0.0000
     36 ****         1.5557   2.6186  -2.7975 H              1 S1                 0.0000
     37 ****         2.8506   2.9551  -1.6956 H              1 S1                 0.0000
     38 ****         1.7824   1.2957  -4.5628 H              1 S1                 0.0000
     39 ****         3.2041   0.0745  -6.1907 H              1 S1                 0.0000
     40 ****         5.5848  -0.4745  -5.5152 H              1 S1                 0.0000
     41 ****         6.4121   0.1734  -3.3417 H              1 S1                 0.0000
     42 ****        -3.6271   0.5330   1.2740 H              1 S1                 0.0000
     43 ****        -3.0409  -0.9127   0.4783 H              1 S1                 0.0000
     44 ****        -3.7816  -0.6129   3.4349 H              1 S1                 0.0000
     45 ****        -5.7657  -0.7595   1.9183 H              1 S1                 0.0000
     46 ****        -5.6013  -2.2148   2.8959 H              1 S1                 0.0000
     47 ****        -5.1147  -2.2335   1.2026 H              1 S1                 0.0000
     48 ****        -1.6391   0.6072   2.5532 LP             1 S1                 0.0000
     49 ****         1.1105  -0.5594  -0.6781 LP             1 S1                 0.0000
     50 ****         1.9530  -0.3919  -2.1821 LP             1 S1                 0.0000
     51 ****         4.3583   1.9623  -0.9176 LP             1 S1                 0.0000
     52 ****         5.8970   1.2504  -1.2720 LP             1 S1                 0.0000
     53 ****        -3.4012  -2.9000   3.4788 LP             1 S1                 0.0000
     54 ****        -2.9137  -2.9087   1.9203 LP             1 S1                 0.0000
@<TRIPOS>BOND
    1    1    2 1     
    2    1   23 1     
    3    1   24 1     
    4    1   25 1     
    5    2   22 1     
    6    2    3 1     
    7    2   26 1     
    8    3    4 1     
    9    3   27 1     
   10    3   28 1     
   11    4    5 1     
   12    4   19 1     
   13    5    6 1     
   14    5    7 1     
   15    5   29 1     
   16    6   30 1     
   17    6   31 1     
   18    6   32 1     
   19    7    8 1     
   20    7   33 1     
   21    7   34 1     
   22    8    9 am    
   23    8   35 1     
   24    9   10 2     
   25    9   11 1     
   26   11   12 1     
   27   11   36 1     
   28   11   37 1     
   29   12   17 am    
   30   12   13 1     
   31   13   14 2     
   32   13   38 1     
   33   14   15 1     
   34   14   39 1     
   35   15   16 2     
   36   15   40 1     
   37   16   17 1     
   38   16   41 1     
   39   17   18 2     
   40   19   20 1     
   41   19   42 1     
   42   19   43 1     
   43   20   21 1     
   44   20   22 1     
   45   20   44 1     
   46   21   45 1     
   47   21   46 1     
   48   21   47 1     
   49    4   48 1     
   50   10   49 1     
   51   10   50 1     
   52   18   51 1     
   53   18   52 1     
   54   22   53 1     
   55   22   54 1     
@<TRIPOS>SUBSTRUCTURE
      1 S1             1
@<TRIPOS>SET
LONE_PAIRS      STATIC     ATOMS    <user>   **** ""
7 48 49 50 51 52 53 54
DONOR_HYDROGENS      STATIC     ATOMS    <user>   **** ""
1 35
ATOM$BLUE        STATIC     ATOMS    COLORGROUP SYSTEM
7 48 49 50 51 52 53 54
ATOM$RED        STATIC     ATOMS    COLORGROUP SYSTEM
1 35
