AV-unprocessed.smi:2832|AV-procd|sdf|10913|dock6
  -GOLD-   2272015363D 1   1.00000     0.00000
 Structure written by MMmdl.
 33 33  0  0  0  0  0  0  0  0  2 V2000
  148.3868  138.9282  154.6018 C   0  0  0  0  0  0  0  0  0  0  0  0
  149.7179  139.5268  154.1344 C   0  0  0  0  0  0  0  0  0  0  0  0
  150.4612  140.2641  155.2711 C   0  0  0  0  0  0  0  0  0  0  0  0
  151.3493  139.3862  156.2013 C   0  0  2  0  0  0  0  0  0  0  0  0
  150.4845  138.2417  156.7877 C   0  0  0  0  0  0  0  0  0  0  0  0
  151.9685  140.2553  157.2175 N   0  0  0  0  0  0  0  0  0  0  0  0
  151.9572  140.2125  158.5626 C   0  0  0  0  0  0  0  0  0  0  0  0
  151.2764  139.4446  159.2409 O   0  0  0  0  0  0  0  0  0  0  0  0
  152.8764  141.2174  159.2582 C   0  0  0  0  0  0  0  0  0  0  0  0
  152.4982  142.5844  158.9390 N   0  0  0  0  0  0  0  0  0  0  0  0
  152.9881  143.7609  159.4709 C   0  0  0  0  0  0  0  0  0  0  0  0
  152.3361  144.7899  158.8546 C   0  0  0  0  0  0  0  0  0  0  0  0
  151.4585  144.1368  157.9450 C   0  0  0  0  0  0  0  0  0  0  0  0
  151.5615  142.8185  157.9933 N   0  0  0  0  0  0  0  0  0  0  0  0
  152.5065  138.6988  155.4344 C   0  0  0  0  0  0  0  0  0  0  0  0
  153.3414  139.4155  154.8388 O   0  0  0  0  0  0  0  0  0  0  0  0
  152.5296  137.4468  155.4369 O   0  5  0  0  0  0  0  0  0  0  0  0
  147.8795  138.4220  153.7804 H   0  0  0  0  0  0  0  0  0  0  0  0
  147.7184  139.7019  154.9803 H   0  0  0  0  0  0  0  0  0  0  0  0
  148.5420  138.1985  155.3971 H   0  0  0  0  0  0  0  0  0  0  0  0
  150.3357  138.7281  153.7252 H   0  0  0  0  0  0  0  0  0  0  0  0
  149.5201  140.2125  153.3102 H   0  0  0  0  0  0  0  0  0  0  0  0
  151.0907  141.0297  154.8156 H   0  0  0  0  0  0  0  0  0  0  0  0
  149.7369  140.8161  155.8723 H   0  0  0  0  0  0  0  0  0  0  0  0
  150.1441  137.5637  156.0037 H   0  0  0  0  0  0  0  0  0  0  0  0
  149.5880  138.6221  157.2779 H   0  0  0  0  0  0  0  0  0  0  0  0
  151.0350  137.6426  157.5147 H   0  0  0  0  0  0  0  0  0  0  0  0
  152.5744  140.9593  156.8222 H   0  0  0  0  0  0  0  0  0  0  0  0
  152.8306  141.0854  160.3402 H   0  0  0  0  0  0  0  0  0  0  0  0
  153.9109  141.0416  158.9578 H   0  0  0  0  0  0  0  0  0  0  0  0
  153.7477  143.7676  160.2394 H   0  0  0  0  0  0  0  0  0  0  0  0
  152.4660  145.8477  159.0289 H   0  0  0  0  0  0  0  0  0  0  0  0
  150.7557  144.5789  157.2541 H   0  0  0  0  0  0  0  0  0  0  0  0
  1  2  1  0  0  0  0
  1 18  1  0  0  0  0
  1 19  1  0  0  0  0
  1 20  1  0  0  0  0
  2  3  1  0  0  0  0
  2 21  1  0  0  0  0
  2 22  1  0  0  0  0
  3  4  1  0  0  0  0
  3 23  1  0  0  0  0
  3 24  1  0  0  0  0
  4  5  1  0  0  0  0
  4  6  1  0  0  0  0
  4 15  1  0  0  0  0
  5 25  1  0  0  0  0
  5 26  1  0  0  0  0
  5 27  1  0  0  0  0
  6  7  1  0  0  0  0
  6 28  1  0  0  0  0
  7  8  2  0  0  0  0
  7  9  1  0  0  0  0
  9 10  1  0  0  0  0
  9 29  1  0  0  0  0
  9 30  1  0  0  0  0
 10 14  1  0  0  0  0
 10 11  1  0  0  0  0
 11 12  2  0  0  0  0
 11 31  1  0  0  0  0
 12 13  1  0  0  0  0
 12 32  1  0  0  0  0
 13 14  2  0  0  0  0
 13 33  1  0  0  0  0
 15 16  2  0  0  0  0
 15 17  1  0  0  0  0
M  CHG  1  17  -1
M  END
> <s_m_source_file>
AV-unprocessed.smi

> <i_m_source_file_index>
2832

> <i_lp_mmshare_version>
43012

> <i_f3d_flags>
0

> <s_epik_input>
W0NIM11bQ0gyXVtDSDJdW0NAXShbQ0gzXSkoQyg9TylbT0hdKVtOSF1DKD1PKVtDSDJdbjFbY0hdW2NIXVtjSF1uMQ==

> <s_epik_cmdline>
J2VwaWtfcHl0aG9uJywgJy1waCcsICc3LjAnLCAnLXRuJywgJzgnLCAnLW1hJywgJzIwMCcsICctbWV0YWxfYmluZGluZycsICctaW1hZScsICc8aW5maWxlLm1hZT4nLCAnLW9tYWUnLCAnPG91dGZpbGUubWFlPic=

> <r_lp_tautomer_probability>
1

> <r_epik_Ionization_Penalty>
0.000287256

> <r_epik_Ionization_Penalty_Charging>
0.00026921

> <r_epik_Ionization_Penalty_Neutral>
1.80463e-05

> <r_epik_State_Penalty>
-0

> <r_epik_Charging_Adjusted_Penalty>
0.00026921

> <i_epik_Tot_Q>
-1

> <i_epik_Tot_abs_Q>
1

> <r_epik_Metal_State_Penalty>
-0

> <b_epik_Metal_Only>
0

> <s_lp_Force_Field>
OPLS_2005

> <r_lp_Energy>
2.74442

> <b_lp_Chiralities_Consistent>
1

> <s_lp_Variant>
AV-unprocessed.smi:2832-2

> <Gold.Version>
5.8.1

> <Gold.Id.Protein>
6NUR|6NUR_protein|mol2

> <Gold.PLP.Fitness>
46.0415

> <Gold.PLP.PLP>
-33.5943

> <Gold.PLP.part.hbond>
-2.4708

> <Gold.PLP.part.metal>
0.0000

> <Gold.PLP.part.buried>
-1.0370

> <Gold.PLP.part.nonpolar>
-29.4200

> <Gold.PLP.part.repulsive>
0.2078

> <Gold.PLP.ligand.clash>
0.0000

> <Gold.PLP.ligand.torsion>
0.2382

> <Gold.PLP.Chemscore.Hbond>
3.2800

> <Gold.PLP.Chemscore.CHOScore>
1.0000

> <Gold.PLP.Chemscore.Metal>
0.0000

> <Gold.Chemscore.Hbonds>
donor molecule, donor type, donor heavy atom, donor atom, acceptor molecule, acceptor atom, score
      P1  H  7997  8010       L1    16  2.00
      P1  H 10752 10764       L1    17  1.22
      L1  C    13    33       P1  8028  1.00

> <Gold.PLP.Chemscore.Internal.Correction>
0.0837

> <Gold.Rescore>
     Score         DG    S(hbond)    S(metal)    S(lipo)     H(rot)  DE(clash)    DE(int)     intcor
     11.35     -14.34       1.81        0.00      78.21       2.47       0.04       2.95       ----

> <Gold.Chemscore.Fitness>
11.3482

> <Gold.Chemscore.DG>
-14.3364

> <Gold.Chemscore.ZeroCoef>
-5.4800

> <Gold.Chemscore.Hbond>
1.8070

> <Gold.Chemscore.Metal>
0.0000

> <Gold.Chemscore.Lipo>
78.2108

> <Gold.Chemscore.Internal_Hbond>
0.0000

> <Gold.Chemscore.DEClash>
0.0414

> <Gold.Chemscore.DEInternal>
2.9468

> <Gold.Chemscore.Rot>
2.4726

> <Gold.Chemscore.Internal.Correction>
   9.000000E+99

> <Gold.Chemscore.Hbonds>
donor molecule, donor type, donor heavy atom, donor atom, acceptor molecule, acceptor atom, score
      P1  H  7997  8010       L1    16  0.99
      P1  H 10752 10764       L1    17  0.57

> <Gold.Chemscore.Hbond.Weighted>
-6.0354

> <Gold.Chemscore.Metal.Weighted>
-0.0000

> <Gold.Chemscore.Lipo.Weighted>
-9.1507

> <Gold.Chemscore.Internal_Hbond.Weighted>
0.0000

> <Gold.Chemscore.DEClash.Weighted>
0.0414

> <Gold.Chemscore.DEInternal.Weighted>
2.9468

> <Gold.Chemscore.Rot.Weighted>
6.3297

> <Gold.Chemscore.Internal.Correction.Weighted>
   9.000000E+99

> <Gold.Protein.RotatedTorsions>
[ 6907 6896 6895 6894 ] final -155.99 input  -60.11 | X-H torsion
[ 7974 7965 7964 7962 ] final   20.17 input  175.53 | X-H torsion
[ 8008 7997 7996 7995 ] final  119.24 input   59.86 | X-H torsion
[ 10167 10162 10161 10158 ] final  165.77 input  -65.29 | X-H torsion
[ 10718 10713 10712 10709 ] final -122.05 input   66.30 | X-H torsion
[ 10763 10752 10751 10750 ] final  -47.75 input  -60.55 | X-H torsion
[ 11005 11000 10999 10996 ] final -108.66 input  -57.11 | X-H torsion

> <Gold.Protein.ActiveResidues>
 VAL166  LYS551  ARG553  GLY616  TRP617  ASP618  TYR619  PRO620  LYS621  CYS622 
 ASP623  PHE694  ASN695  SER759  ASP760  ASP761  ALA762  ILE779  LEU786  VAL792 
 PHE793  MET794  SER795  GLU796  ALA797  LYS798  CYS799  TRP800  GLU811  SER814 

> <Gold.Protein.RotatedAtoms>
  151.2808  133.4210  159.2626 H   0  0  0  0  0  0  0  0  0  0  0  0  # atno 6907 bound_to 6896
  151.0362  134.9575  159.8148 H   0  0  0  0  0  0  0  0  0  0  0  0  # atno 6908 bound_to 6896
  152.5356  134.2768  159.9045 H   0  0  0  0  0  0  0  0  0  0  0  0  # atno 6909 bound_to 6896
  146.2122  139.8208  142.8680 H   0  0  0  0  0  0  0  0  0  0  0  0  # atno 7974 bound_to 7965
  156.2586  140.2857  156.0961 H   0  0  0  0  0  0  0  0  0  0  0  0  # atno 8008 bound_to 7997
  155.1410  140.0395  157.2816 H   0  0  0  0  0  0  0  0  0  0  0  0  # atno 8009 bound_to 7997
  154.6530  140.2549  155.7199 H   0  0  0  0  0  0  0  0  0  0  0  0  # atno 8010 bound_to 7997
  139.4912  144.4098  151.9313 H   0  0  0  0  0  0  0  0  0  0  0  0  # atno 10167 bound_to 10162
  156.1387  130.6449  150.9736 H   0  0  0  0  0  0  0  0  0  0  0  0  # atno 10718 bound_to 10713
  154.0665  135.6610  153.4818 H   0  0  0  0  0  0  0  0  0  0  0  0  # atno 10763 bound_to 10752
  153.0407  135.5147  154.7608 H   0  0  0  0  0  0  0  0  0  0  0  0  # atno 10764 bound_to 10752
  154.6661  135.3022  154.9771 H   0  0  0  0  0  0  0  0  0  0  0  0  # atno 10765 bound_to 10752
  141.0890  133.9088  157.2120 H   0  0  0  0  0  0  0  0  0  0  0  0  # atno 11005 bound_to 11000
  145.3098  141.0217  143.3561 LP  0  0  0  0  0  0  0  0  0  0  0  0  # atno 17320 bound_to 7965
  144.8944  139.4732  143.6662 LP  0  0  0  0  0  0  0  0  0  0  0  0  # atno 17321 bound_to 7965
  140.3539  144.3056  150.5944 LP  0  0  0  0  0  0  0  0  0  0  0  0  # atno 17342 bound_to 10162
  140.5461  143.2214  151.8004 LP  0  0  0  0  0  0  0  0  0  0  0  0  # atno 17343 bound_to 10162
  157.6556  131.0890  150.7955 LP  0  0  0  0  0  0  0  0  0  0  0  0  # atno 17370 bound_to 10713
  156.8033  130.4928  149.5366 LP  0  0  0  0  0  0  0  0  0  0  0  0  # atno 17371 bound_to 10713
  139.9712  135.0127  156.9517 LP  0  0  0  0  0  0  0  0  0  0  0  0  # atno 17394 bound_to 11000
  140.5296  134.0826  155.7312 LP  0  0  0  0  0  0  0  0  0  0  0  0  # atno 17395 bound_to 11000

$$$$
