AV-unprocessed.smi:287|AV-procd|sdf|2190|dock8
  -GOLD-   2262021583D 1   1.00000     0.00000
 Structure written by MMmdl.
 55 58  0  0  0  0  0  0  0  0  1 V2000
  154.7132  139.8949  161.2205 C   0  0  0  0  0  0  0  0  0  0  0  0
  153.8696  141.1233  161.2000 C   0  0  0  0  0  0  0  0  0  0  0  0
  153.1299  141.7454  160.2371 C   0  0  0  0  0  0  0  0  0  0  0  0
  152.5317  142.8949  160.8345 C   0  0  0  0  0  0  0  0  0  0  0  0
  151.6136  143.8876  160.1337 C   0  0  2  0  0  0  0  0  0  0  0  0
  152.2536  145.2861  160.1388 C   0  0  0  0  0  0  0  0  0  0  0  0
  150.3704  144.0460  160.7896 O   0  0  0  0  0  0  0  0  0  0  0  0
  151.2825  143.4591  158.6853 C   0  0  0  0  0  0  0  0  0  0  0  0
  150.1857  142.4988  158.6138 N   0  0  0  0  0  0  0  0  0  0  0  0
  149.8996  141.8781  157.4500 C   0  0  0  0  0  0  0  0  0  0  0  0
  150.8490  141.1741  156.7816 N   0  0  0  0  0  0  0  0  0  0  0  0
  150.5400  140.5662  155.6337 C   0  0  0  0  0  0  0  0  0  0  0  0
  149.3690  140.5386  154.9946 N   0  0  0  0  0  0  0  0  0  0  0  0
  148.4062  141.2444  155.6574 C   0  0  0  0  0  0  0  0  0  0  0  0
  148.5984  141.9370  156.8873 C   0  0  0  0  0  0  0  0  0  0  0  0
  147.4133  142.5389  157.2814 N   0  0  0  0  0  0  0  0  0  0  0  0
  146.5699  142.2148  156.3402 C   0  0  0  0  0  0  0  0  0  0  0  0
  147.0789  141.4488  155.3133 N   0  0  0  0  0  0  0  0  0  0  0  0
  146.2971  140.9278  154.1368 C   0  0  2  0  0  0  0  0  0  0  0  0
  145.1965  140.2249  154.6185 O   0  0  0  0  0  0  0  0  0  0  0  0
  145.4914  138.8381  154.6329 C   0  0  1  0  0  0  0  0  0  0  0  0
  144.1939  138.0105  154.6463 C   0  0  0  0  0  0  0  0  0  0  0  0
  143.3103  138.3901  153.6111 O   0  0  0  0  0  0  0  0  0  0  0  0
  146.4493  138.6101  153.4509 C   0  0  2  0  0  0  0  0  0  0  0  0
  147.4194  137.6405  153.7919 O   0  0  0  0  0  0  0  0  0  0  0  0
  147.1034  139.9792  153.2272 C   0  0  1  0  0  0  0  0  0  0  0  0
  146.9833  140.3578  151.8706 O   0  0  0  0  0  0  0  0  0  0  0  0
  152.9739  142.8832  162.1360 C   0  0  0  0  0  0  0  0  0  0  0  0
  152.7574  143.7735  163.3151 C   0  0  0  0  0  0  0  0  0  0  0  0
  153.7837  141.8119  162.3654 O   0  0  0  0  0  0  0  0  0  0  0  0
  145.9677  141.8339  153.6259 H   0  0  0  0  0  0  0  0  0  0  0  0
  146.0096  138.6506  155.5732 H   0  0  0  0  0  0  0  0  0  0  0  0
  145.9149  138.2854  152.5577 H   0  0  0  0  0  0  0  0  0  0  0  0
  148.1615  140.0031  153.4882 H   0  0  0  0  0  0  0  0  0  0  0  0
  154.6380  139.3555  160.2760 H   0  0  0  0  0  0  0  0  0  0  0  0
  154.3986  139.2227  162.0187 H   0  0  0  0  0  0  0  0  0  0  0  0
  155.7609  140.1485  161.3829 H   0  0  0  0  0  0  0  0  0  0  0  0
  153.0230  141.4105  159.2160 H   0  0  0  0  0  0  0  0  0  0  0  0
  153.2091  145.2863  159.6133 H   0  0  0  0  0  0  0  0  0  0  0  0
  152.4393  145.6336  161.1560 H   0  0  0  0  0  0  0  0  0  0  0  0
  151.6128  146.0212  159.6504 H   0  0  0  0  0  0  0  0  0  0  0  0
  150.4138  143.6047  161.6241 H   0  0  0  0  0  0  0  0  0  0  0  0
  151.0728  144.3280  158.0594 H   0  0  0  0  0  0  0  0  0  0  0  0
  152.1602  142.9717  158.2580 H   0  0  0  0  0  0  0  0  0  0  0  0
  149.7080  142.3052  159.4827 H   0  0  0  0  0  0  0  0  0  0  0  0
  151.3454  140.0257  155.1590 H   0  0  0  0  0  0  0  0  0  0  0  0
  145.5371  142.5308  156.3707 H   0  0  0  0  0  0  0  0  0  0  0  0
  144.4309  136.9546  154.5148 H   0  0  0  0  0  0  0  0  0  0  0  0
  143.6892  138.1065  155.6077 H   0  0  0  0  0  0  0  0  0  0  0  0
  143.6985  139.1069  153.1328 H   0  0  0  0  0  0  0  0  0  0  0  0
  147.9678  137.4902  153.0365 H   0  0  0  0  0  0  0  0  0  0  0  0
  147.7838  140.1274  151.4240 H   0  0  0  0  0  0  0  0  0  0  0  0
  153.0592  144.7959  163.0878 H   0  0  0  0  0  0  0  0  0  0  0  0
  153.3366  143.4377  164.1756 H   0  0  0  0  0  0  0  0  0  0  0  0
  151.7060  143.7847  163.6025 H   0  0  0  0  0  0  0  0  0  0  0  0
  1  2  1  0  0  0  0
  1 35  1  0  0  0  0
  1 36  1  0  0  0  0
  1 37  1  0  0  0  0
  2 30  1  0  0  0  0
  2  3  2  0  0  0  0
  3  4  1  0  0  0  0
  3 38  1  0  0  0  0
  4  5  1  0  0  0  0
  4 28  2  0  0  0  0
  5  6  1  0  0  0  0
  5  7  1  0  0  0  0
  5  8  1  0  0  0  0
  6 39  1  0  0  0  0
  6 40  1  0  0  0  0
  6 41  1  0  0  0  0
  7 42  1  0  0  0  0
  8  9  1  0  0  0  0
  8 43  1  0  0  0  0
  8 44  1  0  0  0  0
  9 10  1  0  0  0  0
  9 45  1  0  0  0  0
 10 15  1  0  0  0  0
 10 11  2  0  0  0  0
 11 12  1  0  0  0  0
 12 13  2  0  0  0  0
 12 46  1  0  0  0  0
 13 14  1  0  0  0  0
 14 18  1  0  0  0  0
 14 15  2  0  0  0  0
 15 16  1  0  0  0  0
 16 17  2  0  0  0  0
 17 18  1  0  0  0  0
 17 47  1  0  0  0  0
 18 19  1  0  0  0  0
 19 31  1  0  0  0  0
 19 26  1  0  0  0  0
 19 20  1  0  0  0  0
 20 21  1  0  0  0  0
 21 32  1  0  0  0  0
 21 22  1  0  0  0  0
 21 24  1  0  0  0  0
 22 23  1  0  0  0  0
 22 48  1  0  0  0  0
 22 49  1  0  0  0  0
 23 50  1  0  0  0  0
 24 33  1  0  0  0  0
 24 25  1  0  0  0  0
 24 26  1  0  0  0  0
 25 51  1  0  0  0  0
 26 34  1  0  0  0  0
 26 27  1  0  0  0  0
 27 52  1  0  0  0  0
 28 29  1  0  0  0  0
 28 30  1  0  0  0  0
 29 53  1  0  0  0  0
 29 54  1  0  0  0  0
 29 55  1  0  0  0  0
M  END
> <s_m_source_file>
AV-unprocessed.smi

> <i_m_source_file_index>
287

> <i_lp_mmshare_version>
43012

> <i_f3d_flags>
0

> <s_epik_input>
W0NIM11jMVtjSF1jKGMobzEpW0NIM10pW0NAQF0oW0NIM10pKFtPSF0pW0NIMl1bTkhdYyhuW2NIXW4yKWMoYzIzKW5bY0hdbjNbQ0BASF00T1tDQEhdKFtDSDJdW09IXSlbQ0BASF0oW09IXSlbQ0BIXTRbT0hd

> <s_epik_cmdline>
J2VwaWtfcHl0aG9uJywgJy1waCcsICc3LjAnLCAnLXRuJywgJzgnLCAnLW1hJywgJzIwMCcsICctbWV0YWxfYmluZGluZycsICctaW1hZScsICc8aW5maWxlLm1hZT4nLCAnLW9tYWUnLCAnPG91dGZpbGUubWFlPic=

> <r_lp_tautomer_probability>
1

> <r_epik_Ionization_Penalty>
0.000992612

> <r_epik_Ionization_Penalty_Charging>
0

> <r_epik_Ionization_Penalty_Neutral>
0.000992612

> <r_epik_State_Penalty>
-0

> <r_epik_Charging_Adjusted_Penalty>
0

> <i_epik_Tot_Q>
0

> <i_epik_Tot_abs_Q>
0

> <r_epik_Metal_State_Penalty>
-0

> <b_epik_Metal_Only>
0

> <s_epik_Chemistry_Notes>
This compound contains an acetal/aminal-like group ( X-CH(R)-Y where X, Y are N, S, or O) that may be acid/base labile, releasing an aldehyde.

> <s_lp_Force_Field>
OPLS_2005

> <r_lp_Energy>
41.2787

> <b_lp_Chiralities_Consistent>
1

> <s_lp_Variant>
AV-unprocessed.smi:287-14

> <Gold.Version>
5.8.1

> <Gold.Id.Protein>
6NUR|6NUR_protein|mol2

> <Gold.PLP.Fitness>
54.7416

> <Gold.PLP.PLP>
-47.7106

> <Gold.PLP.part.hbond>
-5.0795

> <Gold.PLP.part.metal>
0.0000

> <Gold.PLP.part.buried>
-6.2715

> <Gold.PLP.part.nonpolar>
-38.0897

> <Gold.PLP.part.repulsive>
2.3584

> <Gold.PLP.ligand.clash>
0.0000

> <Gold.PLP.ligand.torsion>
1.0384

> <Gold.PLP.Chemscore.Hbond>
2.9920

> <Gold.PLP.Chemscore.CHOScore>
0.0000

> <Gold.PLP.Chemscore.Metal>
0.0000

> <Gold.Chemscore.Hbonds>
donor molecule, donor type, donor heavy atom, donor atom, acceptor molecule, acceptor atom, score
      L1  H    23    50       P1 10175  0.89
      L1  H    25    51       P1  7948  1.00
      L1  H    27    52       P1  7957  1.00

> <Gold.PLP.Chemscore.Internal.Correction>
0.1317

> <Gold.Rescore>
     Score         DG    S(hbond)    S(metal)    S(lipo)     H(rot)  DE(clash)    DE(int)     intcor
     11.09     -15.09       2.93        0.00     113.67       5.27       1.82       2.17       ----

> <Gold.Chemscore.Fitness>
11.0931

> <Gold.Chemscore.DG>
-15.0889

> <Gold.Chemscore.ZeroCoef>
-5.4800

> <Gold.Chemscore.Hbond>
2.9320

> <Gold.Chemscore.Metal>
0.0000

> <Gold.Chemscore.Lipo>
113.6735

> <Gold.Chemscore.Internal_Hbond>
0.0000

> <Gold.Chemscore.DEClash>
1.8242

> <Gold.Chemscore.DEInternal>
2.1716

> <Gold.Chemscore.Rot>
5.2672

> <Gold.Chemscore.Internal.Correction>
   9.000000E+99

> <Gold.Chemscore.Hbonds>
donor molecule, donor type, donor heavy atom, donor atom, acceptor molecule, acceptor atom, score
      L1  H    23    50       P1 10175  0.84
      L1  H    25    51       P1  7948  0.92
      L1  H    27    52       P1  7957  0.99

> <Gold.Chemscore.Hbond.Weighted>
-9.7930

> <Gold.Chemscore.Metal.Weighted>
-0.0000

> <Gold.Chemscore.Lipo.Weighted>
-13.2998

> <Gold.Chemscore.Internal_Hbond.Weighted>
0.0000

> <Gold.Chemscore.DEClash.Weighted>
1.8242

> <Gold.Chemscore.DEInternal.Weighted>
2.1716

> <Gold.Chemscore.Rot.Weighted>
13.4839

> <Gold.Chemscore.Internal.Correction.Weighted>
   9.000000E+99

> <Gold.Protein.RotatedTorsions>
[ 6907 6896 6895 6894 ] final  173.45 input  -60.11 | X-H torsion
[ 7974 7965 7964 7962 ] final  165.93 input  175.53 | X-H torsion
[ 8008 7997 7996 7995 ] final   -2.92 input   59.86 | X-H torsion
[ 10167 10162 10161 10158 ] final  141.78 input  -65.29 | X-H torsion
[ 10718 10713 10712 10709 ] final  130.15 input   66.30 | X-H torsion
[ 10763 10752 10751 10750 ] final   21.59 input  -60.55 | X-H torsion
[ 11005 11000 10999 10996 ] final   56.31 input  -57.11 | X-H torsion

> <Gold.Protein.ActiveResidues>
 VAL166  LYS551  ARG553  GLY616  TRP617  ASP618  TYR619  PRO620  LYS621  CYS622 
 ASP623  PHE694  ASN695  SER759  ASP760  ASP761  ALA762  ILE779  LEU786  VAL792 
 PHE793  MET794  SER795  GLU796  ALA797  LYS798  CYS799  TRP800  GLU811  SER814 

> <Gold.Protein.RotatedAtoms>
  151.7681  133.3339  159.3436 H   0  0  0  0  0  0  0  0  0  0  0  0  # atno 6907 bound_to 6896
  150.7472  134.6044  159.6063 H   0  0  0  0  0  0  0  0  0  0  0  0  # atno 6908 bound_to 6896
  152.3360  134.7199  160.0328 H   0  0  0  0  0  0  0  0  0  0  0  0  # atno 6909 bound_to 6896
  144.7483  139.8541  143.6375 H   0  0  0  0  0  0  0  0  0  0  0  0  # atno 7974 bound_to 7965
  154.6305  140.2522  155.7439 H   0  0  0  0  0  0  0  0  0  0  0  0  # atno 8008 bound_to 7997
  156.2477  140.2908  156.0575 H   0  0  0  0  0  0  0  0  0  0  0  0  # atno 8009 bound_to 7997
  155.1752  140.0387  157.2861 H   0  0  0  0  0  0  0  0  0  0  0  0  # atno 8010 bound_to 7997
  139.5011  144.6149  151.6186 H   0  0  0  0  0  0  0  0  0  0  0  0  # atno 10167 bound_to 10162
  157.5089  131.1096  150.9321 H   0  0  0  0  0  0  0  0  0  0  0  0  # atno 10718 bound_to 10713
  153.0983  135.6666  153.9721 H   0  0  0  0  0  0  0  0  0  0  0  0  # atno 10763 bound_to 10752
  153.9299  135.3005  155.3447 H   0  0  0  0  0  0  0  0  0  0  0  0  # atno 10764 bound_to 10752
  154.7403  135.5083  153.9185 H   0  0  0  0  0  0  0  0  0  0  0  0  # atno 10765 bound_to 10752
  140.0539  134.5698  155.9231 H   0  0  0  0  0  0  0  0  0  0  0  0  # atno 11005 bound_to 11000
  146.1395  139.4448  143.0118 LP  0  0  0  0  0  0  0  0  0  0  0  0  # atno 17320 bound_to 7965
  145.7040  141.0127  143.1489 LP  0  0  0  0  0  0  0  0  0  0  0  0  # atno 17321 bound_to 7965
  140.5834  143.9905  150.6282 LP  0  0  0  0  0  0  0  0  0  0  0  0  # atno 17342 bound_to 10162
  140.3062  143.3228  152.0923 LP  0  0  0  0  0  0  0  0  0  0  0  0  # atno 17343 bound_to 10162
  156.9968  130.5584  149.5308 LP  0  0  0  0  0  0  0  0  0  0  0  0  # atno 17370 bound_to 10713
  156.0276  130.5369  150.8448 LP  0  0  0  0  0  0  0  0  0  0  0  0  # atno 17371 bound_to 10713
  141.1943  133.6582  156.5588 LP  0  0  0  0  0  0  0  0  0  0  0  0  # atno 17394 bound_to 11000
  140.3875  134.7469  157.4700 LP  0  0  0  0  0  0  0  0  0  0  0  0  # atno 17395 bound_to 11000

$$$$
