AV-unprocessed.smi:2735|AV-procd|sdf|10544|dock2
  -GOLD-   2272014593D 1   1.00000     0.00000
 Structure written by MMmdl.
 42 42  0  0  0  0  0  0  0  0  2 V2000
  152.5892  141.3317  159.1672 C   0  0  0  0  0  0  0  0  0  0  0  0
  152.0225  140.8917  157.8499 C   0  0  0  0  0  0  0  0  0  0  0  0
  150.9514  141.4675  157.1136 C   0  0  0  0  0  0  0  0  0  0  0  0
  150.8424  140.6791  156.0027 C   0  0  0  0  0  0  0  0  0  0  0  0
  149.8820  140.7711  154.8615 C   0  0  0  0  0  0  0  0  0  0  0  0
  151.8265  139.7063  156.0949 N   0  0  0  0  0  0  0  0  0  0  0  0
  152.1041  138.5930  155.1867 C   0  0  1  0  0  0  0  0  0  0  0  0
  153.5309  138.6376  154.6003 C   0  0  0  0  0  0  0  0  0  0  0  0
  151.8100  137.2571  155.8850 C   0  0  0  0  0  0  0  0  0  0  0  0
  152.7294  136.5090  156.2192 O   0  0  0  0  0  0  0  0  0  0  0  0
  150.5146  136.9788  156.0990 N   0  0  0  0  0  0  0  0  0  0  0  0
  149.9713  135.8066  156.7822 C   0  0  2  0  0  0  0  0  0  0  0  0
  149.1361  134.9306  155.8179 C   0  0  0  0  0  0  0  0  0  0  0  0
  149.9359  134.0163  154.8619 C   0  0  0  0  0  0  0  0  0  0  0  0
  149.0130  133.4252  153.7852 C   0  0  0  0  0  0  0  0  0  0  0  0
  150.6738  132.8902  155.6060 C   0  0  0  0  0  0  0  0  0  0  0  0
  149.1645  136.2684  158.0012 C   0  0  0  0  0  0  0  0  0  0  0  0
  149.7890  136.4410  159.0723 O   0  0  0  0  0  0  0  0  0  0  0  0
  147.9362  136.4432  157.8443 O   0  5  0  0  0  0  0  0  0  0  0  0
  152.5344  139.8357  157.2420 N   0  0  0  0  0  0  0  0  0  0  0  0
  150.7940  135.2081  157.1757 H   0  0  0  0  0  0  0  0  0  0  0  0
  152.0763  142.2184  159.5403 H   0  0  0  0  0  0  0  0  0  0  0  0
  153.6484  141.5739  159.0778 H   0  0  0  0  0  0  0  0  0  0  0  0
  152.4876  140.5487  159.9191 H   0  0  0  0  0  0  0  0  0  0  0  0
  150.3466  142.3254  157.3674 H   0  0  0  0  0  0  0  0  0  0  0  0
  149.2494  141.6540  154.9568 H   0  0  0  0  0  0  0  0  0  0  0  0
  149.2290  139.8992  154.8285 H   0  0  0  0  0  0  0  0  0  0  0  0
  150.4088  140.8412  153.9100 H   0  0  0  0  0  0  0  0  0  0  0  0
  151.4208  138.6850  154.3418 H   0  0  0  0  0  0  0  0  0  0  0  0
  153.6815  137.8324  153.8806 H   0  0  0  0  0  0  0  0  0  0  0  0
  154.2984  138.5370  155.3690 H   0  0  0  0  0  0  0  0  0  0  0  0
  153.7065  139.5784  154.0782 H   0  0  0  0  0  0  0  0  0  0  0  0
  149.8336  137.6603  155.7967 H   0  0  0  0  0  0  0  0  0  0  0  0
  148.4522  134.3095  156.3989 H   0  0  0  0  0  0  0  0  0  0  0  0
  148.4982  135.5884  155.2252 H   0  0  0  0  0  0  0  0  0  0  0  0
  150.6789  134.6187  154.3400 H   0  0  0  0  0  0  0  0  0  0  0  0
  148.2351  132.8021  154.2280 H   0  0  0  0  0  0  0  0  0  0  0  0
  149.5729  132.8088  153.0815 H   0  0  0  0  0  0  0  0  0  0  0  0
  148.5226  134.2120  153.2113 H   0  0  0  0  0  0  0  0  0  0  0  0
  149.9793  132.2641  156.1670 H   0  0  0  0  0  0  0  0  0  0  0  0
  151.4095  133.2822  156.3073 H   0  0  0  0  0  0  0  0  0  0  0  0
  151.2102  132.2467  154.9081 H   0  0  0  0  0  0  0  0  0  0  0  0
  1  2  1  0  0  0  0
  1 22  1  0  0  0  0
  1 23  1  0  0  0  0
  1 24  1  0  0  0  0
  2 20  2  0  0  0  0
  2  3  1  0  0  0  0
  3  4  2  0  0  0  0
  3 25  1  0  0  0  0
  4  5  1  0  0  0  0
  4  6  1  0  0  0  0
  5 26  1  0  0  0  0
  5 27  1  0  0  0  0
  5 28  1  0  0  0  0
  6  7  1  0  0  0  0
  6 20  1  0  0  0  0
  7  8  1  0  0  0  0
  7  9  1  0  0  0  0
  7 29  1  0  0  0  0
  8 30  1  0  0  0  0
  8 31  1  0  0  0  0
  8 32  1  0  0  0  0
  9 10  2  0  0  0  0
  9 11  1  0  0  0  0
 11 12  1  0  0  0  0
 11 33  1  0  0  0  0
 12 21  1  0  0  0  0
 12 13  1  0  0  0  0
 12 17  1  0  0  0  0
 13 14  1  0  0  0  0
 13 34  1  0  0  0  0
 13 35  1  0  0  0  0
 14 15  1  0  0  0  0
 14 16  1  0  0  0  0
 14 36  1  0  0  0  0
 15 37  1  0  0  0  0
 15 38  1  0  0  0  0
 15 39  1  0  0  0  0
 16 40  1  0  0  0  0
 16 41  1  0  0  0  0
 16 42  1  0  0  0  0
 17 18  2  0  0  0  0
 17 19  1  0  0  0  0
M  CHG  1  19  -1
M  END
> <s_m_source_file>
AV-unprocessed.smi

> <i_m_source_file_index>
2735

> <i_lp_mmshare_version>
43012

> <i_f3d_flags>
0

> <s_epik_input>
W0NIM11jMVtjSF1jKFtDSDNdKW4objEpW0NASF0oW0NIM10pQyg9TylbTkhdW0NASF0oQyg9TylbT0hdKVtDSDJdW0NIXShbQ0gzXSlbQ0gzXQ==

> <s_epik_cmdline>
J2VwaWtfcHl0aG9uJywgJy1waCcsICc3LjAnLCAnLXRuJywgJzgnLCAnLW1hJywgJzIwMCcsICctbWV0YWxfYmluZGluZycsICctaW1hZScsICc8aW5maWxlLm1hZT4nLCAnLW9tYWUnLCAnPG91dGZpbGUubWFlPic=

> <r_lp_tautomer_probability>
1

> <r_epik_Ionization_Penalty>
0.0012303

> <r_epik_Ionization_Penalty_Charging>
0.000186407

> <r_epik_Ionization_Penalty_Neutral>
0.0010439

> <r_epik_State_Penalty>
-0

> <r_epik_Charging_Adjusted_Penalty>
0.000186407

> <i_epik_Tot_Q>
-1

> <i_epik_Tot_abs_Q>
1

> <r_epik_Metal_State_Penalty>
-0

> <b_epik_Metal_Only>
0

> <s_lp_Force_Field>
OPLS_2005

> <r_lp_Energy>
6.63837

> <b_lp_Chiralities_Consistent>
1

> <s_lp_Variant>
AV-unprocessed.smi:2735-4

> <Gold.Version>
5.8.1

> <Gold.Id.Protein>
6NUR|6NUR_protein|mol2

> <Gold.PLP.Fitness>
43.2073

> <Gold.PLP.PLP>
-33.8730

> <Gold.PLP.part.hbond>
-2.8299

> <Gold.PLP.part.metal>
0.0000

> <Gold.PLP.part.buried>
-3.5964

> <Gold.PLP.part.nonpolar>
-27.0593

> <Gold.PLP.part.repulsive>
0.0445

> <Gold.PLP.ligand.clash>
0.0000

> <Gold.PLP.ligand.torsion>
1.3648

> <Gold.PLP.Chemscore.Hbond>
3.9600

> <Gold.PLP.Chemscore.CHOScore>
0.0000

> <Gold.PLP.Chemscore.Metal>
0.0000

> <Gold.Chemscore.Hbonds>
donor molecule, donor type, donor heavy atom, donor atom, acceptor molecule, acceptor atom, score
      P1  H  6896  6907       L1    18  2.00
      P1  H  7997  8008       L1    20  0.90
      P1  H 10752 10763       L1    10  0.98

> <Gold.PLP.Chemscore.Internal.Correction>
0.1838

> <Gold.Rescore>
     Score         DG    S(hbond)    S(metal)    S(lipo)     H(rot)  DE(clash)    DE(int)     intcor
     16.09     -17.65       2.64        0.00      77.62       2.24       0.05       1.51       ----

> <Gold.Chemscore.Fitness>
16.0930

> <Gold.Chemscore.DG>
-17.6478

> <Gold.Chemscore.ZeroCoef>
-5.4800

> <Gold.Chemscore.Hbond>
2.6401

> <Gold.Chemscore.Metal>
0.0000

> <Gold.Chemscore.Lipo>
77.6161

> <Gold.Chemscore.Internal_Hbond>
0.0000

> <Gold.Chemscore.DEClash>
0.0485

> <Gold.Chemscore.DEInternal>
1.5062

> <Gold.Chemscore.Rot>
2.2388

> <Gold.Chemscore.Internal.Correction>
   9.000000E+99

> <Gold.Chemscore.Hbonds>
donor molecule, donor type, donor heavy atom, donor atom, acceptor molecule, acceptor atom, score
      P1  H  6896  6907       L1    18  0.85
      P1  H  7997  8008       L1    20  0.15
      P1  H 10752 10763       L1    10  0.81

> <Gold.Chemscore.Hbond.Weighted>
-8.8181

> <Gold.Chemscore.Metal.Weighted>
-0.0000

> <Gold.Chemscore.Lipo.Weighted>
-9.0811

> <Gold.Chemscore.Internal_Hbond.Weighted>
0.0000

> <Gold.Chemscore.DEClash.Weighted>
0.0485

> <Gold.Chemscore.DEInternal.Weighted>
1.5062

> <Gold.Chemscore.Rot.Weighted>
5.7314

> <Gold.Chemscore.Internal.Correction.Weighted>
   9.000000E+99

> <Gold.Protein.RotatedTorsions>
[ 6907 6896 6895 6894 ] final  -52.71 input  -60.11 | X-H torsion
[ 7974 7965 7964 7962 ] final   43.33 input  175.53 | X-H torsion
[ 8008 7997 7996 7995 ] final  -45.42 input   59.86 | X-H torsion
[ 10167 10162 10161 10158 ] final   29.21 input  -65.29 | X-H torsion
[ 10718 10713 10712 10709 ] final  -61.69 input   66.30 | X-H torsion
[ 10763 10752 10751 10750 ] final   91.27 input  -60.55 | X-H torsion
[ 11005 11000 10999 10996 ] final  -66.21 input  -57.11 | X-H torsion

> <Gold.Protein.ActiveResidues>
 VAL166  LYS551  ARG553  GLY616  TRP617  ASP618  TYR619  PRO620  LYS621  CYS622 
 ASP623  PHE694  ASN695  SER759  ASP760  ASP761  ALA762  ILE779  LEU786  VAL792 
 PHE793  MET794  SER795  GLU796  ALA797  LYS798  CYS799  TRP800  GLU811  SER814 

> <Gold.Protein.RotatedAtoms>
  150.8493  134.7812  159.6995 H   0  0  0  0  0  0  0  0  0  0  0  0  # atno 6907 bound_to 6896
  152.4562  134.5284  159.9813 H   0  0  0  0  0  0  0  0  0  0  0  0  # atno 6908 bound_to 6896
  151.5408  133.3395  159.2971 H   0  0  0  0  0  0  0  0  0  0  0  0  # atno 6909 bound_to 6896
  146.0664  139.5199  142.9625 H   0  0  0  0  0  0  0  0  0  0  0  0  # atno 7974 bound_to 7965
  154.4001  140.1397  156.3845 H   0  0  0  0  0  0  0  0  0  0  0  0  # atno 8008 bound_to 7997
  155.7973  140.3477  155.5362 H   0  0  0  0  0  0  0  0  0  0  0  0  # atno 8009 bound_to 7997
  155.8519  140.0943  157.1659 H   0  0  0  0  0  0  0  0  0  0  0  0  # atno 8010 bound_to 7997
  140.4785  144.0652  150.6258 H   0  0  0  0  0  0  0  0  0  0  0  0  # atno 10167 bound_to 10162
  156.0905  130.4201  150.1029 H   0  0  0  0  0  0  0  0  0  0  0  0  # atno 10718 bound_to 10713
  153.2065  135.4403  155.0329 H   0  0  0  0  0  0  0  0  0  0  0  0  # atno 10763 bound_to 10752
  154.8176  135.3322  154.7134 H   0  0  0  0  0  0  0  0  0  0  0  0  # atno 10764 bound_to 10752
  153.7575  135.6994  153.4988 H   0  0  0  0  0  0  0  0  0  0  0  0  # atno 10765 bound_to 10752
  141.1476  133.6695  156.6105 H   0  0  0  0  0  0  0  0  0  0  0  0  # atno 11005 bound_to 11000
  145.6469  141.0272  143.1781 LP  0  0  0  0  0  0  0  0  0  0  0  0  # atno 17320 bound_to 7965
  144.7205  139.8046  143.7383 LP  0  0  0  0  0  0  0  0  0  0  0  0  # atno 17321 bound_to 7965
  140.3888  143.2763  152.0085 LP  0  0  0  0  0  0  0  0  0  0  0  0  # atno 17342 bound_to 10162
  139.4829  144.6095  151.7460 LP  0  0  0  0  0  0  0  0  0  0  0  0  # atno 17343 bound_to 10162
  156.9040  130.9630  151.3572 LP  0  0  0  0  0  0  0  0  0  0  0  0  # atno 17370 bound_to 10713
  157.6052  130.8542  149.8865 LP  0  0  0  0  0  0  0  0  0  0  0  0  # atno 17371 bound_to 10713
  140.3618  134.7681  157.4539 LP  0  0  0  0  0  0  0  0  0  0  0  0  # atno 17394 bound_to 11000
  140.0779  134.5772  155.8572 LP  0  0  0  0  0  0  0  0  0  0  0  0  # atno 17395 bound_to 11000

$$$$
