AV-unprocessed.smi:2655|AV-procd|sdf|10302|dock6
  -GOLD-   2272014313D 1   1.00000     0.00000
 Structure written by MMmdl.
 33 34  0  0  0  0  0  0  0  0  2 V2000
  148.3553  140.9104  154.0983 C   0  0  0  0  0  0  0  0  0  0  0  0
  149.5663  140.9996  155.0024 C   0  0  0  0  0  0  0  0  0  0  0  0
  149.8406  142.1464  155.7021 N   0  0  0  0  0  0  0  0  0  0  0  0
  150.9935  141.9616  156.4519 N   0  5  0  0  0  0  0  0  0  0  0  0
  151.4102  140.6963  156.1936 C   0  0  0  0  0  0  0  0  0  0  0  0
  152.3992  140.1318  156.6580 O   0  0  0  0  0  0  0  0  0  0  0  0
  150.4956  140.0805  155.2573 C   0  0  0  0  0  0  0  0  0  0  0  0
  150.6045  138.6606  154.7338 C   0  0  0  0  0  0  0  0  0  0  0  0
  149.6095  137.7132  155.4229 C   0  0  0  0  0  0  0  0  0  0  0  0
  149.3250  136.5446  154.5989 N   0  0  0  0  0  0  0  0  0  0  0  0
  149.4647  135.2717  154.9958 C   0  0  0  0  0  0  0  0  0  0  0  0
  149.8573  134.9502  156.1176 O   0  0  0  0  0  0  0  0  0  0  0  0
  149.1251  134.4173  154.0159 N   0  0  0  0  0  0  0  0  0  0  0  0
  149.1181  132.9987  154.0464 C   0  0  0  0  0  0  0  0  0  0  0  0
  150.0548  132.1640  154.7231 C   0  0  0  0  0  0  0  0  0  0  0  0
  149.6012  130.9059  154.4443 C   0  0  0  0  0  0  0  0  0  0  0  0
  150.0840  129.5474  154.8217 C   0  0  0  0  0  0  0  0  0  0  0  0
  148.4877  130.9651  153.6656 O   0  0  0  0  0  0  0  0  0  0  0  0
  148.1850  132.3088  153.4164 N   0  0  0  0  0  0  0  0  0  0  0  0
  148.6630  140.6744  153.0793 H   0  0  0  0  0  0  0  0  0  0  0  0
  147.8074  141.8530  154.0823 H   0  0  0  0  0  0  0  0  0  0  0  0
  147.6819  140.1269  154.4458 H   0  0  0  0  0  0  0  0  0  0  0  0
  151.6248  138.3086  154.8893 H   0  0  0  0  0  0  0  0  0  0  0  0
  150.4404  138.6671  153.6554 H   0  0  0  0  0  0  0  0  0  0  0  0
  149.9904  137.4025  156.3974 H   0  0  0  0  0  0  0  0  0  0  0  0
  148.6683  138.2311  155.6097 H   0  0  0  0  0  0  0  0  0  0  0  0
  148.9978  136.7203  153.6601 H   0  0  0  0  0  0  0  0  0  0  0  0
  148.8304  134.8313  153.1439 H   0  0  0  0  0  0  0  0  0  0  0  0
  150.9170  132.4252  155.3176 H   0  0  0  0  0  0  0  0  0  0  0  0
  150.8457  129.6073  155.5992 H   0  0  0  0  0  0  0  0  0  0  0  0
  150.5183  129.0390  153.9608 H   0  0  0  0  0  0  0  0  0  0  0  0
  149.2642  128.9358  155.1988 H   0  0  0  0  0  0  0  0  0  0  0  0
  149.2836  142.9887  155.6799 H   0  0  0  0  0  0  0  0  0  0  0  0
  1 20  1  0  0  0  0
  1 21  1  0  0  0  0
  1 22  1  0  0  0  0
  1  2  1  0  0  0  0
  2  7  2  0  0  0  0
  2  3  1  0  0  0  0
  3  4  1  0  0  0  0
  3 33  1  0  0  0  0
  4  5  1  0  0  0  0
  5  7  1  0  0  0  0
  5  6  2  0  0  0  0
  7  8  1  0  0  0  0
  8  9  1  0  0  0  0
  8 23  1  0  0  0  0
  8 24  1  0  0  0  0
  9 10  1  0  0  0  0
  9 25  1  0  0  0  0
  9 26  1  0  0  0  0
 10 11  1  0  0  0  0
 10 27  1  0  0  0  0
 11 12  2  0  0  0  0
 11 13  1  0  0  0  0
 13 14  1  0  0  0  0
 13 28  1  0  0  0  0
 14 19  2  0  0  0  0
 14 15  1  0  0  0  0
 15 16  2  0  0  0  0
 15 29  1  0  0  0  0
 16 17  1  0  0  0  0
 16 18  1  0  0  0  0
 17 30  1  0  0  0  0
 17 31  1  0  0  0  0
 17 32  1  0  0  0  0
 18 19  1  0  0  0  0
M  CHG  1   4  -1
M  END
> <s_m_source_file>
AV-unprocessed.smi

> <i_m_source_file_index>
2655

> <i_lp_mmshare_version>
43012

> <i_f3d_flags>
0

> <s_epik_input>
W0NIM11DMT1OW05IXUMoPU8pW0NASF0xW0NIMl1bQ0gyXVtOSF1DKD1PKVtOSF1jMltjSF1jKFtDSDNdKW9uMg==

> <s_epik_cmdline>
J2VwaWtfcHl0aG9uJywgJy1waCcsICc3LjAnLCAnLXRuJywgJzgnLCAnLW1hJywgJzIwMCcsICctbWV0YWxfYmluZGluZycsICctaW1hZScsICc8aW5maWxlLm1hZT4nLCAnLW9tYWUnLCAnPG91dGZpbGUubWFlPic=

> <r_lp_tautomer_probability>
0.00220696

> <r_epik_Ionization_Penalty>
4.81787

> <r_epik_Ionization_Penalty_Charging>
2.1236

> <r_epik_Ionization_Penalty_Neutral>
2.69427

> <r_epik_State_Penalty>
2.7337

> <r_epik_Charging_Adjusted_Penalty>
4.8573

> <i_epik_Tot_Q>
-1

> <i_epik_Tot_abs_Q>
1

> <r_epik_Metal_State_Penalty>
2.0342

> <b_epik_Metal_Only>
1

> <s_lp_Force_Field>
OPLS_2005

> <r_lp_Energy>
14.0901

> <b_lp_Chiralities_Consistent>
1

> <s_lp_Variant>
AV-unprocessed.smi:2655-5

> <Gold.Version>
5.8.1

> <Gold.Id.Protein>
6NUR|6NUR_protein|mol2

> <Gold.PLP.Fitness>
41.7149

> <Gold.PLP.PLP>
-31.0200

> <Gold.PLP.part.hbond>
-4.0000

> <Gold.PLP.part.metal>
0.0000

> <Gold.PLP.part.buried>
-3.6171

> <Gold.PLP.part.nonpolar>
-23.5288

> <Gold.PLP.part.repulsive>
0.4781

> <Gold.PLP.ligand.clash>
0.0000

> <Gold.PLP.ligand.torsion>
0.6178

> <Gold.PLP.Chemscore.Hbond>
3.9760

> <Gold.PLP.Chemscore.CHOScore>
0.0000

> <Gold.PLP.Chemscore.Metal>
0.0000

> <Gold.Chemscore.Hbonds>
donor molecule, donor type, donor heavy atom, donor atom, acceptor molecule, acceptor atom, score
      L1  H     3    33       P1  8028  1.00
      L1  H    10    27       P1  7948  0.96
      L1  H    13    28       P1  7948  0.95
      P1  H  7997  8010       L1     6  1.00

> <Gold.PLP.Chemscore.Internal.Correction>
0.0025

> <Gold.Rescore>
     Score         DG    S(hbond)    S(metal)    S(lipo)     H(rot)  DE(clash)    DE(int)     intcor
     16.79     -17.43       3.39        0.00      45.80       1.85       0.00       0.64       ----

> <Gold.Chemscore.Fitness>
16.7894

> <Gold.Chemscore.DG>
-17.4325

> <Gold.Chemscore.ZeroCoef>
-5.4800

> <Gold.Chemscore.Hbond>
3.3923

> <Gold.Chemscore.Metal>
0.0000

> <Gold.Chemscore.Lipo>
45.8046

> <Gold.Chemscore.Internal_Hbond>
0.0000

> <Gold.Chemscore.DEClash>
0.0030

> <Gold.Chemscore.DEInternal>
0.6401

> <Gold.Chemscore.Rot>
1.8504

> <Gold.Chemscore.Internal.Correction>
   9.000000E+99

> <Gold.Chemscore.Hbonds>
donor molecule, donor type, donor heavy atom, donor atom, acceptor molecule, acceptor atom, score
      L1  H     3    33       P1  8028  1.00
      L1  H    10    27       P1  7948  0.92
      L1  H    13    28       P1  7948  0.20
      P1  H  7997  8010       L1     6  0.97

> <Gold.Chemscore.Hbond.Weighted>
-11.3302

> <Gold.Chemscore.Metal.Weighted>
-0.0000

> <Gold.Chemscore.Lipo.Weighted>
-5.3591

> <Gold.Chemscore.Internal_Hbond.Weighted>
0.0000

> <Gold.Chemscore.DEClash.Weighted>
0.0030

> <Gold.Chemscore.DEInternal.Weighted>
0.6401

> <Gold.Chemscore.Rot.Weighted>
4.7369

> <Gold.Chemscore.Internal.Correction.Weighted>
   9.000000E+99

> <Gold.Protein.RotatedTorsions>
[ 6907 6896 6895 6894 ] final  168.15 input  -60.11 | X-H torsion
[ 7974 7965 7964 7962 ] final   49.71 input  175.53 | X-H torsion
[ 8008 7997 7996 7995 ] final   65.56 input   59.86 | X-H torsion
[ 10167 10162 10161 10158 ] final   16.39 input  -65.29 | X-H torsion
[ 10718 10713 10712 10709 ] final  147.62 input   66.30 | X-H torsion
[ 10763 10752 10751 10750 ] final    5.26 input  -60.55 | X-H torsion
[ 11005 11000 10999 10996 ] final  171.38 input  -57.11 | X-H torsion

> <Gold.Protein.ActiveResidues>
 VAL166  LYS551  ARG553  GLY616  TRP617  ASP618  TYR619  PRO620  LYS621  CYS622 
 ASP623  PHE694  ASN695  SER759  ASP760  ASP761  ALA762  ILE779  LEU786  VAL792 
 PHE793  MET794  SER795  GLU796  ALA797  LYS798  CYS799  TRP800  GLU811  SER814 

> <Gold.Protein.RotatedAtoms>
  151.8522  133.3442  159.3676 H   0  0  0  0  0  0  0  0  0  0  0  0  # atno 6907 bound_to 6896
  150.7203  134.5288  159.5699 H   0  0  0  0  0  0  0  0  0  0  0  0  # atno 6908 bound_to 6896
  152.2784  134.7856  160.0452 H   0  0  0  0  0  0  0  0  0  0  0  0  # atno 6909 bound_to 6896
  146.0083  139.4514  142.9972 H   0  0  0  0  0  0  0  0  0  0  0  0  # atno 7974 bound_to 7965
  155.6636  140.3497  155.4792 H   0  0  0  0  0  0  0  0  0  0  0  0  # atno 8008 bound_to 7997
  155.9748  140.1163  157.0803 H   0  0  0  0  0  0  0  0  0  0  0  0  # atno 8009 bound_to 7997
  154.4175  140.1150  156.5341 H   0  0  0  0  0  0  0  0  0  0  0  0  # atno 8010 bound_to 7997
  140.5801  143.8997  150.6782 H   0  0  0  0  0  0  0  0  0  0  0  0  # atno 10167 bound_to 10162
  157.3187  131.0900  151.1258 H   0  0  0  0  0  0  0  0  0  0  0  0  # atno 10718 bound_to 10713
  153.2615  135.6923  153.7574 H   0  0  0  0  0  0  0  0  0  0  0  0  # atno 10763 bound_to 10752
  153.6631  135.3357  155.3133 H   0  0  0  0  0  0  0  0  0  0  0  0  # atno 10764 bound_to 10752
  154.8432  135.4482  154.1607 H   0  0  0  0  0  0  0  0  0  0  0  0  # atno 10765 bound_to 10752
  140.3183  134.7458  157.4045 H   0  0  0  0  0  0  0  0  0  0  0  0  # atno 11005 bound_to 11000
  145.7382  141.0018  143.1315 LP  0  0  0  0  0  0  0  0  0  0  0  0  # atno 17320 bound_to 7965
  144.6943  139.9067  143.7461 LP  0  0  0  0  0  0  0  0  0  0  0  0  # atno 17321 bound_to 7965
  140.2494  143.3604  152.1418 LP  0  0  0  0  0  0  0  0  0  0  0  0  # atno 17342 bound_to 10162
  139.5165  144.6978  151.5581 LP  0  0  0  0  0  0  0  0  0  0  0  0  # atno 17343 bound_to 10162
  157.2551  130.6632  149.5949 LP  0  0  0  0  0  0  0  0  0  0  0  0  # atno 17370 bound_to 10713
  155.9684  130.4526  150.5780 LP  0  0  0  0  0  0  0  0  0  0  0  0  # atno 17371 bound_to 10713
  140.0964  134.5532  155.8395 LP  0  0  0  0  0  0  0  0  0  0  0  0  # atno 17394 bound_to 11000
  141.2092  133.6682  156.6425 LP  0  0  0  0  0  0  0  0  0  0  0  0  # atno 17395 bound_to 11000

$$$$
