AV-unprocessed.smi:561|AV-procd|sdf|2936|dock2
  -GOLD-   2262023433D 1   1.00000     0.00000
 Structure written by MMmdl.
 37 38  0  0  0  0  0  0  0  0  2 V2000
  144.8717  135.2332  154.1811 C   0  0  0  0  0  0  0  0  0  0  0  0
  145.7103  135.5239  152.9297 C   0  0  2  0  0  0  0  0  0  0  0  0
  146.3109  134.2287  152.3431 C   0  0  0  0  0  0  0  0  0  0  0  0
  145.4025  133.5441  151.4173 N   0  0  0  0  0  0  0  0  0  0  0  0
  145.6453  132.3913  150.7149 C   0  0  0  0  0  0  0  0  0  0  0  0
  144.5182  132.1395  149.9763 C   0  0  0  0  0  0  0  0  0  0  0  0
  143.6345  133.1456  150.2619 N   0  3  0  0  0  0  0  0  0  0  0  0
  144.1726  133.9966  151.1416 C   0  0  0  0  0  0  0  0  0  0  0  0
  146.7638  136.4778  153.2742 N   0  0  0  0  0  0  0  0  0  0  0  0
  146.5832  137.6656  153.8821 C   0  0  0  0  0  0  0  0  0  0  0  0
  145.4773  138.0870  154.2221 O   0  0  0  0  0  0  0  0  0  0  0  0
  147.8124  138.4649  154.1208 C   0  0  0  0  0  0  0  0  0  0  0  0
  148.9163  137.8730  154.4535 N   0  0  0  0  0  0  0  0  0  0  0  0
  150.0859  138.5720  154.6734 N   0  0  0  0  0  0  0  0  0  0  0  0
  151.2728  137.7200  154.7450 C   0  0  0  0  0  0  0  0  0  0  0  0
  150.1557  139.9183  154.8414 C   0  0  0  0  0  0  0  0  0  0  0  0
  151.2020  140.5381  155.0305 O   0  0  0  0  0  0  0  0  0  0  0  0
  148.8256  140.6781  154.8153 C   0  0  0  0  0  0  0  0  0  0  0  0
  147.7657  139.9691  153.9500 C   0  0  0  0  0  0  0  0  0  0  0  0
  144.0544  134.5479  153.9544 H   0  0  0  0  0  0  0  0  0  0  0  0
  144.4314  136.1477  154.5805 H   0  0  0  0  0  0  0  0  0  0  0  0
  145.4751  134.7815  154.9693 H   0  0  0  0  0  0  0  0  0  0  0  0
  145.0387  135.9653  152.1913 H   0  0  0  0  0  0  0  0  0  0  0  0
  147.2408  134.4384  151.8124 H   0  0  0  0  0  0  0  0  0  0  0  0
  146.5543  133.5258  153.1411 H   0  0  0  0  0  0  0  0  0  0  0  0
  146.5802  131.8542  150.7862 H   0  0  0  0  0  0  0  0  0  0  0  0
  144.2852  131.3413  149.2868 H   0  0  0  0  0  0  0  0  0  0  0  0
  143.7087  134.8801  151.5427 H   0  0  0  0  0  0  0  0  0  0  0  0
  147.7093  136.2149  153.0352 H   0  0  0  0  0  0  0  0  0  0  0  0
  152.2024  138.2688  154.9011 H   0  0  0  0  0  0  0  0  0  0  0  0
  151.3825  137.1537  153.8193 H   0  0  0  0  0  0  0  0  0  0  0  0
  151.1730  137.0068  155.5640 H   0  0  0  0  0  0  0  0  0  0  0  0
  148.4705  140.7527  155.8438 H   0  0  0  0  0  0  0  0  0  0  0  0
  148.9826  141.6978  154.4624 H   0  0  0  0  0  0  0  0  0  0  0  0
  147.9152  140.2177  152.8987 H   0  0  0  0  0  0  0  0  0  0  0  0
  146.7821  140.3551  154.2213 H   0  0  0  0  0  0  0  0  0  0  0  0
  142.7075  133.2357  149.8653 H   0  0  0  0  0  0  0  0  0  0  0  0
  1  2  1  0  0  0  0
  1 20  1  0  0  0  0
  1 21  1  0  0  0  0
  1 22  1  0  0  0  0
  2  3  1  0  0  0  0
  2  9  1  0  0  0  0
  2 23  1  0  0  0  0
  3  4  1  0  0  0  0
  3 24  1  0  0  0  0
  3 25  1  0  0  0  0
  4  8  1  0  0  0  0
  4  5  1  0  0  0  0
  5  6  2  0  0  0  0
  5 26  1  0  0  0  0
  6  7  1  0  0  0  0
  6 27  1  0  0  0  0
  7  8  2  0  0  0  0
  7 37  1  0  0  0  0
  8 28  1  0  0  0  0
  9 10  1  0  0  0  0
  9 29  1  0  0  0  0
 10 11  2  0  0  0  0
 10 12  1  0  0  0  0
 12 19  1  0  0  0  0
 12 13  2  0  0  0  0
 13 14  1  0  0  0  0
 14 15  1  0  0  0  0
 14 16  1  0  0  0  0
 15 30  1  0  0  0  0
 15 31  1  0  0  0  0
 15 32  1  0  0  0  0
 16 17  2  0  0  0  0
 16 18  1  0  0  0  0
 18 19  1  0  0  0  0
 18 33  1  0  0  0  0
 18 34  1  0  0  0  0
 19 35  1  0  0  0  0
 19 36  1  0  0  0  0
M  CHG  1   7   1
M  END
> <s_m_source_file>
AV-unprocessed.smi

> <i_m_source_file_index>
561

> <i_lp_mmshare_version>
43012

> <i_f3d_flags>
0

> <s_epik_input>
W2NIXTFuW2NIXVtjSF1uMVtDSDJdW0NAQEhdKFtDSDNdKVtOSF1DKD1PKUMyPU5OKFtDSDNdKUMoPU8pW0NIMl1bQ0gyXTI=

> <s_epik_cmdline>
J2VwaWtfcHl0aG9uJywgJy1waCcsICc3LjAnLCAnLXRuJywgJzgnLCAnLW1hJywgJzIwMCcsICctbWV0YWxfYmluZGluZycsICctaW1hZScsICc8aW5maWxlLm1hZT4nLCAnLW9tYWUnLCAnPG91dGZpbGUubWFlPic=

> <r_lp_tautomer_probability>
1

> <r_epik_Ionization_Penalty>
0.358595

> <r_epik_Ionization_Penalty_Charging>
0

> <r_epik_Ionization_Penalty_Neutral>
0.358595

> <r_epik_State_Penalty>
0.355181

> <r_epik_Charging_Adjusted_Penalty>
0.355181

> <i_epik_Tot_Q>
1

> <i_epik_Tot_abs_Q>
1

> <r_epik_Metal_State_Penalty>
0.718565

> <b_epik_Metal_Only>
0

> <s_epik_Chemistry_Notes>
This compound has an imine and may undergo hydrolysis.

> <s_lp_Force_Field>
OPLS_2005

> <r_lp_Energy>
20.1569

> <b_lp_Chiralities_Consistent>
1

> <s_lp_Variant>
AV-unprocessed.smi:561-1

> <Gold.Version>
5.8.1

> <Gold.Id.Protein>
6NUR|6NUR_protein|mol2

> <Gold.PLP.Fitness>
41.4658

> <Gold.PLP.PLP>
-28.8577

> <Gold.PLP.part.hbond>
-2.9367

> <Gold.PLP.part.metal>
0.0000

> <Gold.PLP.part.buried>
-4.6844

> <Gold.PLP.part.nonpolar>
-22.8619

> <Gold.PLP.part.repulsive>
1.3111

> <Gold.PLP.ligand.clash>
0.0000

> <Gold.PLP.ligand.torsion>
0.9166

> <Gold.PLP.Chemscore.Hbond>
3.9440

> <Gold.PLP.Chemscore.CHOScore>
0.8527

> <Gold.PLP.Chemscore.Metal>
0.0000

> <Gold.Chemscore.Hbonds>
donor molecule, donor type, donor heavy atom, donor atom, acceptor molecule, acceptor atom, score
      L1  H     7    37       P1 10186  1.65
      L1  H     9    29       P1  7948  0.94
      P1  H  7989  7998       L1    17  0.96
      L1  C     5    26       P1 10747  0.72

> <Gold.PLP.Chemscore.Internal.Correction>
0.0512

> <Gold.Rescore>
     Score         DG    S(hbond)    S(metal)    S(lipo)     H(rot)  DE(clash)    DE(int)     intcor
     12.52     -14.50       2.25        0.00      51.49       1.76       0.05       1.94       ----

> <Gold.Chemscore.Fitness>
12.5200

> <Gold.Chemscore.DG>
-14.5044

> <Gold.Chemscore.ZeroCoef>
-5.4800

> <Gold.Chemscore.Hbond>
2.2465

> <Gold.Chemscore.Metal>
0.0000

> <Gold.Chemscore.Lipo>
51.4865

> <Gold.Chemscore.Internal_Hbond>
0.0000

> <Gold.Chemscore.DEClash>
0.0456

> <Gold.Chemscore.DEInternal>
1.9387

> <Gold.Chemscore.Rot>
1.7589

> <Gold.Chemscore.Internal.Correction>
   9.000000E+99

> <Gold.Chemscore.Hbonds>
donor molecule, donor type, donor heavy atom, donor atom, acceptor molecule, acceptor atom, score
      L1  H     7    37       P1 10186  0.77
      L1  H     9    29       P1  7948  0.91
      P1  H  7989  7998       L1    17  0.27

> <Gold.Chemscore.Hbond.Weighted>
-7.5033

> <Gold.Chemscore.Metal.Weighted>
-0.0000

> <Gold.Chemscore.Lipo.Weighted>
-6.0239

> <Gold.Chemscore.Internal_Hbond.Weighted>
0.0000

> <Gold.Chemscore.DEClash.Weighted>
0.0456

> <Gold.Chemscore.DEInternal.Weighted>
1.9387

> <Gold.Chemscore.Rot.Weighted>
4.5028

> <Gold.Chemscore.Internal.Correction.Weighted>
   9.000000E+99

> <Gold.Protein.RotatedTorsions>
[ 6907 6896 6895 6894 ] final  -42.45 input  -60.11 | X-H torsion
[ 7974 7965 7964 7962 ] final  173.95 input  175.53 | X-H torsion
[ 8008 7997 7996 7995 ] final  -95.06 input   59.86 | X-H torsion
[ 10167 10162 10161 10158 ] final -121.09 input  -65.29 | X-H torsion
[ 10718 10713 10712 10709 ] final  -29.37 input   66.30 | X-H torsion
[ 10763 10752 10751 10750 ] final  -79.72 input  -60.55 | X-H torsion
[ 11005 11000 10999 10996 ] final -145.32 input  -57.11 | X-H torsion

> <Gold.Protein.ActiveResidues>
 VAL166  LYS551  ARG553  GLY616  TRP617  ASP618  TYR619  PRO620  LYS621  CYS622 
 ASP623  PHE694  ASN695  SER759  ASP760  ASP761  ALA762  ILE779  LEU786  VAL792 
 PHE793  MET794  SER795  GLU796  ALA797  LYS798  CYS799  TRP800  GLU811  SER814 

> <Gold.Protein.RotatedAtoms>
  150.9551  134.8946  159.7695 H   0  0  0  0  0  0  0  0  0  0  0  0  # atno 6907 bound_to 6896
  152.5135  134.3751  159.9342 H   0  0  0  0  0  0  0  0  0  0  0  0  # atno 6908 bound_to 6896
  151.3766  133.3796  159.2740 H   0  0  0  0  0  0  0  0  0  0  0  0  # atno 6909 bound_to 6896
  144.7232  139.9724  143.6437 H   0  0  0  0  0  0  0  0  0  0  0  0  # atno 7974 bound_to 7965
  154.7565  140.0483  157.0937 H   0  0  0  0  0  0  0  0  0  0  0  0  # atno 8008 bound_to 7997
  154.9991  140.3122  155.4855 H   0  0  0  0  0  0  0  0  0  0  0  0  # atno 8009 bound_to 7997
  156.2896  140.2204  156.5100 H   0  0  0  0  0  0  0  0  0  0  0  0  # atno 8010 bound_to 7997
  140.0288  143.5269  152.2186 H   0  0  0  0  0  0  0  0  0  0  0  0  # atno 10167 bound_to 10162
  156.4133  130.4412  149.7236 H   0  0  0  0  0  0  0  0  0  0  0  0  # atno 10718 bound_to 10713
  154.5422  135.5686  153.6849 H   0  0  0  0  0  0  0  0  0  0  0  0  # atno 10763 bound_to 10752
  152.9966  135.6230  154.2487 H   0  0  0  0  0  0  0  0  0  0  0  0  # atno 10764 bound_to 10752
  154.2418  135.2862  155.2830 H   0  0  0  0  0  0  0  0  0  0  0  0  # atno 10765 bound_to 10752
  140.7935  134.2941  157.5005 H   0  0  0  0  0  0  0  0  0  0  0  0  # atno 11005 bound_to 11000
  146.0552  139.3550  143.0615 LP  0  0  0  0  0  0  0  0  0  0  0  0  # atno 17320 bound_to 7965
  145.8164  140.9701  143.0922 LP  0  0  0  0  0  0  0  0  0  0  0  0  # atno 17321 bound_to 7965
  139.6090  144.7604  151.2995 LP  0  0  0  0  0  0  0  0  0  0  0  0  # atno 17342 bound_to 10162
  140.7311  143.6861  150.7960 LP  0  0  0  0  0  0  0  0  0  0  0  0  # atno 17343 bound_to 10162
  156.4206  130.7767  151.2783 LP  0  0  0  0  0  0  0  0  0  0  0  0  # atno 17370 bound_to 10713
  157.7507  131.0184  150.3624 LP  0  0  0  0  0  0  0  0  0  0  0  0  # atno 17371 bound_to 10713
  139.8729  134.9388  156.3724 LP  0  0  0  0  0  0  0  0  0  0  0  0  # atno 17394 bound_to 11000
  140.9366  133.7543  156.0093 LP  0  0  0  0  0  0  0  0  0  0  0  0  # atno 17395 bound_to 11000

$$$$
