#       Name:                AV-unprocessed.smi:121
#       Creating user name   scv26
#       Creation time:       Thu Mar 26 18:27:13 2020


#       File generated by GOLD software.
#

@<TRIPOS>MOLECULE
AV-unprocessed.smi:121
    44    46     1
SMALL
NO_CHARGES


@<TRIPOS>ATOM
      1 ****        -5.2043  -1.8157  -0.9054 N.1            1 S1                 0.0000
      2 ****        -4.7067  -0.7763  -1.0093 C.1            1 S1                 0.0000
      3 ****        -4.0818   0.5293  -1.1401 C.ar           1 S1                 0.0000
      4 ****        -4.8743   1.6719  -1.3707 C.ar           1 S1                 0.0000
      5 ****        -4.2656   2.9346  -1.5013 C.ar           1 S1                 0.0000
      6 ****        -2.8667   3.0574  -1.3995 C.ar           1 S1                 0.0000
      7 ****        -2.0659   1.9209  -1.1608 C.ar           1 S1                 0.0000
      8 ****        -0.5536   2.0847  -1.0533 C.3            1 S1                 0.0000
      9 ****         0.1007   1.2367  -0.0684 N.am           1 S1                 0.0000
     10 ****         0.0168   1.6426   1.2861 C.2            1 S1                 0.0000
     11 ****        -0.5764   2.6686   1.6246 O.2            1 S1                 0.0000
     12 ****         0.6787   0.7489   2.2297 C.2            1 S1                 0.0000
     13 ****         0.6820   1.0492   3.5395 F              1 S1                 0.0000
     14 ****         1.2932  -0.3773   1.8086 C.2            1 S1                 0.0000
     15 ****         1.3366  -0.7631   0.4796 N.am           1 S1                 0.0000
     16 ****         2.0362  -2.0368   0.0621 C.3            1 S1                 0.0000
     17 ****         3.5202  -1.7632  -0.2091 C.3            1 S1                 0.0000
     18 ****         4.1635  -2.1850   1.0945 C.3            1 S1                 0.0000
     19 ****         3.2662  -3.3411   1.5190 C.3            1 S1                 0.0000
     20 ****         1.9563  -2.9611   1.1090 O.3            1 S1                 0.0000
     21 ****         0.7415   0.0527  -0.5080 C.2            1 S1                 0.0000
     22 ****         0.7797  -0.2670  -1.6984 O.2            1 S1                 0.0000
     23 ****        -2.6811   0.6543  -1.0375 C.ar           1 S1                 0.0000
     24 ****        -5.9487   1.5867  -1.4500 H              1 S1                 0.0000
     25 ****        -4.8722   3.8103  -1.6793 H              1 S1                 0.0000
     26 ****        -2.4099   4.0311  -1.5006 H              1 S1                 0.0000
     27 ****        -0.0943   1.9159  -2.0274 H              1 S1                 0.0000
     28 ****        -0.2894   3.1135  -0.8000 H              1 S1                 0.0000
     29 ****         1.7708  -0.9969   2.5531 H              1 S1                 0.0000
     30 ****         1.4946  -2.4239  -0.8020 H              1 S1                 0.0000
     31 ****         3.8498  -2.4096  -1.0233 H              1 S1                 0.0000
     32 ****         3.7091  -0.7244  -0.4834 H              1 S1                 0.0000
     33 ****         5.2085  -2.4757   0.9824 H              1 S1                 0.0000
     34 ****         4.1095  -1.3749   1.8229 H              1 S1                 0.0000
     35 ****         3.5481  -4.2543   0.9931 H              1 S1                 0.0000
     36 ****         3.3095  -3.5372   2.5905 H              1 S1                 0.0000
     37 ****        -2.0805  -0.2269  -0.8652 H              1 S1                 0.0000
     38 ****        -5.6344  -2.7140  -0.8156 LP             1 S1                 0.0000
     39 ****        -1.0168   3.2424   0.9341 LP             1 S1                 0.0000
     40 ****        -0.6172   2.9273   2.5897 LP             1 S1                 0.0000
     41 ****         1.4575  -3.7707   0.7995 LP             1 S1                 0.0000
     42 ****         1.4739  -2.5472   1.8810 LP             1 S1                 0.0000
     43 ****         0.3498   0.3170  -2.3870 LP             1 S1                 0.0000
     44 ****         1.2406  -1.1102  -1.9752 LP             1 S1                 0.0000
@<TRIPOS>BOND
    1    1    2 3     
    2    2    3 1     
    3    3   23 ar    
    4    3    4 ar    
    5    4    5 ar    
    6    4   24 1     
    7    5    6 ar    
    8    5   25 1     
    9    6    7 ar    
   10    6   26 1     
   11    7    8 1     
   12    7   23 ar    
   13    8    9 1     
   14    8   27 1     
   15    8   28 1     
   16    9   21 am    
   17    9   10 am    
   18   10   11 2     
   19   10   12 1     
   20   12   13 1     
   21   12   14 2     
   22   14   15 1     
   23   14   29 1     
   24   15   16 1     
   25   15   21 am    
   26   16   20 1     
   27   16   17 1     
   28   16   30 1     
   29   17   18 1     
   30   17   31 1     
   31   17   32 1     
   32   18   19 1     
   33   18   33 1     
   34   18   34 1     
   35   19   20 1     
   36   19   35 1     
   37   19   36 1     
   38   21   22 2     
   39   23   37 1     
   40    1   38 1     
   41   11   39 1     
   42   11   40 1     
   43   20   41 1     
   44   20   42 1     
   45   22   43 1     
   46   22   44 1     
@<TRIPOS>SUBSTRUCTURE
      1 S1             1
@<TRIPOS>SET
LONE_PAIRS      STATIC     ATOMS    <user>   **** ""
7 38 39 40 41 42 43 44
ATOM$BLUE        STATIC     ATOMS    COLORGROUP SYSTEM
7 38 39 40 41 42 43 44
