AV-unprocessed.smi:1419|AV-procd|sdf|5776|dock9
  -GOLD-   22720 5423D 1   1.00000     0.00000
 Structure written by MMmdl.
 42 43  0  0  0  0  0  0  0  0  2 V2000
  146.9024  130.8339  152.7974 C   0  0  0  0  0  0  0  0  0  0  0  0
  146.5797  132.2866  153.1714 C   0  0  2  0  0  0  0  0  0  0  0  0
  146.7532  133.2285  151.9609 C   0  0  0  0  0  0  0  0  0  0  0  0
  145.7116  133.0484  150.9433 N   0  0  0  0  0  0  0  0  0  0  0  0
  145.7773  132.2679  149.8176 C   0  0  0  0  0  0  0  0  0  0  0  0
  144.5713  132.4009  149.1789 C   0  0  0  0  0  0  0  0  0  0  0  0
  143.8242  133.2627  149.9363 N   0  3  0  0  0  0  0  0  0  0  0  0
  144.5207  133.6589  151.0068 C   0  0  0  0  0  0  0  0  0  0  0  0
  147.4459  132.6935  154.2769 N   0  0  0  0  0  0  0  0  0  0  0  0
  148.7696  132.9180  154.2039 C   0  0  0  0  0  0  0  0  0  0  0  0
  149.3942  132.8284  153.1460 O   0  0  0  0  0  0  0  0  0  0  0  0
  149.3521  133.2517  155.3818 N   0  0  0  0  0  0  0  0  0  0  0  0
  148.7374  133.1955  156.7142 C   0  0  0  0  0  0  0  0  0  0  0  0
  149.3383  131.9925  157.4666 C   0  0  2  0  0  0  0  0  0  0  0  0
  148.8028  131.8811  158.8980 C   0  0  0  0  0  0  0  0  0  0  0  0
  150.7594  132.1367  157.5374 O   0  0  0  0  0  0  0  0  0  0  0  0
  151.4319  132.3156  156.2865 C   0  0  1  0  0  0  0  0  0  0  0  0
  151.4963  130.9977  155.4938 C   0  0  0  0  0  0  0  0  0  0  0  0
  150.7921  133.4874  155.5103 C   0  0  0  0  0  0  0  0  0  0  0  0
  146.2562  130.4832  151.9923 H   0  0  0  0  0  0  0  0  0  0  0  0
  146.7562  130.1676  153.6483 H   0  0  0  0  0  0  0  0  0  0  0  0
  147.9357  130.7276  152.4647 H   0  0  0  0  0  0  0  0  0  0  0  0
  145.5361  132.3110  153.4901 H   0  0  0  0  0  0  0  0  0  0  0  0
  146.7577  134.2731  152.2778 H   0  0  0  0  0  0  0  0  0  0  0  0
  147.7109  133.0433  151.4726 H   0  0  0  0  0  0  0  0  0  0  0  0
  146.6512  131.6843  149.5664 H   0  0  0  0  0  0  0  0  0  0  0  0
  144.1990  131.9583  148.2663 H   0  0  0  0  0  0  0  0  0  0  0  0
  144.1823  134.3302  151.7760 H   0  0  0  0  0  0  0  0  0  0  0  0
  147.0041  132.8062  155.1778 H   0  0  0  0  0  0  0  0  0  0  0  0
  148.9551  134.1211  157.2496 H   0  0  0  0  0  0  0  0  0  0  0  0
  147.6502  133.1193  156.6963 H   0  0  0  0  0  0  0  0  0  0  0  0
  149.0909  131.0707  156.9389 H   0  0  0  0  0  0  0  0  0  0  0  0
  147.7199  131.7542  158.9042 H   0  0  0  0  0  0  0  0  0  0  0  0
  149.0389  132.7736  159.4782 H   0  0  0  0  0  0  0  0  0  0  0  0
  149.2404  131.0244  159.4110 H   0  0  0  0  0  0  0  0  0  0  0  0
  152.4582  132.5948  156.5267 H   0  0  0  0  0  0  0  0  0  0  0  0
  152.0785  131.1239  154.5809 H   0  0  0  0  0  0  0  0  0  0  0  0
  150.5101  130.6404  155.2033 H   0  0  0  0  0  0  0  0  0  0  0  0
  151.9722  130.2142  156.0833 H   0  0  0  0  0  0  0  0  0  0  0  0
  151.2890  133.6209  154.5481 H   0  0  0  0  0  0  0  0  0  0  0  0
  150.9506  134.4202  156.0535 H   0  0  0  0  0  0  0  0  0  0  0  0
  142.8803  133.5582  149.7202 H   0  0  0  0  0  0  0  0  0  0  0  0
  1  2  1  0  0  0  0
  1 20  1  0  0  0  0
  1 21  1  0  0  0  0
  1 22  1  0  0  0  0
  2  3  1  0  0  0  0
  2  9  1  0  0  0  0
  2 23  1  0  0  0  0
  3  4  1  0  0  0  0
  3 24  1  0  0  0  0
  3 25  1  0  0  0  0
  4  8  1  0  0  0  0
  4  5  1  0  0  0  0
  5  6  2  0  0  0  0
  5 26  1  0  0  0  0
  6  7  1  0  0  0  0
  6 27  1  0  0  0  0
  7  8  2  0  0  0  0
  7 42  1  0  0  0  0
  8 28  1  0  0  0  0
  9 10  1  0  0  0  0
  9 29  1  0  0  0  0
 10 11  2  0  0  0  0
 10 12  1  0  0  0  0
 12 19  1  0  0  0  0
 12 13  1  0  0  0  0
 13 14  1  0  0  0  0
 13 30  1  0  0  0  0
 13 31  1  0  0  0  0
 14 15  1  0  0  0  0
 14 16  1  0  0  0  0
 14 32  1  0  0  0  0
 15 33  1  0  0  0  0
 15 34  1  0  0  0  0
 15 35  1  0  0  0  0
 16 17  1  0  0  0  0
 17 18  1  0  0  0  0
 17 19  1  0  0  0  0
 17 36  1  0  0  0  0
 18 37  1  0  0  0  0
 18 38  1  0  0  0  0
 18 39  1  0  0  0  0
 19 40  1  0  0  0  0
 19 41  1  0  0  0  0
M  CHG  1   7   1
M  END
> <s_m_source_file>
AV-unprocessed.smi

> <i_m_source_file_index>
1419

> <i_lp_mmshare_version>
43012

> <i_f3d_flags>
0

> <s_epik_input>
W2NIXTFuW2NIXVtjSF1uMVtDSDJdW0NAQEhdKFtDSDNdKVtOSF1DKD1PKU4yW0NIMl1bQ0BASF0oW0NIM10pT1tDQEBIXShbQ0gzXSlbQ0gyXTI=

> <s_epik_cmdline>
J2VwaWtfcHl0aG9uJywgJy1waCcsICc3LjAnLCAnLXRuJywgJzgnLCAnLW1hJywgJzIwMCcsICctbWV0YWxfYmluZGluZycsICctaW1hZScsICc8aW5maWxlLm1hZT4nLCAnLW9tYWUnLCAnPG91dGZpbGUubWFlPic=

> <r_lp_tautomer_probability>
1

> <r_epik_Ionization_Penalty>
0.253607

> <r_epik_Ionization_Penalty_Charging>
0

> <r_epik_Ionization_Penalty_Neutral>
0.253607

> <r_epik_State_Penalty>
0.245018

> <r_epik_Charging_Adjusted_Penalty>
0.245018

> <i_epik_Tot_Q>
1

> <i_epik_Tot_abs_Q>
1

> <r_epik_Metal_State_Penalty>
0.535379

> <b_epik_Metal_Only>
0

> <s_lp_Force_Field>
OPLS_2005

> <r_lp_Energy>
31.3779

> <b_lp_Chiralities_Consistent>
1

> <s_lp_Variant>
AV-unprocessed.smi:1419-3

> <Gold.Version>
5.8.1

> <Gold.Id.Protein>
6NUR|6NUR_protein|mol2

> <Gold.PLP.Fitness>
40.1409

> <Gold.PLP.PLP>
-29.3691

> <Gold.PLP.part.hbond>
-2.0000

> <Gold.PLP.part.metal>
0.0000

> <Gold.PLP.part.buried>
-4.5756

> <Gold.PLP.part.nonpolar>
-23.2865

> <Gold.PLP.part.repulsive>
0.2768

> <Gold.PLP.ligand.clash>
0.0000

> <Gold.PLP.ligand.torsion>
0.5240

> <Gold.PLP.Chemscore.Hbond>
3.0000

> <Gold.PLP.Chemscore.CHOScore>
0.9261

> <Gold.PLP.Chemscore.Metal>
0.0000

> <Gold.Chemscore.Hbonds>
donor molecule, donor type, donor heavy atom, donor atom, acceptor molecule, acceptor atom, score
      L1  H     7    42       P1 10186  1.82
      P1  H  6896  6907       L1    16  0.71
      L1  C     5    26       P1 10747  0.96

> <Gold.PLP.Chemscore.Internal.Correction>
0.0416

> <Gold.Rescore>
     Score         DG    S(hbond)    S(metal)    S(lipo)     H(rot)  DE(clash)    DE(int)     intcor
     13.56     -15.04       1.92        0.00      62.40       1.63       0.04       1.44       ----

> <Gold.Chemscore.Fitness>
13.5608

> <Gold.Chemscore.DG>
-15.0444

> <Gold.Chemscore.ZeroCoef>
-5.4800

> <Gold.Chemscore.Hbond>
1.9248

> <Gold.Chemscore.Metal>
0.0000

> <Gold.Chemscore.Lipo>
62.4043

> <Gold.Chemscore.Internal_Hbond>
0.0000

> <Gold.Chemscore.DEClash>
0.0414

> <Gold.Chemscore.DEInternal>
1.4423

> <Gold.Chemscore.Rot>
1.6273

> <Gold.Chemscore.Internal.Correction>
   9.000000E+99

> <Gold.Chemscore.Hbonds>
donor molecule, donor type, donor heavy atom, donor atom, acceptor molecule, acceptor atom, score
      L1  H     7    42       P1 10186  0.87
      P1  H  6896  6907       L1    16  0.48

> <Gold.Chemscore.Hbond.Weighted>
-6.4289

> <Gold.Chemscore.Metal.Weighted>
-0.0000

> <Gold.Chemscore.Lipo.Weighted>
-7.3013

> <Gold.Chemscore.Internal_Hbond.Weighted>
0.0000

> <Gold.Chemscore.DEClash.Weighted>
0.0414

> <Gold.Chemscore.DEInternal.Weighted>
1.4423

> <Gold.Chemscore.Rot.Weighted>
4.1658

> <Gold.Chemscore.Internal.Correction.Weighted>
   9.000000E+99

> <Gold.Protein.RotatedTorsions>
[ 6907 6896 6895 6894 ] final -155.40 input  -60.11 | X-H torsion
[ 7974 7965 7964 7962 ] final  131.47 input  175.53 | X-H torsion
[ 8008 7997 7996 7995 ] final  -99.44 input   59.86 | X-H torsion
[ 10167 10162 10161 10158 ] final   37.21 input  -65.29 | X-H torsion
[ 10718 10713 10712 10709 ] final  140.67 input   66.30 | X-H torsion
[ 10763 10752 10751 10750 ] final   40.21 input  -60.55 | X-H torsion
[ 11005 11000 10999 10996 ] final  101.37 input  -57.11 | X-H torsion

> <Gold.Protein.ActiveResidues>
 VAL166  LYS551  ARG553  GLY616  TRP617  ASP618  TYR619  PRO620  LYS621  CYS622 
 ASP623  PHE694  ASN695  SER759  ASP760  ASP761  ALA762  ILE779  LEU786  VAL792 
 PHE793  MET794  SER795  GLU796  ALA797  LYS798  CYS799  TRP800  GLU811  SER814 

> <Gold.Protein.RotatedAtoms>
  151.2719  133.4251  159.2621 H   0  0  0  0  0  0  0  0  0  0  0  0  # atno 6907 bound_to 6896
  151.0437  134.9625  159.8185 H   0  0  0  0  0  0  0  0  0  0  0  0  # atno 6908 bound_to 6896
  152.5370  134.2676  159.9012 H   0  0  0  0  0  0  0  0  0  0  0  0  # atno 6909 bound_to 6896
  145.0070  139.4257  143.5264 H   0  0  0  0  0  0  0  0  0  0  0  0  # atno 7974 bound_to 7965
  154.8149  140.0448  157.1369 H   0  0  0  0  0  0  0  0  0  0  0  0  # atno 8008 bound_to 7997
  154.9325  140.3042  155.5140 H   0  0  0  0  0  0  0  0  0  0  0  0  # atno 8009 bound_to 7997
  156.2975  140.2320  156.4387 H   0  0  0  0  0  0  0  0  0  0  0  0  # atno 8010 bound_to 7997
  140.4055  144.1665  150.6136 H   0  0  0  0  0  0  0  0  0  0  0  0  # atno 10167 bound_to 10162
  157.4006  131.1016  151.0555 H   0  0  0  0  0  0  0  0  0  0  0  0  # atno 10718 bound_to 10713
  152.9943  135.6198  154.2589 H   0  0  0  0  0  0  0  0  0  0  0  0  # atno 10763 bound_to 10752
  154.2325  135.2791  155.2886 H   0  0  0  0  0  0  0  0  0  0  0  0  # atno 10764 bound_to 10752
  154.5437  135.5753  153.6920 H   0  0  0  0  0  0  0  0  0  0  0  0  # atno 10765 bound_to 10752
  139.8773  134.9180  156.4896 H   0  0  0  0  0  0  0  0  0  0  0  0  # atno 11005 bound_to 11000
  146.3463  139.9492  142.8731 LP  0  0  0  0  0  0  0  0  0  0  0  0  # atno 17320 bound_to 7965
  145.2075  140.9881  143.4120 LP  0  0  0  0  0  0  0  0  0  0  0  0  # atno 17321 bound_to 7965
  140.4694  143.2418  151.9109 LP  0  0  0  0  0  0  0  0  0  0  0  0  # atno 17342 bound_to 10162
  139.4783  144.5385  151.8563 LP  0  0  0  0  0  0  0  0  0  0  0  0  # atno 17343 bound_to 10162
  157.1555  130.6203  149.5595 LP  0  0  0  0  0  0  0  0  0  0  0  0  # atno 17370 bound_to 10713
  155.9822  130.4834  150.6870 LP  0  0  0  0  0  0  0  0  0  0  0  0  # atno 17371 bound_to 10713
  140.8668  133.8018  155.9322 LP  0  0  0  0  0  0  0  0  0  0  0  0  # atno 17394 bound_to 11000
  140.8993  134.2398  157.5050 LP  0  0  0  0  0  0  0  0  0  0  0  0  # atno 17395 bound_to 11000

$$$$
