AV-unprocessed.smi:901|AV-procd|sdf|4093|dock1
  -GOLD-   22720 1583D 1   1.00000     0.00000
 Structure written by MMmdl.
 43 44  0  0  0  0  0  0  0  0  1 V2000
  150.3887  141.1269  155.5241 C   0  0  0  0  0  0  0  0  0  0  0  0
  150.4227  141.6748  156.9370 C   0  0  0  0  0  0  0  0  0  0  0  0
  149.0583  141.9438  157.5466 C   0  0  0  0  0  0  0  0  0  0  0  0
  151.5842  141.8988  157.5810 C   0  0  0  0  0  0  0  0  0  0  0  0
  151.7475  142.4325  158.9591 C   0  0  1  0  0  0  0  0  0  0  0  0
  153.1304  142.6184  159.5571 C   0  0  2  0  0  0  0  0  0  0  0  0
  153.3466  142.2742  160.9989 C   0  0  0  0  0  0  0  0  0  0  0  0
  152.7253  142.8117  161.9170 O   0  0  0  0  0  0  0  0  0  0  0  0
  154.2763  141.3181  161.1773 N   0  0  0  0  0  0  0  0  0  0  0  0
  154.7223  140.7553  162.4004 C   0  0  0  0  0  0  0  0  0  0  0  0
  155.0235  139.3685  162.4920 C   0  0  0  0  0  0  0  0  0  0  0  0
  155.4058  139.2153  163.7944 C   0  0  0  0  0  0  0  0  0  0  0  0
  155.3204  140.4531  164.4018 N   0  0  0  0  0  0  0  0  0  0  0  0
  155.6201  140.8050  165.7802 C   0  0  0  0  0  0  0  0  0  0  0  0
  155.3025  142.2736  166.0851 C   0  0  0  0  0  0  0  0  0  0  0  0
  155.9250  143.1909  165.3405 N   0  0  0  0  0  0  0  0  0  0  0  0
  154.5084  142.5830  166.9720 O   0  0  0  0  0  0  0  0  0  0  0  0
  154.9038  141.4073  163.5407 N   0  0  0  0  0  0  0  0  0  0  0  0
  152.2803  143.8346  159.2054 C   0  0  0  0  0  0  0  0  0  0  0  0
  152.7574  144.7139  158.0589 C   0  0  0  0  0  0  0  0  0  0  0  0
  151.5940  144.7027  160.2537 C   0  0  0  0  0  0  0  0  0  0  0  0
  149.8539  140.1769  155.5001 H   0  0  0  0  0  0  0  0  0  0  0  0
  151.3930  140.9604  155.1329 H   0  0  0  0  0  0  0  0  0  0  0  0
  149.8778  141.8248  154.8602 H   0  0  0  0  0  0  0  0  0  0  0  0
  148.5273  142.6922  156.9582 H   0  0  0  0  0  0  0  0  0  0  0  0
  149.1224  142.3070  158.5718 H   0  0  0  0  0  0  0  0  0  0  0  0
  148.4633  141.0303  157.5527 H   0  0  0  0  0  0  0  0  0  0  0  0
  152.5075  141.6718  157.0680 H   0  0  0  0  0  0  0  0  0  0  0  0
  150.9608  142.0731  159.6202 H   0  0  0  0  0  0  0  0  0  0  0  0
  153.9799  142.4293  158.9019 H   0  0  0  0  0  0  0  0  0  0  0  0
  154.7131  140.9543  160.3431 H   0  0  0  0  0  0  0  0  0  0  0  0
  154.9673  138.6074  161.7279 H   0  0  0  0  0  0  0  0  0  0  0  0
  155.7250  138.3371  164.3363 H   0  0  0  0  0  0  0  0  0  0  0  0
  155.0431  140.1492  166.4334 H   0  0  0  0  0  0  0  0  0  0  0  0
  156.6754  140.6156  165.9843 H   0  0  0  0  0  0  0  0  0  0  0  0
  155.7561  144.1733  165.5014 H   0  0  0  0  0  0  0  0  0  0  0  0
  156.5679  142.8964  164.6196 H   0  0  0  0  0  0  0  0  0  0  0  0
  153.4327  145.4856  158.4297 H   0  0  0  0  0  0  0  0  0  0  0  0
  151.9101  145.1970  157.5719 H   0  0  0  0  0  0  0  0  0  0  0  0
  153.2914  144.1288  157.3097 H   0  0  0  0  0  0  0  0  0  0  0  0
  152.3290  145.3116  160.7808 H   0  0  0  0  0  0  0  0  0  0  0  0
  151.0535  144.1007  160.9834 H   0  0  0  0  0  0  0  0  0  0  0  0
  150.8695  145.3669  159.7814 H   0  0  0  0  0  0  0  0  0  0  0  0
  1  2  1  0  0  0  0
  1 22  1  0  0  0  0
  1 23  1  0  0  0  0
  1 24  1  0  0  0  0
  2  3  1  0  0  0  0
  2  4  2  0  0  0  0
  3 25  1  0  0  0  0
  3 26  1  0  0  0  0
  3 27  1  0  0  0  0
  4  5  1  0  0  0  0
  4 28  1  0  0  0  0
  5 19  1  0  0  0  0
  5  6  1  0  0  0  0
  5 29  1  0  0  0  0
  6  7  1  0  0  0  0
  6 19  1  0  0  0  0
  6 30  1  0  0  0  0
  7  8  2  0  0  0  0
  7  9  1  0  0  0  0
  9 10  1  0  0  0  0
  9 31  1  0  0  0  0
 10 18  2  0  0  0  0
 10 11  1  0  0  0  0
 11 12  2  0  0  0  0
 11 32  1  0  0  0  0
 12 13  1  0  0  0  0
 12 33  1  0  0  0  0
 13 14  1  0  0  0  0
 13 18  1  0  0  0  0
 14 15  1  0  0  0  0
 14 34  1  0  0  0  0
 14 35  1  0  0  0  0
 15 16  1  0  0  0  0
 15 17  2  0  0  0  0
 16 36  1  0  0  0  0
 16 37  1  0  0  0  0
 19 20  1  0  0  0  0
 19 21  1  0  0  0  0
 20 38  1  0  0  0  0
 20 39  1  0  0  0  0
 20 40  1  0  0  0  0
 21 41  1  0  0  0  0
 21 42  1  0  0  0  0
 21 43  1  0  0  0  0
M  END
> <s_m_source_file>
AV-unprocessed.smi

> <i_m_source_file_index>
901

> <i_lp_mmshare_version>
43012

> <i_f3d_flags>
0

> <s_epik_input>
W0NIM11DKFtDSDNdKT1bQ0hdW0NAQEhdKEMxKFtDSDNdKVtDSDNdKVtDQEhdMUMoPU8pW05IXWMyW2NIXVtjSF1uKG4yKVtDSDJdQyg9TylbTkgyXQ==

> <s_epik_cmdline>
J2VwaWtfcHl0aG9uJywgJy1waCcsICc3LjAnLCAnLXRuJywgJzgnLCAnLW1hJywgJzIwMCcsICctbWV0YWxfYmluZGluZycsICctaW1hZScsICc8aW5maWxlLm1hZT4nLCAnLW9tYWUnLCAnPG91dGZpbGUubWFlPic=

> <r_lp_tautomer_probability>
1

> <r_epik_Ionization_Penalty>
1.01454e-05

> <r_epik_Ionization_Penalty_Charging>
0

> <r_epik_Ionization_Penalty_Neutral>
1.01454e-05

> <r_epik_State_Penalty>
-0

> <r_epik_Charging_Adjusted_Penalty>
0

> <i_epik_Tot_Q>
0

> <i_epik_Tot_abs_Q>
0

> <r_epik_Metal_State_Penalty>
-0

> <b_epik_Metal_Only>
0

> <s_lp_Force_Field>
OPLS_2005

> <r_lp_Energy>
18.0241

> <b_lp_Chiralities_Consistent>
1

> <s_lp_Variant>
AV-unprocessed.smi:901-4

> <Gold.Version>
5.8.1

> <Gold.Id.Protein>
6NUR|6NUR_protein|mol2

> <Gold.PLP.Fitness>
46.0481

> <Gold.PLP.PLP>
-46.7599

> <Gold.PLP.part.hbond>
-3.3011

> <Gold.PLP.part.metal>
0.0000

> <Gold.PLP.part.buried>
-5.2967

> <Gold.PLP.part.nonpolar>
-37.9509

> <Gold.PLP.part.repulsive>
0.1865

> <Gold.PLP.ligand.clash>
0.0000

> <Gold.PLP.ligand.torsion>
0.4556

> <Gold.PLP.Chemscore.Hbond>
0.0000

> <Gold.PLP.Chemscore.CHOScore>
0.0000

> <Gold.PLP.Chemscore.Metal>
0.0000

> <Gold.PLP.Chemscore.Internal.Correction>
0.1993

> <Gold.Rescore>
     Score         DG    S(hbond)    S(metal)    S(lipo)     H(rot)  DE(clash)    DE(int)     intcor
      7.35     -12.03       0.00        0.00     102.60       2.13       1.14       3.53       ----

> <Gold.Chemscore.Fitness>
7.3524

> <Gold.Chemscore.DG>
-12.0293

> <Gold.Chemscore.ZeroCoef>
-5.4800

> <Gold.Chemscore.Hbond>
0.0000

> <Gold.Chemscore.Metal>
0.0000

> <Gold.Chemscore.Lipo>
102.6021

> <Gold.Chemscore.Internal_Hbond>
0.0000

> <Gold.Chemscore.DEClash>
1.1431

> <Gold.Chemscore.DEInternal>
3.5338

> <Gold.Chemscore.Rot>
2.1309

> <Gold.Chemscore.Internal.Correction>
   9.000000E+99

> <Gold.Chemscore.Hbond.Weighted>
-0.0000

> <Gold.Chemscore.Metal.Weighted>
-0.0000

> <Gold.Chemscore.Lipo.Weighted>
-12.0045

> <Gold.Chemscore.Internal_Hbond.Weighted>
0.0000

> <Gold.Chemscore.DEClash.Weighted>
1.1431

> <Gold.Chemscore.DEInternal.Weighted>
3.5338

> <Gold.Chemscore.Rot.Weighted>
5.4552

> <Gold.Chemscore.Internal.Correction.Weighted>
   9.000000E+99

> <Gold.Protein.RotatedTorsions>
[ 6907 6896 6895 6894 ] final -167.47 input  -60.11 | X-H torsion
[ 7974 7965 7964 7962 ] final -104.91 input  175.53 | X-H torsion
[ 8008 7997 7996 7995 ] final  178.55 input   59.86 | X-H torsion
[ 10167 10162 10161 10158 ] final  168.58 input  -65.29 | X-H torsion
[ 10718 10713 10712 10709 ] final   69.54 input   66.30 | X-H torsion
[ 10763 10752 10751 10750 ] final   34.53 input  -60.55 | X-H torsion
[ 11005 11000 10999 10996 ] final  -16.11 input  -57.11 | X-H torsion

> <Gold.Protein.ActiveResidues>
 VAL166  LYS551  ARG553  GLY616  TRP617  ASP618  TYR619  PRO620  LYS621  CYS622 
 ASP623  PHE694  ASN695  SER759  ASP760  ASP761  ALA762  ILE779  LEU786  VAL792 
 PHE793  MET794  SER795  GLU796  ALA797  LYS798  CYS799  TRP800  GLU811  SER814 

> <Gold.Protein.RotatedAtoms>
  151.4600  133.3595  159.2807 H   0  0  0  0  0  0  0  0  0  0  0  0  # atno 6907 bound_to 6896
  150.9032  134.8447  159.7385 H   0  0  0  0  0  0  0  0  0  0  0  0  # atno 6908 bound_to 6896
  152.4891  134.4523  159.9630 H   0  0  0  0  0  0  0  0  0  0  0  0  # atno 6909 bound_to 6896
  145.2371  140.9192  143.3171 H   0  0  0  0  0  0  0  0  0  0  0  0  # atno 7974 bound_to 7965
  156.0534  140.1330  157.0024 H   0  0  0  0  0  0  0  0  0  0  0  0  # atno 8008 bound_to 7997
  154.4446  140.1006  156.6480 H   0  0  0  0  0  0  0  0  0  0  0  0  # atno 8009 bound_to 7997
  155.5489  140.3462  155.4466 H   0  0  0  0  0  0  0  0  0  0  0  0  # atno 8010 bound_to 7997
  139.4971  144.3799  151.9633 H   0  0  0  0  0  0  0  0  0  0  0  0  # atno 10167 bound_to 10162
  157.6351  130.9431  150.0527 H   0  0  0  0  0  0  0  0  0  0  0  0  # atno 10718 bound_to 10713
  153.0160  135.6358  154.1683 H   0  0  0  0  0  0  0  0  0  0  0  0  # atno 10763 bound_to 10752
  154.1422  135.2834  155.3159 H   0  0  0  0  0  0  0  0  0  0  0  0  # atno 10764 bound_to 10752
  154.6116  135.5554  153.7540 H   0  0  0  0  0  0  0  0  0  0  0  0  # atno 10765 bound_to 10752
  140.8034  133.8196  155.9492 H   0  0  0  0  0  0  0  0  0  0  0  0  # atno 11005 bound_to 11000
  144.9623  139.3967  143.6350 LP  0  0  0  0  0  0  0  0  0  0  0  0  # atno 17320 bound_to 7965
  146.3338  139.8681  142.8844 LP  0  0  0  0  0  0  0  0  0  0  0  0  # atno 17321 bound_to 7965
  140.3236  144.3399  150.6004 LP  0  0  0  0  0  0  0  0  0  0  0  0  # atno 17342 bound_to 10162
  140.5703  143.2181  151.7611 LP  0  0  0  0  0  0  0  0  0  0  0  0  # atno 17343 bound_to 10162
  156.1584  130.3643  149.9335 LP  0  0  0  0  0  0  0  0  0  0  0  0  # atno 17370 bound_to 10713
  156.7339  130.9053  151.3627 LP  0  0  0  0  0  0  0  0  0  0  0  0  # atno 17371 bound_to 10713
  140.9271  134.2068  157.4888 LP  0  0  0  0  0  0  0  0  0  0  0  0  # atno 17394 bound_to 11000
  139.8720  134.9817  156.5127 LP  0  0  0  0  0  0  0  0  0  0  0  0  # atno 17395 bound_to 11000

$$$$
