AV-unprocessed.smi:2525|AV-procd|sdf|9932|dock6
  -GOLD-   2272013573D 1   1.00000     0.00000
 Structure written by MMmdl.
 44 45  0  0  0  0  0  0  0  0  1 V2000
  152.9116  144.5536  157.5126 C   0  0  0  0  0  0  0  0  0  0  0  0
  152.1713  145.0053  158.7856 C   0  0  0  0  0  0  0  0  0  0  0  0
  151.8834  143.9140  159.8560 C   0  0  0  0  0  0  0  0  0  0  0  0
  150.9942  144.5134  160.9671 C   0  0  0  0  0  0  0  0  0  0  0  0
  149.6451  145.0690  160.4823 C   0  0  0  0  0  0  0  0  0  0  0  0
  151.4572  142.5039  159.3593 C   0  0  1  0  0  0  0  0  0  0  0  0
  150.8036  142.4686  158.0570 N   0  0  0  0  0  0  0  0  0  0  0  0
  150.0086  141.4778  157.6261 C   0  0  0  0  0  0  0  0  0  0  0  0
  149.7199  140.4939  158.3065 O   0  0  0  0  0  0  0  0  0  0  0  0
  149.4407  141.6246  156.2133 C   0  0  0  0  0  0  0  0  0  0  0  0
  149.2821  140.3315  155.5703 N   0  0  0  0  0  0  0  0  0  0  0  0
  148.1158  139.6617  155.2616 C   0  0  0  0  0  0  0  0  0  0  0  0
  148.5568  138.5035  154.6881 C   0  0  0  0  0  0  0  0  0  0  0  0
  149.9503  138.5159  154.6705 N   0  0  0  0  0  0  0  0  0  0  0  0
  150.3745  139.6191  155.2020 N   0  0  0  0  0  0  0  0  0  0  0  0
  152.9326  142.1017  159.2764 C   0  0  2  0  0  0  0  0  0  0  0  0
  153.3318  140.6516  159.5209 C   0  0  0  0  0  0  0  0  0  0  0  0
  153.1680  143.1845  160.3453 C   0  0  2  0  0  0  0  0  0  0  0  0
  153.0288  142.6799  161.6696 O   0  0  0  0  0  0  0  0  0  0  0  0
  153.3151  143.6459  162.6663 C   0  0  0  0  0  0  0  0  0  0  0  0
  153.1718  145.4172  156.9004 H   0  0  0  0  0  0  0  0  0  0  0  0
  152.2953  143.9029  156.8931 H   0  0  0  0  0  0  0  0  0  0  0  0
  153.8363  144.0254  157.7362 H   0  0  0  0  0  0  0  0  0  0  0  0
  152.7533  145.8144  159.2258 H   0  0  0  0  0  0  0  0  0  0  0  0
  151.2377  145.4808  158.4843 H   0  0  0  0  0  0  0  0  0  0  0  0
  150.8265  143.7891  161.7633 H   0  0  0  0  0  0  0  0  0  0  0  0
  151.5252  145.3267  161.4625 H   0  0  0  0  0  0  0  0  0  0  0  0
  149.1067  145.5383  161.3060 H   0  0  0  0  0  0  0  0  0  0  0  0
  149.0030  144.2857  160.0810 H   0  0  0  0  0  0  0  0  0  0  0  0
  149.7800  145.8231  159.7068 H   0  0  0  0  0  0  0  0  0  0  0  0
  150.9391  141.9287  160.1309 H   0  0  0  0  0  0  0  0  0  0  0  0
  150.9835  143.2416  157.4327 H   0  0  0  0  0  0  0  0  0  0  0  0
  148.4688  142.1184  156.2492 H   0  0  0  0  0  0  0  0  0  0  0  0
  150.0999  142.2553  155.6143 H   0  0  0  0  0  0  0  0  0  0  0  0
  147.1289  140.0473  155.4710 H   0  0  0  0  0  0  0  0  0  0  0  0
  147.9945  137.6705  154.2924 H   0  0  0  0  0  0  0  0  0  0  0  0
  153.3607  142.4444  158.3325 H   0  0  0  0  0  0  0  0  0  0  0  0
  152.9235  140.2742  160.4588 H   0  0  0  0  0  0  0  0  0  0  0  0
  154.4154  140.5411  159.5606 H   0  0  0  0  0  0  0  0  0  0  0  0
  152.9649  140.0059  158.7227 H   0  0  0  0  0  0  0  0  0  0  0  0
  154.0754  143.7732  160.1979 H   0  0  0  0  0  0  0  0  0  0  0  0
  153.2301  143.1896  163.6524 H   0  0  0  0  0  0  0  0  0  0  0  0
  152.6086  144.4753  162.6184 H   0  0  0  0  0  0  0  0  0  0  0  0
  154.3252  144.0428  162.5646 H   0  0  0  0  0  0  0  0  0  0  0  0
  1  2  1  0  0  0  0
  1 21  1  0  0  0  0
  1 22  1  0  0  0  0
  1 23  1  0  0  0  0
  2  3  1  0  0  0  0
  2 24  1  0  0  0  0
  2 25  1  0  0  0  0
  3 18  1  0  0  0  0
  3  4  1  0  0  0  0
  3  6  1  0  0  0  0
  4  5  1  0  0  0  0
  4 26  1  0  0  0  0
  4 27  1  0  0  0  0
  5 28  1  0  0  0  0
  5 29  1  0  0  0  0
  5 30  1  0  0  0  0
  6  7  1  0  0  0  0
  6 16  1  0  0  0  0
  6 31  1  0  0  0  0
  7  8  1  0  0  0  0
  7 32  1  0  0  0  0
  8  9  2  0  0  0  0
  8 10  1  0  0  0  0
 10 11  1  0  0  0  0
 10 33  1  0  0  0  0
 10 34  1  0  0  0  0
 11 15  1  0  0  0  0
 11 12  1  0  0  0  0
 12 13  2  0  0  0  0
 12 35  1  0  0  0  0
 13 14  1  0  0  0  0
 13 36  1  0  0  0  0
 14 15  2  0  0  0  0
 16 17  1  0  0  0  0
 16 18  1  0  0  0  0
 16 37  1  0  0  0  0
 17 38  1  0  0  0  0
 17 39  1  0  0  0  0
 17 40  1  0  0  0  0
 18 19  1  0  0  0  0
 18 41  1  0  0  0  0
 19 20  1  0  0  0  0
 20 42  1  0  0  0  0
 20 43  1  0  0  0  0
 20 44  1  0  0  0  0
M  END
> <s_m_source_file>
AV-unprocessed.smi

> <i_m_source_file_index>
2525

> <i_lp_mmshare_version>
43012

> <i_f3d_flags>
0

> <s_epik_input>
W0NIM11PW0NAQEhdMVtDQEhdKFtDSDNdKVtDQEBIXShDMShbQ0gyXVtDSDNdKVtDSDJdW0NIM10pW05IXUMoPU8pW0NIMl1uMltjSF1bY0hdbm4y

> <s_epik_cmdline>
J2VwaWtfcHl0aG9uJywgJy1waCcsICc3LjAnLCAnLXRuJywgJzgnLCAnLW1hJywgJzIwMCcsICctbWV0YWxfYmluZGluZycsICctaW1hZScsICc8aW5maWxlLm1hZT4nLCAnLW9tYWUnLCAnPG91dGZpbGUubWFlPic=

> <r_lp_tautomer_probability>
1

> <r_epik_Ionization_Penalty>
1.18045e-06

> <r_epik_Ionization_Penalty_Charging>
0

> <r_epik_Ionization_Penalty_Neutral>
1.18045e-06

> <r_epik_State_Penalty>
-0

> <r_epik_Charging_Adjusted_Penalty>
0

> <i_epik_Tot_Q>
0

> <i_epik_Tot_abs_Q>
0

> <r_epik_Metal_State_Penalty>
-0

> <b_epik_Metal_Only>
0

> <s_lp_Force_Field>
OPLS_2005

> <r_lp_Energy>
28.9829

> <b_lp_Chiralities_Consistent>
1

> <s_lp_Variant>
AV-unprocessed.smi:2525-7

> <Gold.Version>
5.8.1

> <Gold.Id.Protein>
6NUR|6NUR_protein|mol2

> <Gold.PLP.Fitness>
47.2329

> <Gold.PLP.PLP>
-42.6954

> <Gold.PLP.part.hbond>
-1.0000

> <Gold.PLP.part.metal>
0.0000

> <Gold.PLP.part.buried>
-5.3425

> <Gold.PLP.part.nonpolar>
-36.3227

> <Gold.PLP.part.repulsive>
0.3582

> <Gold.PLP.ligand.clash>
0.0000

> <Gold.PLP.ligand.torsion>
1.0785

> <Gold.PLP.Chemscore.Hbond>
1.0000

> <Gold.PLP.Chemscore.CHOScore>
1.0000

> <Gold.PLP.Chemscore.Metal>
0.0000

> <Gold.PLP.Chemscore.Internal.Correction>
0.6945

> <Gold.Rescore>
     Score         DG    S(hbond)    S(metal)    S(lipo)     H(rot)  DE(clash)    DE(int)     intcor
     13.30     -15.70       0.00        0.00     130.68       1.98       0.42       1.98       ----

> <Gold.Chemscore.Fitness>
13.2951

> <Gold.Chemscore.DG>
-15.6963

> <Gold.Chemscore.ZeroCoef>
-5.4800

> <Gold.Chemscore.Hbond>
0.0000

> <Gold.Chemscore.Metal>
0.0000

> <Gold.Chemscore.Lipo>
130.6785

> <Gold.Chemscore.Internal_Hbond>
0.0000

> <Gold.Chemscore.DEClash>
0.4234

> <Gold.Chemscore.DEInternal>
1.9779

> <Gold.Chemscore.Rot>
1.9817

> <Gold.Chemscore.Internal.Correction>
   9.000000E+99

> <Gold.Chemscore.Hbonds>
donor molecule, donor type, donor heavy atom, donor atom, acceptor molecule, acceptor atom, score
      P1  H  7989  7998       L1    15  0.02

> <Gold.Chemscore.Hbond.Weighted>
-0.0000

> <Gold.Chemscore.Metal.Weighted>
-0.0000

> <Gold.Chemscore.Lipo.Weighted>
-15.2894

> <Gold.Chemscore.Internal_Hbond.Weighted>
0.0000

> <Gold.Chemscore.DEClash.Weighted>
0.4234

> <Gold.Chemscore.DEInternal.Weighted>
1.9779

> <Gold.Chemscore.Rot.Weighted>
5.0731

> <Gold.Chemscore.Internal.Correction.Weighted>
   9.000000E+99

> <Gold.Protein.RotatedTorsions>
[ 6907 6896 6895 6894 ] final -129.35 input  -60.11 | X-H torsion
[ 7974 7965 7964 7962 ] final  -93.26 input  175.53 | X-H torsion
[ 8008 7997 7996 7995 ] final  -48.11 input   59.86 | X-H torsion
[ 10167 10162 10161 10158 ] final  -89.34 input  -65.29 | X-H torsion
[ 10718 10713 10712 10709 ] final  100.11 input   66.30 | X-H torsion
[ 10763 10752 10751 10750 ] final   83.68 input  -60.55 | X-H torsion
[ 11005 11000 10999 10996 ] final   76.66 input  -57.11 | X-H torsion

> <Gold.Protein.ActiveResidues>
 VAL166  LYS551  ARG553  GLY616  TRP617  ASP618  TYR619  PRO620  LYS621  CYS622 
 ASP623  PHE694  ASN695  SER759  ASP760  ASP761  ALA762  ILE779  LEU786  VAL792 
 PHE793  MET794  SER795  GLU796  ALA797  LYS798  CYS799  TRP800  GLU811  SER814 

> <Gold.Protein.RotatedAtoms>
  150.9277  133.6803  159.2817 H   0  0  0  0  0  0  0  0  0  0  0  0  # atno 6907 bound_to 6896
  151.4236  135.0999  159.9631 H   0  0  0  0  0  0  0  0  0  0  0  0  # atno 6908 bound_to 6896
  152.5011  133.8724  159.7360 H   0  0  0  0  0  0  0  0  0  0  0  0  # atno 6909 bound_to 6896
  145.3889  140.9526  143.2351 H   0  0  0  0  0  0  0  0  0  0  0  0  # atno 7974 bound_to 7965
  154.4024  140.1330  156.4285 H   0  0  0  0  0  0  0  0  0  0  0  0  # atno 8008 bound_to 7997
  155.7574  140.3487  155.5161 H   0  0  0  0  0  0  0  0  0  0  0  0  # atno 8009 bound_to 7997
  155.8891  140.1000  157.1421 H   0  0  0  0  0  0  0  0  0  0  0  0  # atno 8010 bound_to 7997
  140.3657  143.2819  151.9560 H   0  0  0  0  0  0  0  0  0  0  0  0  # atno 10167 bound_to 10162
  157.6861  131.0689  150.5051 H   0  0  0  0  0  0  0  0  0  0  0  0  # atno 10718 bound_to 10713
  153.1313  135.4682  154.9353 H   0  0  0  0  0  0  0  0  0  0  0  0  # atno 10763 bound_to 10752
  154.7666  135.3146  154.8276 H   0  0  0  0  0  0  0  0  0  0  0  0  # atno 10764 bound_to 10752
  153.8818  135.6893  153.4820 H   0  0  0  0  0  0  0  0  0  0  0  0  # atno 10765 bound_to 10752
  139.9288  134.7619  156.1424 H   0  0  0  0  0  0  0  0  0  0  0  0  # atno 11005 bound_to 11000
  144.8454  139.5405  143.6881 LP  0  0  0  0  0  0  0  0  0  0  0  0  # atno 17320 bound_to 7965
  146.2807  139.6869  142.9231 LP  0  0  0  0  0  0  0  0  0  0  0  0  # atno 17321 bound_to 7965
  139.4809  144.5952  151.7702 LP  0  0  0  0  0  0  0  0  0  0  0  0  # atno 17342 bound_to 10162
  140.5083  144.1065  150.5988 LP  0  0  0  0  0  0  0  0  0  0  0  0  # atno 17343 bound_to 10162
  156.5371  130.4199  149.6172 LP  0  0  0  0  0  0  0  0  0  0  0  0  # atno 17370 bound_to 10713
  156.3018  130.7181  151.2054 LP  0  0  0  0  0  0  0  0  0  0  0  0  # atno 17371 bound_to 10713
  141.0864  133.6732  156.2445 LP  0  0  0  0  0  0  0  0  0  0  0  0  # atno 17394 bound_to 11000
  140.6260  134.5313  157.5553 LP  0  0  0  0  0  0  0  0  0  0  0  0  # atno 17395 bound_to 11000

$$$$
