AV-unprocessed.smi:315|AV-procd|sdf|2316|dock7
  -GOLD-   2262022223D 1   1.00000     0.00000
 Structure written by MMmdl.
 47 49  0  0  0  0  0  0  0  0  2 V2000
  151.9217  138.9873  155.7749 C   0  0  0  0  0  0  0  0  0  0  0  0
  151.6333  138.3745  154.4022 C   0  0  0  0  0  0  0  0  0  0  0  0
  150.2246  138.2251  154.2630 O   0  0  0  0  0  0  0  0  0  0  0  0
  149.4358  139.3589  154.2141 C   0  0  0  0  0  0  0  0  0  0  0  0
  149.9816  140.5447  154.5821 N   0  0  0  0  0  0  0  0  0  0  0  0
  149.2076  141.6487  154.5341 C   0  0  0  0  0  0  0  0  0  0  0  0
  147.8605  141.6285  154.1275 C   0  0  0  0  0  0  0  0  0  0  0  0
  147.2923  140.3987  153.7460 C   0  0  0  0  0  0  0  0  0  0  0  0
  148.0965  139.2340  153.7782 C   0  0  0  0  0  0  0  0  0  0  0  0
  147.6360  137.9353  153.4308 N   0  0  0  0  0  0  0  0  0  0  0  0
  146.3981  137.5287  153.0913 C   0  0  0  0  0  0  0  0  0  0  0  0
  145.3957  138.2388  153.0994 O   0  0  0  0  0  0  0  0  0  0  0  0
  146.3348  136.2387  152.7154 N   0  0  0  0  0  0  0  0  0  0  0  0
  145.1535  135.4856  152.2883 C   0  0  2  0  0  0  0  0  0  0  0  0
  143.8292  135.9924  152.8863 C   0  0  0  0  0  0  0  0  0  0  0  0
  143.0073  134.7262  153.1980 C   0  0  0  0  0  0  0  0  0  0  0  0
  143.7978  133.5742  152.7073 N   0  3  1  0  0  0  0  0  0  0  0  0
  143.3482  133.1194  151.3628 C   0  0  0  0  0  0  0  0  0  0  0  0
  144.3053  132.0877  150.7522 C   0  0  0  0  0  0  0  0  0  0  0  0
  145.7157  132.6733  150.6480 C   0  0  0  0  0  0  0  0  0  0  0  0
  146.1982  133.0970  152.0395 C   0  0  0  0  0  0  0  0  0  0  0  0
  145.2072  134.0321  152.7690 C   0  0  1  0  0  0  0  0  0  0  0  0
  152.9937  139.1159  155.9263 H   0  0  0  0  0  0  0  0  0  0  0  0
  151.5445  138.3499  156.5750 H   0  0  0  0  0  0  0  0  0  0  0  0
  151.4497  139.9650  155.8739 H   0  0  0  0  0  0  0  0  0  0  0  0
  152.0264  139.0249  153.6193 H   0  0  0  0  0  0  0  0  0  0  0  0
  152.1308  137.4068  154.3217 H   0  0  0  0  0  0  0  0  0  0  0  0
  149.6747  142.5748  154.8344 H   0  0  0  0  0  0  0  0  0  0  0  0
  147.2749  142.5358  154.1126 H   0  0  0  0  0  0  0  0  0  0  0  0
  146.2551  140.3753  153.4513 H   0  0  0  0  0  0  0  0  0  0  0  0
  148.3633  137.2426  153.3317 H   0  0  0  0  0  0  0  0  0  0  0  0
  147.2056  135.7269  152.7237 H   0  0  0  0  0  0  0  0  0  0  0  0
  145.0862  135.4985  151.1992 H   0  0  0  0  0  0  0  0  0  0  0  0
  143.9951  136.5604  153.8031 H   0  0  0  0  0  0  0  0  0  0  0  0
  143.3090  136.6473  152.1863 H   0  0  0  0  0  0  0  0  0  0  0  0
  142.8880  134.6243  154.2773 H   0  0  0  0  0  0  0  0  0  0  0  0
  142.0062  134.7620  152.7653 H   0  0  0  0  0  0  0  0  0  0  0  0
  142.3492  132.6906  151.4492 H   0  0  0  0  0  0  0  0  0  0  0  0
  143.2618  133.9745  150.6903 H   0  0  0  0  0  0  0  0  0  0  0  0
  144.3187  131.1833  151.3619 H   0  0  0  0  0  0  0  0  0  0  0  0
  143.9517  131.7920  149.7639 H   0  0  0  0  0  0  0  0  0  0  0  0
  146.3986  131.9372  150.2231 H   0  0  0  0  0  0  0  0  0  0  0  0
  145.7183  133.5276  149.9702 H   0  0  0  0  0  0  0  0  0  0  0  0
  146.3388  132.1996  152.6436 H   0  0  0  0  0  0  0  0  0  0  0  0
  147.1797  133.5670  151.9698 H   0  0  0  0  0  0  0  0  0  0  0  0
  145.4836  134.0416  153.8256 H   0  0  0  0  0  0  0  0  0  0  0  0
  143.6826  132.7952  153.3400 H   0  0  0  0  0  0  0  0  0  0  0  0
  1  2  1  0  0  0  0
  1 23  1  0  0  0  0
  1 24  1  0  0  0  0
  1 25  1  0  0  0  0
  2  3  1  0  0  0  0
  2 26  1  0  0  0  0
  2 27  1  0  0  0  0
  3  4  1  0  0  0  0
  4  9  1  0  0  0  0
  4  5  2  0  0  0  0
  5  6  1  0  0  0  0
  6  7  2  0  0  0  0
  6 28  1  0  0  0  0
  7  8  1  0  0  0  0
  7 29  1  0  0  0  0
  8  9  2  0  0  0  0
  8 30  1  0  0  0  0
  9 10  1  0  0  0  0
 10 11  1  0  0  0  0
 10 31  1  0  0  0  0
 11 12  2  0  0  0  0
 11 13  1  0  0  0  0
 13 14  1  0  0  0  0
 13 32  1  0  0  0  0
 14 22  1  0  0  0  0
 14 15  1  0  0  0  0
 14 33  1  0  0  0  0
 15 16  1  0  0  0  0
 15 34  1  0  0  0  0
 15 35  1  0  0  0  0
 16 17  1  0  0  0  0
 16 36  1  0  0  0  0
 16 37  1  0  0  0  0
 17 22  1  0  0  0  0
 17 18  1  0  0  0  0
 17 47  1  0  0  0  0
 18 19  1  0  0  0  0
 18 38  1  0  0  0  0
 18 39  1  0  0  0  0
 19 20  1  0  0  0  0
 19 40  1  0  0  0  0
 19 41  1  0  0  0  0
 20 21  1  0  0  0  0
 20 42  1  0  0  0  0
 20 43  1  0  0  0  0
 21 22  1  0  0  0  0
 21 44  1  0  0  0  0
 21 45  1  0  0  0  0
 22 46  1  0  0  0  0
M  CHG  1  17   1
M  END
> <s_m_source_file>
AV-unprocessed.smi

> <i_m_source_file_index>
315

> <i_lp_mmshare_version>
43012

> <i_f3d_flags>
0

> <s_epik_input>
W0NIM11bQ0gyXU9jMW5bY0hdW2NIXVtjSF1jMVtOSF1DKD1PKVtOSF1bQ0BIXShbQ0gyXVtDSDJdMilbQ0BASF0oTjIzKVtDSDJdW0NIMl1bQ0gyXVtDSDJdMw==

> <s_epik_cmdline>
J2VwaWtfcHl0aG9uJywgJy1waCcsICc3LjAnLCAnLXRuJywgJzgnLCAnLW1hJywgJzIwMCcsICctbWV0YWxfYmluZGluZycsICctaW1hZScsICc8aW5maWxlLm1hZT4nLCAnLW9tYWUnLCAnPG91dGZpbGUubWFlPic=

> <r_lp_tautomer_probability>
1

> <r_epik_Ionization_Penalty>
0.00106455

> <r_epik_Ionization_Penalty_Charging>
0.000974069

> <r_epik_Ionization_Penalty_Neutral>
9.04821e-05

> <r_epik_State_Penalty>
0.000633842

> <r_epik_Charging_Adjusted_Penalty>
0.00160791

> <i_epik_Tot_Q>
1

> <i_epik_Tot_abs_Q>
1

> <r_epik_Metal_State_Penalty>
-0

> <b_epik_Metal_Only>
0

> <s_lp_Force_Field>
OPLS_2005

> <r_lp_Energy>
51.3526

> <b_lp_Chiralities_Consistent>
1

> <s_lp_Variant>
AV-unprocessed.smi:315-1

> <Gold.Version>
5.8.1

> <Gold.Id.Protein>
6NUR|6NUR_protein|mol2

> <Gold.PLP.Fitness>
51.4924

> <Gold.PLP.PLP>
-37.4237

> <Gold.PLP.part.hbond>
-4.0000

> <Gold.PLP.part.metal>
0.0000

> <Gold.PLP.part.buried>
-3.2840

> <Gold.PLP.part.nonpolar>
-31.8107

> <Gold.PLP.part.repulsive>
2.1914

> <Gold.PLP.ligand.clash>
0.1118

> <Gold.PLP.ligand.torsion>
0.5362

> <Gold.PLP.Chemscore.Hbond>
4.0800

> <Gold.PLP.Chemscore.CHOScore>
1.0000

> <Gold.PLP.Chemscore.Metal>
0.0000

> <Gold.Chemscore.Hbonds>
donor molecule, donor type, donor heavy atom, donor atom, acceptor molecule, acceptor atom, score
      L1  H    10    31       P1  7948  0.66
      L1  H    13    32       P1  7948  0.58
      L1  H    17    47       P1 10957  1.98
      P1  H  7989  7998       L1     5  0.85
      L1  C     6    28       P1  8028  1.00

> <Gold.PLP.Chemscore.Internal.Correction>
0.0130

> <Gold.Rescore>
     Score         DG    S(hbond)    S(metal)    S(lipo)     H(rot)  DE(clash)    DE(int)     intcor
     15.76     -21.26       2.80        0.00      85.05       1.38       1.19       4.31       ----

> <Gold.Chemscore.Fitness>
15.7623

> <Gold.Chemscore.DG>
-21.2626

> <Gold.Chemscore.ZeroCoef>
-5.4800

> <Gold.Chemscore.Hbond>
2.8013

> <Gold.Chemscore.Metal>
0.0000

> <Gold.Chemscore.Lipo>
85.0542

> <Gold.Chemscore.Internal_Hbond>
0.0000

> <Gold.Chemscore.DEClash>
1.1930

> <Gold.Chemscore.DEInternal>
4.3073

> <Gold.Chemscore.Rot>
1.3770

> <Gold.Chemscore.Internal.Correction>
   9.000000E+99

> <Gold.Chemscore.Hbonds>
donor molecule, donor type, donor heavy atom, donor atom, acceptor molecule, acceptor atom, score
      L1  H    10    31       P1  7948  0.64
      L1  H    13    32       P1  7948  0.56
      L1  H    17    47       P1 10957  0.49
      P1  H  7989  7998       L1     5  0.38

> <Gold.Chemscore.Hbond.Weighted>
-9.3564

> <Gold.Chemscore.Metal.Weighted>
-0.0000

> <Gold.Chemscore.Lipo.Weighted>
-9.9513

> <Gold.Chemscore.Internal_Hbond.Weighted>
0.0000

> <Gold.Chemscore.DEClash.Weighted>
1.1930

> <Gold.Chemscore.DEInternal.Weighted>
4.3073

> <Gold.Chemscore.Rot.Weighted>
3.5252

> <Gold.Chemscore.Internal.Correction.Weighted>
   9.000000E+99

> <Gold.Protein.RotatedTorsions>
[ 6907 6896 6895 6894 ] final   45.15 input  -60.11 | X-H torsion
[ 7974 7965 7964 7962 ] final   -2.84 input  175.53 | X-H torsion
[ 8008 7997 7996 7995 ] final  -96.09 input   59.86 | X-H torsion
[ 10167 10162 10161 10158 ] final -123.03 input  -65.29 | X-H torsion
[ 10718 10713 10712 10709 ] final   -4.49 input   66.30 | X-H torsion
[ 10763 10752 10751 10750 ] final    7.52 input  -60.55 | X-H torsion
[ 11005 11000 10999 10996 ] final   77.10 input  -57.11 | X-H torsion

> <Gold.Protein.ActiveResidues>
 VAL166  LYS551  ARG553  GLY616  TRP617  ASP618  TYR619  PRO620  LYS621  CYS622 
 ASP623  PHE694  ASN695  SER759  ASP760  ASP761  ALA762  ILE779  LEU786  VAL792 
 PHE793  MET794  SER795  GLU796  ALA797  LYS798  CYS799  TRP800  GLU811  SER814 

> <Gold.Protein.RotatedAtoms>
  152.2411  134.8227  160.0459 H   0  0  0  0  0  0  0  0  0  0  0  0  # atno 6907 bound_to 6896
  151.8942  133.3518  159.3816 H   0  0  0  0  0  0  0  0  0  0  0  0  # atno 6908 bound_to 6896
  150.7054  134.4820  159.5519 H   0  0  0  0  0  0  0  0  0  0  0  0  # atno 6909 bound_to 6896
  146.2399  140.1631  142.8332 H   0  0  0  0  0  0  0  0  0  0  0  0  # atno 7974 bound_to 7965
  154.7699  140.0474  157.1042 H   0  0  0  0  0  0  0  0  0  0  0  0  # atno 8008 bound_to 7997
  154.9833  140.3104  155.4917 H   0  0  0  0  0  0  0  0  0  0  0  0  # atno 8009 bound_to 7997
  156.2919  140.2232  156.4934 H   0  0  0  0  0  0  0  0  0  0  0  0  # atno 8010 bound_to 7997
  140.0079  143.5472  152.2276 H   0  0  0  0  0  0  0  0  0  0  0  0  # atno 10167 bound_to 10162
  156.7606  130.5268  149.5786 H   0  0  0  0  0  0  0  0  0  0  0  0  # atno 10718 bound_to 10713
  153.2354  135.6897  153.7843 H   0  0  0  0  0  0  0  0  0  0  0  0  # atno 10763 bound_to 10752
  153.6992  135.3300  155.3221 H   0  0  0  0  0  0  0  0  0  0  0  0  # atno 10764 bound_to 10752
  154.8332  135.4564  154.1255 H   0  0  0  0  0  0  0  0  0  0  0  0  # atno 10765 bound_to 10752
  139.9269  134.7655  156.1479 H   0  0  0  0  0  0  0  0  0  0  0  0  # atno 11005 bound_to 11000
  145.0073  140.8684  143.5245 LP  0  0  0  0  0  0  0  0  0  0  0  0  # atno 17320 bound_to 7965
  145.1659  139.2432  143.5367 LP  0  0  0  0  0  0  0  0  0  0  0  0  # atno 17321 bound_to 7965
  139.6225  144.7631  151.2709 LP  0  0  0  0  0  0  0  0  0  0  0  0  # atno 17342 bound_to 10162
  140.7393  143.6622  150.8154 LP  0  0  0  0  0  0  0  0  0  0  0  0  # atno 17343 bound_to 10162
  156.1342  130.6199  151.0376 LP  0  0  0  0  0  0  0  0  0  0  0  0  # atno 17370 bound_to 10713
  157.6736  131.0855  150.7550 LP  0  0  0  0  0  0  0  0  0  0  0  0  # atno 17371 bound_to 10713
  141.0833  133.6745  156.2382 LP  0  0  0  0  0  0  0  0  0  0  0  0  # atno 17394 bound_to 11000
  140.6311  134.5263  157.5559 LP  0  0  0  0  0  0  0  0  0  0  0  0  # atno 17395 bound_to 11000

$$$$
