#       Name:                AV-unprocessed.smi:445
#       Creating user name   scv26
#       Creation time:       Thu Mar 26 22:58:19 2020


#       File generated by GOLD software.
#

@<TRIPOS>MOLECULE
AV-unprocessed.smi:445
    52    53     1
SMALL
NO_CHARGES


@<TRIPOS>ATOM
      1 ****        -2.0478   0.7762  -3.0246 C.3            1 S1                 0.0000
      2 ****        -2.4358  -0.6485  -2.5889 C.3            1 S1                 0.0000
      3 ****        -3.9584  -0.8575  -2.7186 C.3            1 S1                 0.0000
      4 ****        -4.3797  -2.2741  -2.3006 C.3            1 S1                 0.0000
      5 ****        -3.9175  -2.5866  -0.8711 C.3            1 S1                 0.0000
      6 ****        -2.4003  -2.3982  -0.7298 C.3            1 S1                 0.0000
      7 ****        -1.9592  -0.9807  -1.1526 C.3            1 S1                 0.0000
      8 ****        -0.5052  -0.8680  -1.0604 N.am           1 S1                 0.0000
      9 ****         0.1834  -0.5697   0.0516 C.2            1 S1                 0.0000
     10 ****        -0.3496  -0.3755   1.1449 O.2            1 S1                 0.0000
     11 ****         1.7096  -0.5051  -0.1010 C.3            1 S1                 0.0000
     12 ****         2.3598   0.3247   0.9296 N.am           1 S1                 0.0000
     13 ****         2.8836  -0.3551   2.0435 C.2            1 S1                 0.0000
     14 ****         3.4941   0.2878   3.0542 C.2            1 S1                 0.0000
     15 ****         4.0190  -0.4342   4.1935 N.pl3          1 S1                 1.0000
     16 ****         4.5818   0.1963   5.0828 O.2            1 S1                 0.0000
     17 ****         3.8877  -1.6538   4.2382 O.2            1 S1                -1.0000
     18 ****         3.6071   1.7292   2.9692 C.2            1 S1                 0.0000
     19 ****         3.1040   2.4074   1.9061 C.2            1 S1                 0.0000
     20 ****         3.1973   3.8793   1.7780 C.2            1 S1                 0.0000
     21 ****         3.8074   4.4846   2.8050 N.am           1 S1                 0.0000
     22 ****         2.7808   4.5690   0.8473 O.2            1 S1                 0.0000
     23 ****         2.4228   1.6867   0.7961 C.2            1 S1                 0.0000
     24 ****         1.9308   2.2277  -0.1981 O.2            1 S1                 0.0000
     25 ****        -2.4753   1.5237  -2.3555 H              1 S1                 0.0000
     26 ****        -2.4066   0.9889  -4.0319 H              1 S1                 0.0000
     27 ****        -0.9668   0.9167  -3.0320 H              1 S1                 0.0000
     28 ****        -1.9496  -1.3435  -3.2757 H              1 S1                 0.0000
     29 ****        -4.4840  -0.1273  -2.1014 H              1 S1                 0.0000
     30 ****        -4.2737  -0.6745  -3.7464 H              1 S1                 0.0000
     31 ****        -5.4630  -2.3760  -2.3715 H              1 S1                 0.0000
     32 ****        -3.9538  -3.0028  -2.9916 H              1 S1                 0.0000
     33 ****        -4.4349  -1.9337  -0.1671 H              1 S1                 0.0000
     34 ****        -4.1918  -3.6081  -0.6060 H              1 S1                 0.0000
     35 ****        -2.1065  -2.5921   0.3026 H              1 S1                 0.0000
     36 ****        -1.8865  -3.1422  -1.3405 H              1 S1                 0.0000
     37 ****        -2.4148  -0.2582  -0.4723 H              1 S1                 0.0000
     38 ****         0.0154  -1.0168  -1.9127 H              1 S1                 0.0000
     39 ****         2.0946  -1.5254  -0.0728 H              1 S1                 0.0000
     40 ****         1.9618  -0.1386  -1.0981 H              1 S1                 0.0000
     41 ****         2.7453  -1.4265   2.0207 H              1 S1                 0.0000
     42 ****         4.1033   2.2456   3.7769 H              1 S1                 0.0000
     43 ****         3.9198   5.4879   2.8082 H              1 S1                 0.0000
     44 ****         4.1547   3.9315   3.5753 H              1 S1                 0.0000
     45 ****        -1.3437  -0.4374   1.2346 LP             1 S1                 0.0000
     46 ****         0.2117  -0.1559   1.9429 LP             1 S1                 0.0000
     47 ****         4.6707   1.1898   5.0119 LP             1 S1                 0.0000
     48 ****         4.9516  -0.2833   5.8786 LP             1 S1                 0.0000
     49 ****         2.3229   4.1367   0.0705 LP             1 S1                 0.0000
     50 ****         2.9003   5.5616   0.8681 LP             1 S1                 0.0000
     51 ****         1.4884   1.6722  -0.9021 LP             1 S1                 0.0000
     52 ****         1.9745   3.2216  -0.2996 LP             1 S1                 0.0000
@<TRIPOS>BOND
    1    1    2 1     
    2    1   25 1     
    3    1   26 1     
    4    1   27 1     
    5    2    7 1     
    6    2    3 1     
    7    2   28 1     
    8    3    4 1     
    9    3   29 1     
   10    3   30 1     
   11    4    5 1     
   12    4   31 1     
   13    4   32 1     
   14    5    6 1     
   15    5   33 1     
   16    5   34 1     
   17    6    7 1     
   18    6   35 1     
   19    6   36 1     
   20    7    8 1     
   21    7   37 1     
   22    8    9 am    
   23    8   38 1     
   24    9   10 2     
   25    9   11 1     
   26   11   12 1     
   27   11   39 1     
   28   11   40 1     
   29   12   23 am    
   30   12   13 1     
   31   13   14 2     
   32   13   41 1     
   33   14   15 1     
   34   14   18 1     
   35   15   16 2     
   36   15   17 1     
   37   18   19 2     
   38   18   42 1     
   39   19   20 1     
   40   19   23 1     
   41   20   21 am    
   42   20   22 2     
   43   21   43 1     
   44   21   44 1     
   45   23   24 2     
   46   10   45 1     
   47   10   46 1     
   48   16   47 1     
   49   16   48 1     
   50   22   49 1     
   51   22   50 1     
   52   24   51 1     
   53   24   52 1     
@<TRIPOS>SUBSTRUCTURE
      1 S1             1
@<TRIPOS>SET
LONE_PAIRS      STATIC     ATOMS    <user>   **** ""
9 45 46 47 48 17 49 50 51 52
DONOR_HYDROGENS      STATIC     ATOMS    <user>   **** ""
3 38 43 44
ATOM$BLUE        STATIC     ATOMS    COLORGROUP SYSTEM
9 45 46 47 48 17 49 50 51 52
ATOM$RED        STATIC     ATOMS    COLORGROUP SYSTEM
3 38 43 44
