AV-unprocessed.smi:279|AV-procd|sdf|2095|dock6
  -GOLD-   2262021373D 1   1.00000     0.00000
 Structure written by MMmdl.
 50 54  0  0  0  0  0  0  0  0  1 V2000
  151.3753  139.8439  154.8205 O   0  0  0  0  0  0  0  0  0  0  0  0
  150.5833  140.5266  155.8553 S   0  0  0  0  0  0  0  0  0  0  0  0
  151.2283  141.0730  157.0589 O   0  0  0  0  0  0  0  0  0  0  0  0
  149.5732  141.8365  155.0721 C   0  0  0  0  0  0  0  0  0  0  0  0
  148.2439  141.1623  154.7219 C   0  0  0  0  0  0  0  0  0  0  0  0
  147.8792  140.1764  155.8519 C   0  0  1  0  0  0  0  0  0  0  0  0
  146.9390  139.0438  155.4059 C   0  0  0  0  0  0  0  0  0  0  0  0
  147.7000  137.8059  155.5162 N   0  0  0  0  0  0  0  0  0  0  0  0
  147.2941  136.6905  154.8521 C   0  0  0  0  0  0  0  0  0  0  0  0
  147.6323  135.4730  155.3550 N   0  0  0  0  0  0  0  0  0  0  0  0
  147.2586  134.3510  154.7343 C   0  0  0  0  0  0  0  0  0  0  0  0
  146.5439  134.2159  153.6172 N   0  0  0  0  0  0  0  0  0  0  0  0
  146.1839  135.4297  153.1115 C   0  0  0  0  0  0  0  0  0  0  0  0
  146.5156  136.7048  153.6557 C   0  0  0  0  0  0  0  0  0  0  0  0
  145.9753  137.7053  152.8541 N   0  0  0  0  0  0  0  0  0  0  0  0
  145.3756  137.0620  151.8905 C   0  0  0  0  0  0  0  0  0  0  0  0
  145.4271  135.6905  151.9827 N   0  0  0  0  0  0  0  0  0  0  0  0
  144.8913  134.7455  151.0473 C   0  0  0  0  0  0  0  0  0  0  0  0
  143.8928  133.6709  151.4841 C   0  0  0  0  0  0  0  0  0  0  0  0
  144.4719  132.7128  150.4180 C   0  0  0  0  0  0  0  0  0  0  0  0
  144.6463  131.2517  150.8650 C   0  0  0  0  0  0  0  0  0  0  0  0
  145.4029  131.1654  152.0557 O   0  0  0  0  0  0  0  0  0  0  0  0
  143.7611  132.7424  149.0497 C   0  0  0  0  0  0  0  0  0  0  0  0
  142.5107  132.0865  149.1033 O   0  0  0  0  0  0  0  0  0  0  0  0
  145.7406  133.5881  150.5169 C   0  0  0  0  0  0  0  0  0  0  0  0
  149.1161  138.1168  155.6398 C   0  0  0  0  0  0  0  0  0  0  0  0
  149.1525  139.4749  156.3414 C   0  0  1  0  0  0  0  0  0  0  0  0
  147.4381  140.7380  156.6765 H   0  0  0  0  0  0  0  0  0  0  0  0
  149.1365  139.3519  157.4249 H   0  0  0  0  0  0  0  0  0  0  0  0
  149.4222  142.6313  155.8030 H   0  0  0  0  0  0  0  0  0  0  0  0
  150.0912  142.2475  154.2056 H   0  0  0  0  0  0  0  0  0  0  0  0
  147.4528  141.8928  154.5508 H   0  0  0  0  0  0  0  0  0  0  0  0
  148.3754  140.6114  153.7894 H   0  0  0  0  0  0  0  0  0  0  0  0
  146.0720  138.9947  156.0654 H   0  0  0  0  0  0  0  0  0  0  0  0
  146.5796  139.1955  154.3871 H   0  0  0  0  0  0  0  0  0  0  0  0
  147.5772  133.4303  155.2005 H   0  0  0  0  0  0  0  0  0  0  0  0
  144.8709  137.5757  151.0852 H   0  0  0  0  0  0  0  0  0  0  0  0
  144.4863  135.3363  150.2239 H   0  0  0  0  0  0  0  0  0  0  0  0
  144.0695  133.3270  152.5052 H   0  0  0  0  0  0  0  0  0  0  0  0
  142.8469  133.9448  151.3428 H   0  0  0  0  0  0  0  0  0  0  0  0
  143.6783  130.7864  151.0531 H   0  0  0  0  0  0  0  0  0  0  0  0
  145.1286  130.6505  150.0939 H   0  0  0  0  0  0  0  0  0  0  0  0
  146.1601  130.6242  151.8914 H   0  0  0  0  0  0  0  0  0  0  0  0
  143.5844  133.7658  148.7187 H   0  0  0  0  0  0  0  0  0  0  0  0
  144.3688  132.2769  148.2735 H   0  0  0  0  0  0  0  0  0  0  0  0
  141.8379  132.7354  149.2429 H   0  0  0  0  0  0  0  0  0  0  0  0
  146.2348  133.7891  149.5658 H   0  0  0  0  0  0  0  0  0  0  0  0
  146.4550  133.2225  151.2575 H   0  0  0  0  0  0  0  0  0  0  0  0
  149.6532  137.3581  156.2098 H   0  0  0  0  0  0  0  0  0  0  0  0
  149.5478  138.1703  154.6400 H   0  0  0  0  0  0  0  0  0  0  0  0
  1  2  2  0  0  0  0
  2 27  1  0  0  0  0
  2  3  2  0  0  0  0
  2  4  1  0  0  0  0
  4  5  1  0  0  0  0
  4 30  1  0  0  0  0
  4 31  1  0  0  0  0
  5  6  1  0  0  0  0
  5 32  1  0  0  0  0
  5 33  1  0  0  0  0
  6 28  1  0  0  0  0
  6 27  1  0  0  0  0
  6  7  1  0  0  0  0
  7  8  1  0  0  0  0
  7 34  1  0  0  0  0
  7 35  1  0  0  0  0
  8  9  1  0  0  0  0
  8 26  1  0  0  0  0
  9 14  1  0  0  0  0
  9 10  2  0  0  0  0
 10 11  1  0  0  0  0
 11 12  2  0  0  0  0
 11 36  1  0  0  0  0
 12 13  1  0  0  0  0
 13 17  1  0  0  0  0
 13 14  2  0  0  0  0
 14 15  1  0  0  0  0
 15 16  2  0  0  0  0
 16 17  1  0  0  0  0
 16 37  1  0  0  0  0
 17 18  1  0  0  0  0
 18 25  1  0  0  0  0
 18 19  1  0  0  0  0
 18 38  1  0  0  0  0
 19 20  1  0  0  0  0
 19 39  1  0  0  0  0
 19 40  1  0  0  0  0
 20 21  1  0  0  0  0
 20 23  1  0  0  0  0
 20 25  1  0  0  0  0
 21 22  1  0  0  0  0
 21 41  1  0  0  0  0
 21 42  1  0  0  0  0
 22 43  1  0  0  0  0
 23 24  1  0  0  0  0
 23 44  1  0  0  0  0
 23 45  1  0  0  0  0
 24 46  1  0  0  0  0
 25 47  1  0  0  0  0
 25 48  1  0  0  0  0
 26 27  1  0  0  0  0
 26 49  1  0  0  0  0
 26 50  1  0  0  0  0
 27 29  1  0  0  0  0
M  END
> <s_m_source_file>
AV-unprocessed.smi

> <i_m_source_file_index>
279

> <i_lp_mmshare_version>
43012

> <i_f3d_flags>
0

> <s_epik_input>
W0NIMl0xW0NIMl1TKD1PKSg9TylbQ0BASF0oW0NAQEhdMTIpW0NIMl1OKFtDSDJdMiljKG5bY0hdbjMpYyhjMzQpbltjSF1uNFtDSF0oW0NIMl01KVtDSDJdQzUoW0NIMl1bT0hdKVtDSDJdW09IXQ==

> <s_epik_cmdline>
J2VwaWtfcHl0aG9uJywgJy1waCcsICc3LjAnLCAnLXRuJywgJzgnLCAnLW1hJywgJzIwMCcsICctbWV0YWxfYmluZGluZycsICctaW1hZScsICc8aW5maWxlLm1hZT4nLCAnLW9tYWUnLCAnPG91dGZpbGUubWFlPic=

> <r_lp_tautomer_probability>
1

> <r_epik_Ionization_Penalty>
0.000990948

> <r_epik_Ionization_Penalty_Charging>
0

> <r_epik_Ionization_Penalty_Neutral>
0.000990948

> <r_epik_State_Penalty>
0.000515994

> <r_epik_Charging_Adjusted_Penalty>
0.000515994

> <i_epik_Tot_Q>
0

> <i_epik_Tot_abs_Q>
0

> <r_epik_Metal_State_Penalty>
-0

> <b_epik_Metal_Only>
0

> <s_lp_Force_Field>
OPLS_2005

> <r_lp_Energy>
54.435

> <b_lp_Chiralities_Consistent>
1

> <s_lp_Variant>
AV-unprocessed.smi:279-1

> <Gold.Version>
5.8.1

> <Gold.Id.Protein>
6NUR|6NUR_protein|mol2

> <Gold.PLP.Fitness>
45.5361

> <Gold.PLP.PLP>
-34.8736

> <Gold.PLP.part.hbond>
-4.0000

> <Gold.PLP.part.metal>
0.0000

> <Gold.PLP.part.buried>
-2.4157

> <Gold.PLP.part.nonpolar>
-27.9060

> <Gold.PLP.part.repulsive>
0.4286

> <Gold.PLP.ligand.clash>
0.0000

> <Gold.PLP.ligand.torsion>
1.0701

> <Gold.PLP.Chemscore.Hbond>
3.0000

> <Gold.PLP.Chemscore.CHOScore>
1.0000

> <Gold.PLP.Chemscore.Metal>
0.0000

> <Gold.Chemscore.Hbonds>
donor molecule, donor type, donor heavy atom, donor atom, acceptor molecule, acceptor atom, score
      L1  H    24    46       P1 10186  1.00
      P1  H  7989  7998       L1     1  1.00
      P1  H 10785 10796       L1    24  0.78
      L1  C    16    37       P1 10171  0.70

> <Gold.PLP.Chemscore.Internal.Correction>
0.8027

> <Gold.Rescore>
     Score         DG    S(hbond)    S(metal)    S(lipo)     H(rot)  DE(clash)    DE(int)     intcor
     12.61     -14.75       2.55        0.00      70.73       2.94       0.93       1.20       ----

> <Gold.Chemscore.Fitness>
12.6140

> <Gold.Chemscore.DG>
-14.7483

> <Gold.Chemscore.ZeroCoef>
-5.4800

> <Gold.Chemscore.Hbond>
2.5474

> <Gold.Chemscore.Metal>
0.0000

> <Gold.Chemscore.Lipo>
70.7345

> <Gold.Chemscore.Internal_Hbond>
0.0000

> <Gold.Chemscore.DEClash>
0.9322

> <Gold.Chemscore.DEInternal>
1.2022

> <Gold.Chemscore.Rot>
2.9360

> <Gold.Chemscore.Internal.Correction>
   9.000000E+99

> <Gold.Chemscore.Hbonds>
donor molecule, donor type, donor heavy atom, donor atom, acceptor molecule, acceptor atom, score
      L1  H    24    46       P1 10186  1.00
      P1  H  7989  7998       L1     1  0.78
      P1  H 10785 10796       L1    24  0.15

> <Gold.Chemscore.Hbond.Weighted>
-8.5085

> <Gold.Chemscore.Metal.Weighted>
-0.0000

> <Gold.Chemscore.Lipo.Weighted>
-8.2759

> <Gold.Chemscore.Internal_Hbond.Weighted>
0.0000

> <Gold.Chemscore.DEClash.Weighted>
0.9322

> <Gold.Chemscore.DEInternal.Weighted>
1.2022

> <Gold.Chemscore.Rot.Weighted>
7.5161

> <Gold.Chemscore.Internal.Correction.Weighted>
   9.000000E+99

> <Gold.Protein.RotatedTorsions>
[ 6907 6896 6895 6894 ] final  145.68 input  -60.11 | X-H torsion
[ 7974 7965 7964 7962 ] final   72.94 input  175.53 | X-H torsion
[ 8008 7997 7996 7995 ] final  -66.44 input   59.86 | X-H torsion
[ 10167 10162 10161 10158 ] final   98.75 input  -65.29 | X-H torsion
[ 10718 10713 10712 10709 ] final  -16.17 input   66.30 | X-H torsion
[ 10763 10752 10751 10750 ] final  134.74 input  -60.55 | X-H torsion
[ 11005 11000 10999 10996 ] final   50.75 input  -57.11 | X-H torsion

> <Gold.Protein.ActiveResidues>
 VAL166  LYS551  ARG553  GLY616  TRP617  ASP618  TYR619  PRO620  LYS621  CYS622 
 ASP623  PHE694  ASN695  SER759  ASP760  ASP761  ALA762  ILE779  LEU786  VAL792 
 PHE793  MET794  SER795  GLU796  ALA797  LYS798  CYS799  TRP800  GLU811  SER814 

> <Gold.Protein.RotatedAtoms>
  152.1777  133.4686  159.4941 H   0  0  0  0  0  0  0  0  0  0  0  0  # atno 6907 bound_to 6896
  150.6929  134.1872  159.4280 H   0  0  0  0  0  0  0  0  0  0  0  0  # atno 6908 bound_to 6896
  151.9782  135.0042  160.0607 H   0  0  0  0  0  0  0  0  0  0  0  0  # atno 6909 bound_to 6896
  145.7471  139.2744  143.1453 H   0  0  0  0  0  0  0  0  0  0  0  0  # atno 7974 bound_to 7965
  154.4735  140.0912  156.7204 H   0  0  0  0  0  0  0  0  0  0  0  0  # atno 8008 bound_to 7997
  155.4660  140.3462  155.4301 H   0  0  0  0  0  0  0  0  0  0  0  0  # atno 8009 bound_to 7997
  156.1078  140.1439  156.9368 H   0  0  0  0  0  0  0  0  0  0  0  0  # atno 8010 bound_to 7997
  139.7680  144.6932  151.0197 H   0  0  0  0  0  0  0  0  0  0  0  0  # atno 10167 bound_to 10162
  156.5914  130.4800  149.6278 H   0  0  0  0  0  0  0  0  0  0  0  0  # atno 10718 bound_to 10713
  153.8286  135.3107  155.3416 H   0  0  0  0  0  0  0  0  0  0  0  0  # atno 10763 bound_to 10752
  154.7983  135.4742  154.0216 H   0  0  0  0  0  0  0  0  0  0  0  0  # atno 10764 bound_to 10752
  153.1648  135.6867  153.8781 H   0  0  0  0  0  0  0  0  0  0  0  0  # atno 10765 bound_to 10752
  140.0990  134.5106  155.8780 H   0  0  0  0  0  0  0  0  0  0  0  0  # atno 11005 bound_to 11000
  146.0392  140.8182  142.9837 LP  0  0  0  0  0  0  0  0  0  0  0  0  # atno 17320 bound_to 7965
  144.6858  140.2885  143.7281 LP  0  0  0  0  0  0  0  0  0  0  0  0  # atno 17321 bound_to 7965
  140.7812  143.4621  151.0263 LP  0  0  0  0  0  0  0  0  0  0  0  0  # atno 17342 bound_to 10162
  139.8305  143.7697  152.3179 LP  0  0  0  0  0  0  0  0  0  0  0  0  # atno 17343 bound_to 10162
  156.2546  130.6927  151.1676 LP  0  0  0  0  0  0  0  0  0  0  0  0  # atno 17370 bound_to 10713
  157.7302  131.0618  150.5735 LP  0  0  0  0  0  0  0  0  0  0  0  0  # atno 17371 bound_to 10713
  141.2100  133.6690  156.6481 LP  0  0  0  0  0  0  0  0  0  0  0  0  # atno 17394 bound_to 11000
  140.3246  134.7979  157.4279 LP  0  0  0  0  0  0  0  0  0  0  0  0  # atno 17395 bound_to 11000

$$$$
