#       Name:                AV-unprocessed.smi:2353
#       Creating user name   scv26
#       Creation time:       Fri Mar 27 13:01:26 2020


#       File generated by GOLD software.
#

@<TRIPOS>MOLECULE
AV-unprocessed.smi:2353
    53    55     1
SMALL
NO_CHARGES


@<TRIPOS>ATOM
      1 ****        -6.3255  -0.4890   0.1185 C.3            1 S1                 0.0000
      2 ****        -5.2890   0.6125   0.2063 C.ar           1 S1                 0.0000
      3 ****        -5.6524   1.9498  -0.0432 C.ar           1 S1                 0.0000
      4 ****        -4.6848   2.9671   0.0377 C.ar           1 S1                 0.0000
      5 ****        -3.3497   2.6548   0.3675 C.ar           1 S1                 0.0000
      6 ****        -2.3200   3.7660   0.4515 C.3            1 S1                 0.0000
      7 ****        -2.9707   1.3159   0.6203 C.ar           1 S1                 0.0000
      8 ****        -1.6489   1.0797   0.9381 O.3            1 S1                 0.0000
      9 ****        -1.2369  -0.2574   1.1894 C.3            1 S1                 0.0000
     10 ****         0.2677  -0.2550   1.5115 C.3            1 S1                 0.0000
     11 ****         0.3958   0.1086   2.8722 O.3            1 S1                 0.0000
     12 ****         0.9050  -1.6504   1.3250 C.3            1 S1                 0.0000
     13 ****         2.3449  -1.5597   1.0519 N.am           1 S1                 0.0000
     14 ****         2.6566  -1.4055  -0.2879 N.2            1 S1                 0.0000
     15 ****         3.8841  -1.2958  -0.6797 C.2            1 S1                 0.0000
     16 ****         4.2023  -1.1313  -2.0897 N.pl3          1 S1                 0.0000
     17 ****         3.3167  -1.0627  -3.1371 C.2            1 S1                 0.0000
     18 ****         4.0706  -0.9068  -4.2715 C.2            1 S1                 0.0000
     19 ****         5.3800  -0.8872  -3.8699 N.pl3          1 S1                 1.0000
     20 ****         5.4635  -1.0235  -2.5415 C.2            1 S1                 0.0000
     21 ****         4.9606  -1.3364   0.3044 C.2            1 S1                 0.0000
     22 ****         4.6447  -1.4840   1.6091 C.2            1 S1                 0.0000
     23 ****         3.2607  -1.6027   2.0629 C.2            1 S1                 0.0000
     24 ****         2.9488  -1.7237   3.2466 O.2            1 S1                 0.0000
     25 ****        -3.9548   0.2979   0.5345 C.ar           1 S1                 0.0000
     26 ****        -7.3368  -0.0847   0.1718 H              1 S1                 0.0000
     27 ****        -6.2019  -1.1976   0.9379 H              1 S1                 0.0000
     28 ****        -6.2208  -1.0293  -0.8226 H              1 S1                 0.0000
     29 ****        -6.6720   2.2003  -0.2974 H              1 S1                 0.0000
     30 ****        -4.9733   3.9900  -0.1548 H              1 S1                 0.0000
     31 ****        -1.9607   3.8696   1.4754 H              1 S1                 0.0000
     32 ****        -2.7388   4.7230   0.1397 H              1 S1                 0.0000
     33 ****        -1.4679   3.5450  -0.1916 H              1 S1                 0.0000
     34 ****        -1.8089  -0.7133   1.9997 H              1 S1                 0.0000
     35 ****        -1.4167  -0.8398   0.2843 H              1 S1                 0.0000
     36 ****         0.7725   0.4766   0.8787 H              1 S1                 0.0000
     37 ****         1.3122   0.0951   3.1036 H              1 S1                 0.0000
     38 ****         0.6878  -2.3021   2.1738 H              1 S1                 0.0000
     39 ****         0.4428  -2.1501   0.4717 H              1 S1                 0.0000
     40 ****         2.2458  -1.1271  -3.0060 H              1 S1                 0.0000
     41 ****         3.7810  -0.8105  -5.3079 H              1 S1                 0.0000
     42 ****         6.3819  -1.0389  -1.9849 H              1 S1                 0.0000
     43 ****         5.9995  -1.2524   0.0318 H              1 S1                 0.0000
     44 ****         5.4373  -1.5141   2.3425 H              1 S1                 0.0000
     45 ****        -3.7088  -0.7371   0.7174 H              1 S1                 0.0000
     46 ****         6.1746  -0.7842  -4.4889 H              1 S1                 0.0000
     47 ****        -1.4442   1.6105   1.7605 LP             1 S1                 0.0000
     48 ****        -1.0974   1.4196   0.1762 LP             1 S1                 0.0000
     49 ****        -0.1052  -0.5417   3.4431 LP             1 S1                 0.0000
     50 ****         0.0269   1.0276   3.0113 LP             1 S1                 0.0000
     51 ****         1.9204  -1.3785  -0.9641 LP             1 S1                 0.0000
     52 ****         1.9855  -1.7958   3.5050 LP             1 S1                 0.0000
     53 ****         3.6586  -1.7499   3.9505 LP             1 S1                 0.0000
@<TRIPOS>BOND
    1    1    2 1     
    2    1   26 1     
    3    1   27 1     
    4    1   28 1     
    5    2   25 ar    
    6    2    3 ar    
    7    3    4 ar    
    8    3   29 1     
    9    4    5 ar    
   10    4   30 1     
   11    5    6 1     
   12    5    7 ar    
   13    6   31 1     
   14    6   32 1     
   15    6   33 1     
   16    7    8 1     
   17    7   25 ar    
   18    8    9 1     
   19    9   10 1     
   20    9   34 1     
   21    9   35 1     
   22   10   11 1     
   23   10   12 1     
   24   10   36 1     
   25   11   37 1     
   26   12   13 1     
   27   12   38 1     
   28   12   39 1     
   29   13   23 am    
   30   13   14 1     
   31   14   15 2     
   32   15   16 1     
   33   15   21 1     
   34   16   20 1     
   35   16   17 1     
   36   17   18 2     
   37   17   40 1     
   38   18   19 1     
   39   18   41 1     
   40   19   20 2     
   41   19   46 1     
   42   20   42 1     
   43   21   22 2     
   44   21   43 1     
   45   22   23 1     
   46   22   44 1     
   47   23   24 2     
   48   25   45 1     
   49    8   47 1     
   50    8   48 1     
   51   11   49 1     
   52   11   50 1     
   53   14   51 1     
   54   24   52 1     
   55   24   53 1     
@<TRIPOS>SUBSTRUCTURE
      1 S1             1
@<TRIPOS>SET
LONE_PAIRS      STATIC     ATOMS    <user>   **** ""
7 47 48 49 50 51 52 53
DONOR_HYDROGENS      STATIC     ATOMS    <user>   **** ""
2 37 46
ATOM$BLUE        STATIC     ATOMS    COLORGROUP SYSTEM
7 47 48 49 50 51 52 53
ATOM$RED        STATIC     ATOMS    COLORGROUP SYSTEM
2 37 46
