AV-unprocessed.smi:1244|AV-procd|sdf|5226|dock3
  -GOLD-   22720 4323D 1   1.00000     0.00000
 Structure written by MMmdl.
 55 57  0  0  0  0  0  0  0  0  2 V2000
  152.7788  139.1148  155.3906 C   0  0  0  0  0  0  0  0  0  0  0  0
  151.2624  138.9030  155.3301 C   0  0  2  0  0  0  0  0  0  0  0  0
  150.8635  137.8772  154.2497 C   0  0  0  0  0  0  0  0  0  0  0  0
  149.3896  137.7449  154.1503 N   0  3  1  0  0  0  0  0  0  0  0  0
  148.7902  136.9297  155.2395 C   0  0  0  0  0  0  0  0  0  0  0  0
  149.3223  135.4844  155.2477 C   0  0  0  0  0  0  0  0  0  0  0  0
  148.4131  134.5795  154.5543 N   0  0  0  0  0  0  0  0  0  0  0  0
  148.6814  133.2970  154.2710 C   0  0  0  0  0  0  0  0  0  0  0  0
  149.7400  132.7450  154.5718 O   0  0  0  0  0  0  0  0  0  0  0  0
  147.6500  132.7126  153.6388 N   0  0  0  0  0  0  0  0  0  0  0  0
  147.5196  131.3558  153.2260 C   0  0  0  0  0  0  0  0  0  0  0  0
  148.3668  130.3372  153.7278 C   0  0  0  0  0  0  0  0  0  0  0  0
  148.2361  129.0267  153.2372 C   0  0  0  0  0  0  0  0  0  0  0  0
  147.2710  128.7810  152.2465 C   0  0  0  0  0  0  0  0  0  0  0  0
  146.4678  129.7412  151.7470 N   0  0  0  0  0  0  0  0  0  0  0  0
  146.5722  131.0071  152.2208 C   0  0  0  0  0  0  0  0  0  0  0  0
  145.6932  131.9693  151.6734 N   0  0  0  0  0  0  0  0  0  0  0  0
  146.2167  133.1757  151.0414 C   0  0  0  0  0  0  0  0  0  0  0  0
  145.0437  133.7453  150.2489 C   0  0  0  0  0  0  0  0  0  0  0  0
  144.3357  132.4834  149.7650 C   0  0  0  0  0  0  0  0  0  0  0  0
  144.5454  131.4869  150.9106 C   0  0  0  0  0  0  0  0  0  0  0  0
  148.7634  139.0780  153.9568 C   0  0  0  0  0  0  0  0  0  0  0  0
  149.2306  140.0902  155.0259 C   0  0  2  0  0  0  0  0  0  0  0  0
  148.6932  141.4997  154.7560 C   0  0  0  0  0  0  0  0  0  0  0  0
  150.6530  140.1525  155.0240 O   0  0  0  0  0  0  0  0  0  0  0  0
  153.2954  138.1856  155.6325 H   0  0  0  0  0  0  0  0  0  0  0  0
  153.0396  139.8477  156.1545 H   0  0  0  0  0  0  0  0  0  0  0  0
  153.1662  139.4754  154.4374 H   0  0  0  0  0  0  0  0  0  0  0  0
  150.9237  138.5664  156.3113 H   0  0  0  0  0  0  0  0  0  0  0  0
  151.2417  138.2048  153.2802 H   0  0  0  0  0  0  0  0  0  0  0  0
  151.3228  136.9069  154.4430 H   0  0  0  0  0  0  0  0  0  0  0  0
  149.0382  137.3808  156.2014 H   0  0  0  0  0  0  0  0  0  0  0  0
  147.7025  136.9446  155.1716 H   0  0  0  0  0  0  0  0  0  0  0  0
  150.3104  135.4168  154.7915 H   0  0  0  0  0  0  0  0  0  0  0  0
  149.4319  135.1348  156.2746 H   0  0  0  0  0  0  0  0  0  0  0  0
  147.5169  134.9528  154.2766 H   0  0  0  0  0  0  0  0  0  0  0  0
  146.8168  133.2735  153.5351 H   0  0  0  0  0  0  0  0  0  0  0  0
  149.1299  130.5410  154.4632 H   0  0  0  0  0  0  0  0  0  0  0  0
  148.8690  128.2317  153.6030 H   0  0  0  0  0  0  0  0  0  0  0  0
  147.1443  127.7889  151.8390 H   0  0  0  0  0  0  0  0  0  0  0  0
  146.5872  133.8837  151.7835 H   0  0  0  0  0  0  0  0  0  0  0  0
  147.0321  132.9348  150.3582 H   0  0  0  0  0  0  0  0  0  0  0  0
  144.3854  134.3117  150.9092 H   0  0  0  0  0  0  0  0  0  0  0  0
  145.3577  134.4001  149.4356 H   0  0  0  0  0  0  0  0  0  0  0  0
  143.2832  132.6469  149.5322 H   0  0  0  0  0  0  0  0  0  0  0  0
  144.8254  132.1133  148.8632 H   0  0  0  0  0  0  0  0  0  0  0  0
  144.6971  130.4741  150.5345 H   0  0  0  0  0  0  0  0  0  0  0  0
  143.6697  131.4790  151.5597 H   0  0  0  0  0  0  0  0  0  0  0  0
  149.0495  139.4407  152.9684 H   0  0  0  0  0  0  0  0  0  0  0  0
  147.6766  139.0041  153.9477 H   0  0  0  0  0  0  0  0  0  0  0  0
  148.8879  139.7829  156.0148 H   0  0  0  0  0  0  0  0  0  0  0  0
  147.6028  141.5104  154.7547 H   0  0  0  0  0  0  0  0  0  0  0  0
  149.0330  141.8751  153.7901 H   0  0  0  0  0  0  0  0  0  0  0  0
  149.0305  142.1985  155.5220 H   0  0  0  0  0  0  0  0  0  0  0  0
  149.2183  137.2193  153.3048 H   0  0  0  0  0  0  0  0  0  0  0  0
  1  2  1  0  0  0  0
  1 26  1  0  0  0  0
  1 27  1  0  0  0  0
  1 28  1  0  0  0  0
  2 25  1  0  0  0  0
  2  3  1  0  0  0  0
  2 29  1  0  0  0  0
  3  4  1  0  0  0  0
  3 30  1  0  0  0  0
  3 31  1  0  0  0  0
  4  5  1  0  0  0  0
  4 22  1  0  0  0  0
  4 55  1  0  0  0  0
  5  6  1  0  0  0  0
  5 32  1  0  0  0  0
  5 33  1  0  0  0  0
  6  7  1  0  0  0  0
  6 34  1  0  0  0  0
  6 35  1  0  0  0  0
  7  8  1  0  0  0  0
  7 36  1  0  0  0  0
  8  9  2  0  0  0  0
  8 10  1  0  0  0  0
 10 11  1  0  0  0  0
 10 37  1  0  0  0  0
 11 16  1  0  0  0  0
 11 12  2  0  0  0  0
 12 13  1  0  0  0  0
 12 38  1  0  0  0  0
 13 14  2  0  0  0  0
 13 39  1  0  0  0  0
 14 15  1  0  0  0  0
 14 40  1  0  0  0  0
 15 16  2  0  0  0  0
 16 17  1  0  0  0  0
 17 21  1  0  0  0  0
 17 18  1  0  0  0  0
 18 19  1  0  0  0  0
 18 41  1  0  0  0  0
 18 42  1  0  0  0  0
 19 20  1  0  0  0  0
 19 43  1  0  0  0  0
 19 44  1  0  0  0  0
 20 21  1  0  0  0  0
 20 45  1  0  0  0  0
 20 46  1  0  0  0  0
 21 47  1  0  0  0  0
 21 48  1  0  0  0  0
 22 23  1  0  0  0  0
 22 49  1  0  0  0  0
 22 50  1  0  0  0  0
 23 24  1  0  0  0  0
 23 25  1  0  0  0  0
 23 51  1  0  0  0  0
 24 52  1  0  0  0  0
 24 53  1  0  0  0  0
 24 54  1  0  0  0  0
M  CHG  1   4   1
M  END
> <s_m_source_file>
AV-unprocessed.smi

> <i_m_source_file_index>
1244

> <i_lp_mmshare_version>
43012

> <i_f3d_flags>
0

> <s_epik_input>
W0NIM11bQ0BASF0xW0NIMl1OKFtDSDJdW0NASF0oTzEpW0NIM10pW0NIMl1bQ0gyXVtOSF1DKD1PKVtOSF1jMltjSF1bY0hdW2NIXW5jMk4zW0NIMl1bQ0gyXVtDSDJdW0NIMl0z

> <s_epik_cmdline>
J2VwaWtfcHl0aG9uJywgJy1waCcsICc3LjAnLCAnLXRuJywgJzgnLCAnLW1hJywgJzIwMCcsICctbWV0YWxfYmluZGluZycsICctaW1hZScsICc8aW5maWxlLm1hZT4nLCAnLW9tYWUnLCAnPG91dGZpbGUubWFlPic=

> <r_lp_tautomer_probability>
1

> <r_epik_Ionization_Penalty>
0.684913

> <r_epik_Ionization_Penalty_Charging>
0.602531

> <r_epik_Ionization_Penalty_Neutral>
0.0823829

> <r_epik_State_Penalty>
0.678827

> <r_epik_Charging_Adjusted_Penalty>
1.28136

> <i_epik_Tot_Q>
1

> <i_epik_Tot_abs_Q>
1

> <r_epik_Metal_State_Penalty>
0.67806

> <b_epik_Metal_Only>
0

> <s_lp_Force_Field>
OPLS_2005

> <r_lp_Energy>
44.826

> <b_lp_Chiralities_Consistent>
1

> <s_lp_Variant>
AV-unprocessed.smi:1244-6

> <Gold.Version>
5.8.1

> <Gold.Id.Protein>
6NUR|6NUR_protein|mol2

> <Gold.PLP.Fitness>
51.8935

> <Gold.PLP.PLP>
-43.6782

> <Gold.PLP.part.hbond>
-2.5377

> <Gold.PLP.part.metal>
0.0000

> <Gold.PLP.part.buried>
-4.1867

> <Gold.PLP.part.nonpolar>
-37.7356

> <Gold.PLP.part.repulsive>
0.3913

> <Gold.PLP.ligand.clash>
0.0000

> <Gold.PLP.ligand.torsion>
0.5699

> <Gold.PLP.Chemscore.Hbond>
3.0000

> <Gold.PLP.Chemscore.CHOScore>
0.0000

> <Gold.PLP.Chemscore.Metal>
0.0000

> <Gold.Chemscore.Hbonds>
donor molecule, donor type, donor heavy atom, donor atom, acceptor molecule, acceptor atom, score
      L1  H     4    55       P1  7948  2.00
      P1  H  7989  7998       L1    25  1.00

> <Gold.PLP.Chemscore.Internal.Correction>
0.3550

> <Gold.Rescore>
     Score         DG    S(hbond)    S(metal)    S(lipo)     H(rot)  DE(clash)    DE(int)     intcor
     17.93     -20.27       1.89        0.00     107.37       1.60       0.38       1.96       ----

> <Gold.Chemscore.Fitness>
17.9313

> <Gold.Chemscore.DG>
-20.2699

> <Gold.Chemscore.ZeroCoef>
-5.4800

> <Gold.Chemscore.Hbond>
1.8916

> <Gold.Chemscore.Metal>
0.0000

> <Gold.Chemscore.Lipo>
107.3698

> <Gold.Chemscore.Internal_Hbond>
0.0000

> <Gold.Chemscore.DEClash>
0.3809

> <Gold.Chemscore.DEInternal>
1.9576

> <Gold.Chemscore.Rot>
1.5978

> <Gold.Chemscore.Internal.Correction>
   9.000000E+99

> <Gold.Chemscore.Hbonds>
donor molecule, donor type, donor heavy atom, donor atom, acceptor molecule, acceptor atom, score
      L1  H     4    55       P1  7948  0.99
      P1  H  7989  7998       L1    25  0.54

> <Gold.Chemscore.Hbond.Weighted>
-6.3181

> <Gold.Chemscore.Metal.Weighted>
-0.0000

> <Gold.Chemscore.Lipo.Weighted>
-12.5623

> <Gold.Chemscore.Internal_Hbond.Weighted>
0.0000

> <Gold.Chemscore.DEClash.Weighted>
0.3809

> <Gold.Chemscore.DEInternal.Weighted>
1.9576

> <Gold.Chemscore.Rot.Weighted>
4.0905

> <Gold.Chemscore.Internal.Correction.Weighted>
   9.000000E+99

> <Gold.Protein.RotatedTorsions>
[ 6907 6896 6895 6894 ] final  138.94 input  -60.11 | X-H torsion
[ 7974 7965 7964 7962 ] final    8.35 input  175.53 | X-H torsion
[ 8008 7997 7996 7995 ] final -124.23 input   59.86 | X-H torsion
[ 10167 10162 10161 10158 ] final -179.33 input  -65.29 | X-H torsion
[ 10718 10713 10712 10709 ] final  -28.26 input   66.30 | X-H torsion
[ 10763 10752 10751 10750 ] final   29.81 input  -60.55 | X-H torsion
[ 11005 11000 10999 10996 ] final -131.37 input  -57.11 | X-H torsion

> <Gold.Protein.ActiveResidues>
 VAL166  LYS551  ARG553  GLY616  TRP617  ASP618  TYR619  PRO620  LYS621  CYS622 
 ASP623  PHE694  ASN695  SER759  ASP760  ASP761  ALA762  ILE779  LEU786  VAL792 
 PHE793  MET794  SER795  GLU796  ALA797  LYS798  CYS799  TRP800  GLU811  SER814 

> <Gold.Protein.RotatedAtoms>
  152.2607  133.5295  159.5379 H   0  0  0  0  0  0  0  0  0  0  0  0  # atno 6907 bound_to 6896
  150.7124  134.0834  159.3915 H   0  0  0  0  0  0  0  0  0  0  0  0  # atno 6908 bound_to 6896
  151.8751  135.0475  160.0534 H   0  0  0  0  0  0  0  0  0  0  0  0  # atno 6909 bound_to 6896
  146.2417  139.9947  142.8422 H   0  0  0  0  0  0  0  0  0  0  0  0  # atno 7974 bound_to 7965
  155.1935  140.0414  157.2904 H   0  0  0  0  0  0  0  0  0  0  0  0  # atno 8008 bound_to 7997
  154.6123  140.2480  155.7625 H   0  0  0  0  0  0  0  0  0  0  0  0  # atno 8009 bound_to 7997
  156.2386  140.2912  156.0391 H   0  0  0  0  0  0  0  0  0  0  0  0  # atno 8010 bound_to 7997
  139.5391  144.2413  152.0857 H   0  0  0  0  0  0  0  0  0  0  0  0  # atno 10167 bound_to 10162
  156.4275  130.4438  149.7140 H   0  0  0  0  0  0  0  0  0  0  0  0  # atno 10718 bound_to 10713
  153.0408  135.6480  154.0947 H   0  0  0  0  0  0  0  0  0  0  0  0  # atno 10763 bound_to 10752
  154.0654  135.2884  155.3319 H   0  0  0  0  0  0  0  0  0  0  0  0  # atno 10764 bound_to 10752
  154.6630  135.5384  153.8106 H   0  0  0  0  0  0  0  0  0  0  0  0  # atno 10765 bound_to 10752
  140.9265  134.1376  157.4271 H   0  0  0  0  0  0  0  0  0  0  0  0  # atno 11005 bound_to 11000
  145.1471  140.9603  143.4455 LP  0  0  0  0  0  0  0  0  0  0  0  0  # atno 17320 bound_to 7965
  145.0241  139.3398  143.6058 LP  0  0  0  0  0  0  0  0  0  0  0  0  # atno 17321 bound_to 7965
  140.1889  144.4771  150.6489 LP  0  0  0  0  0  0  0  0  0  0  0  0  # atno 17342 bound_to 10162
  140.6612  143.2253  151.5850 LP  0  0  0  0  0  0  0  0  0  0  0  0  # atno 17343 bound_to 10162
  156.4056  130.7696  151.2707 LP  0  0  0  0  0  0  0  0  0  0  0  0  # atno 17370 bound_to 10713
  157.7508  131.0227  150.3801 LP  0  0  0  0  0  0  0  0  0  0  0  0  # atno 17371 bound_to 10713
  139.8786  134.9990  156.5930 LP  0  0  0  0  0  0  0  0  0  0  0  0  # atno 17394 bound_to 11000
  140.7920  133.8575  155.8653 LP  0  0  0  0  0  0  0  0  0  0  0  0  # atno 17395 bound_to 11000

$$$$
