AV-unprocessed.smi:688|AV-procd|sdf|3356|dock7
  -GOLD-   22720 0333D 1   1.00000     0.00000
 Structure written by MMmdl.
 35 36  0  0  0  0  0  0  0  0  2 V2000
  150.1687  134.6900  157.7209 O   0  0  0  0  0  0  0  0  0  0  0  0
  150.2253  135.7067  157.0304 C   0  0  0  0  0  0  0  0  0  0  0  0
  151.2301  136.6232  157.1499 N   0  5  0  0  0  0  0  0  0  0  0  0
  151.3136  137.7562  156.3863 C   0  0  0  0  0  0  0  0  0  0  0  0
  152.2257  138.5730  156.5179 O   0  0  0  0  0  0  0  0  0  0  0  0
  150.3499  137.9884  155.4461 N   0  0  0  0  0  0  0  0  0  0  0  0
  150.3620  139.1748  154.5784 C   0  0  0  0  0  0  0  0  0  0  0  0
  149.0516  139.9852  154.6897 C   0  0  2  0  0  0  0  0  0  0  0  0
  148.2683  139.6968  153.5477 O   0  0  0  0  0  0  0  0  0  0  0  0
  149.3127  141.5010  154.6906 C   0  0  0  0  0  0  0  0  0  0  0  0
  149.6307  141.9140  156.0098 O   0  0  0  0  0  0  0  0  0  0  0  0
  151.0263  142.0252  156.2358 C   0  0  0  0  0  0  0  0  0  0  0  0
  151.3273  142.6116  157.6017 C   0  0  0  0  0  0  0  0  0  0  0  0
  151.4754  144.0065  157.7545 C   0  0  0  0  0  0  0  0  0  0  0  0
  151.7690  144.5539  159.0187 C   0  0  0  0  0  0  0  0  0  0  0  0
  151.9204  143.7081  160.1348 C   0  0  0  0  0  0  0  0  0  0  0  0
  152.2783  144.3783  161.6839 Cl  0  0  0  0  0  0  0  0  0  0  0  0
  151.7814  142.3143  159.9845 C   0  0  0  0  0  0  0  0  0  0  0  0
  151.4887  141.7667  158.7201 C   0  0  0  0  0  0  0  0  0  0  0  0
  149.2876  137.0824  155.2909 C   0  0  0  0  0  0  0  0  0  0  0  0
  149.1860  135.9645  156.0359 C   0  0  0  0  0  0  0  0  0  0  0  0
  147.8664  134.8693  155.8246 Cl  0  0  0  0  0  0  0  0  0  0  0  0
  151.2116  139.7991  154.8601 H   0  0  0  0  0  0  0  0  0  0  0  0
  150.5609  138.9014  153.5407 H   0  0  0  0  0  0  0  0  0  0  0  0
  148.5081  139.7112  155.5951 H   0  0  0  0  0  0  0  0  0  0  0  0
  148.7387  139.9867  152.7815 H   0  0  0  0  0  0  0  0  0  0  0  0
  150.1664  141.7278  154.0500 H   0  0  0  0  0  0  0  0  0  0  0  0
  148.4571  142.0527  154.2963 H   0  0  0  0  0  0  0  0  0  0  0  0
  151.4914  141.0420  156.1462 H   0  0  0  0  0  0  0  0  0  0  0  0
  151.4781  142.6689  155.4795 H   0  0  0  0  0  0  0  0  0  0  0  0
  151.3626  144.6606  156.9023 H   0  0  0  0  0  0  0  0  0  0  0  0
  151.8782  145.6228  159.1299 H   0  0  0  0  0  0  0  0  0  0  0  0
  151.8995  141.6632  160.8382 H   0  0  0  0  0  0  0  0  0  0  0  0
  151.3859  140.6967  158.6135 H   0  0  0  0  0  0  0  0  0  0  0  0
  148.5629  137.3539  154.5370 H   0  0  0  0  0  0  0  0  0  0  0  0
  1  2  2  0  0  0  0
  2 21  1  0  0  0  0
  2  3  1  0  0  0  0
  3  4  1  0  0  0  0
  4  5  2  0  0  0  0
  4  6  1  0  0  0  0
  6  7  1  0  0  0  0
  6 20  1  0  0  0  0
  7  8  1  0  0  0  0
  7 23  1  0  0  0  0
  7 24  1  0  0  0  0
  8  9  1  0  0  0  0
  8 10  1  0  0  0  0
  8 25  1  0  0  0  0
  9 26  1  0  0  0  0
 10 11  1  0  0  0  0
 10 27  1  0  0  0  0
 10 28  1  0  0  0  0
 11 12  1  0  0  0  0
 12 13  1  0  0  0  0
 12 29  1  0  0  0  0
 12 30  1  0  0  0  0
 13 19  1  0  0  0  0
 13 14  2  0  0  0  0
 14 15  1  0  0  0  0
 14 31  1  0  0  0  0
 15 16  2  0  0  0  0
 15 32  1  0  0  0  0
 16 17  1  0  0  0  0
 16 18  1  0  0  0  0
 18 19  2  0  0  0  0
 18 33  1  0  0  0  0
 19 34  1  0  0  0  0
 20 21  2  0  0  0  0
 20 35  1  0  0  0  0
 21 22  1  0  0  0  0
M  CHG  1   3  -1
M  END
> <s_m_source_file>
AV-unprocessed.smi

> <i_m_source_file_index>
688

> <i_lp_mmshare_version>
43012

> <i_f3d_flags>
0

> <s_epik_input>
Tz1jMVtuSF1jKD1PKW4oW2NIXWMxQ2wpW0NIMl1bQ0BIXShbT0hdKVtDSDJdT1tDSDJdYzJbY0hdW2NIXWMoQ2wpW2NIXVtjSF0y

> <s_epik_cmdline>
J2VwaWtfcHl0aG9uJywgJy1waCcsICc3LjAnLCAnLXRuJywgJzgnLCAnLW1hJywgJzIwMCcsICctbWV0YWxfYmluZGluZycsICctaW1hZScsICc8aW5maWxlLm1hZT4nLCAnLW9tYWUnLCAnPG91dGZpbGUubWFlPic=

> <r_epik_Ionization_Penalty>
1.82111

> <r_epik_Ionization_Penalty_Charging>
5.03334e-08

> <r_epik_Ionization_Penalty_Neutral>
1.82111

> <r_epik_State_Penalty>
1.93633

> <r_epik_Charging_Adjusted_Penalty>
1.93633

> <i_epik_Tot_Q>
-1

> <i_epik_Tot_abs_Q>
1

> <r_epik_Metal_State_Penalty>
0.0147818

> <b_epik_Metal_Only>
0

> <s_lp_Force_Field>
OPLS_2005

> <r_lp_Energy>
25.7398

> <b_lp_Chiralities_Consistent>
1

> <s_lp_Variant>
AV-unprocessed.smi:688-3

> <Gold.Version>
5.8.1

> <Gold.Id.Protein>
6NUR|6NUR_protein|mol2

> <Gold.PLP.Fitness>
51.9864

> <Gold.PLP.PLP>
-44.7269

> <Gold.PLP.part.hbond>
-4.0000

> <Gold.PLP.part.metal>
0.0000

> <Gold.PLP.part.buried>
-4.7885

> <Gold.PLP.part.nonpolar>
-34.7355

> <Gold.PLP.part.repulsive>
0.0808

> <Gold.PLP.ligand.clash>
0.0000

> <Gold.PLP.ligand.torsion>
1.4898

> <Gold.PLP.Chemscore.Hbond>
2.3656

> <Gold.PLP.Chemscore.CHOScore>
0.9752

> <Gold.PLP.Chemscore.Metal>
0.0000

> <Gold.Chemscore.Hbonds>
donor molecule, donor type, donor heavy atom, donor atom, acceptor molecule, acceptor atom, score
      L1  H     9    26       P1  7957  1.00
      P1  H  6896  6908       L1     1  0.53
      L1  C    20    35       P1  7948  0.02

> <Gold.PLP.Chemscore.Internal.Correction>
0.2166

> <Gold.Rescore>
     Score         DG    S(hbond)    S(metal)    S(lipo)     H(rot)  DE(clash)    DE(int)     intcor
     17.41     -19.08       2.05        0.00     120.24       2.85       0.11       1.56       ----

> <Gold.Chemscore.Fitness>
17.4069

> <Gold.Chemscore.DG>
-19.0812

> <Gold.Chemscore.ZeroCoef>
-5.4800

> <Gold.Chemscore.Hbond>
2.0478

> <Gold.Chemscore.Metal>
0.0000

> <Gold.Chemscore.Lipo>
120.2402

> <Gold.Chemscore.Internal_Hbond>
0.0000

> <Gold.Chemscore.DEClash>
0.1097

> <Gold.Chemscore.DEInternal>
1.5646

> <Gold.Chemscore.Rot>
2.8542

> <Gold.Chemscore.Internal.Correction>
   9.000000E+99

> <Gold.Chemscore.Hbonds>
donor molecule, donor type, donor heavy atom, donor atom, acceptor molecule, acceptor atom, score
      L1  H     9    26       P1  7957  1.00
      P1  H  6896  6908       L1     1  0.54

> <Gold.Chemscore.Hbond.Weighted>
-6.8398

> <Gold.Chemscore.Metal.Weighted>
-0.0000

> <Gold.Chemscore.Lipo.Weighted>
-14.0681

> <Gold.Chemscore.Internal_Hbond.Weighted>
0.0000

> <Gold.Chemscore.DEClash.Weighted>
0.1097

> <Gold.Chemscore.DEInternal.Weighted>
1.5646

> <Gold.Chemscore.Rot.Weighted>
7.3067

> <Gold.Chemscore.Internal.Correction.Weighted>
   9.000000E+99

> <Gold.Protein.RotatedTorsions>
[ 6907 6896 6895 6894 ] final  173.23 input  -60.11 | X-H torsion
[ 7974 7965 7964 7962 ] final -132.06 input  175.53 | X-H torsion
[ 8008 7997 7996 7995 ] final -170.47 input   59.86 | X-H torsion
[ 10167 10162 10161 10158 ] final  -76.96 input  -65.29 | X-H torsion
[ 10718 10713 10712 10709 ] final -175.17 input   66.30 | X-H torsion
[ 10763 10752 10751 10750 ] final  124.69 input  -60.55 | X-H torsion
[ 11005 11000 10999 10996 ] final -162.92 input  -57.11 | X-H torsion

> <Gold.Protein.ActiveResidues>
 VAL166  LYS551  ARG553  GLY616  TRP617  ASP618  TYR619  PRO620  LYS621  CYS622 
 ASP623  PHE694  ASN695  SER759  ASP760  ASP761  ALA762  ILE779  LEU786  VAL792 
 PHE793  MET794  SER795  GLU796  ALA797  LYS798  CYS799  TRP800  GLU811  SER814 

> <Gold.Protein.RotatedAtoms>
  151.7717  133.3342  159.3446 H   0  0  0  0  0  0  0  0  0  0  0  0  # atno 6907 bound_to 6896
  150.7459  134.6012  159.6047 H   0  0  0  0  0  0  0  0  0  0  0  0  # atno 6908 bound_to 6896
  152.3337  134.7228  160.0334 H   0  0  0  0  0  0  0  0  0  0  0  0  # atno 6909 bound_to 6896
  144.9321  140.7141  143.4899 H   0  0  0  0  0  0  0  0  0  0  0  0  # atno 7974 bound_to 7965
  155.9188  140.1070  157.1223 H   0  0  0  0  0  0  0  0  0  0  0  0  # atno 8008 bound_to 7997
  154.4051  140.1260  156.4717 H   0  0  0  0  0  0  0  0  0  0  0  0  # atno 8009 bound_to 7997
  155.7222  140.3469  155.5023 H   0  0  0  0  0  0  0  0  0  0  0  0  # atno 8010 bound_to 7997
  140.4812  143.2402  151.8055 H   0  0  0  0  0  0  0  0  0  0  0  0  # atno 10167 bound_to 10162
  156.7959  130.9535  151.3119 H   0  0  0  0  0  0  0  0  0  0  0  0  # atno 10718 bound_to 10713
  153.6653  135.3339  155.3138 H   0  0  0  0  0  0  0  0  0  0  0  0  # atno 10763 bound_to 10752
  154.8504  135.4373  154.1761 H   0  0  0  0  0  0  0  0  0  0  0  0  # atno 10764 bound_to 10752
  153.2738  135.7003  153.7529 H   0  0  0  0  0  0  0  0  0  0  0  0  # atno 10765 bound_to 10752
  140.6039  134.4919  157.5208 H   0  0  0  0  0  0  0  0  0  0  0  0  # atno 11005 bound_to 11000
  145.3125  139.1814  143.4631 LP  0  0  0  0  0  0  0  0  0  0  0  0  # atno 17320 bound_to 7965
  146.3251  140.3131  142.8628 LP  0  0  0  0  0  0  0  0  0  0  0  0  # atno 17321 bound_to 7965
  139.4834  144.4770  151.9354 LP  0  0  0  0  0  0  0  0  0  0  0  0  # atno 17342 bound_to 10162
  140.3855  144.2681  150.5904 LP  0  0  0  0  0  0  0  0  0  0  0  0  # atno 17343 bound_to 10162
  157.6578  130.8939  149.9765 LP  0  0  0  0  0  0  0  0  0  0  0  0  # atno 17370 bound_to 10713
  156.1131  130.3649  150.0015 LP  0  0  0  0  0  0  0  0  0  0  0  0  # atno 17371 bound_to 10713
  139.9221  134.8129  156.1180 LP  0  0  0  0  0  0  0  0  0  0  0  0  # atno 17394 bound_to 11000
  141.0854  133.6736  156.2425 LP  0  0  0  0  0  0  0  0  0  0  0  0  # atno 17395 bound_to 11000

$$$$
