AV-unprocessed.smi:623|AV-procd|sdf|3094|dock6
  -GOLD-   22720 0 13D 1   1.00000     0.00000
 Structure written by MMmdl.
 45 47  0  0  0  0  0  0  0  0  1 V2000
  151.6321  138.3025  157.0158 C   0  0  0  0  0  0  0  0  0  0  0  0
  150.3999  138.8334  156.2299 C   0  0  0  0  0  0  0  0  0  0  0  0
  149.7605  139.9146  157.1454 C   0  0  0  0  0  0  0  0  0  0  0  0
  150.7289  139.3187  154.8041 C   0  0  1  0  0  0  0  0  0  0  0  0
  151.2080  138.0383  154.0822 C   0  0  0  0  0  0  0  0  0  0  0  0
  150.3332  136.9433  154.7242 C   0  0  0  0  0  0  0  0  0  0  0  0
  149.4225  137.7555  155.6864 C   0  0  1  0  0  0  0  0  0  0  0  0
  148.7395  136.8781  156.7500 C   0  0  0  0  0  0  0  0  0  0  0  0
  148.4236  138.5965  154.8257 C   0  0  2  0  0  0  0  0  0  0  0  0
  147.7506  137.8365  153.7739 N   0  0  0  0  0  0  0  0  0  0  0  0
  146.4547  137.9379  153.4439 C   0  0  0  0  0  0  0  0  0  0  0  0
  145.6810  138.7453  153.9580 O   0  0  0  0  0  0  0  0  0  0  0  0
  145.9530  136.9605  152.3778 C   0  0  0  0  0  0  0  0  0  0  0  0
  144.6366  136.4192  152.7414 N   0  0  0  0  0  0  0  0  0  0  0  0
  143.4841  137.1243  152.4238 C   0  0  0  0  0  0  0  0  0  0  0  0
  142.2360  136.6806  152.7039 C   0  0  0  0  0  0  0  0  0  0  0  0
  142.0411  135.3997  153.3741 C   0  0  0  0  0  0  0  0  0  0  0  0
  140.9525  134.9136  153.6724 O   0  0  0  0  0  0  0  0  0  0  0  0
  143.2234  134.7187  153.6746 N   0  0  0  0  0  0  0  0  0  0  0  0
  144.5128  135.1692  153.3866 C   0  0  0  0  0  0  0  0  0  0  0  0
  145.4880  134.4842  153.6919 O   0  0  0  0  0  0  0  0  0  0  0  0
  149.3468  139.6762  154.2160 C   0  0  0  0  0  0  0  0  0  0  0  0
  143.1381  133.8251  154.1368 H   0  0  0  0  0  0  0  0  0  0  0  0
  152.3201  139.1177  157.2421 H   0  0  0  0  0  0  0  0  0  0  0  0
  152.2182  137.5445  156.5015 H   0  0  0  0  0  0  0  0  0  0  0  0
  151.3280  137.8684  157.9685 H   0  0  0  0  0  0  0  0  0  0  0  0
  148.8686  140.3924  156.7465 H   0  0  0  0  0  0  0  0  0  0  0  0
  150.4725  140.7149  157.3492 H   0  0  0  0  0  0  0  0  0  0  0  0
  149.4763  139.4871  158.1074 H   0  0  0  0  0  0  0  0  0  0  0  0
  151.4453  140.1389  154.7501 H   0  0  0  0  0  0  0  0  0  0  0  0
  151.0665  138.0952  153.0024 H   0  0  0  0  0  0  0  0  0  0  0  0
  152.2676  137.8497  154.2561 H   0  0  0  0  0  0  0  0  0  0  0  0
  149.7885  136.3587  153.9833 H   0  0  0  0  0  0  0  0  0  0  0  0
  150.9474  136.2262  155.2689 H   0  0  0  0  0  0  0  0  0  0  0  0
  148.1169  136.1129  156.2864 H   0  0  0  0  0  0  0  0  0  0  0  0
  148.1004  137.4715  157.4041 H   0  0  0  0  0  0  0  0  0  0  0  0
  149.4711  136.3661  157.3748 H   0  0  0  0  0  0  0  0  0  0  0  0
  147.6710  139.0733  155.4556 H   0  0  0  0  0  0  0  0  0  0  0  0
  148.3062  137.1451  153.2920 H   0  0  0  0  0  0  0  0  0  0  0  0
  145.9168  137.4630  151.4092 H   0  0  0  0  0  0  0  0  0  0  0  0
  146.6768  136.1534  152.2521 H   0  0  0  0  0  0  0  0  0  0  0  0
  143.5805  138.0763  151.9211 H   0  0  0  0  0  0  0  0  0  0  0  0
  141.3771  137.2759  152.4295 H   0  0  0  0  0  0  0  0  0  0  0  0
  149.0336  140.6763  154.5168 H   0  0  0  0  0  0  0  0  0  0  0  0
  149.3547  139.6683  153.1250 H   0  0  0  0  0  0  0  0  0  0  0  0
  1  2  1  0  0  0  0
  1 24  1  0  0  0  0
  1 25  1  0  0  0  0
  1 26  1  0  0  0  0
  2  7  1  0  0  0  0
  2  3  1  0  0  0  0
  2  4  1  0  0  0  0
  3 27  1  0  0  0  0
  3 28  1  0  0  0  0
  3 29  1  0  0  0  0
  4 22  1  0  0  0  0
  4  5  1  0  0  0  0
  4 30  1  0  0  0  0
  5  6  1  0  0  0  0
  5 31  1  0  0  0  0
  5 32  1  0  0  0  0
  6  7  1  0  0  0  0
  6 33  1  0  0  0  0
  6 34  1  0  0  0  0
  7  8  1  0  0  0  0
  7  9  1  0  0  0  0
  8 35  1  0  0  0  0
  8 36  1  0  0  0  0
  8 37  1  0  0  0  0
  9 10  1  0  0  0  0
  9 22  1  0  0  0  0
  9 38  1  0  0  0  0
 10 11  1  0  0  0  0
 10 39  1  0  0  0  0
 11 12  2  0  0  0  0
 11 13  1  0  0  0  0
 13 14  1  0  0  0  0
 13 40  1  0  0  0  0
 13 41  1  0  0  0  0
 14 20  1  0  0  0  0
 14 15  1  0  0  0  0
 15 16  2  0  0  0  0
 15 42  1  0  0  0  0
 16 17  1  0  0  0  0
 16 43  1  0  0  0  0
 17 18  2  0  0  0  0
 17 19  1  0  0  0  0
 19 23  1  0  0  0  0
 19 20  1  0  0  0  0
 20 21  2  0  0  0  0
 22 44  1  0  0  0  0
 22 45  1  0  0  0  0
M  END
> <s_m_source_file>
AV-unprocessed.smi

> <i_m_source_file_index>
623

> <i_lp_mmshare_version>
43012

> <i_f3d_flags>
0

> <s_epik_input>
W0NIM11bQ0BdMTJDKFtDSDNdKShbQ0gzXSlbQ0BIXShbQ0gyXVtDSDJdMSlbQ0gyXVtDQEBIXTJbTkhdQyg9TylbQ0gyXW4zW2NIXVtjSF1jKD1PKVtuSF1jMz1P

> <s_epik_cmdline>
J2VwaWtfcHl0aG9uJywgJy1waCcsICc3LjAnLCAnLXRuJywgJzgnLCAnLW1hJywgJzIwMCcsICctbWV0YWxfYmluZGluZycsICctaW1hZScsICc8aW5maWxlLm1hZT4nLCAnLW9tYWUnLCAnPG91dGZpbGUubWFlPic=

> <r_lp_tautomer_probability>
0.999537

> <r_epik_Ionization_Penalty>
0.00303563

> <r_epik_Ionization_Penalty_Charging>
0.00303561

> <r_epik_Ionization_Penalty_Neutral>
2.03238e-08

> <r_epik_State_Penalty>
0.00213308

> <r_epik_Charging_Adjusted_Penalty>
0.00516869

> <i_epik_Tot_Q>
0

> <i_epik_Tot_abs_Q>
0

> <r_epik_Metal_State_Penalty>
0.361714

> <b_epik_Metal_Only>
0

> <s_lp_Force_Field>
OPLS_2005

> <r_lp_Energy>
57.3757

> <b_lp_Chiralities_Consistent>
1

> <s_lp_Variant>
AV-unprocessed.smi:623-4

> <Gold.Version>
5.8.1

> <Gold.Id.Protein>
6NUR|6NUR_protein|mol2

> <Gold.PLP.Fitness>
40.0719

> <Gold.PLP.PLP>
-26.6317

> <Gold.PLP.part.hbond>
-3.6837

> <Gold.PLP.part.metal>
0.0000

> <Gold.PLP.part.buried>
-4.5120

> <Gold.PLP.part.nonpolar>
-17.8854

> <Gold.PLP.part.repulsive>
0.4128

> <Gold.PLP.ligand.clash>
0.0000

> <Gold.PLP.ligand.torsion>
0.7881

> <Gold.PLP.Chemscore.Hbond>
3.0000

> <Gold.PLP.Chemscore.CHOScore>
2.0000

> <Gold.PLP.Chemscore.Metal>
0.0000

> <Gold.Chemscore.Hbonds>
donor molecule, donor type, donor heavy atom, donor atom, acceptor molecule, acceptor atom, score
      L1  H    10    39       P1  7948  1.00
      L1  H    19    23       P1 10957  0.55
      P1  H 11000 11005       L1    18  0.54
      L1  C    15    42       P1 10171  1.00
      L1  C    15    42       P1 10175  1.00

> <Gold.PLP.Chemscore.Internal.Correction>
0.0164

> <Gold.Rescore>
     Score         DG    S(hbond)    S(metal)    S(lipo)     H(rot)  DE(clash)    DE(int)     intcor
     17.22     -18.17       3.00        0.00      59.32       1.66       0.07       0.88       ----

> <Gold.Chemscore.Fitness>
17.2192

> <Gold.Chemscore.DG>
-18.1681

> <Gold.Chemscore.ZeroCoef>
-5.4800

> <Gold.Chemscore.Hbond>
2.9969

> <Gold.Chemscore.Metal>
0.0000

> <Gold.Chemscore.Lipo>
59.3183

> <Gold.Chemscore.Internal_Hbond>
0.0000

> <Gold.Chemscore.DEClash>
0.0677

> <Gold.Chemscore.DEInternal>
0.8811

> <Gold.Chemscore.Rot>
1.6647

> <Gold.Chemscore.Internal.Correction>
   9.000000E+99

> <Gold.Chemscore.Hbonds>
donor molecule, donor type, donor heavy atom, donor atom, acceptor molecule, acceptor atom, score
      L1  H    10    39       P1  7948  0.99
      L1  H    19    23       P1 10957  0.56
      P1  H 11000 11005       L1    18  0.52

> <Gold.Chemscore.Hbond.Weighted>
-10.0095

> <Gold.Chemscore.Metal.Weighted>
-0.0000

> <Gold.Chemscore.Lipo.Weighted>
-6.9402

> <Gold.Chemscore.Internal_Hbond.Weighted>
0.0000

> <Gold.Chemscore.DEClash.Weighted>
0.0677

> <Gold.Chemscore.DEInternal.Weighted>
0.8811

> <Gold.Chemscore.Rot.Weighted>
4.2617

> <Gold.Chemscore.Internal.Correction.Weighted>
   9.000000E+99

> <Gold.Protein.RotatedTorsions>
[ 6907 6896 6895 6894 ] final   78.80 input  -60.11 | X-H torsion
[ 7974 7965 7964 7962 ] final  166.34 input  175.53 | X-H torsion
[ 8008 7997 7996 7995 ] final  -72.13 input   59.86 | X-H torsion
[ 10167 10162 10161 10158 ] final -166.32 input  -65.29 | X-H torsion
[ 10718 10713 10712 10709 ] final  -56.20 input   66.30 | X-H torsion
[ 10763 10752 10751 10750 ] final   64.29 input  -60.55 | X-H torsion
[ 11005 11000 10999 10996 ] final   20.90 input  -57.11 | X-H torsion

> <Gold.Protein.ActiveResidues>
 VAL166  LYS551  ARG553  GLY616  TRP617  ASP618  TYR619  PRO620  LYS621  CYS622 
 ASP623  PHE694  ASN695  SER759  ASP760  ASP761  ALA762  ILE779  LEU786  VAL792 
 PHE793  MET794  SER795  GLU796  ALA797  LYS798  CYS799  TRP800  GLU811  SER814 

> <Gold.Protein.RotatedAtoms>
  152.5174  134.3608  159.9283 H   0  0  0  0  0  0  0  0  0  0  0  0  # atno 6907 bound_to 6896
  151.3560  133.3901  159.2692 H   0  0  0  0  0  0  0  0  0  0  0  0  # atno 6908 bound_to 6896
  150.9689  134.9084  159.7834 H   0  0  0  0  0  0  0  0  0  0  0  0  # atno 6909 bound_to 6896
  144.7466  139.8601  143.6380 H   0  0  0  0  0  0  0  0  0  0  0  0  # atno 7974 bound_to 7965
  154.5142  140.0803  156.8049 H   0  0  0  0  0  0  0  0  0  0  0  0  # atno 8008 bound_to 7997
  155.3717  140.3423  155.4225 H   0  0  0  0  0  0  0  0  0  0  0  0  # atno 8009 bound_to 7997
  156.1608  140.1588  156.8602 H   0  0  0  0  0  0  0  0  0  0  0  0  # atno 8010 bound_to 7997
  139.6122  144.0791  152.1853 H   0  0  0  0  0  0  0  0  0  0  0  0  # atno 10167 bound_to 10162
  156.1307  130.4159  150.0273 H   0  0  0  0  0  0  0  0  0  0  0  0  # atno 10718 bound_to 10713
  153.0050  135.5398  154.6486 H   0  0  0  0  0  0  0  0  0  0  0  0  # atno 10763 bound_to 10752
  154.5724  135.2843  155.0816 H   0  0  0  0  0  0  0  0  0  0  0  0  # atno 10764 bound_to 10752
  154.1977  135.6489  153.5130 H   0  0  0  0  0  0  0  0  0  0  0  0  # atno 10765 bound_to 10752
  140.3975  134.1753  155.7663 H   0  0  0  0  0  0  0  0  0  0  0  0  # atno 11005 bound_to 11000
  146.1354  139.4399  143.0142 LP  0  0  0  0  0  0  0  0  0  0  0  0  # atno 17320 bound_to 7965
  145.7099  141.0109  143.1459 LP  0  0  0  0  0  0  0  0  0  0  0  0  # atno 17321 bound_to 7965
  140.0412  144.6006  150.7409 LP  0  0  0  0  0  0  0  0  0  0  0  0  # atno 17342 bound_to 10162
  140.7327  143.2709  151.3893 LP  0  0  0  0  0  0  0  0  0  0  0  0  # atno 17343 bound_to 10162
  156.8186  130.9350  151.3642 LP  0  0  0  0  0  0  0  0  0  0  0  0  # atno 17370 bound_to 10713
  157.6485  130.8865  149.9587 LP  0  0  0  0  0  0  0  0  0  0  0  0  # atno 17371 bound_to 10713
  141.1869  133.8293  157.1053 LP  0  0  0  0  0  0  0  0  0  0  0  0  # atno 17394 bound_to 11000
  140.0361  134.9878  157.0873 LP  0  0  0  0  0  0  0  0  0  0  0  0  # atno 17395 bound_to 11000

$$$$
