AV-unprocessed.smi:102|AV-procd|sdf|945|dock5
  -GOLD-   2262017463D 1   1.00000     0.00000
 Structure written by MMmdl.
 44 45  0  0  0  0  0  0  0  0  1 V2000
  151.0472  141.5945  156.1906 C   0  0  0  0  0  0  0  0  0  0  0  0
  151.0685  140.1499  155.7081 C   0  0  0  0  0  0  0  0  0  0  0  0
  151.7208  139.8125  154.7201 O   0  0  0  0  0  0  0  0  0  0  0  0
  150.3157  139.3420  156.4690 O   0  0  0  0  0  0  0  0  0  0  0  0
  149.7796  138.1521  155.9112 C   0  0  0  0  0  0  0  0  0  0  0  0
  148.9537  137.3965  156.9599 C   0  0  2  0  0  0  0  0  0  0  0  0
  148.0639  138.2797  157.6287 O   0  0  0  0  0  0  0  0  0  0  0  0
  147.7326  137.7262  158.8594 C   0  0  1  0  0  0  0  0  0  0  0  0
  146.4468  136.9192  158.6850 N   0  0  0  0  0  0  0  0  0  0  0  0
  146.2469  136.0348  157.6283 C   0  0  0  0  0  0  0  0  0  0  0  0
  145.0823  135.3798  157.4127 C   0  0  0  0  0  0  0  0  0  0  0  0
  144.9778  134.5383  156.3701 F   0  0  0  0  0  0  0  0  0  0  0  0
  143.9340  135.5976  158.2844 C   0  0  0  0  0  0  0  0  0  0  0  0
  142.8426  135.0414  158.1803 O   0  0  0  0  0  0  0  0  0  0  0  0
  144.1511  136.5395  159.2921 N   0  0  0  0  0  0  0  0  0  0  0  0
  145.3435  137.2295  159.5167 C   0  0  0  0  0  0  0  0  0  0  0  0
  145.3950  138.0679  160.4157 O   0  0  0  0  0  0  0  0  0  0  0  0
  148.9746  136.9471  159.3488 C   0  0  1  0  0  0  0  0  0  0  0  0
  148.6621  135.7695  160.0897 O   0  0  0  0  0  0  0  0  0  0  0  0
  148.0512  135.8602  161.2824 C   0  0  0  0  0  0  0  0  0  0  0  0
  147.7129  134.4946  161.8643 C   0  0  0  0  0  0  0  0  0  0  0  0
  147.7649  136.9016  161.8727 O   0  0  0  0  0  0  0  0  0  0  0  0
  149.7775  136.7062  158.0622 C   0  0  1  0  0  0  0  0  0  0  0  0
  149.9370  135.3269  157.7449 O   0  0  0  0  0  0  0  0  0  0  0  0
  150.7094  134.9498  156.7108 C   0  0  0  0  0  0  0  0  0  0  0  0
  150.5113  133.4854  156.3445 C   0  0  0  0  0  0  0  0  0  0  0  0
  151.5080  135.6632  156.1038 O   0  0  0  0  0  0  0  0  0  0  0  0
  143.3744  136.7491  159.9022 H   0  0  0  0  0  0  0  0  0  0  0  0
  150.8542  141.6413  157.2628 H   0  0  0  0  0  0  0  0  0  0  0  0
  150.2668  142.1525  155.6729 H   0  0  0  0  0  0  0  0  0  0  0  0
  152.0056  142.0747  155.9922 H   0  0  0  0  0  0  0  0  0  0  0  0
  149.1566  138.3960  155.0497 H   0  0  0  0  0  0  0  0  0  0  0  0
  150.5923  137.5161  155.5573 H   0  0  0  0  0  0  0  0  0  0  0  0
  148.3389  136.6587  156.4432 H   0  0  0  0  0  0  0  0  0  0  0  0
  147.4980  138.5150  159.5750 H   0  0  0  0  0  0  0  0  0  0  0  0
  147.0394  135.8459  156.9242 H   0  0  0  0  0  0  0  0  0  0  0  0
  149.5623  137.6268  159.9681 H   0  0  0  0  0  0  0  0  0  0  0  0
  148.5862  133.8422  161.8375 H   0  0  0  0  0  0  0  0  0  0  0  0
  146.9124  134.0283  161.2898 H   0  0  0  0  0  0  0  0  0  0  0  0
  147.3855  134.5906  162.8999 H   0  0  0  0  0  0  0  0  0  0  0  0
  150.7491  137.1930  158.1571 H   0  0  0  0  0  0  0  0  0  0  0  0
  149.4539  133.2747  156.1816 H   0  0  0  0  0  0  0  0  0  0  0  0
  150.8737  132.8431  157.1475 H   0  0  0  0  0  0  0  0  0  0  0  0
  151.0566  133.2411  155.4325 H   0  0  0  0  0  0  0  0  0  0  0  0
  1  2  1  0  0  0  0
  1 29  1  0  0  0  0
  1 30  1  0  0  0  0
  1 31  1  0  0  0  0
  2  3  2  0  0  0  0
  2  4  1  0  0  0  0
  4  5  1  0  0  0  0
  5  6  1  0  0  0  0
  5 32  1  0  0  0  0
  5 33  1  0  0  0  0
  6 23  1  0  0  0  0
  6  7  1  0  0  0  0
  6 34  1  0  0  0  0
  7  8  1  0  0  0  0
  8  9  1  0  0  0  0
  8 18  1  0  0  0  0
  8 35  1  0  0  0  0
  9 16  1  0  0  0  0
  9 10  1  0  0  0  0
 10 11  2  0  0  0  0
 10 36  1  0  0  0  0
 11 12  1  0  0  0  0
 11 13  1  0  0  0  0
 13 14  2  0  0  0  0
 13 15  1  0  0  0  0
 15 28  1  0  0  0  0
 15 16  1  0  0  0  0
 16 17  2  0  0  0  0
 18 19  1  0  0  0  0
 18 23  1  0  0  0  0
 18 37  1  0  0  0  0
 19 20  1  0  0  0  0
 20 21  1  0  0  0  0
 20 22  2  0  0  0  0
 21 38  1  0  0  0  0
 21 39  1  0  0  0  0
 21 40  1  0  0  0  0
 23 24  1  0  0  0  0
 23 41  1  0  0  0  0
 24 25  1  0  0  0  0
 25 26  1  0  0  0  0
 25 27  2  0  0  0  0
 26 42  1  0  0  0  0
 26 43  1  0  0  0  0
 26 44  1  0  0  0  0
M  END
> <s_m_source_file>
AV-unprocessed.smi

> <i_m_source_file_index>
102

> <i_lp_mmshare_version>
43012

> <i_f3d_flags>
0

> <s_epik_input>
W0NIM11DKD1PKU9bQ0gyXVtDQEBIXTFPW0NASF0oW0NAQEhdKE9DKD1PKVtDSDNdKVtDQEhdMU9DKD1PKVtDSDNdKW4yW2NIXWMoRiljKD1PKVtuSF1jMj1P

> <s_epik_cmdline>
J2VwaWtfcHl0aG9uJywgJy1waCcsICc3LjAnLCAnLXRuJywgJzgnLCAnLW1hJywgJzIwMCcsICctbWV0YWxfYmluZGluZycsICctaW1hZScsICc8aW5maWxlLm1hZT4nLCAnLW9tYWUnLCAnPG91dGZpbGUubWFlPic=

> <r_lp_tautomer_probability>
0.999537

> <r_epik_Ionization_Penalty>
0.058267

> <r_epik_Ionization_Penalty_Charging>
0.058267

> <r_epik_Ionization_Penalty_Neutral>
6.57791e-16

> <r_epik_State_Penalty>
0.0503774

> <r_epik_Charging_Adjusted_Penalty>
0.108644

> <i_epik_Tot_Q>
0

> <i_epik_Tot_abs_Q>
0

> <r_epik_Metal_State_Penalty>
2.6644

> <b_epik_Metal_Only>
0

> <s_epik_Chemistry_Notes>
This compound has an ester and may undergo hydrolysis at high or low pH. This compound contains an acetal/aminal-like group ( X-CH(R)-Y where X, Y are N, S, or O) that may be acid/base labile, releasing an aldehyde.

> <s_lp_Force_Field>
OPLS_2005

> <r_lp_Energy>
14.9607

> <b_lp_Chiralities_Consistent>
1

> <s_lp_Variant>
AV-unprocessed.smi:102-1

> <Gold.Version>
5.8.1

> <Gold.Id.Protein>
6NUR|6NUR_protein|mol2

> <Gold.PLP.Fitness>
37.8376

> <Gold.PLP.PLP>
-26.4131

> <Gold.PLP.part.hbond>
-6.5864

> <Gold.PLP.part.metal>
0.0000

> <Gold.PLP.part.buried>
-4.6801

> <Gold.PLP.part.nonpolar>
-15.5339

> <Gold.PLP.part.repulsive>
0.1052

> <Gold.PLP.ligand.clash>
0.0000

> <Gold.PLP.ligand.torsion>
0.8254

> <Gold.PLP.Chemscore.Hbond>
4.2935

> <Gold.PLP.Chemscore.CHOScore>
0.0000

> <Gold.PLP.Chemscore.Metal>
0.0000

> <Gold.Chemscore.Hbonds>
donor molecule, donor type, donor heavy atom, donor atom, acceptor molecule, acceptor atom, score
      P1  H  6931  6943       L1    22  1.00
      P1  H  6934  6947       L1    17  0.74
      P1  H  7989  7998       L1     3  1.00
      P1  H 10752 10763       L1    27  1.00
      P1  H 11000 11005       L1    14  0.52

> <Gold.PLP.Chemscore.Internal.Correction>
0.1947

> <Gold.Rescore>
     Score         DG    S(hbond)    S(metal)    S(lipo)     H(rot)  DE(clash)    DE(int)     intcor
     12.14     -13.05       4.26        0.00      31.77       4.05       0.10       0.81       ----

> <Gold.Chemscore.Fitness>
12.1384

> <Gold.Chemscore.DG>
-13.0479

> <Gold.Chemscore.ZeroCoef>
-5.4800

> <Gold.Chemscore.Hbond>
4.2587

> <Gold.Chemscore.Metal>
0.0000

> <Gold.Chemscore.Lipo>
31.7689

> <Gold.Chemscore.Internal_Hbond>
0.0000

> <Gold.Chemscore.DEClash>
0.1000

> <Gold.Chemscore.DEInternal>
0.8094

> <Gold.Chemscore.Rot>
4.0520

> <Gold.Chemscore.Internal.Correction>
   9.000000E+99

> <Gold.Chemscore.Hbonds>
donor molecule, donor type, donor heavy atom, donor atom, acceptor molecule, acceptor atom, score
      P1  H  6931  6943       L1    22  0.95
      P1  H  6934  6947       L1    17  0.69
      P1  H  7989  7998       L1     3  0.85
      P1  H 10752 10763       L1    27  0.99
      P1  H 11000 11005       L1    14  0.52

> <Gold.Chemscore.Hbond.Weighted>
-14.2241

> <Gold.Chemscore.Metal.Weighted>
-0.0000

> <Gold.Chemscore.Lipo.Weighted>
-3.7170

> <Gold.Chemscore.Internal_Hbond.Weighted>
0.0000

> <Gold.Chemscore.DEClash.Weighted>
0.1000

> <Gold.Chemscore.DEInternal.Weighted>
0.8094

> <Gold.Chemscore.Rot.Weighted>
10.3732

> <Gold.Chemscore.Internal.Correction.Weighted>
   9.000000E+99

> <Gold.Protein.RotatedTorsions>
[ 6907 6896 6895 6894 ] final   98.00 input  -60.11 | X-H torsion
[ 7974 7965 7964 7962 ] final   37.88 input  175.53 | X-H torsion
[ 8008 7997 7996 7995 ] final   -8.06 input   59.86 | X-H torsion
[ 10167 10162 10161 10158 ] final -127.26 input  -65.29 | X-H torsion
[ 10718 10713 10712 10709 ] final   -3.16 input   66.30 | X-H torsion
[ 10763 10752 10751 10750 ] final   81.98 input  -60.55 | X-H torsion
[ 11005 11000 10999 10996 ] final -138.59 input  -57.11 | X-H torsion

> <Gold.Protein.ActiveResidues>
 VAL166  LYS551  ARG553  GLY616  TRP617  ASP618  TYR619  PRO620  LYS621  CYS622 
 ASP623  PHE694  ASN695  SER759  ASP760  ASP761  ALA762  ILE779  LEU786  VAL792 
 PHE793  MET794  SER795  GLU796  ALA797  LYS798  CYS799  TRP800  GLU811  SER814 

> <Gold.Protein.RotatedAtoms>
  152.5416  134.0648  159.8167 H   0  0  0  0  0  0  0  0  0  0  0  0  # atno 6907 bound_to 6896
  151.0770  133.5412  159.2630 H   0  0  0  0  0  0  0  0  0  0  0  0  # atno 6908 bound_to 6896
  151.2254  135.0543  159.9020 H   0  0  0  0  0  0  0  0  0  0  0  0  # atno 6909 bound_to 6896
  146.1104  139.5840  142.9356 H   0  0  0  0  0  0  0  0  0  0  0  0  # atno 7974 bound_to 7965
  154.5778  140.2391  155.8098 H   0  0  0  0  0  0  0  0  0  0  0  0  # atno 8008 bound_to 7997
  156.2156  140.3013  155.9788 H   0  0  0  0  0  0  0  0  0  0  0  0  # atno 8009 bound_to 7997
  155.2596  140.0414  157.2986 H   0  0  0  0  0  0  0  0  0  0  0  0  # atno 8010 bound_to 7997
  139.9628  143.5931  152.2439 H   0  0  0  0  0  0  0  0  0  0  0  0  # atno 10167 bound_to 10162
  156.7801  130.5328  149.5752 H   0  0  0  0  0  0  0  0  0  0  0  0  # atno 10718 bound_to 10713
  153.1163  135.4745  154.9120 H   0  0  0  0  0  0  0  0  0  0  0  0  # atno 10763 bound_to 10752
  154.7531  135.3111  154.8522 H   0  0  0  0  0  0  0  0  0  0  0  0  # atno 10764 bound_to 10752
  153.9098  135.6866  153.4805 H   0  0  0  0  0  0  0  0  0  0  0  0  # atno 10765 bound_to 10752
  140.8601  134.2179  157.4712 H   0  0  0  0  0  0  0  0  0  0  0  0  # atno 11005 bound_to 11000
  145.5675  141.0398  143.2192 LP  0  0  0  0  0  0  0  0  0  0  0  0  # atno 17320 bound_to 7965
  144.7507  139.7202  143.7274 LP  0  0  0  0  0  0  0  0  0  0  0  0  # atno 17321 bound_to 7965
  139.6541  144.7661  151.2090 LP  0  0  0  0  0  0  0  0  0  0  0  0  # atno 17342 bound_to 10162
  140.7548  143.6114  150.8602 LP  0  0  0  0  0  0  0  0  0  0  0  0  # atno 17343 bound_to 10162
  156.1223  130.6119  151.0212 LP  0  0  0  0  0  0  0  0  0  0  0  0  # atno 17370 bound_to 10713
  157.6650  131.0873  150.7749 LP  0  0  0  0  0  0  0  0  0  0  0  0  # atno 17371 bound_to 10713
  139.8706  134.9725  156.4777 LP  0  0  0  0  0  0  0  0  0  0  0  0  # atno 17394 bound_to 11000
  140.8692  133.8001  155.9346 LP  0  0  0  0  0  0  0  0  0  0  0  0  # atno 17395 bound_to 11000

$$$$
