AV-unprocessed.smi:1327|AV-procd|sdf|5478|dock9
  -GOLD-   22720 5 53D 1   1.00000     0.00000
 Structure written by MMmdl.
 39 40  0  0  0  0  0  0  0  0  2 V2000
  152.9515  139.4849  156.0955 O   0  0  0  0  0  0  0  0  0  0  0  0
  151.4933  139.6634  156.1848 S   0  0  0  0  0  0  0  0  0  0  0  0
  150.7871  140.1279  154.9788 O   0  0  0  0  0  0  0  0  0  0  0  0
  150.7577  138.4338  156.9470 N   0  5  0  0  0  0  0  0  0  0  0  0
  150.1741  137.3530  156.1690 C   0  0  0  0  0  0  0  0  0  0  0  0
  150.6929  135.9760  156.6522 C   0  0  0  0  0  0  0  0  0  0  0  0
  150.2875  134.7773  155.7975 C   0  0  0  0  0  0  0  0  0  0  0  0
  150.7716  133.4812  156.0895 C   0  0  0  0  0  0  0  0  0  0  0  0
  150.3812  132.4131  155.2593 C   0  0  0  0  0  0  0  0  0  0  0  0
  149.5175  132.6733  154.1782 C   0  0  0  0  0  0  0  0  0  0  0  0
  149.0784  133.9963  153.9763 C   0  0  0  0  0  0  0  0  0  0  0  0
  149.4443  135.0271  154.7665 N   0  0  0  0  0  0  0  0  0  0  0  0
  151.2198  140.8695  157.4105 N   0  0  0  0  0  0  0  0  0  0  0  0
  151.0404  142.2667  156.9544 C   0  0  0  0  0  0  0  0  0  0  0  0
  150.9026  143.3222  158.0696 C   0  0  0  0  0  0  0  0  0  0  0  0
  152.2454  143.7573  158.6771 C   0  0  0  0  0  0  0  0  0  0  0  0
  152.8266  142.7536  159.6783 C   0  0  0  0  0  0  0  0  0  0  0  0
  153.0431  141.3530  159.0921 C   0  0  0  0  0  0  0  0  0  0  0  0
  151.7262  140.6196  158.7785 C   0  0  0  0  0  0  0  0  0  0  0  0
  149.0838  137.3577  156.2047 H   0  0  0  0  0  0  0  0  0  0  0  0
  150.4268  137.4610  155.1141 H   0  0  0  0  0  0  0  0  0  0  0  0
  151.7821  136.0045  156.6934 H   0  0  0  0  0  0  0  0  0  0  0  0
  150.3661  135.8052  157.6793 H   0  0  0  0  0  0  0  0  0  0  0  0
  151.4397  133.3143  156.9215 H   0  0  0  0  0  0  0  0  0  0  0  0
  150.7405  131.4123  155.4467 H   0  0  0  0  0  0  0  0  0  0  0  0
  149.2002  131.8793  153.5191 H   0  0  0  0  0  0  0  0  0  0  0  0
  148.4159  134.2343  153.1575 H   0  0  0  0  0  0  0  0  0  0  0  0
  151.8637  142.5361  156.2917 H   0  0  0  0  0  0  0  0  0  0  0  0
  150.1415  142.2969  156.3386 H   0  0  0  0  0  0  0  0  0  0  0  0
  150.4520  144.2075  157.6201 H   0  0  0  0  0  0  0  0  0  0  0  0
  150.2002  143.0024  158.8399 H   0  0  0  0  0  0  0  0  0  0  0  0
  152.9676  143.9520  157.8830 H   0  0  0  0  0  0  0  0  0  0  0  0
  152.1055  144.7085  159.1919 H   0  0  0  0  0  0  0  0  0  0  0  0
  153.7809  143.1363  160.0411 H   0  0  0  0  0  0  0  0  0  0  0  0
  152.1784  142.6890  160.5528 H   0  0  0  0  0  0  0  0  0  0  0  0
  153.6934  141.3941  158.2184 H   0  0  0  0  0  0  0  0  0  0  0  0
  153.5862  140.7658  159.8330 H   0  0  0  0  0  0  0  0  0  0  0  0
  150.9550  140.8753  159.5051 H   0  0  0  0  0  0  0  0  0  0  0  0
  151.8877  139.5507  158.9065 H   0  0  0  0  0  0  0  0  0  0  0  0
  1  2  2  0  0  0  0
  2  3  2  0  0  0  0
  2  4  1  0  0  0  0
  2 13  1  0  0  0  0
  4  5  1  0  0  0  0
  5  6  1  0  0  0  0
  5 20  1  0  0  0  0
  5 21  1  0  0  0  0
  6  7  1  0  0  0  0
  6 22  1  0  0  0  0
  6 23  1  0  0  0  0
  7 12  1  0  0  0  0
  7  8  2  0  0  0  0
  8  9  1  0  0  0  0
  8 24  1  0  0  0  0
  9 10  2  0  0  0  0
  9 25  1  0  0  0  0
 10 11  1  0  0  0  0
 10 26  1  0  0  0  0
 11 12  2  0  0  0  0
 11 27  1  0  0  0  0
 13 19  1  0  0  0  0
 13 14  1  0  0  0  0
 14 15  1  0  0  0  0
 14 28  1  0  0  0  0
 14 29  1  0  0  0  0
 15 16  1  0  0  0  0
 15 30  1  0  0  0  0
 15 31  1  0  0  0  0
 16 17  1  0  0  0  0
 16 32  1  0  0  0  0
 16 33  1  0  0  0  0
 17 18  1  0  0  0  0
 17 34  1  0  0  0  0
 17 35  1  0  0  0  0
 18 19  1  0  0  0  0
 18 36  1  0  0  0  0
 18 37  1  0  0  0  0
 19 38  1  0  0  0  0
 19 39  1  0  0  0  0
M  CHG  1   4  -1
M  END
> <s_m_source_file>
AV-unprocessed.smi

> <i_m_source_file_index>
1327

> <i_lp_mmshare_version>
43012

> <i_f3d_flags>
0

> <s_epik_input>
W0NIMl0xW0NIMl1bQ0gyXVtDSDJdW0NIMl1bQ0gyXU4xUyg9TykoPU8pW05IXVtDSDJdW0NIMl1jMltjSF1bY0hdW2NIXVtjSF1uMg==

> <s_epik_cmdline>
J2VwaWtfcHl0aG9uJywgJy1waCcsICc3LjAnLCAnLXRuJywgJzgnLCAnLW1hJywgJzIwMCcsICctbWV0YWxfYmluZGluZycsICctaW1hZScsICc8aW5maWxlLm1hZT4nLCAnLW9tYWUnLCAnPG91dGZpbGUubWFlPic=

> <r_lp_tautomer_probability>
1

> <r_epik_Ionization_Penalty>
3.18796

> <r_epik_Ionization_Penalty_Charging>
3.10426

> <r_epik_Ionization_Penalty_Neutral>
0.0836926

> <r_epik_State_Penalty>
3.10111

> <r_epik_Charging_Adjusted_Penalty>
6.20538

> <i_epik_Tot_Q>
-1

> <i_epik_Tot_abs_Q>
1

> <r_epik_Metal_State_Penalty>
0.463976

> <b_epik_Metal_Only>
1

> <s_lp_Force_Field>
OPLS_2005

> <r_lp_Energy>
9.11233

> <b_lp_Chiralities_Consistent>
1

> <s_lp_Variant>
AV-unprocessed.smi:1327-2

> <Gold.Version>
5.8.1

> <Gold.Id.Protein>
6NUR|6NUR_protein|mol2

> <Gold.PLP.Fitness>
43.6852

> <Gold.PLP.PLP>
-35.9173

> <Gold.PLP.part.hbond>
-2.0000

> <Gold.PLP.part.metal>
0.0000

> <Gold.PLP.part.buried>
-4.8800

> <Gold.PLP.part.nonpolar>
-29.7702

> <Gold.PLP.part.repulsive>
0.2023

> <Gold.PLP.ligand.clash>
0.0000

> <Gold.PLP.ligand.torsion>
1.7860

> <Gold.PLP.Chemscore.Hbond>
2.0000

> <Gold.PLP.Chemscore.CHOScore>
0.7505

> <Gold.PLP.Chemscore.Metal>
0.0000

> <Gold.Chemscore.Hbonds>
donor molecule, donor type, donor heavy atom, donor atom, acceptor molecule, acceptor atom, score
      P1  H  7989  7998       L1     3  1.00
      P1  H  7997  8009       L1     1  1.00
      L1  C    11    27       P1  7948  0.73

> <Gold.PLP.Chemscore.Internal.Correction>
3.0882

> <Gold.Rescore>
     Score         DG    S(hbond)    S(metal)    S(lipo)     H(rot)  DE(clash)    DE(int)     intcor
     17.85     -19.61       1.96        0.00      92.62       1.27       0.00       1.76       ----

> <Gold.Chemscore.Fitness>
17.8485

> <Gold.Chemscore.DG>
-19.6145

> <Gold.Chemscore.ZeroCoef>
-5.4800

> <Gold.Chemscore.Hbond>
1.9638

> <Gold.Chemscore.Metal>
0.0000

> <Gold.Chemscore.Lipo>
92.6188

> <Gold.Chemscore.Internal_Hbond>
0.0000

> <Gold.Chemscore.DEClash>
0.0021

> <Gold.Chemscore.DEInternal>
1.7638

> <Gold.Chemscore.Rot>
1.2738

> <Gold.Chemscore.Internal.Correction>
   9.000000E+99

> <Gold.Chemscore.Hbonds>
donor molecule, donor type, donor heavy atom, donor atom, acceptor molecule, acceptor atom, score
      P1  H  7989  7998       L1     3  0.99
      P1  H  7997  8009       L1     1  0.94

> <Gold.Chemscore.Hbond.Weighted>
-6.5591

> <Gold.Chemscore.Metal.Weighted>
-0.0000

> <Gold.Chemscore.Lipo.Weighted>
-10.8364

> <Gold.Chemscore.Internal_Hbond.Weighted>
0.0000

> <Gold.Chemscore.DEClash.Weighted>
0.0021

> <Gold.Chemscore.DEInternal.Weighted>
1.7638

> <Gold.Chemscore.Rot.Weighted>
3.2610

> <Gold.Chemscore.Internal.Correction.Weighted>
   9.000000E+99

> <Gold.Protein.RotatedTorsions>
[ 6907 6896 6895 6894 ] final  160.60 input  -60.11 | X-H torsion
[ 7974 7965 7964 7962 ] final -159.24 input  175.53 | X-H torsion
[ 8008 7997 7996 7995 ] final -156.82 input   59.86 | X-H torsion
[ 10167 10162 10161 10158 ] final  -26.24 input  -65.29 | X-H torsion
[ 10718 10713 10712 10709 ] final  -53.77 input   66.30 | X-H torsion
[ 10763 10752 10751 10750 ] final  -88.13 input  -60.55 | X-H torsion
[ 11005 11000 10999 10996 ] final -133.95 input  -57.11 | X-H torsion

> <Gold.Protein.ActiveResidues>
 VAL166  LYS551  ARG553  GLY616  TRP617  ASP618  TYR619  PRO620  LYS621  CYS622 
 ASP623  PHE694  ASN695  SER759  ASP760  ASP761  ALA762  ILE779  LEU786  VAL792 
 PHE793  MET794  SER795  GLU796  ALA797  LYS798  CYS799  TRP800  GLU811  SER814 

> <Gold.Protein.RotatedAtoms>
  151.9682  133.3717  159.4060 H   0  0  0  0  0  0  0  0  0  0  0  0  # atno 6907 bound_to 6896
  150.6953  134.4168  159.5196 H   0  0  0  0  0  0  0  0  0  0  0  0  # atno 6908 bound_to 6896
  152.1868  134.8707  160.0572 H   0  0  0  0  0  0  0  0  0  0  0  0  # atno 6909 bound_to 6896
  144.7473  140.3714  143.6075 H   0  0  0  0  0  0  0  0  0  0  0  0  # atno 7974 bound_to 7965
  155.7230  140.0792  157.2322 H   0  0  0  0  0  0  0  0  0  0  0  0  # atno 8008 bound_to 7997
  154.4042  140.1609  156.2477 H   0  0  0  0  0  0  0  0  0  0  0  0  # atno 8009 bound_to 7997
  155.9179  140.3399  155.6152 H   0  0  0  0  0  0  0  0  0  0  0  0  # atno 8010 bound_to 7997
  140.7283  143.4195  151.0974 H   0  0  0  0  0  0  0  0  0  0  0  0  # atno 10167 bound_to 10162
  156.1507  130.4151  149.9949 H   0  0  0  0  0  0  0  0  0  0  0  0  # atno 10718 bound_to 10713
  154.6412  135.5388  153.7792 H   0  0  0  0  0  0  0  0  0  0  0  0  # atno 10763 bound_to 10752
  153.0335  135.6459  154.1156 H   0  0  0  0  0  0  0  0  0  0  0  0  # atno 10764 bound_to 10752
  154.1081  135.2928  155.3217 H   0  0  0  0  0  0  0  0  0  0  0  0  # atno 10765 bound_to 10752
  140.9034  134.1661  157.4443 H   0  0  0  0  0  0  0  0  0  0  0  0  # atno 11005 bound_to 11000
  145.7074  139.1676  143.2558 LP  0  0  0  0  0  0  0  0  0  0  0  0  # atno 17320 bound_to 7965
  146.1372  140.7107  142.9384 LP  0  0  0  0  0  0  0  0  0  0  0  0  # atno 17321 bound_to 7965
  139.7839  143.8316  152.3142 LP  0  0  0  0  0  0  0  0  0  0  0  0  # atno 17342 bound_to 10162
  139.8276  144.7268  150.9491 LP  0  0  0  0  0  0  0  0  0  0  0  0  # atno 17343 bound_to 10162
  156.7808  130.9220  151.3646 LP  0  0  0  0  0  0  0  0  0  0  0  0  # atno 17370 bound_to 10713
  157.6654  130.9003  149.9921 LP  0  0  0  0  0  0  0  0  0  0  0  0  # atno 17371 bound_to 10713
  139.8745  134.9907  156.5516 LP  0  0  0  0  0  0  0  0  0  0  0  0  # atno 17394 bound_to 11000
  140.8201  133.8360  155.8888 LP  0  0  0  0  0  0  0  0  0  0  0  0  # atno 17395 bound_to 11000

$$$$
