#       Name:                AV-unprocessed.smi:1014
#       Creating user name   scv26
#       Creation time:       Fri Mar 27 02:38:42 2020


#       File generated by GOLD software.
#

@<TRIPOS>MOLECULE
AV-unprocessed.smi:1014
    37    37     1
SMALL
NO_CHARGES


@<TRIPOS>ATOM
      1 ****        -3.6364  -1.5821  -1.0960 C.3            1 S1                 0.0000
      2 ****        -2.1224  -1.6389  -0.8397 C.3            1 S1                 0.0000
      3 ****        -1.6734  -1.0167   0.5005 C.3            1 S1                 0.0000
      4 ****        -0.1955  -0.9303   0.5236 N.4            1 S1                 1.0000
      5 ****         0.3709   0.0093   1.5168 C.3            1 S1                 0.0000
      6 ****         1.8995   0.1113   1.3905 C.3            1 S1                 0.0000
      7 ****         2.3086   0.7488   0.1517 N.pl3          1 S1                 0.0000
      8 ****         2.6413   2.0695  -0.0630 C.2            1 S1                 0.0000
      9 ****         2.9539   2.2051  -1.3861 C.2            1 S1                 0.0000
     10 ****         3.3792   3.4385  -2.1295 C.3            1 S1                 0.0000
     11 ****         2.7807   0.8901  -1.9035 C.2            1 S1                 0.0000
     12 ****         2.3938   0.0221  -0.9828 N.2            1 S1                 0.0000
     13 ****        -2.1962  -1.8254   1.6990 C.2            1 S1                 0.0000
     14 ****        -3.3063  -1.3855   2.2972 N.am           1 S1                 0.0000
     15 ****        -1.6090  -2.8383   2.0749 O.2            1 S1                 0.0000
     16 ****        -3.8735  -1.9746  -2.0852 H              1 S1                 0.0000
     17 ****        -4.0047  -0.5570  -1.0505 H              1 S1                 0.0000
     18 ****        -4.1938  -2.1739  -0.3700 H              1 S1                 0.0000
     19 ****        -1.7836  -2.6742  -0.9041 H              1 S1                 0.0000
     20 ****        -1.6254  -1.1129  -1.6561 H              1 S1                 0.0000
     21 ****        -2.0683  -0.0003   0.5516 H              1 S1                 0.0000
     22 ****         0.1795  -1.8541   0.6875 H              1 S1                 0.0000
     23 ****        -0.0777   0.9957   1.3905 H              1 S1                 0.0000
     24 ****         0.1143  -0.3314   2.5203 H              1 S1                 0.0000
     25 ****         2.2983   0.6971   2.2197 H              1 S1                 0.0000
     26 ****         2.3619  -0.8750   1.4560 H              1 S1                 0.0000
     27 ****         2.6280   2.7976   0.7347 H              1 S1                 0.0000
     28 ****         4.0419   3.2001  -2.9617 H              1 S1                 0.0000
     29 ****         3.9141   4.1364  -1.4848 H              1 S1                 0.0000
     30 ****         2.5236   3.9731  -2.5423 H              1 S1                 0.0000
     31 ****         2.9231   0.5431  -2.9163 H              1 S1                 0.0000
     32 ****        -3.6847  -1.8780   3.0935 H              1 S1                 0.0000
     33 ****        -3.7625  -0.5521   1.9540 H              1 S1                 0.0000
     34 ****         0.1102  -0.6197  -0.3879 H              1 S1                 0.0000
     35 ****         2.2065  -0.9531  -1.1008 LP             1 S1                 0.0000
     36 ****        -0.7834  -3.1429   1.6000 LP             1 S1                 0.0000
     37 ****        -1.9571  -3.3574   2.8555 LP             1 S1                 0.0000
@<TRIPOS>BOND
    1    1    2 1     
    2    1   16 1     
    3    1   17 1     
    4    1   18 1     
    5    2    3 1     
    6    2   19 1     
    7    2   20 1     
    8    3    4 1     
    9    3   13 1     
   10    3   21 1     
   11    4    5 1     
   12    4   22 1     
   13    4   34 1     
   14    5    6 1     
   15    5   23 1     
   16    5   24 1     
   17    6    7 1     
   18    6   25 1     
   19    6   26 1     
   20    7   12 1     
   21    7    8 1     
   22    8    9 2     
   23    8   27 1     
   24    9   10 1     
   25    9   11 1     
   26   10   28 1     
   27   10   29 1     
   28   10   30 1     
   29   11   12 2     
   30   11   31 1     
   31   13   14 am    
   32   13   15 2     
   33   14   32 1     
   34   14   33 1     
   35   12   35 1     
   36   15   36 1     
   37   15   37 1     
@<TRIPOS>SUBSTRUCTURE
      1 S1             1
@<TRIPOS>SET
LONE_PAIRS      STATIC     ATOMS    <user>   **** ""
3 35 36 37
DONOR_HYDROGENS      STATIC     ATOMS    <user>   **** ""
4 22 34 32 33
ATOM$BLUE        STATIC     ATOMS    COLORGROUP SYSTEM
3 35 36 37
ATOM$RED        STATIC     ATOMS    COLORGROUP SYSTEM
4 22 34 32 33
