#       Name:                AV-unprocessed.smi:1367
#       Creating user name   scv26
#       Creation time:       Fri Mar 27 05:16:43 2020


#       File generated by GOLD software.
#

@<TRIPOS>MOLECULE
AV-unprocessed.smi:1367
    35    35     1
SMALL
NO_CHARGES


@<TRIPOS>ATOM
      1 ****        -4.9597  -0.7947  -0.6448 C.3            1 S1                 0.0000
      2 ****        -3.4487  -0.6965  -0.6555 C.2            1 S1                 0.0000
      3 ****        -2.7993   0.4065  -0.8340 N.2            1 S1                 0.0000
      4 ****        -1.3979   0.3730  -0.8213 C.2            1 S1                 0.0000
      5 ****        -0.7078   1.7092  -1.0353 C.3            1 S1                 0.0000
      6 ****        -0.7111  -0.7911  -0.6278 C.2            1 S1                 0.0000
      7 ****         0.8153  -0.8582  -0.6066 C.3            1 S1                 0.0000
      8 ****         1.4771  -0.4465   0.7109 C.2            1 S1                 0.0000
      9 ****         0.9716  -0.7677   1.7865 O.2            1 S1                 0.0000
     10 ****         2.6050   0.2710   0.6148 N.am           1 S1                 0.0000
     11 ****         3.3647   0.7662   1.7555 C.3            1 S1                 0.0000
     12 ****         4.5492   1.6304   1.2999 C.3            1 S1                 0.0000
     13 ****         5.2163   2.0645   2.3684 F              1 S1                 0.0000
     14 ****         5.3775   0.9155   0.5382 F              1 S1                 0.0000
     15 ****         4.1146   2.6841   0.6083 F              1 S1                 0.0000
     16 ****        -1.4630  -2.0448  -0.4249 C.2            1 S1                 0.0000
     17 ****        -0.9472  -3.1454  -0.2372 O.2            1 S1                 0.0000
     18 ****        -2.8087  -1.9179  -0.4522 N.am           1 S1                 0.0000
     19 ****        -3.3680  -2.7473  -0.3162 H              1 S1                 0.0000
     20 ****        -5.3709  -0.1666   0.1458 H              1 S1                 0.0000
     21 ****        -5.2956  -1.8189  -0.4767 H              1 S1                 0.0000
     22 ****        -5.3646  -0.4549  -1.5982 H              1 S1                 0.0000
     23 ****        -0.1122   1.6905  -1.9480 H              1 S1                 0.0000
     24 ****        -0.0523   1.9433  -0.1963 H              1 S1                 0.0000
     25 ****        -1.4323   2.5194  -1.1263 H              1 S1                 0.0000
     26 ****         1.1589  -1.8620  -0.8581 H              1 S1                 0.0000
     27 ****         1.1981  -0.2271  -1.4096 H              1 S1                 0.0000
     28 ****         2.9574   0.4957  -0.3048 H              1 S1                 0.0000
     29 ****         2.7081   1.3498   2.4030 H              1 S1                 0.0000
     30 ****         3.7247  -0.0800   2.3426 H              1 S1                 0.0000
     31 ****        -3.2871   1.2674  -0.9784 LP             1 S1                 0.0000
     32 ****         0.1251  -1.2998   1.8020 LP             1 S1                 0.0000
     33 ****         1.4075  -0.4965   2.6446 LP             1 S1                 0.0000
     34 ****         0.0487  -3.2335  -0.2144 LP             1 S1                 0.0000
     35 ****        -1.5236  -3.9521  -0.1074 LP             1 S1                 0.0000
@<TRIPOS>BOND
    1    1    2 1     
    2    1   20 1     
    3    1   21 1     
    4    1   22 1     
    5    2   18 1     
    6    2    3 2     
    7    3    4 1     
    8    4    5 1     
    9    4    6 2     
   10    5   23 1     
   11    5   24 1     
   12    5   25 1     
   13    6    7 1     
   14    6   16 1     
   15    7    8 1     
   16    7   26 1     
   17    7   27 1     
   18    8    9 2     
   19    8   10 am    
   20   10   11 1     
   21   10   28 1     
   22   11   12 1     
   23   11   29 1     
   24   11   30 1     
   25   12   13 1     
   26   12   14 1     
   27   12   15 1     
   28   16   17 2     
   29   16   18 am    
   30   18   19 1     
   31    3   31 1     
   32    9   32 1     
   33    9   33 1     
   34   17   34 1     
   35   17   35 1     
@<TRIPOS>SUBSTRUCTURE
      1 S1             1
@<TRIPOS>SET
LONE_PAIRS      STATIC     ATOMS    <user>   **** ""
5 31 32 33 34 35
DONOR_HYDROGENS      STATIC     ATOMS    <user>   **** ""
2 28 19
ATOM$BLUE        STATIC     ATOMS    COLORGROUP SYSTEM
5 31 32 33 34 35
ATOM$RED        STATIC     ATOMS    COLORGROUP SYSTEM
2 28 19
