AV-unprocessed.smi:2751|AV-procd|sdf|10604|dock9
  -GOLD-   2272015 53D 1   1.00000     0.00000
 Structure written by MMmdl.
 33 34  0  0  0  0  0  0  0  0  2 V2000
  150.7532  140.7329  155.2440 O   0  0  0  0  0  0  0  0  0  0  0  0
  149.9800  141.6847  155.3762 C   0  0  0  0  0  0  0  0  0  0  0  0
  150.2230  142.6190  156.3073 N   0  0  0  0  0  0  0  0  0  0  0  0
  151.3570  142.6362  157.2255 C   0  0  0  0  0  0  0  0  0  0  0  0
  151.3130  143.8598  158.1571 C   0  0  0  0  0  0  0  0  0  0  0  0
  152.2191  143.7061  159.3889 C   0  0  1  0  0  0  0  0  0  0  0  0
  151.6050  144.3622  160.6411 C   0  0  0  0  0  0  0  0  0  0  0  0
  152.4968  144.1279  161.8657 C   0  0  0  0  0  0  0  0  0  0  0  0
  152.7824  142.6301  162.0179 C   0  0  0  0  0  0  0  0  0  0  0  0
  153.3283  142.0543  160.7016 C   0  0  0  0  0  0  0  0  0  0  0  0
  152.4137  142.3154  159.6414 O   0  0  0  0  0  0  0  0  0  0  0  0
  148.8587  141.9121  154.6551 N   0  5  0  0  0  0  0  0  0  0  0  0
  148.2265  140.8868  154.0617 C   0  0  0  0  0  0  0  0  0  0  0  0
  147.1432  140.9672  153.2872 N   0  0  0  0  0  0  0  0  0  0  0  0
  146.8562  139.6673  152.9003 C   0  0  0  0  0  0  0  0  0  0  0  0
  147.7973  138.8460  153.4583 C   0  0  0  0  0  0  0  0  0  0  0  0
  148.6689  139.6038  154.1906 O   0  0  0  0  0  0  0  0  0  0  0  0
  149.5644  143.3802  156.3822 H   0  0  0  0  0  0  0  0  0  0  0  0
  151.3251  141.7185  157.8131 H   0  0  0  0  0  0  0  0  0  0  0  0
  152.2934  142.6123  156.6658 H   0  0  0  0  0  0  0  0  0  0  0  0
  151.6227  144.7443  157.5990 H   0  0  0  0  0  0  0  0  0  0  0  0
  150.2864  144.0435  158.4769 H   0  0  0  0  0  0  0  0  0  0  0  0
  153.1832  144.1712  159.1746 H   0  0  0  0  0  0  0  0  0  0  0  0
  151.4681  145.4319  160.4798 H   0  0  0  0  0  0  0  0  0  0  0  0
  150.6143  143.9448  160.8267 H   0  0  0  0  0  0  0  0  0  0  0  0
  153.4353  144.6708  161.7456 H   0  0  0  0  0  0  0  0  0  0  0  0
  152.0200  144.5188  162.7648 H   0  0  0  0  0  0  0  0  0  0  0  0
  153.4919  142.4609  162.8283 H   0  0  0  0  0  0  0  0  0  0  0  0
  151.8644  142.1079  162.2903 H   0  0  0  0  0  0  0  0  0  0  0  0
  154.3053  142.4788  160.4659 H   0  0  0  0  0  0  0  0  0  0  0  0
  153.4637  140.9765  160.7915 H   0  0  0  0  0  0  0  0  0  0  0  0
  146.0157  139.4327  152.2642 H   0  0  0  0  0  0  0  0  0  0  0  0
  147.9767  137.7817  153.4357 H   0  0  0  0  0  0  0  0  0  0  0  0
  1  2  2  0  0  0  0
  2 12  1  0  0  0  0
  2  3  1  0  0  0  0
  3  4  1  0  0  0  0
  3 18  1  0  0  0  0
  4  5  1  0  0  0  0
  4 19  1  0  0  0  0
  4 20  1  0  0  0  0
  5  6  1  0  0  0  0
  5 21  1  0  0  0  0
  5 22  1  0  0  0  0
  6 11  1  0  0  0  0
  6  7  1  0  0  0  0
  6 23  1  0  0  0  0
  7  8  1  0  0  0  0
  7 24  1  0  0  0  0
  7 25  1  0  0  0  0
  8  9  1  0  0  0  0
  8 26  1  0  0  0  0
  8 27  1  0  0  0  0
  9 10  1  0  0  0  0
  9 28  1  0  0  0  0
  9 29  1  0  0  0  0
 10 11  1  0  0  0  0
 10 30  1  0  0  0  0
 10 31  1  0  0  0  0
 12 13  1  0  0  0  0
 13 17  1  0  0  0  0
 13 14  2  0  0  0  0
 14 15  1  0  0  0  0
 15 32  1  0  0  0  0
 15 16  2  0  0  0  0
 16 33  1  0  0  0  0
 16 17  1  0  0  0  0
M  CHG  1  12  -1
M  END
> <s_m_source_file>
AV-unprocessed.smi

> <i_m_source_file_index>
2751

> <i_lp_mmshare_version>
43012

> <i_f3d_flags>
0

> <s_epik_input>
bzFbY0hdW2NIXW5jMVtOSF1DKD1PKVtOSF1bQ0gyXVtDSDJdW0NAQEhdMltDSDJdW0NIMl1bQ0gyXVtDSDJdTzI=

> <s_epik_cmdline>
J2VwaWtfcHl0aG9uJywgJy1waCcsICc3LjAnLCAnLXRuJywgJzgnLCAnLW1hJywgJzIwMCcsICctbWV0YWxfYmluZGluZycsICctaW1hZScsICc8aW5maWxlLm1hZT4nLCAnLW9tYWUnLCAnPG91dGZpbGUubWFlPic=

> <r_lp_tautomer_probability>
0.107061

> <r_epik_Ionization_Penalty>
11.077

> <r_epik_Ionization_Penalty_Charging>
7.79122

> <r_epik_Ionization_Penalty_Neutral>
3.28583

> <r_epik_State_Penalty>
5.8984

> <r_epik_Charging_Adjusted_Penalty>
13.6896

> <i_epik_Tot_Q>
-1

> <i_epik_Tot_abs_Q>
1

> <r_epik_Metal_State_Penalty>
1.82322

> <b_epik_Metal_Only>
1

> <s_lp_Force_Field>
OPLS_2005

> <r_lp_Energy>
3.95886

> <b_lp_Chiralities_Consistent>
1

> <s_lp_Variant>
AV-unprocessed.smi:2751-10

> <Gold.Version>
5.8.1

> <Gold.Id.Protein>
6NUR|6NUR_protein|mol2

> <Gold.PLP.Fitness>
47.0377

> <Gold.PLP.PLP>
-37.2452

> <Gold.PLP.part.hbond>
-2.3853

> <Gold.PLP.part.metal>
0.0000

> <Gold.PLP.part.buried>
-5.5293

> <Gold.PLP.part.nonpolar>
-29.9172

> <Gold.PLP.part.repulsive>
1.6104

> <Gold.PLP.ligand.clash>
0.0000

> <Gold.PLP.ligand.torsion>
0.6827

> <Gold.PLP.Chemscore.Hbond>
1.7920

> <Gold.PLP.Chemscore.CHOScore>
1.9183

> <Gold.PLP.Chemscore.Metal>
0.0000

> <Gold.Chemscore.Hbonds>
donor molecule, donor type, donor heavy atom, donor atom, acceptor molecule, acceptor atom, score
      L1  H     3    18       P1  8028  0.94
      P1  H  7989  7998       L1     1  0.86
      L1  C    15    32       P1 10175  0.85
      L1  C    16    33       P1  7948  1.00

> <Gold.PLP.Chemscore.Internal.Correction>
0.0269

> <Gold.Rescore>
     Score         DG    S(hbond)    S(metal)    S(lipo)     H(rot)  DE(clash)    DE(int)     intcor
     15.18     -17.61       1.57        0.00      93.97       1.60       0.19       2.23       ----

> <Gold.Chemscore.Fitness>
15.1848

> <Gold.Chemscore.DG>
-17.6057

> <Gold.Chemscore.ZeroCoef>
-5.4800

> <Gold.Chemscore.Hbond>
1.5687

> <Gold.Chemscore.Metal>
0.0000

> <Gold.Chemscore.Lipo>
93.9688

> <Gold.Chemscore.Internal_Hbond>
0.0000

> <Gold.Chemscore.DEClash>
0.1950

> <Gold.Chemscore.DEInternal>
2.2259

> <Gold.Chemscore.Rot>
1.6048

> <Gold.Chemscore.Internal.Correction>
   9.000000E+99

> <Gold.Chemscore.Hbonds>
donor molecule, donor type, donor heavy atom, donor atom, acceptor molecule, acceptor atom, score
      L1  H     3    18       P1  8028  0.91
      P1  H  7989  7998       L1     1  0.55

> <Gold.Chemscore.Hbond.Weighted>
-5.2395

> <Gold.Chemscore.Metal.Weighted>
-0.0000

> <Gold.Chemscore.Lipo.Weighted>
-10.9943

> <Gold.Chemscore.Internal_Hbond.Weighted>
0.0000

> <Gold.Chemscore.DEClash.Weighted>
0.1950

> <Gold.Chemscore.DEInternal.Weighted>
2.2259

> <Gold.Chemscore.Rot.Weighted>
4.1082

> <Gold.Chemscore.Internal.Correction.Weighted>
   9.000000E+99

> <Gold.Protein.RotatedTorsions>
[ 6907 6896 6895 6894 ] final -174.76 input  -60.11 | X-H torsion
[ 7974 7965 7964 7962 ] final   44.89 input  175.53 | X-H torsion
[ 8008 7997 7996 7995 ] final -152.13 input   59.86 | X-H torsion
[ 10167 10162 10161 10158 ] final -175.03 input  -65.29 | X-H torsion
[ 10718 10713 10712 10709 ] final  135.99 input   66.30 | X-H torsion
[ 10763 10752 10751 10750 ] final  150.80 input  -60.55 | X-H torsion
[ 11005 11000 10999 10996 ] final   53.92 input  -57.11 | X-H torsion

> <Gold.Protein.ActiveResidues>
 VAL166  LYS551  ARG553  GLY616  TRP617  ASP618  TYR619  PRO620  LYS621  CYS622 
 ASP623  PHE694  ASN695  SER759  ASP760  ASP761  ALA762  ILE779  LEU786  VAL792 
 PHE793  MET794  SER795  GLU796  ALA797  LYS798  CYS799  TRP800  GLU811  SER814 

> <Gold.Protein.RotatedAtoms>
  151.5776  133.3382  159.3001 H   0  0  0  0  0  0  0  0  0  0  0  0  # atno 6907 bound_to 6896
  150.8331  134.7596  159.6882 H   0  0  0  0  0  0  0  0  0  0  0  0  # atno 6908 bound_to 6896
  152.4412  134.5593  159.9941 H   0  0  0  0  0  0  0  0  0  0  0  0  # atno 6909 bound_to 6896
  146.0529  139.5025  142.9707 H   0  0  0  0  0  0  0  0  0  0  0  0  # atno 7974 bound_to 7965
  155.6503  140.0711  157.2589 H   0  0  0  0  0  0  0  0  0  0  0  0  # atno 8008 bound_to 7997
  154.4164  140.1734  156.1717 H   0  0  0  0  0  0  0  0  0  0  0  0  # atno 8009 bound_to 7997
  155.9782  140.3356  155.6642 H   0  0  0  0  0  0  0  0  0  0  0  0  # atno 8010 bound_to 7997
  139.5602  144.1887  152.1227 H   0  0  0  0  0  0  0  0  0  0  0  0  # atno 10167 bound_to 10162
  157.4513  131.1066  151.0030 H   0  0  0  0  0  0  0  0  0  0  0  0  # atno 10718 bound_to 10713
  154.0935  135.2851  155.3266 H   0  0  0  0  0  0  0  0  0  0  0  0  # atno 10763 bound_to 10752
  154.6604  135.5336  153.8014 H   0  0  0  0  0  0  0  0  0  0  0  0  # atno 10764 bound_to 10752
  153.0405  135.6532  154.1102 H   0  0  0  0  0  0  0  0  0  0  0  0  # atno 10765 bound_to 10752
  140.0728  134.5446  155.9028 H   0  0  0  0  0  0  0  0  0  0  0  0  # atno 11005 bound_to 11000
  145.6694  141.0220  143.1666 LP  0  0  0  0  0  0  0  0  0  0  0  0  # atno 17320 bound_to 7965
  144.7132  139.8292  143.7407 LP  0  0  0  0  0  0  0  0  0  0  0  0  # atno 17321 bound_to 7965
  140.1400  144.5211  150.6750 LP  0  0  0  0  0  0  0  0  0  0  0  0  # atno 17342 bound_to 10162
  140.6881  143.2361  151.5205 LP  0  0  0  0  0  0  0  0  0  0  0  0  # atno 17343 bound_to 10162
  157.0859  130.5922  149.5429 LP  0  0  0  0  0  0  0  0  0  0  0  0  # atno 17370 bound_to 10713
  155.9988  130.5063  150.7585 LP  0  0  0  0  0  0  0  0  0  0  0  0  # atno 17371 bound_to 10713
  141.2018  133.6621  156.5971 LP  0  0  0  0  0  0  0  0  0  0  0  0  # atno 17394 bound_to 11000
  140.3602  134.7694  157.4528 LP  0  0  0  0  0  0  0  0  0  0  0  0  # atno 17395 bound_to 11000

$$$$
