AV-unprocessed.smi:2183|AV-procd|sdf|8866|dock2
  -GOLD-   2272012 63D 1   1.00000     0.00000
 Structure written by MMmdl.
 40 42  0  0  0  0  0  0  0  0  1 V2000
  152.9014  137.8851  155.0192 O   0  0  0  0  0  0  0  0  0  0  0  0
  151.8129  138.0218  155.9106 C   0  0  0  0  0  0  0  0  0  0  0  0
  151.7416  139.3608  156.5893 C   0  0  0  0  0  0  0  0  0  0  0  0
  152.7203  139.8402  157.3612 N   0  0  0  0  0  0  0  0  0  0  0  0
  152.2313  141.0723  157.7475 C   0  0  0  0  0  0  0  0  0  0  0  0
  152.8011  142.0693  158.5716 C   0  0  0  0  0  0  0  0  0  0  0  0
  152.1046  143.2686  158.8267 C   0  0  0  0  0  0  0  0  0  0  0  0
  150.8306  143.4871  158.2638 C   0  0  0  0  0  0  0  0  0  0  0  0
  150.2444  142.5063  157.4405 C   0  0  0  0  0  0  0  0  0  0  0  0
  150.9446  141.3111  157.1878 C   0  0  0  0  0  0  0  0  0  0  0  0
  150.6626  140.1703  156.4418 N   0  0  0  0  0  0  0  0  0  0  0  0
  149.4542  139.9219  155.6662 C   0  0  0  0  0  0  0  0  0  0  0  0
  149.0924  141.0919  154.7277 C   0  0  1  0  0  0  0  0  0  0  0  0
  149.5160  140.8074  153.4092 O   0  0  0  0  0  0  0  0  0  0  0  0
  147.5840  141.3783  154.7004 C   0  0  0  0  0  0  0  0  0  0  0  0
  147.3042  142.2879  153.6442 O   0  0  0  0  0  0  0  0  0  0  0  0
  146.3387  143.2498  153.8499 C   0  0  0  0  0  0  0  0  0  0  0  0
  145.9330  143.9995  152.7263 C   0  0  0  0  0  0  0  0  0  0  0  0
  144.9500  145.0008  152.8439 C   0  0  0  0  0  0  0  0  0  0  0  0
  144.3591  145.2631  154.0938 C   0  0  0  0  0  0  0  0  0  0  0  0
  143.1519  146.4870  154.2407 Cl  0  0  0  0  0  0  0  0  0  0  0  0
  144.7553  144.5238  155.2239 C   0  0  0  0  0  0  0  0  0  0  0  0
  145.7392  143.5228  155.1059 C   0  0  0  0  0  0  0  0  0  0  0  0
  152.6808  138.3142  154.2071 H   0  0  0  0  0  0  0  0  0  0  0  0
  150.8895  137.8547  155.3557 H   0  0  0  0  0  0  0  0  0  0  0  0
  151.8889  137.2380  156.6636 H   0  0  0  0  0  0  0  0  0  0  0  0
  153.7762  141.9107  159.0079 H   0  0  0  0  0  0  0  0  0  0  0  0
  152.5498  144.0241  159.4577 H   0  0  0  0  0  0  0  0  0  0  0  0
  150.3031  144.4081  158.4649 H   0  0  0  0  0  0  0  0  0  0  0  0
  149.2683  142.6708  157.0099 H   0  0  0  0  0  0  0  0  0  0  0  0
  149.5951  139.0063  155.0909 H   0  0  0  0  0  0  0  0  0  0  0  0
  148.6329  139.7170  156.3531 H   0  0  0  0  0  0  0  0  0  0  0  0
  149.6143  141.9945  155.0457 H   0  0  0  0  0  0  0  0  0  0  0  0
  149.1770  139.9616  153.1594 H   0  0  0  0  0  0  0  0  0  0  0  0
  147.0402  140.4474  154.5298 H   0  0  0  0  0  0  0  0  0  0  0  0
  147.2618  141.7886  155.6592 H   0  0  0  0  0  0  0  0  0  0  0  0
  146.3803  143.8045  151.7626 H   0  0  0  0  0  0  0  0  0  0  0  0
  144.6498  145.5659  151.9737 H   0  0  0  0  0  0  0  0  0  0  0  0
  144.3038  144.7224  156.1849 H   0  0  0  0  0  0  0  0  0  0  0  0
  146.0145  142.9769  155.9953 H   0  0  0  0  0  0  0  0  0  0  0  0
  1  2  1  0  0  0  0
  1 24  1  0  0  0  0
  2  3  1  0  0  0  0
  2 25  1  0  0  0  0
  2 26  1  0  0  0  0
  3 11  1  0  0  0  0
  3  4  2  0  0  0  0
  4  5  1  0  0  0  0
  5 10  2  0  0  0  0
  5  6  1  0  0  0  0
  6  7  2  0  0  0  0
  6 27  1  0  0  0  0
  7  8  1  0  0  0  0
  7 28  1  0  0  0  0
  8  9  2  0  0  0  0
  8 29  1  0  0  0  0
  9 10  1  0  0  0  0
  9 30  1  0  0  0  0
 10 11  1  0  0  0  0
 11 12  1  0  0  0  0
 12 13  1  0  0  0  0
 12 31  1  0  0  0  0
 12 32  1  0  0  0  0
 13 14  1  0  0  0  0
 13 15  1  0  0  0  0
 13 33  1  0  0  0  0
 14 34  1  0  0  0  0
 15 16  1  0  0  0  0
 15 35  1  0  0  0  0
 15 36  1  0  0  0  0
 16 17  1  0  0  0  0
 17 23  1  0  0  0  0
 17 18  2  0  0  0  0
 18 19  1  0  0  0  0
 18 37  1  0  0  0  0
 19 20  2  0  0  0  0
 19 38  1  0  0  0  0
 20 21  1  0  0  0  0
 20 22  1  0  0  0  0
 22 23  2  0  0  0  0
 22 39  1  0  0  0  0
 23 40  1  0  0  0  0
M  END
> <s_m_source_file>
AV-unprocessed.smi

> <i_m_source_file_index>
2183

> <i_lp_mmshare_version>
43012

> <i_f3d_flags>
0

> <s_epik_input>
W2NIXTFbY0hdW2NIXVtjSF1jKGMxMiluKGMobjIpW0NIMl1bT0hdKVtDSDJdW0NASF0oW09IXSlbQ0gyXU9jM1tjSF1bY0hdYyhDbClbY0hdW2NIXTM=

> <s_epik_cmdline>
J2VwaWtfcHl0aG9uJywgJy1waCcsICc3LjAnLCAnLXRuJywgJzgnLCAnLW1hJywgJzIwMCcsICctbWV0YWxfYmluZGluZycsICctaW1hZScsICc8aW5maWxlLm1hZT4nLCAnLW9tYWUnLCAnPG91dGZpbGUubWFlPic=

> <r_lp_tautomer_probability>
1

> <r_epik_Ionization_Penalty>
0.0586933

> <r_epik_Ionization_Penalty_Charging>
0

> <r_epik_Ionization_Penalty_Neutral>
0.0586933

> <r_epik_State_Penalty>
0.0507031

> <r_epik_Charging_Adjusted_Penalty>
0.0507031

> <i_epik_Tot_Q>
0

> <i_epik_Tot_abs_Q>
0

> <r_epik_Metal_State_Penalty>
5.29335e-05

> <b_epik_Metal_Only>
0

> <s_lp_Force_Field>
OPLS_2005

> <r_lp_Energy>
14.4391

> <b_lp_Chiralities_Consistent>
1

> <s_lp_Variant>
AV-unprocessed.smi:2183-2

> <Gold.Version>
5.8.1

> <Gold.Id.Protein>
6NUR|6NUR_protein|mol2

> <Gold.PLP.Fitness>
51.0960

> <Gold.PLP.PLP>
-45.5999

> <Gold.PLP.part.hbond>
-4.3819

> <Gold.PLP.part.metal>
0.0000

> <Gold.PLP.part.buried>
-6.1907

> <Gold.PLP.part.nonpolar>
-34.8270

> <Gold.PLP.part.repulsive>
0.1719

> <Gold.PLP.ligand.clash>
0.0000

> <Gold.PLP.ligand.torsion>
1.0746

> <Gold.PLP.Chemscore.Hbond>
2.4764

> <Gold.PLP.Chemscore.CHOScore>
0.0000

> <Gold.PLP.Chemscore.Metal>
0.0000

> <Gold.Chemscore.Hbonds>
donor molecule, donor type, donor heavy atom, donor atom, acceptor molecule, acceptor atom, score
      P1  H  7989  7998       L1    14  0.27
      P1  H  7997  8010       L1     4  1.00
      P1  H  8011  8017       L1    14  1.00
      P1  H 10752 10764       L1     1  0.02

> <Gold.PLP.Chemscore.Internal.Correction>
0.2161

> <Gold.Rescore>
     Score         DG    S(hbond)    S(metal)    S(lipo)     H(rot)  DE(clash)    DE(int)     intcor
     16.84     -18.55       2.10        0.00     118.09       3.04       0.14       1.57       ----

> <Gold.Chemscore.Fitness>
16.8363

> <Gold.Chemscore.DG>
-18.5498

> <Gold.Chemscore.ZeroCoef>
-5.4800

> <Gold.Chemscore.Hbond>
2.1033

> <Gold.Chemscore.Metal>
0.0000

> <Gold.Chemscore.Lipo>
118.0879

> <Gold.Chemscore.Internal_Hbond>
0.0000

> <Gold.Chemscore.DEClash>
0.1400

> <Gold.Chemscore.DEInternal>
1.5736

> <Gold.Chemscore.Rot>
3.0358

> <Gold.Chemscore.Internal.Correction>
   9.000000E+99

> <Gold.Chemscore.Hbonds>
donor molecule, donor type, donor heavy atom, donor atom, acceptor molecule, acceptor atom, score
      L1  H    14    34       P1  7957  0.04
      P1  H  7989  7998       L1    14  0.13
      P1  H  7997  8010       L1     4  0.65
      P1  H  8011  8017       L1    14  0.87
      P1  H 10752 10764       L1     1  0.01

> <Gold.Chemscore.Hbond.Weighted>
-7.0251

> <Gold.Chemscore.Metal.Weighted>
-0.0000

> <Gold.Chemscore.Lipo.Weighted>
-13.8163

> <Gold.Chemscore.Internal_Hbond.Weighted>
0.0000

> <Gold.Chemscore.DEClash.Weighted>
0.1400

> <Gold.Chemscore.DEInternal.Weighted>
1.5736

> <Gold.Chemscore.Rot.Weighted>
7.7716

> <Gold.Chemscore.Internal.Correction.Weighted>
   9.000000E+99

> <Gold.Protein.RotatedTorsions>
[ 6907 6896 6895 6894 ] final   67.31 input  -60.11 | X-H torsion
[ 7974 7965 7964 7962 ] final -163.97 input  175.53 | X-H torsion
[ 8008 7997 7996 7995 ] final   48.23 input   59.86 | X-H torsion
[ 10167 10162 10161 10158 ] final -140.63 input  -65.29 | X-H torsion
[ 10718 10713 10712 10709 ] final   39.38 input   66.30 | X-H torsion
[ 10763 10752 10751 10750 ] final  -27.72 input  -60.55 | X-H torsion
[ 11005 11000 10999 10996 ] final  179.97 input  -57.11 | X-H torsion

> <Gold.Protein.ActiveResidues>
 VAL166  LYS551  ARG553  GLY616  TRP617  ASP618  TYR619  PRO620  LYS621  CYS622 
 ASP623  PHE694  ASN695  SER759  ASP760  ASP761  ALA762  ILE779  LEU786  VAL792 
 PHE793  MET794  SER795  GLU796  ALA797  LYS798  CYS799  TRP800  GLU811  SER814 

> <Gold.Protein.RotatedAtoms>
  152.4543  134.5326  159.9815 H   0  0  0  0  0  0  0  0  0  0  0  0  # atno 6907 bound_to 6896
  151.5391  133.3430  159.2940 H   0  0  0  0  0  0  0  0  0  0  0  0  # atno 6908 bound_to 6896
  150.8482  134.7829  159.7050 H   0  0  0  0  0  0  0  0  0  0  0  0  # atno 6909 bound_to 6896
  144.7310  140.3029  143.6201 H   0  0  0  0  0  0  0  0  0  0  0  0  # atno 7974 bound_to 7965
  155.3821  140.3429  155.4247 H   0  0  0  0  0  0  0  0  0  0  0  0  # atno 8008 bound_to 7997
  156.1604  140.1599  156.8654 H   0  0  0  0  0  0  0  0  0  0  0  0  # atno 8009 bound_to 7997
  154.5135  140.0784  156.8017 H   0  0  0  0  0  0  0  0  0  0  0  0  # atno 8010 bound_to 7997
  139.8263  143.7506  152.2666 H   0  0  0  0  0  0  0  0  0  0  0  0  # atno 10167 bound_to 10162
  157.3699  130.7695  149.7111 H   0  0  0  0  0  0  0  0  0  0  0  0  # atno 10718 bound_to 10713
  153.7367  135.6935  153.4976 H   0  0  0  0  0  0  0  0  0  0  0  0  # atno 10763 bound_to 10752
  153.2098  135.4407  155.0365 H   0  0  0  0  0  0  0  0  0  0  0  0  # atno 10764 bound_to 10752
  154.8235  135.3434  154.6894 H   0  0  0  0  0  0  0  0  0  0  0  0  # atno 10765 bound_to 10752
  140.4121  134.6683  157.4619 H   0  0  0  0  0  0  0  0  0  0  0  0  # atno 11005 bound_to 11000
  145.7742  139.1868  143.2195 LP  0  0  0  0  0  0  0  0  0  0  0  0  # atno 17320 bound_to 7965
  146.0886  140.7681  142.9606 LP  0  0  0  0  0  0  0  0  0  0  0  0  # atno 17321 bound_to 7965
  139.7700  144.7479  151.0238 LP  0  0  0  0  0  0  0  0  0  0  0  0  # atno 17342 bound_to 10162
  140.7810  143.4655  151.0218 LP  0  0  0  0  0  0  0  0  0  0  0  0  # atno 17343 bound_to 10162
  155.9753  130.4090  150.3857 LP  0  0  0  0  0  0  0  0  0  0  0  0  # atno 17370 bound_to 10713
  157.1946  131.0423  151.2682 LP  0  0  0  0  0  0  0  0  0  0  0  0  # atno 17371 bound_to 10713
  140.0260  134.6476  155.9172 LP  0  0  0  0  0  0  0  0  0  0  0  0  # atno 17394 bound_to 11000
  141.1817  133.6548  156.5048 LP  0  0  0  0  0  0  0  0  0  0  0  0  # atno 17395 bound_to 11000

$$$$
