#       Name:                AV-unprocessed.smi:1812
#       Creating user name   scv26
#       Creation time:       Fri Mar 27 08:59:47 2020


#       File generated by GOLD software.
#

@<TRIPOS>MOLECULE
AV-unprocessed.smi:1812
    40    42     1
SMALL
NO_CHARGES


@<TRIPOS>ATOM
      1 ****         1.0923   1.2179   0.0209 O.2            1 S1                 0.0000
      2 ****         0.6144   0.1962   0.5149 C.2            1 S1                 0.0000
      3 ****         1.3523  -0.8633   0.8758 N.am           1 S1                 0.0000
      4 ****         2.8014  -0.9572   0.7397 C.3            1 S1                 0.0000
      5 ****         3.2107  -1.3558  -0.6872 C.3            1 S1                 0.0000
      6 ****         4.7192  -1.4260  -0.8981 C.3            1 S1                 0.0000
      7 ****         4.8373  -2.3123  -2.1233 C.3            1 S1                 0.0000
      8 ****         3.5635  -3.1630  -2.0816 C.3            1 S1                 0.0000
      9 ****         2.8048  -2.6852  -0.9755 O.3            1 S1                 0.0000
     10 ****        -0.6910  -0.0118   0.7617 N.am           1 S1                 0.0000
     11 ****        -1.7778   0.8791   0.5566 C.2            1 S1                 0.0000
     12 ****        -1.6439   2.1130   0.0513 N.2            1 S1                 0.0000
     13 ****        -2.8620   2.7723  -0.0350 N.2            1 S1                 0.0000
     14 ****        -3.8787   2.0221   0.4062 C.2            1 S1                 0.0000
     15 ****        -5.2866   2.5180   0.4169 C.3            1 S1                 0.0000
     16 ****        -5.7411   3.5289   1.4446 C.3            1 S1                 0.0000
     17 ****        -6.2625   2.1159   1.5009 C.3            1 S1                 0.0000
     18 ****        -3.4205   0.4174   0.9681 S.3            1 S1                 0.0000
     19 ****         0.8805  -1.6646   1.2684 H              1 S1                 0.0000
     20 ****         3.2605  -0.0052   1.0112 H              1 S1                 0.0000
     21 ****         3.1691  -1.6923   1.4559 H              1 S1                 0.0000
     22 ****         2.7702  -0.6801  -1.4230 H              1 S1                 0.0000
     23 ****         5.1754  -0.4453  -1.0358 H              1 S1                 0.0000
     24 ****         5.1990  -1.9084  -0.0452 H              1 S1                 0.0000
     25 ****         4.8514  -1.7060  -3.0297 H              1 S1                 0.0000
     26 ****         5.7453  -2.9158  -2.1082 H              1 S1                 0.0000
     27 ****         2.9899  -3.0462  -3.0017 H              1 S1                 0.0000
     28 ****         3.7829  -4.2230  -1.9514 H              1 S1                 0.0000
     29 ****        -0.9345  -0.9072   1.1586 H              1 S1                 0.0000
     30 ****        -5.6664   2.6172  -0.5979 H              1 S1                 0.0000
     31 ****        -5.0266   3.8302   2.2082 H              1 S1                 0.0000
     32 ****        -6.4282   4.3058   1.1157 H              1 S1                 0.0000
     33 ****        -7.2968   1.9501   1.2068 H              1 S1                 0.0000
     34 ****        -5.9030   1.4862   2.3118 H              1 S1                 0.0000
     35 ****         2.0785   1.2865  -0.1294 LP             1 S1                 0.0000
     36 ****         0.4941   1.9789  -0.2300 LP             1 S1                 0.0000
     37 ****         1.8314  -2.6980  -1.2042 LP             1 S1                 0.0000
     38 ****         2.9677  -3.2673  -0.1789 LP             1 S1                 0.0000
     39 ****        -0.7707   2.5110  -0.2300 LP             1 S1                 0.0000
     40 ****        -2.9680   3.7023  -0.3869 LP             1 S1                 0.0000
@<TRIPOS>BOND
    1    1    2 2     
    2    2    3 am    
    3    2   10 am    
    4    3    4 1     
    5    3   19 1     
    6    4    5 1     
    7    4   20 1     
    8    4   21 1     
    9    5    9 1     
   10    5    6 1     
   11    5   22 1     
   12    6    7 1     
   13    6   23 1     
   14    6   24 1     
   15    7    8 1     
   16    7   25 1     
   17    7   26 1     
   18    8    9 1     
   19    8   27 1     
   20    8   28 1     
   21   10   11 1     
   22   10   29 1     
   23   11   18 1     
   24   11   12 2     
   25   12   13 1     
   26   13   14 2     
   27   14   15 1     
   28   14   18 1     
   29   15   17 1     
   30   15   16 1     
   31   15   30 1     
   32   16   17 1     
   33   16   31 1     
   34   16   32 1     
   35   17   33 1     
   36   17   34 1     
   37    1   35 1     
   38    1   36 1     
   39    9   37 1     
   40    9   38 1     
   41   12   39 1     
   42   13   40 1     
@<TRIPOS>SUBSTRUCTURE
      1 S1             1
@<TRIPOS>SET
LONE_PAIRS      STATIC     ATOMS    <user>   **** ""
6 35 36 37 38 39 40
DONOR_HYDROGENS      STATIC     ATOMS    <user>   **** ""
2 19 29
ATOM$BLUE        STATIC     ATOMS    COLORGROUP SYSTEM
6 35 36 37 38 39 40
ATOM$RED        STATIC     ATOMS    COLORGROUP SYSTEM
2 19 29
