AV-unprocessed.smi:306|AV-procd|sdf|2282|dock5
  -GOLD-   2262022183D 1   1.00000     0.00000
 Structure written by MMmdl.
 47 49  0  0  0  0  0  0  0  0  1 V2000
  147.9493  145.8047  160.7813 C   0  0  0  0  0  0  0  0  0  0  0  0
  147.8411  144.5770  159.8696 C   0  0  0  0  0  0  0  0  0  0  0  0
  149.1899  144.0737  159.4393 C   0  0  0  0  0  0  0  0  0  0  0  0
  150.4271  144.7766  159.4278 C   0  0  0  0  0  0  0  0  0  0  0  0
  151.3286  143.8680  158.9495 C   0  0  0  0  0  0  0  0  0  0  0  0
  152.7997  144.0062  158.7102 C   0  0  0  0  0  0  0  0  0  0  0  0
  153.1402  145.0108  157.6043 C   0  0  0  0  0  0  0  0  0  0  0  0
  150.6246  142.7041  158.6971 N   0  0  0  0  0  0  0  0  0  0  0  0
  151.1118  141.4816  158.1948 C   0  0  0  0  0  0  0  0  0  0  0  0
  151.7484  140.5741  158.9387 N   0  0  0  0  0  0  0  0  0  0  0  0
  152.0588  139.5879  158.0134 C   0  0  0  0  0  0  0  0  0  0  0  0
  151.6160  139.9255  156.7743 C   0  0  0  0  0  0  0  0  0  0  0  0
  151.8377  139.0738  155.5983 C   0  0  0  0  0  0  0  0  0  0  0  0
  151.4577  139.3652  154.4664 O   0  0  0  0  0  0  0  0  0  0  0  0
  152.5128  137.9349  155.8880 N   0  0  0  0  0  0  0  0  0  0  0  0
  152.9821  137.5334  157.1087 C   0  0  0  0  0  0  0  0  0  0  0  0
  153.5876  136.4669  157.2142 O   0  0  0  0  0  0  0  0  0  0  0  0
  152.7536  138.3563  158.1820 N   0  0  0  0  0  0  0  0  0  0  0  0
  153.2354  137.9780  159.5119 C   0  0  0  0  0  0  0  0  0  0  0  0
  150.9809  141.1630  156.8830 N   0  0  0  0  0  0  0  0  0  0  0  0
  150.3405  141.9526  155.8352 C   0  0  0  0  0  0  0  0  0  0  0  0
  149.1461  141.2225  155.2053 C   0  0  0  0  0  0  0  0  0  0  0  0
  148.9380  141.6864  153.8811 O   0  0  0  0  0  0  0  0  0  0  0  0
  147.6778  141.3021  153.3622 C   0  0  0  0  0  0  0  0  0  0  0  0
  149.3162  142.8312  159.0021 N   0  0  0  0  0  0  0  0  0  0  0  0
  152.6939  137.3135  155.1133 H   0  0  0  0  0  0  0  0  0  0  0  0
  146.9611  146.1492  161.0861 H   0  0  0  0  0  0  0  0  0  0  0  0
  148.4477  146.6310  160.2732 H   0  0  0  0  0  0  0  0  0  0  0  0
  148.5156  145.5750  161.6843 H   0  0  0  0  0  0  0  0  0  0  0  0
  147.3014  143.7864  160.3920 H   0  0  0  0  0  0  0  0  0  0  0  0
  147.2387  144.8259  158.9953 H   0  0  0  0  0  0  0  0  0  0  0  0
  150.6236  145.7952  159.7277 H   0  0  0  0  0  0  0  0  0  0  0  0
  153.3013  144.3018  159.6324 H   0  0  0  0  0  0  0  0  0  0  0  0
  153.2128  143.0321  158.4475 H   0  0  0  0  0  0  0  0  0  0  0  0
  154.2182  145.0749  157.4568 H   0  0  0  0  0  0  0  0  0  0  0  0
  152.7790  146.0095  157.8496 H   0  0  0  0  0  0  0  0  0  0  0  0
  152.6906  144.7166  156.6556 H   0  0  0  0  0  0  0  0  0  0  0  0
  152.8876  136.9797  159.7811 H   0  0  0  0  0  0  0  0  0  0  0  0
  152.8911  138.6579  160.2908 H   0  0  0  0  0  0  0  0  0  0  0  0
  154.3257  137.9770  159.5341 H   0  0  0  0  0  0  0  0  0  0  0  0
  150.0265  142.9111  156.2442 H   0  0  0  0  0  0  0  0  0  0  0  0
  151.0764  142.1932  155.0682 H   0  0  0  0  0  0  0  0  0  0  0  0
  149.3314  140.1476  155.2009 H   0  0  0  0  0  0  0  0  0  0  0  0
  148.2501  141.3920  155.8034 H   0  0  0  0  0  0  0  0  0  0  0  0
  147.5745  141.6715  152.3421 H   0  0  0  0  0  0  0  0  0  0  0  0
  146.8638  141.7196  153.9559 H   0  0  0  0  0  0  0  0  0  0  0  0
  147.5748  140.2165  153.3395 H   0  0  0  0  0  0  0  0  0  0  0  0
  1  2  1  0  0  0  0
  1 27  1  0  0  0  0
  1 28  1  0  0  0  0
  1 29  1  0  0  0  0
  2  3  1  0  0  0  0
  2 30  1  0  0  0  0
  2 31  1  0  0  0  0
  3 25  2  0  0  0  0
  3  4  1  0  0  0  0
  4  5  2  0  0  0  0
  4 32  1  0  0  0  0
  5  6  1  0  0  0  0
  5  8  1  0  0  0  0
  6  7  1  0  0  0  0
  6 33  1  0  0  0  0
  6 34  1  0  0  0  0
  7 35  1  0  0  0  0
  7 36  1  0  0  0  0
  7 37  1  0  0  0  0
  8  9  1  0  0  0  0
  8 25  1  0  0  0  0
  9 20  1  0  0  0  0
  9 10  2  0  0  0  0
 10 11  1  0  0  0  0
 11 18  1  0  0  0  0
 11 12  2  0  0  0  0
 12 13  1  0  0  0  0
 12 20  1  0  0  0  0
 13 14  2  0  0  0  0
 13 15  1  0  0  0  0
 15 26  1  0  0  0  0
 15 16  1  0  0  0  0
 16 17  2  0  0  0  0
 16 18  1  0  0  0  0
 18 19  1  0  0  0  0
 19 38  1  0  0  0  0
 19 39  1  0  0  0  0
 19 40  1  0  0  0  0
 20 21  1  0  0  0  0
 21 22  1  0  0  0  0
 21 41  1  0  0  0  0
 21 42  1  0  0  0  0
 22 23  1  0  0  0  0
 22 43  1  0  0  0  0
 22 44  1  0  0  0  0
 23 24  1  0  0  0  0
 24 45  1  0  0  0  0
 24 46  1  0  0  0  0
 24 47  1  0  0  0  0
M  END
> <s_m_source_file>
AV-unprocessed.smi

> <i_m_source_file_index>
306

> <i_lp_mmshare_version>
43012

> <i_f3d_flags>
0

> <s_epik_input>
W0NIM11bQ0gyXWMxW2NIXWMoW0NIMl1bQ0gzXSluKG4xKS1jKG4yKW4oW0NIMl1bQ0gyXU9bQ0gzXSljKGMyMyljKD1PKVtuSF1jKD1PKW4zW0NIM10=

> <s_epik_cmdline>
J2VwaWtfcHl0aG9uJywgJy1waCcsICc3LjAnLCAnLXRuJywgJzgnLCAnLW1hJywgJzIwMCcsICctbWV0YWxfYmluZGluZycsICctaW1hZScsICc8aW5maWxlLm1hZT4nLCAnLW9tYWUnLCAnPG91dGZpbGUubWFlPic=

> <r_lp_tautomer_probability>
1

> <r_epik_Ionization_Penalty>
0.00167575

> <r_epik_Ionization_Penalty_Charging>
0.000731299

> <r_epik_Ionization_Penalty_Neutral>
0.000944451

> <r_epik_State_Penalty>
-0

> <r_epik_Charging_Adjusted_Penalty>
0.000731299

> <i_epik_Tot_Q>
0

> <i_epik_Tot_abs_Q>
0

> <r_epik_Metal_State_Penalty>
0.260571

> <b_epik_Metal_Only>
0

> <s_lp_Force_Field>
OPLS_2005

> <r_lp_Energy>
22.9752

> <b_lp_Chiralities_Consistent>
1

> <s_lp_Variant>
AV-unprocessed.smi:306-1

> <Gold.Version>
5.8.1

> <Gold.Id.Protein>
6NUR|6NUR_protein|mol2

> <Gold.PLP.Fitness>
47.7020

> <Gold.PLP.PLP>
-43.1392

> <Gold.PLP.part.hbond>
-4.0000

> <Gold.PLP.part.metal>
0.0000

> <Gold.PLP.part.buried>
-5.8789

> <Gold.PLP.part.nonpolar>
-33.5121

> <Gold.PLP.part.repulsive>
0.5889

> <Gold.PLP.ligand.clash>
0.0000

> <Gold.PLP.ligand.torsion>
1.9800

> <Gold.PLP.Chemscore.Hbond>
2.5947

> <Gold.PLP.Chemscore.CHOScore>
0.0000

> <Gold.PLP.Chemscore.Metal>
0.0000

> <Gold.Chemscore.Hbonds>
donor molecule, donor type, donor heavy atom, donor atom, acceptor molecule, acceptor atom, score
      P1  H  7989  7998       L1    14  1.00
      P1  H  8011  8017       L1    23  0.61
      P1  H 10752 10764       L1    17  0.71

> <Gold.PLP.Chemscore.Internal.Correction>
0.7388

> <Gold.Rescore>
     Score         DG    S(hbond)    S(metal)    S(lipo)     H(rot)  DE(clash)    DE(int)     intcor
     15.83     -19.12       2.31        0.00      91.15       1.85       1.50       1.79       ----

> <Gold.Chemscore.Fitness>
15.8348

> <Gold.Chemscore.DG>
-19.1227

> <Gold.Chemscore.ZeroCoef>
-5.4800

> <Gold.Chemscore.Hbond>
2.3080

> <Gold.Chemscore.Metal>
0.0000

> <Gold.Chemscore.Lipo>
91.1524

> <Gold.Chemscore.Internal_Hbond>
0.0000

> <Gold.Chemscore.DEClash>
1.4952

> <Gold.Chemscore.DEInternal>
1.7926

> <Gold.Chemscore.Rot>
1.8480

> <Gold.Chemscore.Internal.Correction>
   9.000000E+99

> <Gold.Chemscore.Hbonds>
donor molecule, donor type, donor heavy atom, donor atom, acceptor molecule, acceptor atom, score
      P1  H  7989  7998       L1    14  1.00
      P1  H  8011  8017       L1    23  0.21
      P1  H 10752 10764       L1    17  0.60

> <Gold.Chemscore.Hbond.Weighted>
-7.7086

> <Gold.Chemscore.Metal.Weighted>
-0.0000

> <Gold.Chemscore.Lipo.Weighted>
-10.6648

> <Gold.Chemscore.Internal_Hbond.Weighted>
0.0000

> <Gold.Chemscore.DEClash.Weighted>
1.4952

> <Gold.Chemscore.DEInternal.Weighted>
1.7926

> <Gold.Chemscore.Rot.Weighted>
4.7308

> <Gold.Chemscore.Internal.Correction.Weighted>
   9.000000E+99

> <Gold.Protein.RotatedTorsions>
[ 6907 6896 6895 6894 ] final   24.78 input  -60.11 | X-H torsion
[ 7974 7965 7964 7962 ] final  -20.54 input  175.53 | X-H torsion
[ 8008 7997 7996 7995 ] final  162.63 input   59.86 | X-H torsion
[ 10167 10162 10161 10158 ] final   73.42 input  -65.29 | X-H torsion
[ 10718 10713 10712 10709 ] final   77.09 input   66.30 | X-H torsion
[ 10763 10752 10751 10750 ] final    6.33 input  -60.55 | X-H torsion
[ 11005 11000 10999 10996 ] final  -53.51 input  -57.11 | X-H torsion

> <Gold.Protein.ActiveResidues>
 VAL166  LYS551  ARG553  GLY616  TRP617  ASP618  TYR619  PRO620  LYS621  CYS622 
 ASP623  PHE694  ASN695  SER759  ASP760  ASP761  ALA762  ILE779  LEU786  VAL792 
 PHE793  MET794  SER795  GLU796  ALA797  LYS798  CYS799  TRP800  GLU811  SER814 

> <Gold.Protein.RotatedAtoms>
  151.9627  135.0116  160.0548 H   0  0  0  0  0  0  0  0  0  0  0  0  # atno 6907 bound_to 6896
  152.1854  133.4731  159.4988 H   0  0  0  0  0  0  0  0  0  0  0  0  # atno 6908 bound_to 6896
  150.6925  134.1697  159.4250 H   0  0  0  0  0  0  0  0  0  0  0  0  # atno 6909 bound_to 6896
  146.1782  140.4216  142.8505 H   0  0  0  0  0  0  0  0  0  0  0  0  # atno 7974 bound_to 7965
  156.2017  140.1745  156.7886 H   0  0  0  0  0  0  0  0  0  0  0  0  # atno 8008 bound_to 7997
  154.5600  140.0701  156.8835 H   0  0  0  0  0  0  0  0  0  0  0  0  # atno 8009 bound_to 7997
  155.2866  140.3352  155.4257 H   0  0  0  0  0  0  0  0  0  0  0  0  # atno 8010 bound_to 7997
  140.0246  144.5513  150.7554 H   0  0  0  0  0  0  0  0  0  0  0  0  # atno 10167 bound_to 10162
  157.6697  130.9805  150.1590 H   0  0  0  0  0  0  0  0  0  0  0  0  # atno 10718 bound_to 10713
  153.2490  135.6911  153.7700 H   0  0  0  0  0  0  0  0  0  0  0  0  # atno 10763 bound_to 10752
  153.6801  135.3330  155.3177 H   0  0  0  0  0  0  0  0  0  0  0  0  # atno 10764 bound_to 10752
  154.8386  135.4520  154.1440 H   0  0  0  0  0  0  0  0  0  0  0  0  # atno 10765 bound_to 10752
  141.0979  133.6622  156.4182 H   0  0  0  0  0  0  0  0  0  0  0  0  # atno 11005 bound_to 11000
  144.8271  140.6647  143.6315 LP  0  0  0  0  0  0  0  0  0  0  0  0  # atno 17320 bound_to 7965
  145.4151  139.1573  143.4105 LP  0  0  0  0  0  0  0  0  0  0  0  0  # atno 17321 bound_to 7965
  140.7328  143.2709  151.3890 LP  0  0  0  0  0  0  0  0  0  0  0  0  # atno 17342 bound_to 10162
  139.6116  144.1086  152.2305 LP  0  0  0  0  0  0  0  0  0  0  0  0  # atno 17343 bound_to 10162
  156.2371  130.3687  149.8379 LP  0  0  0  0  0  0  0  0  0  0  0  0  # atno 17370 bound_to 10713
  156.6189  130.8618  151.3471 LP  0  0  0  0  0  0  0  0  0  0  0  0  # atno 17371 bound_to 10713
  140.5094  134.6409  157.5279 LP  0  0  0  0  0  0  0  0  0  0  0  0  # atno 17394 bound_to 11000
  139.9821  134.7120  155.9840 LP  0  0  0  0  0  0  0  0  0  0  0  0  # atno 17395 bound_to 11000

$$$$
