AV-unprocessed.smi:2797|AV-procd|sdf|10783|dock7
  -GOLD-   2272015223D 1   1.00000     0.00000
 Structure written by MMmdl.
 37 38  0  0  0  0  0  0  0  0  1 V2000
  145.7115  139.9815  155.3242 C   0  0  0  0  0  0  0  0  0  0  0  0
  146.8893  139.2146  155.1023 O   0  0  0  0  0  0  0  0  0  0  0  0
  147.6180  139.4675  153.8957 C   0  0  0  0  0  0  0  0  0  0  0  0
  146.7954  139.1079  152.6512 C   0  0  0  0  0  0  0  0  0  0  0  0
  146.9675  137.7029  152.2951 N   0  0  0  0  0  0  0  0  0  0  0  0
  145.9805  136.8123  152.1246 C   0  0  0  0  0  0  0  0  0  0  0  0
  144.7901  137.0728  152.2962 O   0  0  0  0  0  0  0  0  0  0  0  0
  146.4701  135.6136  151.7645 N   0  0  0  0  0  0  0  0  0  0  0  0
  145.7658  134.4100  151.4800 C   0  0  0  0  0  0  0  0  0  0  0  0
  144.5382  134.3717  150.7758 C   0  0  0  0  0  0  0  0  0  0  0  0
  143.9368  133.1224  150.5314 C   0  0  0  0  0  0  0  0  0  0  0  0
  144.4739  131.9502  150.9264 N   0  0  0  0  0  0  0  0  0  0  0  0
  145.6528  131.9815  151.5852 C   0  0  0  0  0  0  0  0  0  0  0  0
  146.2116  130.6318  151.9950 C   0  0  0  0  0  0  0  0  0  0  0  0
  146.3412  133.1814  151.8820 C   0  0  0  0  0  0  0  0  0  0  0  0
  147.8543  133.1457  152.7247 Cl  0  0  0  0  0  0  0  0  0  0  0  0
  148.1636  140.9043  154.0066 C   0  0  0  0  0  0  0  0  0  0  0  0
  149.4332  140.3430  154.6493 C   0  0  0  0  0  0  0  0  0  0  0  0
  149.0884  139.0041  153.9953 C   0  0  0  0  0  0  0  0  0  0  0  0
  145.2814  139.6940  156.2833 H   0  0  0  0  0  0  0  0  0  0  0  0
  144.9517  139.8032  154.5651 H   0  0  0  0  0  0  0  0  0  0  0  0
  145.9109  141.0504  155.3705 H   0  0  0  0  0  0  0  0  0  0  0  0
  145.7347  139.2551  152.8559 H   0  0  0  0  0  0  0  0  0  0  0  0
  147.0161  139.7691  151.8132 H   0  0  0  0  0  0  0  0  0  0  0  0
  147.9152  137.3926  152.1390 H   0  0  0  0  0  0  0  0  0  0  0  0
  147.4762  135.5342  151.7487 H   0  0  0  0  0  0  0  0  0  0  0  0
  144.0559  135.2644  150.4091 H   0  0  0  0  0  0  0  0  0  0  0  0
  143.0004  133.0632  149.9967 H   0  0  0  0  0  0  0  0  0  0  0  0
  146.3426  130.5876  153.0764 H   0  0  0  0  0  0  0  0  0  0  0  0
  147.1797  130.4642  151.5226 H   0  0  0  0  0  0  0  0  0  0  0  0
  145.5478  129.8167  151.7029 H   0  0  0  0  0  0  0  0  0  0  0  0
  148.3570  141.3597  153.0339 H   0  0  0  0  0  0  0  0  0  0  0  0
  147.5835  141.5702  154.6466 H   0  0  0  0  0  0  0  0  0  0  0  0
  150.3619  140.7968  154.3027 H   0  0  0  0  0  0  0  0  0  0  0  0
  149.3774  140.3089  155.7386 H   0  0  0  0  0  0  0  0  0  0  0  0
  149.2891  138.1358  154.6209 H   0  0  0  0  0  0  0  0  0  0  0  0
  149.5577  138.8922  153.0166 H   0  0  0  0  0  0  0  0  0  0  0  0
  1  2  1  0  0  0  0
  1 20  1  0  0  0  0
  1 21  1  0  0  0  0
  1 22  1  0  0  0  0
  2  3  1  0  0  0  0
  3 19  1  0  0  0  0
  3  4  1  0  0  0  0
  3 17  1  0  0  0  0
  4  5  1  0  0  0  0
  4 23  1  0  0  0  0
  4 24  1  0  0  0  0
  5  6  1  0  0  0  0
  5 25  1  0  0  0  0
  6  7  2  0  0  0  0
  6  8  1  0  0  0  0
  8  9  1  0  0  0  0
  8 26  1  0  0  0  0
  9 15  1  0  0  0  0
  9 10  2  0  0  0  0
 10 11  1  0  0  0  0
 10 27  1  0  0  0  0
 11 12  2  0  0  0  0
 11 28  1  0  0  0  0
 12 13  1  0  0  0  0
 13 14  1  0  0  0  0
 13 15  2  0  0  0  0
 14 29  1  0  0  0  0
 14 30  1  0  0  0  0
 14 31  1  0  0  0  0
 15 16  1  0  0  0  0
 17 18  1  0  0  0  0
 17 32  1  0  0  0  0
 17 33  1  0  0  0  0
 18 19  1  0  0  0  0
 18 34  1  0  0  0  0
 18 35  1  0  0  0  0
 19 36  1  0  0  0  0
 19 37  1  0  0  0  0
M  END
> <s_m_source_file>
AV-unprocessed.smi

> <i_m_source_file_index>
2797

> <i_lp_mmshare_version>
43012

> <i_f3d_flags>
0

> <s_epik_input>
W0NIMl0xW0NIMl1bQ0gyXUMxKE9bQ0gzXSlbQ0gyXVtOSF1DKD1PKVtOSF1jMltjSF1bY0hdbmMoW0NIM10pYzJDbA==

> <s_epik_cmdline>
J2VwaWtfcHl0aG9uJywgJy1waCcsICc3LjAnLCAnLXRuJywgJzgnLCAnLW1hJywgJzIwMCcsICctbWV0YWxfYmluZGluZycsICctaW1hZScsICc8aW5maWxlLm1hZT4nLCAnLW9tYWUnLCAnPG91dGZpbGUubWFlPic=

> <r_epik_Ionization_Penalty>
0.0099818

> <r_epik_Ionization_Penalty_Charging>
0

> <r_epik_Ionization_Penalty_Neutral>
0.0099818

> <r_epik_State_Penalty>
0.00758124

> <r_epik_Charging_Adjusted_Penalty>
0.00758124

> <i_epik_Tot_Q>
0

> <i_epik_Tot_abs_Q>
0

> <r_epik_Metal_State_Penalty>
0.00745574

> <b_epik_Metal_Only>
0

> <s_lp_Force_Field>
OPLS_2005

> <r_lp_Energy>
22.2651

> <b_lp_Chiralities_Consistent>
1

> <s_lp_Variant>
AV-unprocessed.smi:2797-1

> <Gold.Version>
5.8.1

> <Gold.Id.Protein>
6NUR|6NUR_protein|mol2

> <Gold.PLP.Fitness>
39.6549

> <Gold.PLP.PLP>
-32.0332

> <Gold.PLP.part.hbond>
-1.8609

> <Gold.PLP.part.metal>
0.0000

> <Gold.PLP.part.buried>
-3.2606

> <Gold.PLP.part.nonpolar>
-28.4994

> <Gold.PLP.part.repulsive>
1.0598

> <Gold.PLP.ligand.clash>
0.0000

> <Gold.PLP.ligand.torsion>
0.8279

> <Gold.PLP.Chemscore.Hbond>
2.0000

> <Gold.PLP.Chemscore.CHOScore>
1.0000

> <Gold.PLP.Chemscore.Metal>
0.0000

> <Gold.Chemscore.Hbonds>
donor molecule, donor type, donor heavy atom, donor atom, acceptor molecule, acceptor atom, score
      L1  H     5    25       P1  7948  1.00
      L1  H     8    26       P1  7948  1.00
      L1  C    11    28       P1 10186  1.00

> <Gold.PLP.Chemscore.Internal.Correction>
0.2776

> <Gold.Rescore>
     Score         DG    S(hbond)    S(metal)    S(lipo)     H(rot)  DE(clash)    DE(int)     intcor
     16.90     -17.89       1.91        0.00      82.37       1.41       0.12       0.87       ----

> <Gold.Chemscore.Fitness>
16.8968

> <Gold.Chemscore.DG>
-17.8865

> <Gold.Chemscore.ZeroCoef>
-5.4800

> <Gold.Chemscore.Hbond>
1.9091

> <Gold.Chemscore.Metal>
0.0000

> <Gold.Chemscore.Lipo>
82.3722

> <Gold.Chemscore.Internal_Hbond>
0.0000

> <Gold.Chemscore.DEClash>
0.1233

> <Gold.Chemscore.DEInternal>
0.8664

> <Gold.Chemscore.Rot>
1.4092

> <Gold.Chemscore.Internal.Correction>
   9.000000E+99

> <Gold.Chemscore.Hbonds>
donor molecule, donor type, donor heavy atom, donor atom, acceptor molecule, acceptor atom, score
      L1  H     5    25       P1  7948  0.92
      L1  H     8    26       P1  7948  0.93

> <Gold.Chemscore.Hbond.Weighted>
-6.3765

> <Gold.Chemscore.Metal.Weighted>
-0.0000

> <Gold.Chemscore.Lipo.Weighted>
-9.6376

> <Gold.Chemscore.Internal_Hbond.Weighted>
0.0000

> <Gold.Chemscore.DEClash.Weighted>
0.1233

> <Gold.Chemscore.DEInternal.Weighted>
0.8664

> <Gold.Chemscore.Rot.Weighted>
3.6075

> <Gold.Chemscore.Internal.Correction.Weighted>
   9.000000E+99

> <Gold.Protein.RotatedTorsions>
[ 6907 6896 6895 6894 ] final   46.12 input  -60.11 | X-H torsion
[ 7974 7965 7964 7962 ] final -176.49 input  175.53 | X-H torsion
[ 8008 7997 7996 7995 ] final    7.56 input   59.86 | X-H torsion
[ 10167 10162 10161 10158 ] final  -79.81 input  -65.29 | X-H torsion
[ 10718 10713 10712 10709 ] final -141.77 input   66.30 | X-H torsion
[ 10763 10752 10751 10750 ] final  161.60 input  -60.55 | X-H torsion
[ 11005 11000 10999 10996 ] final  178.02 input  -57.11 | X-H torsion

> <Gold.Protein.ActiveResidues>
 VAL166  LYS551  ARG553  GLY616  TRP617  ASP618  TYR619  PRO620  LYS621  CYS622 
 ASP623  PHE694  ASN695  SER759  ASP760  ASP761  ALA762  ILE779  LEU786  VAL792 
 PHE793  MET794  SER795  GLU796  ALA797  LYS798  CYS799  TRP800  GLU811  SER814 

> <Gold.Protein.RotatedAtoms>
  152.2527  134.8116  160.0443 H   0  0  0  0  0  0  0  0  0  0  0  0  # atno 6907 bound_to 6896
  151.8791  133.3486  159.3768 H   0  0  0  0  0  0  0  0  0  0  0  0  # atno 6908 bound_to 6896
  150.7089  134.4963  159.5584 H   0  0  0  0  0  0  0  0  0  0  0  0  # atno 6909 bound_to 6896
  144.7127  140.1162  143.6408 H   0  0  0  0  0  0  0  0  0  0  0  0  # atno 7974 bound_to 7965
  154.7555  140.2775  155.6257 H   0  0  0  0  0  0  0  0  0  0  0  0  # atno 8008 bound_to 7997
  156.2905  140.2670  156.2246 H   0  0  0  0  0  0  0  0  0  0  0  0  # atno 8009 bound_to 7997
  155.0083  140.0372  157.2378 H   0  0  0  0  0  0  0  0  0  0  0  0  # atno 8010 bound_to 7997
  140.4559  143.2468  151.8420 H   0  0  0  0  0  0  0  0  0  0  0  0  # atno 10167 bound_to 10162
  156.3379  130.7621  151.1752 H   0  0  0  0  0  0  0  0  0  0  0  0  # atno 10718 bound_to 10713
  154.2654  135.2767  155.2760 H   0  0  0  0  0  0  0  0  0  0  0  0  # atno 10763 bound_to 10752
  154.5347  135.5719  153.6792 H   0  0  0  0  0  0  0  0  0  0  0  0  # atno 10764 bound_to 10752
  152.9954  135.6236  154.2806 H   0  0  0  0  0  0  0  0  0  0  0  0  # atno 10765 bound_to 10752
  140.3905  134.6867  157.4504 H   0  0  0  0  0  0  0  0  0  0  0  0  # atno 11005 bound_to 11000
  145.9411  139.2670  143.1268 LP  0  0  0  0  0  0  0  0  0  0  0  0  # atno 17320 bound_to 7965
  145.9422  140.8971  143.0302 LP  0  0  0  0  0  0  0  0  0  0  0  0  # atno 17321 bound_to 7965
  139.4801  144.5065  151.8991 LP  0  0  0  0  0  0  0  0  0  0  0  0  # atno 17342 bound_to 10162
  140.4151  144.2317  150.5888 LP  0  0  0  0  0  0  0  0  0  0  0  0  # atno 17343 bound_to 10162
  157.7442  131.0463  150.4885 LP  0  0  0  0  0  0  0  0  0  0  0  0  # atno 17370 bound_to 10713
  156.5061  130.4128  149.6326 LP  0  0  0  0  0  0  0  0  0  0  0  0  # atno 17371 bound_to 10713
  140.0410  134.6267  155.8980 LP  0  0  0  0  0  0  0  0  0  0  0  0  # atno 17394 bound_to 11000
  141.1892  133.6565  156.5360 LP  0  0  0  0  0  0  0  0  0  0  0  0  # atno 17395 bound_to 11000

$$$$
