AV-unprocessed.smi:12|AV-procd|sdf|63|dock6
  -GOLD-   2262015183D 1   1.00000     0.00000
 Structure written by MMmdl.
 41 44  0  0  0  0  0  0  0  0  1 V2000
  147.1296  142.2310  154.0343 C   0  0  0  0  0  0  0  0  0  0  0  0
  147.8343  140.9062  154.2646 C   0  0  0  0  0  0  0  0  0  0  0  0
  149.1805  140.8283  154.3877 C   0  0  0  0  0  0  0  0  0  0  0  0
  149.7652  139.6108  154.5977 N   0  0  0  0  0  0  0  0  0  0  0  0
  148.9637  138.4510  154.6670 C   0  0  0  0  0  0  0  0  0  0  0  0
  147.6714  138.4428  154.5594 N   0  0  0  0  0  0  0  0  0  0  0  0
  147.0143  139.6719  154.3569 C   0  0  0  0  0  0  0  0  0  0  0  0
  145.7891  139.7153  154.2567 O   0  0  0  0  0  0  0  0  0  0  0  0
  149.7682  137.3672  154.8457 O   0  0  0  0  0  0  0  0  0  0  0  0
  151.1404  137.7819  154.8855 C   0  0  2  0  0  0  0  0  0  0  0  0
  151.7546  137.5265  156.2591 C   0  0  1  0  0  0  0  0  0  0  0  0
  152.6903  136.4687  156.2008 O   0  0  0  0  0  0  0  0  0  0  0  0
  152.4364  138.8552  156.6001 C   0  0  2  0  0  0  0  0  0  0  0  0
  152.5446  139.1463  158.1020 C   0  0  0  0  0  0  0  0  0  0  0  0
  152.5037  140.5484  158.3121 O   0  0  0  0  0  0  0  0  0  0  0  0
  152.8946  141.0678  159.4918 C   0  0  0  0  0  0  0  0  0  0  0  0
  153.4701  140.4172  160.3665 O   0  0  0  0  0  0  0  0  0  0  0  0
  152.5542  142.5134  159.6293 C   0  0  0  0  0  0  0  0  0  0  0  0
  152.4814  143.0890  160.9196 C   0  0  0  0  0  0  0  0  0  0  0  0
  152.1579  144.4503  161.0807 C   0  0  0  0  0  0  0  0  0  0  0  0
  151.9041  145.2533  159.9534 C   0  0  0  0  0  0  0  0  0  0  0  0
  151.9762  144.6936  158.6644 C   0  0  0  0  0  0  0  0  0  0  0  0
  152.2989  143.3322  158.5014 C   0  0  0  0  0  0  0  0  0  0  0  0
  151.6064  139.8244  155.9807 O   0  0  0  0  0  0  0  0  0  0  0  0
  151.1884  139.3163  154.7553 C   0  0  2  0  0  0  0  0  0  0  0  0
  147.8413  143.0561  153.9909 H   0  0  0  0  0  0  0  0  0  0  0  0
  146.4262  142.4349  154.8422 H   0  0  0  0  0  0  0  0  0  0  0  0
  146.5782  142.2116  153.0937 H   0  0  0  0  0  0  0  0  0  0  0  0
  149.7976  141.7129  154.3272 H   0  0  0  0  0  0  0  0  0  0  0  0
  151.7123  137.3385  154.0688 H   0  0  0  0  0  0  0  0  0  0  0  0
  150.9741  137.2999  156.9873 H   0  0  0  0  0  0  0  0  0  0  0  0
  152.8261  136.1404  157.0768 H   0  0  0  0  0  0  0  0  0  0  0  0
  153.4194  138.9155  156.1284 H   0  0  0  0  0  0  0  0  0  0  0  0
  151.7111  138.6794  158.6286 H   0  0  0  0  0  0  0  0  0  0  0  0
  153.4660  138.7270  158.5087 H   0  0  0  0  0  0  0  0  0  0  0  0
  152.6711  142.4923  161.8002 H   0  0  0  0  0  0  0  0  0  0  0  0
  152.1038  144.8782  162.0711 H   0  0  0  0  0  0  0  0  0  0  0  0
  151.6548  146.2970  160.0772 H   0  0  0  0  0  0  0  0  0  0  0  0
  151.7830  145.3090  157.7981 H   0  0  0  0  0  0  0  0  0  0  0  0
  152.3452  142.9352  157.4978 H   0  0  0  0  0  0  0  0  0  0  0  0
  151.6990  139.7096  153.8755 H   0  0  0  0  0  0  0  0  0  0  0  0
  1  2  1  0  0  0  0
  1 26  1  0  0  0  0
  1 27  1  0  0  0  0
  1 28  1  0  0  0  0
  2  7  1  0  0  0  0
  2  3  2  0  0  0  0
  3  4  1  0  0  0  0
  3 29  1  0  0  0  0
  4 25  1  0  0  0  0
  4  5  1  0  0  0  0
  5  6  2  0  0  0  0
  5  9  1  0  0  0  0
  6  7  1  0  0  0  0
  7  8  2  0  0  0  0
  9 10  1  0  0  0  0
 10 25  1  0  0  0  0
 10 11  1  0  0  0  0
 10 30  1  0  0  0  0
 11 12  1  0  0  0  0
 11 13  1  0  0  0  0
 11 31  1  0  0  0  0
 12 32  1  0  0  0  0
 13 14  1  0  0  0  0
 13 24  1  0  0  0  0
 13 33  1  0  0  0  0
 14 15  1  0  0  0  0
 14 34  1  0  0  0  0
 14 35  1  0  0  0  0
 15 16  1  0  0  0  0
 16 17  2  0  0  0  0
 16 18  1  0  0  0  0
 18 23  1  0  0  0  0
 18 19  2  0  0  0  0
 19 20  1  0  0  0  0
 19 36  1  0  0  0  0
 20 21  2  0  0  0  0
 20 37  1  0  0  0  0
 21 22  1  0  0  0  0
 21 38  1  0  0  0  0
 22 23  2  0  0  0  0
 22 39  1  0  0  0  0
 23 40  1  0  0  0  0
 24 25  1  0  0  0  0
 25 41  1  0  0  0  0
M  END
> <s_m_source_file>
AV-unprocessed.smi

> <i_m_source_file_index>
12

> <i_lp_mmshare_version>
43012

> <i_f3d_flags>
0

> <s_epik_input>
W0NIM11jKFtjSF0xKWMoPU8pbmMobjEyKU9bQ0BIXTNbQ0BASF0yT1tDQEBIXShbQ0BASF0zW09IXSlbQ0gyXU9DKD1PKWM0W2NIXVtjSF1bY0hdW2NIXVtjSF00

> <s_epik_cmdline>
J2VwaWtfcHl0aG9uJywgJy1waCcsICc3LjAnLCAnLXRuJywgJzgnLCAnLW1hJywgJzIwMCcsICctbWV0YWxfYmluZGluZycsICctaW1hZScsICc8aW5maWxlLm1hZT4nLCAnLW9tYWUnLCAnPG91dGZpbGUubWFlPic=

> <r_lp_tautomer_probability>
0.933681

> <r_epik_Ionization_Penalty>
0.00399549

> <r_epik_Ionization_Penalty_Charging>
3.09373e-09

> <r_epik_Ionization_Penalty_Neutral>
0.00399549

> <r_epik_State_Penalty>
0.00284953

> <r_epik_Charging_Adjusted_Penalty>
0.00284953

> <i_epik_Tot_Q>
0

> <i_epik_Tot_abs_Q>
0

> <r_epik_Metal_State_Penalty>
-0

> <b_epik_Metal_Only>
0

> <s_epik_Chemistry_Notes>
This compound has an ester and may undergo hydrolysis at high or low pH. This compound contains an acetal/aminal-like group ( X-CH(R)-Y where X, Y are N, S, or O) that may be acid/base labile, releasing an aldehyde.

> <s_lp_Force_Field>
OPLS_2005

> <r_lp_Energy>
41.0284

> <b_lp_Chiralities_Consistent>
1

> <s_lp_Variant>
AV-unprocessed.smi:12-3

> <Gold.Version>
5.8.1

> <Gold.Id.Protein>
6NUR|6NUR_protein|mol2

> <Gold.PLP.Fitness>
51.6834

> <Gold.PLP.PLP>
-50.0591

> <Gold.PLP.part.hbond>
-1.0131

> <Gold.PLP.part.metal>
0.0000

> <Gold.PLP.part.buried>
-6.1468

> <Gold.PLP.part.nonpolar>
-44.6656

> <Gold.PLP.part.repulsive>
0.9262

> <Gold.PLP.ligand.clash>
0.0000

> <Gold.PLP.ligand.torsion>
0.6956

> <Gold.PLP.Chemscore.Hbond>
1.0000

> <Gold.PLP.Chemscore.CHOScore>
0.0000

> <Gold.PLP.Chemscore.Metal>
0.0000

> <Gold.Chemscore.Hbonds>
donor molecule, donor type, donor heavy atom, donor atom, acceptor molecule, acceptor atom, score
      P1  H 10752 10765       L1    12  1.00

> <Gold.PLP.Chemscore.Internal.Correction>
0.0153

> <Gold.Rescore>
     Score         DG    S(hbond)    S(metal)    S(lipo)     H(rot)  DE(clash)    DE(int)     intcor
     16.44     -17.11       0.97        0.00     119.39       2.18       0.03       0.64       ----

> <Gold.Chemscore.Fitness>
16.4431

> <Gold.Chemscore.DG>
-17.1102

> <Gold.Chemscore.ZeroCoef>
-5.4800

> <Gold.Chemscore.Hbond>
0.9709

> <Gold.Chemscore.Metal>
0.0000

> <Gold.Chemscore.Lipo>
119.3852

> <Gold.Chemscore.Internal_Hbond>
0.0000

> <Gold.Chemscore.DEClash>
0.0259

> <Gold.Chemscore.DEInternal>
0.6412

> <Gold.Chemscore.Rot>
2.1800

> <Gold.Chemscore.Internal.Correction>
   9.000000E+99

> <Gold.Chemscore.Hbonds>
donor molecule, donor type, donor heavy atom, donor atom, acceptor molecule, acceptor atom, score
      P1  H 10752 10765       L1    12  0.46

> <Gold.Chemscore.Hbond.Weighted>
-3.2429

> <Gold.Chemscore.Metal.Weighted>
-0.0000

> <Gold.Chemscore.Lipo.Weighted>
-13.9681

> <Gold.Chemscore.Internal_Hbond.Weighted>
0.0000

> <Gold.Chemscore.DEClash.Weighted>
0.0259

> <Gold.Chemscore.DEInternal.Weighted>
0.6412

> <Gold.Chemscore.Rot.Weighted>
5.5807

> <Gold.Chemscore.Internal.Correction.Weighted>
   9.000000E+99

> <Gold.Protein.RotatedTorsions>
[ 6907 6896 6895 6894 ] final   62.54 input  -60.11 | X-H torsion
[ 7974 7965 7964 7962 ] final  134.99 input  175.53 | X-H torsion
[ 8008 7997 7996 7995 ] final   -3.77 input   59.86 | X-H torsion
[ 10167 10162 10161 10158 ] final   84.11 input  -65.29 | X-H torsion
[ 10718 10713 10712 10709 ] final   47.92 input   66.30 | X-H torsion
[ 10763 10752 10751 10750 ] final -130.62 input  -60.55 | X-H torsion
[ 11005 11000 10999 10996 ] final  131.56 input  -57.11 | X-H torsion

> <Gold.Protein.ActiveResidues>
 VAL166  LYS551  ARG553  GLY616  TRP617  ASP618  TYR619  PRO620  LYS621  CYS622 
 ASP623  PHE694  ASN695  SER759  ASP760  ASP761  ALA762  ILE779  LEU786  VAL792 
 PHE793  MET794  SER795  GLU796  ALA797  LYS798  CYS799  TRP800  GLU811  SER814 

> <Gold.Protein.RotatedAtoms>
  152.4180  134.6006  159.9998 H   0  0  0  0  0  0  0  0  0  0  0  0  # atno 6907 bound_to 6896
  151.6164  133.3337  159.3086 H   0  0  0  0  0  0  0  0  0  0  0  0  # atno 6908 bound_to 6896
  150.8069  134.7238  159.6718 H   0  0  0  0  0  0  0  0  0  0  0  0  # atno 6909 bound_to 6896
  144.9708  139.4608  143.5434 H   0  0  0  0  0  0  0  0  0  0  0  0  # atno 7974 bound_to 7965
  154.6214  140.2501  155.7545 H   0  0  0  0  0  0  0  0  0  0  0  0  # atno 8008 bound_to 7997
  156.2429  140.2926  156.0443 H   0  0  0  0  0  0  0  0  0  0  0  0  # atno 8009 bound_to 7997
  155.1891  140.0391  157.2887 H   0  0  0  0  0  0  0  0  0  0  0  0  # atno 8010 bound_to 7997
  139.9114  144.6269  150.8533 H   0  0  0  0  0  0  0  0  0  0  0  0  # atno 10167 bound_to 10162
  157.4634  130.8210  149.7910 H   0  0  0  0  0  0  0  0  0  0  0  0  # atno 10718 bound_to 10713
  154.8755  135.3857  154.4112 H   0  0  0  0  0  0  0  0  0  0  0  0  # atno 10763 bound_to 10752
  153.4826  135.7030  153.5934 H   0  0  0  0  0  0  0  0  0  0  0  0  # atno 10764 bound_to 10752
  153.4343  135.3871  155.2157 H   0  0  0  0  0  0  0  0  0  0  0  0  # atno 10765 bound_to 10752
  139.9737  134.9570  156.9456 H   0  0  0  0  0  0  0  0  0  0  0  0  # atno 11005 bound_to 11000
  146.3381  139.8918  142.8808 LP  0  0  0  0  0  0  0  0  0  0  0  0  # atno 17320 bound_to 7965
  145.2562  141.0061  143.3852 LP  0  0  0  0  0  0  0  0  0  0  0  0  # atno 17321 bound_to 7965
  140.7684  143.3363  151.2302 LP  0  0  0  0  0  0  0  0  0  0  0  0  # atno 17342 bound_to 10162
  139.6939  143.9645  152.2873 LP  0  0  0  0  0  0  0  0  0  0  0  0  # atno 17343 bound_to 10162
  156.0039  130.3865  150.2503 LP  0  0  0  0  0  0  0  0  0  0  0  0  # atno 17370 bound_to 10713
  157.0681  131.0109  151.3199 LP  0  0  0  0  0  0  0  0  0  0  0  0  # atno 17371 bound_to 10713
  140.5239  134.0880  155.7298 LP  0  0  0  0  0  0  0  0  0  0  0  0  # atno 17394 bound_to 11000
  141.1416  133.9129  157.2313 LP  0  0  0  0  0  0  0  0  0  0  0  0  # atno 17395 bound_to 11000

$$$$
