AV-unprocessed.smi:702|AV-procd|sdf|3425|dock3
  -GOLD-   22720 0403D 1   1.00000     0.00000
 Structure written by MMmdl.
 50 52  0  0  0  0  0  0  0  0  4 V2000
  150.2606  130.4372  154.5505 C   0  0  0  0  0  0  0  0  0  0  0  0
  148.7684  130.4767  154.1605 C   0  0  1  0  0  0  0  0  0  0  0  0
  148.5885  131.5659  153.1933 N   0  5  0  0  0  0  0  0  0  0  0  0
  147.4239  132.2331  152.9700 C   0  0  0  0  0  0  0  0  0  0  0  0
  146.8098  132.9605  153.7579 O   0  0  0  0  0  0  0  0  0  0  0  0
  146.9614  132.0384  151.7224 N   0  0  0  0  0  0  0  0  0  0  0  0
  145.7605  132.5114  151.1276 C   0  0  0  0  0  0  0  0  0  0  0  0
  144.7052  132.8842  151.9889 C   0  0  0  0  0  0  0  0  0  0  0  0
  143.5044  133.3806  151.4423 C   0  0  0  0  0  0  0  0  0  0  0  0
  143.3767  133.5073  150.1040 N   0  3  0  0  0  0  0  0  0  0  0  0
  144.3637  133.1812  149.2420 C   0  0  0  0  0  0  0  0  0  0  0  0
  145.5874  132.6801  149.7303 C   0  0  0  0  0  0  0  0  0  0  0  0
  148.1530  129.1229  153.5935 C   0  0  0  0  0  0  0  0  0  0  0  0
  148.1626  127.9712  154.5951 N   0  3  0  0  0  0  0  0  0  0  0  0
  149.4865  127.4208  155.0217 C   0  0  0  0  0  0  0  0  0  0  0  0
  149.3018  126.0542  155.6968 C   0  0  0  0  0  0  0  0  0  0  0  0
  148.4398  126.1944  156.8177 O   0  0  0  0  0  0  0  0  0  0  0  0
  147.1471  126.6447  156.4361 C   0  0  0  0  0  0  0  0  0  0  0  0
  147.2426  128.0276  155.7705 C   0  0  0  0  0  0  0  0  0  0  0  0
  146.7392  129.3100  152.9649 C   0  0  0  0  0  0  0  0  0  0  0  0
  146.5025  128.0779  152.0831 C   0  0  0  0  0  0  0  0  0  0  0  0
  147.9003  127.6270  151.6444 C   0  0  0  0  0  0  0  0  0  0  0  0
  148.8764  128.6050  152.3158 C   0  0  0  0  0  0  0  0  0  0  0  0
  150.4626  129.7106  155.3356 H   0  0  0  0  0  0  0  0  0  0  0  0
  150.5782  131.4039  154.9434 H   0  0  0  0  0  0  0  0  0  0  0  0
  150.9079  130.2129  153.7034 H   0  0  0  0  0  0  0  0  0  0  0  0
  148.2376  130.6834  155.0906 H   0  0  0  0  0  0  0  0  0  0  0  0
  147.5797  131.5279  151.1092 H   0  0  0  0  0  0  0  0  0  0  0  0
  144.8104  132.7853  153.0597 H   0  0  0  0  0  0  0  0  0  0  0  0
  142.6501  133.6801  152.0314 H   0  0  0  0  0  0  0  0  0  0  0  0
  144.1497  133.3361  148.1947 H   0  0  0  0  0  0  0  0  0  0  0  0
  146.3738  132.4466  149.0288 H   0  0  0  0  0  0  0  0  0  0  0  0
  150.1676  127.3085  154.1804 H   0  0  0  0  0  0  0  0  0  0  0  0
  149.9687  128.0969  155.7289 H   0  0  0  0  0  0  0  0  0  0  0  0
  148.8978  125.3224  154.9953 H   0  0  0  0  0  0  0  0  0  0  0  0
  150.2636  125.6715  156.0389 H   0  0  0  0  0  0  0  0  0  0  0  0
  146.6813  125.9221  155.7640 H   0  0  0  0  0  0  0  0  0  0  0  0
  146.5187  126.7006  157.3255 H   0  0  0  0  0  0  0  0  0  0  0  0
  147.5948  128.7515  156.5036 H   0  0  0  0  0  0  0  0  0  0  0  0
  146.2325  128.3160  155.4934 H   0  0  0  0  0  0  0  0  0  0  0  0
  145.9319  129.4929  153.6727 H   0  0  0  0  0  0  0  0  0  0  0  0
  146.7160  130.1684  152.2916 H   0  0  0  0  0  0  0  0  0  0  0  0
  146.0172  127.2868  152.6559 H   0  0  0  0  0  0  0  0  0  0  0  0
  145.8595  128.3100  151.2335 H   0  0  0  0  0  0  0  0  0  0  0  0
  148.0869  126.6077  151.9846 H   0  0  0  0  0  0  0  0  0  0  0  0
  148.0114  127.6356  150.5596 H   0  0  0  0  0  0  0  0  0  0  0  0
  149.0500  129.4011  151.5908 H   0  0  0  0  0  0  0  0  0  0  0  0
  149.8493  128.1485  152.4916 H   0  0  0  0  0  0  0  0  0  0  0  0
  147.7653  127.2253  154.0434 H   0  0  0  0  0  0  0  0  0  0  0  0
  142.5001  133.8697  149.7284 H   0  0  0  0  0  0  0  0  0  0  0  0
  1  2  1  0  0  0  0
  1 24  1  0  0  0  0
  1 25  1  0  0  0  0
  1 26  1  0  0  0  0
  2  3  1  0  0  0  0
  2 13  1  0  0  0  0
  2 27  1  0  0  0  0
  3  4  1  0  0  0  0
  4  5  2  0  0  0  0
  4  6  1  0  0  0  0
  6  7  1  0  0  0  0
  6 28  1  0  0  0  0
  7 12  1  0  0  0  0
  7  8  2  0  0  0  0
  8  9  1  0  0  0  0
  8 29  1  0  0  0  0
  9 10  2  0  0  0  0
  9 30  1  0  0  0  0
 10 11  1  0  0  0  0
 10 50  1  0  0  0  0
 11 12  2  0  0  0  0
 11 31  1  0  0  0  0
 12 32  1  0  0  0  0
 13 23  1  0  0  0  0
 13 14  1  0  0  0  0
 13 20  1  0  0  0  0
 14 19  1  0  0  0  0
 14 15  1  0  0  0  0
 14 49  1  0  0  0  0
 15 16  1  0  0  0  0
 15 33  1  0  0  0  0
 15 34  1  0  0  0  0
 16 17  1  0  0  0  0
 16 35  1  0  0  0  0
 16 36  1  0  0  0  0
 17 18  1  0  0  0  0
 18 19  1  0  0  0  0
 18 37  1  0  0  0  0
 18 38  1  0  0  0  0
 19 39  1  0  0  0  0
 19 40  1  0  0  0  0
 20 21  1  0  0  0  0
 20 41  1  0  0  0  0
 20 42  1  0  0  0  0
 21 22  1  0  0  0  0
 21 43  1  0  0  0  0
 21 44  1  0  0  0  0
 22 23  1  0  0  0  0
 22 45  1  0  0  0  0
 22 46  1  0  0  0  0
 23 47  1  0  0  0  0
 23 48  1  0  0  0  0
M  CHG  1   3  -1
M  CHG  1  10   1
M  CHG  1  14   1
M  END
> <s_m_source_file>
AV-unprocessed.smi

> <i_m_source_file_index>
702

> <i_lp_mmshare_version>
43012

> <i_f3d_flags>
0

> <s_epik_input>
W0NIMl0xW0NIMl1PW0NIMl1bQ0gyXU4xQzIoW0NIMl1bQ0gyXVtDSDJdW0NIMl0yKVtDQEhdKFtDSDNdKVtOSF1DKD1PKVtOSF1jM1tjSF1bY0hdbltjSF1bY0hdMw==

> <s_epik_cmdline>
J2VwaWtfcHl0aG9uJywgJy1waCcsICc3LjAnLCAnLXRuJywgJzgnLCAnLW1hJywgJzIwMCcsICctbWV0YWxfYmluZGluZycsICctaW1hZScsICc8aW5maWxlLm1hZT4nLCAnLW9tYWUnLCAnPG91dGZpbGUubWFlPic=

> <r_epik_Ionization_Penalty>
8.33674

> <r_epik_Ionization_Penalty_Charging>
8.33674

> <r_epik_Ionization_Penalty_Neutral>
3.60854e-06

> <r_epik_State_Penalty>
8.24268

> <r_epik_Charging_Adjusted_Penalty>
16.5794

> <i_epik_Tot_Q>
1

> <i_epik_Tot_abs_Q>
3

> <r_epik_Metal_State_Penalty>
4.24853

> <b_epik_Metal_Only>
1

> <s_lp_Force_Field>
OPLS_2005

> <r_lp_Energy>
61.2868

> <b_lp_Chiralities_Consistent>
1

> <s_lp_Variant>
AV-unprocessed.smi:702-10

> <Gold.Version>
5.8.1

> <Gold.Id.Protein>
6NUR|6NUR_protein|mol2

> <Gold.PLP.Fitness>
40.6410

> <Gold.PLP.PLP>
-33.7195

> <Gold.PLP.part.hbond>
-2.0000

> <Gold.PLP.part.metal>
0.0000

> <Gold.PLP.part.buried>
-5.5298

> <Gold.PLP.part.nonpolar>
-26.6159

> <Gold.PLP.part.repulsive>
1.0606

> <Gold.PLP.ligand.clash>
0.0000

> <Gold.PLP.ligand.torsion>
1.2683

> <Gold.PLP.Chemscore.Hbond>
3.0000

> <Gold.PLP.Chemscore.CHOScore>
0.0000

> <Gold.PLP.Chemscore.Metal>
0.0000

> <Gold.Chemscore.Hbonds>
donor molecule, donor type, donor heavy atom, donor atom, acceptor molecule, acceptor atom, score
      L1  H     6    28       P1 10747  1.00
      L1  H    10    50       P1 10186  2.00

> <Gold.PLP.Chemscore.Internal.Correction>
0.4580

> <Gold.Rescore>
     Score         DG    S(hbond)    S(metal)    S(lipo)     H(rot)  DE(clash)    DE(int)     intcor
     15.09     -18.75       1.93        0.00      90.16       1.45       0.17       3.48       ----

> <Gold.Chemscore.Fitness>
15.0938

> <Gold.Chemscore.DG>
-18.7517

> <Gold.Chemscore.ZeroCoef>
-5.4800

> <Gold.Chemscore.Hbond>
1.9269

> <Gold.Chemscore.Metal>
0.0000

> <Gold.Chemscore.Lipo>
90.1613

> <Gold.Chemscore.Internal_Hbond>
0.0000

> <Gold.Chemscore.DEClash>
0.1736

> <Gold.Chemscore.DEInternal>
3.4843

> <Gold.Chemscore.Rot>
1.4504

> <Gold.Chemscore.Internal.Correction>
   9.000000E+99

> <Gold.Chemscore.Hbonds>
donor molecule, donor type, donor heavy atom, donor atom, acceptor molecule, acceptor atom, score
      L1  H     6    28       P1 10747  1.00
      L1  H    10    50       P1 10186  0.99

> <Gold.Chemscore.Hbond.Weighted>
-6.4358

> <Gold.Chemscore.Metal.Weighted>
-0.0000

> <Gold.Chemscore.Lipo.Weighted>
-10.5489

> <Gold.Chemscore.Internal_Hbond.Weighted>
0.0000

> <Gold.Chemscore.DEClash.Weighted>
0.1736

> <Gold.Chemscore.DEInternal.Weighted>
3.4843

> <Gold.Chemscore.Rot.Weighted>
3.7129

> <Gold.Chemscore.Internal.Correction.Weighted>
   9.000000E+99

> <Gold.Protein.RotatedTorsions>
[ 6907 6896 6895 6894 ] final  162.89 input  -60.11 | X-H torsion
[ 7974 7965 7964 7962 ] final   -1.60 input  175.53 | X-H torsion
[ 8008 7997 7996 7995 ] final   89.15 input   59.86 | X-H torsion
[ 10167 10162 10161 10158 ] final -105.64 input  -65.29 | X-H torsion
[ 10718 10713 10712 10709 ] final  -44.35 input   66.30 | X-H torsion
[ 10763 10752 10751 10750 ] final  -10.83 input  -60.55 | X-H torsion
[ 11005 11000 10999 10996 ] final -120.43 input  -57.11 | X-H torsion

> <Gold.Protein.ActiveResidues>
 VAL166  LYS551  ARG553  GLY616  TRP617  ASP618  TYR619  PRO620  LYS621  CYS622 
 ASP623  PHE694  ASN695  SER759  ASP760  ASP761  ALA762  ILE779  LEU786  VAL792 
 PHE793  MET794  SER795  GLU796  ALA797  LYS798  CYS799  TRP800  GLU811  SER814 

> <Gold.Protein.RotatedAtoms>
  151.9335  133.3617  159.3939 H   0  0  0  0  0  0  0  0  0  0  0  0  # atno 6907 bound_to 6896
  150.7012  134.4513  159.5347 H   0  0  0  0  0  0  0  0  0  0  0  0  # atno 6908 bound_to 6896
  152.2158  134.8460  160.0543 H   0  0  0  0  0  0  0  0  0  0  0  0  # atno 6909 bound_to 6896
  146.2415  140.1445  142.8335 H   0  0  0  0  0  0  0  0  0  0  0  0  # atno 7974 bound_to 7965
  155.9965  140.3364  155.6803 H   0  0  0  0  0  0  0  0  0  0  0  0  # atno 8008 bound_to 7997
  155.6349  140.0689  157.2655 H   0  0  0  0  0  0  0  0  0  0  0  0  # atno 8009 bound_to 7997
  154.4235  140.1753  156.1499 H   0  0  0  0  0  0  0  0  0  0  0  0  # atno 8010 bound_to 7997
  140.1964  143.3852  152.1165 H   0  0  0  0  0  0  0  0  0  0  0  0  # atno 10167 bound_to 10162
  156.2395  130.4179  149.8778 H   0  0  0  0  0  0  0  0  0  0  0  0  # atno 10718 bound_to 10713
  153.4749  135.7017  153.5972 H   0  0  0  0  0  0  0  0  0  0  0  0  # atno 10763 bound_to 10752
  153.4210  135.3825  155.2111 H   0  0  0  0  0  0  0  0  0  0  0  0  # atno 10764 bound_to 10752
  154.8724  135.3927  154.4191 H   0  0  0  0  0  0  0  0  0  0  0  0  # atno 10765 bound_to 10752
  141.0144  134.0217  157.3369 H   0  0  0  0  0  0  0  0  0  0  0  0  # atno 11005 bound_to 11000
  145.0219  140.8801  143.5161 LP  0  0  0  0  0  0  0  0  0  0  0  0  # atno 17320 bound_to 7965
  145.1495  139.2523  143.5448 LP  0  0  0  0  0  0  0  0  0  0  0  0  # atno 17321 bound_to 7965
  139.5235  144.7072  151.5318 LP  0  0  0  0  0  0  0  0  0  0  0  0  # atno 17342 bound_to 10162
  140.6420  143.8869  150.6701 LP  0  0  0  0  0  0  0  0  0  0  0  0  # atno 17343 bound_to 10162
  156.6364  130.8687  151.3505 LP  0  0  0  0  0  0  0  0  0  0  0  0  # atno 17370 bound_to 10713
  157.7169  130.9508  150.1288 LP  0  0  0  0  0  0  0  0  0  0  0  0  # atno 17371 bound_to 10713
  139.9108  135.0189  156.7685 LP  0  0  0  0  0  0  0  0  0  0  0  0  # atno 17394 bound_to 11000
  140.6679  133.9586  155.7840 LP  0  0  0  0  0  0  0  0  0  0  0  0  # atno 17395 bound_to 11000

$$$$
