AV-unprocessed.smi:505|AV-procd|sdf|2748|dock1
  -GOLD-   2262023213D 1   1.00000     0.00000
 Structure written by MMmdl.
 37 38  0  0  0  0  0  0  0  0  1 V2000
  150.8570  134.9758  155.7707 C   0  0  0  0  0  0  0  0  0  0  0  0
  152.0681  135.7087  155.8087 O   0  0  0  0  0  0  0  0  0  0  0  0
  151.8674  137.0782  156.1191 C   0  0  0  0  0  0  0  0  0  0  0  0
  151.4259  137.2161  157.5827 C   0  0  0  0  0  0  0  0  0  0  0  0
  151.7610  138.5240  158.1374 N   0  0  0  0  0  0  0  0  0  0  0  0
  151.4361  139.7463  157.6479 C   0  0  0  0  0  0  0  0  0  0  0  0
  150.7123  139.8619  156.4689 N   0  0  0  0  0  0  0  0  0  0  0  0
  150.2380  141.0179  155.7330 C   0  0  0  0  0  0  0  0  0  0  0  0
  149.2471  140.6220  154.6311 C   0  0  0  0  0  0  0  0  0  0  0  0
  149.7125  141.0741  153.3772 O   0  0  0  0  0  0  0  0  0  0  0  0
  151.8731  140.7795  158.3725 N   0  0  0  0  0  0  0  0  0  0  0  0
  152.5497  140.1577  159.4132 C   0  0  0  0  0  0  0  0  0  0  0  0
  152.5003  138.8067  159.2846 C   0  0  0  0  0  0  0  0  0  0  0  0
  153.1505  137.8971  160.2353 C   0  0  0  0  0  0  0  0  0  0  0  0
  153.1226  136.6729  160.1280 O   0  0  0  0  0  0  0  0  0  0  0  0
  153.7889  138.5471  161.2387 N   0  0  0  0  0  0  0  0  0  0  0  0
  153.8758  139.8993  161.4303 C   0  0  0  0  0  0  0  0  0  0  0  0
  154.4990  140.3446  162.3939 O   0  0  0  0  0  0  0  0  0  0  0  0
  153.2518  140.7145  160.5203 N   0  0  0  0  0  0  0  0  0  0  0  0
  153.3096  142.1689  160.6795 C   0  0  0  0  0  0  0  0  0  0  0  0
  154.2562  137.9680  161.9208 H   0  0  0  0  0  0  0  0  0  0  0  0
  151.0679  133.9333  155.5320 H   0  0  0  0  0  0  0  0  0  0  0  0
  150.1837  135.3669  155.0070 H   0  0  0  0  0  0  0  0  0  0  0  0
  150.3483  135.0044  156.7352 H   0  0  0  0  0  0  0  0  0  0  0  0
  152.7913  137.6357  155.9594 H   0  0  0  0  0  0  0  0  0  0  0  0
  151.1111  137.5043  155.4582 H   0  0  0  0  0  0  0  0  0  0  0  0
  150.3512  137.0527  157.6658 H   0  0  0  0  0  0  0  0  0  0  0  0
  151.8877  136.4417  158.1945 H   0  0  0  0  0  0  0  0  0  0  0  0
  150.5259  138.9851  156.0041 H   0  0  0  0  0  0  0  0  0  0  0  0
  149.7408  141.6754  156.4467 H   0  0  0  0  0  0  0  0  0  0  0  0
  151.0809  141.5760  155.3235 H   0  0  0  0  0  0  0  0  0  0  0  0
  149.0741  139.5453  154.6101 H   0  0  0  0  0  0  0  0  0  0  0  0
  148.2843  141.0987  154.8165 H   0  0  0  0  0  0  0  0  0  0  0  0
  149.7171  140.3444  152.7767 H   0  0  0  0  0  0  0  0  0  0  0  0
  152.9392  142.4638  161.6625 H   0  0  0  0  0  0  0  0  0  0  0  0
  152.7089  142.6954  159.9379 H   0  0  0  0  0  0  0  0  0  0  0  0
  154.3369  142.5222  160.5809 H   0  0  0  0  0  0  0  0  0  0  0  0
  1  2  1  0  0  0  0
  1 22  1  0  0  0  0
  1 23  1  0  0  0  0
  1 24  1  0  0  0  0
  2  3  1  0  0  0  0
  3  4  1  0  0  0  0
  3 25  1  0  0  0  0
  3 26  1  0  0  0  0
  4  5  1  0  0  0  0
  4 27  1  0  0  0  0
  4 28  1  0  0  0  0
  5 13  1  0  0  0  0
  5  6  1  0  0  0  0
  6  7  1  0  0  0  0
  6 11  2  0  0  0  0
  7  8  1  0  0  0  0
  7 29  1  0  0  0  0
  8  9  1  0  0  0  0
  8 30  1  0  0  0  0
  8 31  1  0  0  0  0
  9 10  1  0  0  0  0
  9 32  1  0  0  0  0
  9 33  1  0  0  0  0
 10 34  1  0  0  0  0
 11 12  1  0  0  0  0
 12 19  1  0  0  0  0
 12 13  2  0  0  0  0
 13 14  1  0  0  0  0
 14 15  2  0  0  0  0
 14 16  1  0  0  0  0
 16 21  1  0  0  0  0
 16 17  1  0  0  0  0
 17 18  2  0  0  0  0
 17 19  1  0  0  0  0
 19 20  1  0  0  0  0
 20 35  1  0  0  0  0
 20 36  1  0  0  0  0
 20 37  1  0  0  0  0
M  END
> <s_m_source_file>
AV-unprocessed.smi

> <i_m_source_file_index>
505

> <i_lp_mmshare_version>
43012

> <i_f3d_flags>
0

> <s_epik_input>
W09IXVtDSDJdW0NIMl1bTkhdYyhuMSluKFtDSDJdW0NIMl1PW0NIM10pYyhjMTIpYyg9TylbbkhdYyg9TyluMltDSDNd

> <s_epik_cmdline>
J2VwaWtfcHl0aG9uJywgJy1waCcsICc3LjAnLCAnLXRuJywgJzgnLCAnLW1hJywgJzIwMCcsICctbWV0YWxfYmluZGluZycsICctaW1hZScsICc8aW5maWxlLm1hZT4nLCAnLW9tYWUnLCAnPG91dGZpbGUubWFlPic=

> <r_lp_tautomer_probability>
1

> <r_epik_Ionization_Penalty>
7.89905e-05

> <r_epik_Ionization_Penalty_Charging>
2.6983e-05

> <r_epik_Ionization_Penalty_Neutral>
5.20075e-05

> <r_epik_State_Penalty>
-0

> <r_epik_Charging_Adjusted_Penalty>
2.6983e-05

> <i_epik_Tot_Q>
0

> <i_epik_Tot_abs_Q>
0

> <r_epik_Metal_State_Penalty>
0.02526

> <b_epik_Metal_Only>
0

> <s_lp_Force_Field>
OPLS_2005

> <r_lp_Energy>
22.7063

> <b_lp_Chiralities_Consistent>
1

> <s_lp_Variant>
AV-unprocessed.smi:505-1

> <Gold.Version>
5.8.1

> <Gold.Id.Protein>
6NUR|6NUR_protein|mol2

> <Gold.PLP.Fitness>
42.0641

> <Gold.PLP.PLP>
-31.7885

> <Gold.PLP.part.hbond>
-5.0500

> <Gold.PLP.part.metal>
0.0000

> <Gold.PLP.part.buried>
-5.9213

> <Gold.PLP.part.nonpolar>
-21.0327

> <Gold.PLP.part.repulsive>
0.1052

> <Gold.PLP.ligand.clash>
0.0000

> <Gold.PLP.ligand.torsion>
0.6228

> <Gold.PLP.Chemscore.Hbond>
3.8214

> <Gold.PLP.Chemscore.CHOScore>
0.0000

> <Gold.PLP.Chemscore.Metal>
0.0000

> <Gold.Chemscore.Hbonds>
donor molecule, donor type, donor heavy atom, donor atom, acceptor molecule, acceptor atom, score
      L1  H    10    34       P1  7957  0.78
      P1  H  6896  6909       L1    15  1.00
      P1  H  7989  7998       L1    10  0.06
      P1  H  8011  8017       L1    10  1.00
      P1  H 10752 10763       L1     2  0.62

> <Gold.PLP.Chemscore.Internal.Correction>
0.0570

> <Gold.Rescore>
     Score         DG    S(hbond)    S(metal)    S(lipo)     H(rot)  DE(clash)    DE(int)     intcor
     12.83     -13.43       3.19        0.00      43.86       3.06       0.05       0.55       ----

> <Gold.Chemscore.Fitness>
12.8313

> <Gold.Chemscore.DG>
-13.4338

> <Gold.Chemscore.ZeroCoef>
-5.4800

> <Gold.Chemscore.Hbond>
3.1921

> <Gold.Chemscore.Metal>
0.0000

> <Gold.Chemscore.Lipo>
43.8575

> <Gold.Chemscore.Internal_Hbond>
0.0000

> <Gold.Chemscore.DEClash>
0.0515

> <Gold.Chemscore.DEInternal>
0.5510

> <Gold.Chemscore.Rot>
3.0621

> <Gold.Chemscore.Internal.Correction>
   9.000000E+99

> <Gold.Chemscore.Hbonds>
donor molecule, donor type, donor heavy atom, donor atom, acceptor molecule, acceptor atom, score
      L1  H    10    34       P1  7957  0.79
      P1  H  6896  6909       L1    15  0.96
      P1  H  8011  8017       L1    10  0.34
      P1  H 10752 10763       L1     2  0.51

> <Gold.Chemscore.Hbond.Weighted>
-10.6615

> <Gold.Chemscore.Metal.Weighted>
-0.0000

> <Gold.Chemscore.Lipo.Weighted>
-5.1313

> <Gold.Chemscore.Internal_Hbond.Weighted>
0.0000

> <Gold.Chemscore.DEClash.Weighted>
0.0515

> <Gold.Chemscore.DEInternal.Weighted>
0.5510

> <Gold.Chemscore.Rot.Weighted>
7.8390

> <Gold.Chemscore.Internal.Correction.Weighted>
   9.000000E+99

> <Gold.Protein.RotatedTorsions>
[ 6907 6896 6895 6894 ] final  166.49 input  -60.11 | X-H torsion
[ 7974 7965 7964 7962 ] final  127.81 input  175.53 | X-H torsion
[ 8008 7997 7996 7995 ] final   47.93 input   59.86 | X-H torsion
[ 10167 10162 10161 10158 ] final  -10.78 input  -65.29 | X-H torsion
[ 10718 10713 10712 10709 ] final  128.63 input   66.30 | X-H torsion
[ 10763 10752 10751 10750 ] final   70.85 input  -60.55 | X-H torsion
[ 11005 11000 10999 10996 ] final   -8.31 input  -57.11 | X-H torsion

> <Gold.Protein.ActiveResidues>
 VAL166  LYS551  ARG553  GLY616  TRP617  ASP618  TYR619  PRO620  LYS621  CYS622 
 ASP623  PHE694  ASN695  SER759  ASP760  ASP761  ALA762  ILE779  LEU786  VAL792 
 PHE793  MET794  SER795  GLU796  ALA797  LYS798  CYS799  TRP800  GLU811  SER814 

> <Gold.Protein.RotatedAtoms>
  151.8781  133.3489  159.3756 H   0  0  0  0  0  0  0  0  0  0  0  0  # atno 6907 bound_to 6896
  150.7135  134.5046  159.5587 H   0  0  0  0  0  0  0  0  0  0  0  0  # atno 6908 bound_to 6896
  152.2592  134.8052  160.0484 H   0  0  0  0  0  0  0  0  0  0  0  0  # atno 6909 bound_to 6896
  145.0464  139.3919  143.5076 H   0  0  0  0  0  0  0  0  0  0  0  0  # atno 7974 bound_to 7965
  155.3772  140.3427  155.4245 H   0  0  0  0  0  0  0  0  0  0  0  0  # atno 8008 bound_to 7997
  156.1630  140.1607  156.8613 H   0  0  0  0  0  0  0  0  0  0  0  0  # atno 8009 bound_to 7997
  154.5158  140.0779  156.8060 H   0  0  0  0  0  0  0  0  0  0  0  0  # atno 8010 bound_to 7997
  140.7122  143.5710  150.9092 H   0  0  0  0  0  0  0  0  0  0  0  0  # atno 10167 bound_to 10162
  157.5227  131.1098  150.9129 H   0  0  0  0  0  0  0  0  0  0  0  0  # atno 10718 bound_to 10713
  153.0365  135.5158  154.7504 H   0  0  0  0  0  0  0  0  0  0  0  0  # atno 10763 bound_to 10752
  154.6476  135.2920  155.0029 H   0  0  0  0  0  0  0  0  0  0  0  0  # atno 10764 bound_to 10752
  154.0924  135.6648  153.4907 H   0  0  0  0  0  0  0  0  0  0  0  0  # atno 10765 bound_to 10752
  140.7221  133.8819  155.8829 H   0  0  0  0  0  0  0  0  0  0  0  0  # atno 11005 bound_to 11000
  146.3514  140.0092  142.8669 LP  0  0  0  0  0  0  0  0  0  0  0  0  # atno 17320 bound_to 7965
  145.1582  140.9659  143.4393 LP  0  0  0  0  0  0  0  0  0  0  0  0  # atno 17321 bound_to 7965
  139.9436  143.6353  152.3047 LP  0  0  0  0  0  0  0  0  0  0  0  0  # atno 17342 bound_to 10162
  139.6846  144.7652  151.1546 LP  0  0  0  0  0  0  0  0  0  0  0  0  # atno 17343 bound_to 10162
  156.9735  130.5500  149.5292 LP  0  0  0  0  0  0  0  0  0  0  0  0  # atno 17370 bound_to 10713
  156.0365  130.5452  150.8666 LP  0  0  0  0  0  0  0  0  0  0  0  0  # atno 17371 bound_to 10713
  140.9994  134.1171  157.4332 LP  0  0  0  0  0  0  0  0  0  0  0  0  # atno 17394 bound_to 11000
  139.8845  135.0064  156.6377 LP  0  0  0  0  0  0  0  0  0  0  0  0  # atno 17395 bound_to 11000

$$$$
