AV-unprocessed.smi:3354|AV-procd|sdf|12955|dock4
  -GOLD-   2272019393D 1   1.00000     0.00000
 Structure written by MMmdl.
 38 40  0  0  0  0  0  0  0  0  1 V2000
  148.5901  142.1255  157.3265 C   0  0  0  0  0  0  0  0  0  0  0  0
  149.7412  141.1752  157.0778 C   0  0  2  0  0  0  0  0  0  0  0  0
  151.0727  141.7090  156.6050 C   0  0  0  0  0  0  0  0  0  0  0  0
  150.2145  140.8776  155.6713 C   0  0  1  0  0  0  0  0  0  0  0  0
  150.5841  139.5313  155.3460 N   0  0  0  0  0  0  0  0  0  0  0  0
  149.6629  138.4118  155.4863 C   0  0  0  0  0  0  0  0  0  0  0  0
  150.5388  137.1459  155.4197 C   0  0  1  0  0  0  0  0  0  0  0  0
  149.9634  136.1239  154.5492 N   0  0  0  0  0  0  0  0  0  0  0  0
  149.7626  134.8448  154.8953 C   0  0  0  0  0  0  0  0  0  0  0  0
  150.0255  134.3973  156.0112 O   0  0  0  0  0  0  0  0  0  0  0  0
  149.2322  134.1459  153.8767 N   0  0  0  0  0  0  0  0  0  0  0  0
  148.8988  132.7648  153.8138 C   0  0  0  0  0  0  0  0  0  0  0  0
  149.6543  131.7254  154.4103 C   0  0  0  0  0  0  0  0  0  0  0  0
  149.2200  130.3946  154.2564 C   0  0  0  0  0  0  0  0  0  0  0  0
  148.0522  130.1494  153.5086 C   0  0  0  0  0  0  0  0  0  0  0  0
  147.3281  131.1279  152.9262 N   0  0  0  0  0  0  0  0  0  0  0  0
  147.7507  132.4011  153.0778 C   0  0  0  0  0  0  0  0  0  0  0  0
  151.9045  137.6230  154.9087 C   0  0  0  0  0  0  0  0  0  0  0  0
  151.8268  139.1333  155.0509 C   0  0  0  0  0  0  0  0  0  0  0  0
  152.8080  139.8637  154.9171 O   0  0  0  0  0  0  0  0  0  0  0  0
  148.5892  142.9342  156.5952 H   0  0  0  0  0  0  0  0  0  0  0  0
  148.6701  142.5580  158.3238 H   0  0  0  0  0  0  0  0  0  0  0  0
  147.6431  141.5908  157.2536 H   0  0  0  0  0  0  0  0  0  0  0  0
  149.7849  140.3488  157.7851 H   0  0  0  0  0  0  0  0  0  0  0  0
  151.1444  142.7743  156.3953 H   0  0  0  0  0  0  0  0  0  0  0  0
  151.9621  141.2702  157.0518 H   0  0  0  0  0  0  0  0  0  0  0  0
  149.7301  141.4355  154.8710 H   0  0  0  0  0  0  0  0  0  0  0  0
  149.1148  138.4607  156.4281 H   0  0  0  0  0  0  0  0  0  0  0  0
  148.9396  138.4478  154.6698 H   0  0  0  0  0  0  0  0  0  0  0  0
  150.6687  136.7412  156.4257 H   0  0  0  0  0  0  0  0  0  0  0  0
  149.7116  136.4103  153.6144 H   0  0  0  0  0  0  0  0  0  0  0  0
  149.0126  134.6769  153.0468 H   0  0  0  0  0  0  0  0  0  0  0  0
  150.5582  131.9130  154.9678 H   0  0  0  0  0  0  0  0  0  0  0  0
  149.7731  129.5794  154.6987 H   0  0  0  0  0  0  0  0  0  0  0  0
  147.6932  129.1402  153.3706 H   0  0  0  0  0  0  0  0  0  0  0  0
  147.1482  133.1568  152.5946 H   0  0  0  0  0  0  0  0  0  0  0  0
  152.7278  137.2110  155.4935 H   0  0  0  0  0  0  0  0  0  0  0  0
  152.0656  137.3746  153.8587 H   0  0  0  0  0  0  0  0  0  0  0  0
  1  2  1  0  0  0  0
  1 21  1  0  0  0  0
  1 22  1  0  0  0  0
  1 23  1  0  0  0  0
  2  4  1  0  0  0  0
  2  3  1  0  0  0  0
  2 24  1  0  0  0  0
  3  4  1  0  0  0  0
  3 25  1  0  0  0  0
  3 26  1  0  0  0  0
  4  5  1  0  0  0  0
  4 27  1  0  0  0  0
  5 19  1  0  0  0  0
  5  6  1  0  0  0  0
  6  7  1  0  0  0  0
  6 28  1  0  0  0  0
  6 29  1  0  0  0  0
  7  8  1  0  0  0  0
  7 18  1  0  0  0  0
  7 30  1  0  0  0  0
  8  9  1  0  0  0  0
  8 31  1  0  0  0  0
  9 10  2  0  0  0  0
  9 11  1  0  0  0  0
 11 12  1  0  0  0  0
 11 32  1  0  0  0  0
 12 17  1  0  0  0  0
 12 13  2  0  0  0  0
 13 14  1  0  0  0  0
 13 33  1  0  0  0  0
 14 15  2  0  0  0  0
 14 34  1  0  0  0  0
 15 16  1  0  0  0  0
 15 35  1  0  0  0  0
 16 17  2  0  0  0  0
 17 36  1  0  0  0  0
 18 19  1  0  0  0  0
 18 37  1  0  0  0  0
 18 38  1  0  0  0  0
 19 20  2  0  0  0  0
M  END
> <s_m_source_file>
AV-unprocessed.smi

> <i_m_source_file_index>
3354

> <i_lp_mmshare_version>
43012

> <i_f3d_flags>
0

> <s_epik_input>
W0NIM11bQ0BASF0xW0NIMl1bQ0BIXTFOMltDSDJdW0NASF0oW0NIMl1DMj1PKVtOSF1DKD1PKVtOSF1jM1tjSF1bY0hdW2NIXW5bY0hdMw==

> <s_epik_cmdline>
J2VwaWtfcHl0aG9uJywgJy1waCcsICc3LjAnLCAnLXRuJywgJzgnLCAnLW1hJywgJzIwMCcsICctbWV0YWxfYmluZGluZycsICctaW1hZScsICc8aW5maWxlLm1hZT4nLCAnLW9tYWUnLCAnPG91dGZpbGUubWFlPic=

> <r_epik_Ionization_Penalty>
0.00456191

> <r_epik_Ionization_Penalty_Charging>
0

> <r_epik_Ionization_Penalty_Neutral>
0.00456191

> <r_epik_State_Penalty>
0.00327094

> <r_epik_Charging_Adjusted_Penalty>
0.00327094

> <i_epik_Tot_Q>
0

> <i_epik_Tot_abs_Q>
0

> <r_epik_Metal_State_Penalty>
-0

> <b_epik_Metal_Only>
0

> <s_lp_Force_Field>
OPLS_2005

> <r_lp_Energy>
43.1486

> <b_lp_Chiralities_Consistent>
1

> <s_lp_Variant>
AV-unprocessed.smi:3354-1

> <Gold.Version>
5.8.1

> <Gold.Id.Protein>
6NUR|6NUR_protein|mol2

> <Gold.PLP.Fitness>
41.8262

> <Gold.PLP.PLP>
-34.3556

> <Gold.PLP.part.hbond>
-4.1924

> <Gold.PLP.part.metal>
0.0000

> <Gold.PLP.part.buried>
-1.6456

> <Gold.PLP.part.nonpolar>
-28.8199

> <Gold.PLP.part.repulsive>
0.4537

> <Gold.PLP.ligand.clash>
0.0000

> <Gold.PLP.ligand.torsion>
0.4907

> <Gold.PLP.Chemscore.Hbond>
2.7606

> <Gold.PLP.Chemscore.CHOScore>
0.0000

> <Gold.PLP.Chemscore.Metal>
0.0000

> <Gold.Chemscore.Hbonds>
donor molecule, donor type, donor heavy atom, donor atom, acceptor molecule, acceptor atom, score
      L1  H     8    31       P1  7948  1.00
      L1  H    11    32       P1  7948  0.60
      P1  H  7989  7998       L1    20  0.12
      P1  H  7997  8008       L1    20  1.00

> <Gold.PLP.Chemscore.Internal.Correction>
0.1702

> <Gold.Rescore>
     Score         DG    S(hbond)    S(metal)    S(lipo)     H(rot)  DE(clash)    DE(int)     intcor
     17.73     -18.22       2.62        0.00      61.15       1.24       0.07       0.42       ----

> <Gold.Chemscore.Fitness>
17.7341

> <Gold.Chemscore.DG>
-18.2206

> <Gold.Chemscore.ZeroCoef>
-5.4800

> <Gold.Chemscore.Hbond>
2.6198

> <Gold.Chemscore.Metal>
0.0000

> <Gold.Chemscore.Lipo>
61.1515

> <Gold.Chemscore.Internal_Hbond>
0.0000

> <Gold.Chemscore.DEClash>
0.0657

> <Gold.Chemscore.DEInternal>
0.4208

> <Gold.Chemscore.Rot>
1.2361

> <Gold.Chemscore.Internal.Correction>
   9.000000E+99

> <Gold.Chemscore.Hbonds>
donor molecule, donor type, donor heavy atom, donor atom, acceptor molecule, acceptor atom, score
      L1  H     8    31       P1  7948  0.39
      L1  H    11    32       P1  7948  0.04
      P1  H  7997  8008       L1    20  0.94

> <Gold.Chemscore.Hbond.Weighted>
-8.7502

> <Gold.Chemscore.Metal.Weighted>
-0.0000

> <Gold.Chemscore.Lipo.Weighted>
-7.1547

> <Gold.Chemscore.Internal_Hbond.Weighted>
0.0000

> <Gold.Chemscore.DEClash.Weighted>
0.0657

> <Gold.Chemscore.DEInternal.Weighted>
0.4208

> <Gold.Chemscore.Rot.Weighted>
3.1643

> <Gold.Chemscore.Internal.Correction.Weighted>
   9.000000E+99

> <Gold.Protein.RotatedTorsions>
[ 6907 6896 6895 6894 ] final  162.60 input  -60.11 | X-H torsion
[ 7974 7965 7964 7962 ] final   14.02 input  175.53 | X-H torsion
[ 8008 7997 7996 7995 ] final  -32.88 input   59.86 | X-H torsion
[ 10167 10162 10161 10158 ] final  -86.96 input  -65.29 | X-H torsion
[ 10718 10713 10712 10709 ] final   37.58 input   66.30 | X-H torsion
[ 10763 10752 10751 10750 ] final  -83.74 input  -60.55 | X-H torsion
[ 11005 11000 10999 10996 ] final -168.54 input  -57.11 | X-H torsion

> <Gold.Protein.ActiveResidues>
 VAL166  LYS551  ARG553  GLY616  TRP617  ASP618  TYR619  PRO620  LYS621  CYS622 
 ASP623  PHE694  ASN695  SER759  ASP760  ASP761  ALA762  ILE779  LEU786  VAL792 
 PHE793  MET794  SER795  GLU796  ALA797  LYS798  CYS799  TRP800  GLU811  SER814 

> <Gold.Protein.RotatedAtoms>
  151.9379  133.3629  159.3954 H   0  0  0  0  0  0  0  0  0  0  0  0  # atno 6907 bound_to 6896
  150.7004  134.4470  159.5328 H   0  0  0  0  0  0  0  0  0  0  0  0  # atno 6908 bound_to 6896
  152.2121  134.8491  160.0547 H   0  0  0  0  0  0  0  0  0  0  0  0  # atno 6909 bound_to 6896
  146.2315  139.9103  142.8525 H   0  0  0  0  0  0  0  0  0  0  0  0  # atno 7974 bound_to 7965
  154.4166  140.1725  156.1798 H   0  0  0  0  0  0  0  0  0  0  0  0  # atno 8008 bound_to 7997
  155.9691  140.3387  155.6536 H   0  0  0  0  0  0  0  0  0  0  0  0  # atno 8009 bound_to 7997
  155.6648  140.0705  157.2532 H   0  0  0  0  0  0  0  0  0  0  0  0  # atno 8010 bound_to 7997
  140.3891  143.2713  151.9287 H   0  0  0  0  0  0  0  0  0  0  0  0  # atno 10167 bound_to 10162
  157.3487  130.7586  149.6963 H   0  0  0  0  0  0  0  0  0  0  0  0  # atno 10718 bound_to 10713
  154.5914  135.5545  153.7282 H   0  0  0  0  0  0  0  0  0  0  0  0  # atno 10763 bound_to 10752
  153.0118  135.6344  154.1844 H   0  0  0  0  0  0  0  0  0  0  0  0  # atno 10764 bound_to 10752
  154.1785  135.2888  155.3039 H   0  0  0  0  0  0  0  0  0  0  0  0  # atno 10765 bound_to 10752
  140.5408  134.5524  157.5099 H   0  0  0  0  0  0  0  0  0  0  0  0  # atno 11005 bound_to 11000
  145.2236  140.9945  143.4031 LP  0  0  0  0  0  0  0  0  0  0  0  0  # atno 17320 bound_to 7965
  144.9589  139.4001  143.6365 LP  0  0  0  0  0  0  0  0  0  0  0  0  # atno 17321 bound_to 7965
  139.4790  144.5745  151.8035 LP  0  0  0  0  0  0  0  0  0  0  0  0  # atno 17342 bound_to 10162
  140.4858  144.1383  150.5941 LP  0  0  0  0  0  0  0  0  0  0  0  0  # atno 17343 bound_to 10162
  155.9718  130.4147  150.4144 LP  0  0  0  0  0  0  0  0  0  0  0  0  # atno 17370 bound_to 10713
  157.2203  131.0481  151.2550 LP  0  0  0  0  0  0  0  0  0  0  0  0  # atno 17371 bound_to 10713
  139.9505  134.7625  156.0460 LP  0  0  0  0  0  0  0  0  0  0  0  0  # atno 17394 bound_to 11000
  141.1228  133.6608  156.3259 LP  0  0  0  0  0  0  0  0  0  0  0  0  # atno 17395 bound_to 11000

$$$$
