AV-unprocessed.smi:2360|AV-procd|sdf|9410|dock5
  -GOLD-   2272013 43D 1   1.00000     0.00000
 Structure written by MMmdl.
 34 35  0  0  0  0  0  0  0  0  1 V2000
  151.9840  145.2551  160.2230 C   0  0  0  0  0  0  0  0  0  0  0  0
  151.7752  143.9345  159.5032 C   0  0  0  0  0  0  0  0  0  0  0  0
  151.0359  144.0027  158.3190 N   0  0  0  0  0  0  0  0  0  0  0  0
  150.8092  142.9273  157.6384 C   0  0  0  0  0  0  0  0  0  0  0  0
  151.2863  141.6734  158.0564 N   0  0  0  0  0  0  0  0  0  0  0  0
  150.9672  140.5290  157.1847 C   0  0  0  0  0  0  0  0  0  0  0  0
  150.7187  140.9581  155.7206 C   0  0  1  0  0  0  0  0  0  0  0  0
  151.0738  139.8934  154.8614 O   0  0  0  0  0  0  0  0  0  0  0  0
  149.2691  141.3689  155.5107 C   0  0  0  0  0  0  0  0  0  0  0  0
  148.7806  141.6442  154.2142 C   0  0  0  0  0  0  0  0  0  0  0  0
  147.4355  142.0169  154.0262 C   0  0  0  0  0  0  0  0  0  0  0  0
  146.5702  142.1154  155.1327 C   0  0  0  0  0  0  0  0  0  0  0  0
  145.2769  142.4733  154.9505 F   0  0  0  0  0  0  0  0  0  0  0  0
  147.0510  141.8402  156.4276 C   0  0  0  0  0  0  0  0  0  0  0  0
  146.2209  141.9333  157.4936 F   0  0  0  0  0  0  0  0  0  0  0  0
  148.3963  141.4668  156.6156 C   0  0  0  0  0  0  0  0  0  0  0  0
  152.0145  141.5182  159.1997 C   0  0  0  0  0  0  0  0  0  0  0  0
  152.4289  140.4151  159.5604 O   0  0  0  0  0  0  0  0  0  0  0  0
  152.2670  142.7515  159.9626 C   0  0  0  0  0  0  0  0  0  0  0  0
  153.0796  142.6171  161.2445 C   0  0  0  0  0  0  0  0  0  0  0  0
  153.0472  145.4819  160.3043 H   0  0  0  0  0  0  0  0  0  0  0  0
  151.5576  145.2150  161.2255 H   0  0  0  0  0  0  0  0  0  0  0  0
  151.5071  146.0782  159.6897 H   0  0  0  0  0  0  0  0  0  0  0  0
  150.2437  142.9266  156.7049 H   0  0  0  0  0  0  0  0  0  0  0  0
  151.7288  139.7484  157.2348 H   0  0  0  0  0  0  0  0  0  0  0  0
  150.0671  140.0457  157.5708 H   0  0  0  0  0  0  0  0  0  0  0  0
  151.3538  141.8084  155.4690 H   0  0  0  0  0  0  0  0  0  0  0  0
  150.4010  139.2316  154.9092 H   0  0  0  0  0  0  0  0  0  0  0  0
  149.4365  141.5680  153.3593 H   0  0  0  0  0  0  0  0  0  0  0  0
  147.0675  142.2261  153.0326 H   0  0  0  0  0  0  0  0  0  0  0  0
  148.7541  141.2550  157.6125 H   0  0  0  0  0  0  0  0  0  0  0  0
  152.5694  141.9553  161.9448 H   0  0  0  0  0  0  0  0  0  0  0  0
  153.2447  143.5667  161.7507 H   0  0  0  0  0  0  0  0  0  0  0  0
  154.0582  142.1886  161.0258 H   0  0  0  0  0  0  0  0  0  0  0  0
  1  2  1  0  0  0  0
  1 21  1  0  0  0  0
  1 22  1  0  0  0  0
  1 23  1  0  0  0  0
  2 19  2  0  0  0  0
  2  3  1  0  0  0  0
  3  4  2  0  0  0  0
  4  5  1  0  0  0  0
  4 24  1  0  0  0  0
  5  6  1  0  0  0  0
  5 17  1  0  0  0  0
  6  7  1  0  0  0  0
  6 25  1  0  0  0  0
  6 26  1  0  0  0  0
  7  8  1  0  0  0  0
  7  9  1  0  0  0  0
  7 27  1  0  0  0  0
  8 28  1  0  0  0  0
  9 16  1  0  0  0  0
  9 10  2  0  0  0  0
 10 11  1  0  0  0  0
 10 29  1  0  0  0  0
 11 12  2  0  0  0  0
 11 30  1  0  0  0  0
 12 13  1  0  0  0  0
 12 14  1  0  0  0  0
 14 15  1  0  0  0  0
 14 16  2  0  0  0  0
 16 31  1  0  0  0  0
 17 18  2  0  0  0  0
 17 19  1  0  0  0  0
 19 20  1  0  0  0  0
 20 32  1  0  0  0  0
 20 33  1  0  0  0  0
 20 34  1  0  0  0  0
M  END
> <s_m_source_file>
AV-unprocessed.smi

> <i_m_source_file_index>
2360

> <i_lp_mmshare_version>
43012

> <i_f3d_flags>
0

> <s_epik_input>
W0NIM11jMW5bY0hdbihjKD1PKWMxW0NIM10pW0NIMl1bQ0BIXShbT0hdKWMyW2NIXVtjSF1jKEYpYyhGKVtjSF0y

> <s_epik_cmdline>
J2VwaWtfcHl0aG9uJywgJy1waCcsICc3LjAnLCAnLXRuJywgJzgnLCAnLW1hJywgJzIwMCcsICctbWV0YWxfYmluZGluZycsICctaW1hZScsICc8aW5maWxlLm1hZT4nLCAnLW9tYWUnLCAnPG91dGZpbGUubWFlPic=

> <r_lp_tautomer_probability>
1

> <r_epik_Ionization_Penalty>
5.07449e-05

> <r_epik_Ionization_Penalty_Charging>
7.56727e-08

> <r_epik_Ionization_Penalty_Neutral>
5.06692e-05

> <r_epik_State_Penalty>
-0

> <r_epik_Charging_Adjusted_Penalty>
7.56727e-08

> <i_epik_Tot_Q>
0

> <i_epik_Tot_abs_Q>
0

> <r_epik_Metal_State_Penalty>
-0

> <b_epik_Metal_Only>
0

> <s_lp_Force_Field>
OPLS_2005

> <r_lp_Energy>
19.5716

> <b_lp_Chiralities_Consistent>
1

> <s_lp_Variant>
AV-unprocessed.smi:2360-2

> <Gold.Version>
5.8.1

> <Gold.Id.Protein>
6NUR|6NUR_protein|mol2

> <Gold.PLP.Fitness>
48.1282

> <Gold.PLP.PLP>
-43.7223

> <Gold.PLP.part.hbond>
-1.0000

> <Gold.PLP.part.metal>
0.0000

> <Gold.PLP.part.buried>
-5.6381

> <Gold.PLP.part.nonpolar>
-37.6804

> <Gold.PLP.part.repulsive>
0.1425

> <Gold.PLP.ligand.clash>
0.0000

> <Gold.PLP.ligand.torsion>
0.8031

> <Gold.PLP.Chemscore.Hbond>
1.0000

> <Gold.PLP.Chemscore.CHOScore>
1.0000

> <Gold.PLP.Chemscore.Metal>
0.0000

> <Gold.Chemscore.Hbonds>
donor molecule, donor type, donor heavy atom, donor atom, acceptor molecule, acceptor atom, score
      P1  H  7989  7998       L1     8  0.90
      L1  C     4    24       P1  8028  0.99

> <Gold.PLP.Chemscore.Internal.Correction>
0.0121

> <Gold.Rescore>
     Score         DG    S(hbond)    S(metal)    S(lipo)     H(rot)  DE(clash)    DE(int)     intcor
     12.33     -13.05       0.76        0.00      89.26       2.11       0.05       0.67       ----

> <Gold.Chemscore.Fitness>
12.3315

> <Gold.Chemscore.DG>
-13.0483

> <Gold.Chemscore.ZeroCoef>
-5.4800

> <Gold.Chemscore.Hbond>
0.7562

> <Gold.Chemscore.Metal>
0.0000

> <Gold.Chemscore.Lipo>
89.2610

> <Gold.Chemscore.Internal_Hbond>
0.0000

> <Gold.Chemscore.DEClash>
0.0504

> <Gold.Chemscore.DEInternal>
0.6663

> <Gold.Chemscore.Rot>
2.1097

> <Gold.Chemscore.Internal.Correction>
   9.000000E+99

> <Gold.Chemscore.Hbonds>
donor molecule, donor type, donor heavy atom, donor atom, acceptor molecule, acceptor atom, score
      P1  H  7989  7998       L1     8  0.18

> <Gold.Chemscore.Hbond.Weighted>
-2.5257

> <Gold.Chemscore.Metal.Weighted>
-0.0000

> <Gold.Chemscore.Lipo.Weighted>
-10.4435

> <Gold.Chemscore.Internal_Hbond.Weighted>
0.0000

> <Gold.Chemscore.DEClash.Weighted>
0.0504

> <Gold.Chemscore.DEInternal.Weighted>
0.6663

> <Gold.Chemscore.Rot.Weighted>
5.4009

> <Gold.Chemscore.Internal.Correction.Weighted>
   9.000000E+99

> <Gold.Protein.RotatedTorsions>
[ 6907 6896 6895 6894 ] final -138.22 input  -60.11 | X-H torsion
[ 7974 7965 7964 7962 ] final  -91.19 input  175.53 | X-H torsion
[ 8008 7997 7996 7995 ] final -113.25 input   59.86 | X-H torsion
[ 10167 10162 10161 10158 ] final -120.25 input  -65.29 | X-H torsion
[ 10718 10713 10712 10709 ] final  135.23 input   66.30 | X-H torsion
[ 10763 10752 10751 10750 ] final  161.00 input  -60.55 | X-H torsion
[ 11005 11000 10999 10996 ] final   60.74 input  -57.11 | X-H torsion

> <Gold.Protein.ActiveResidues>
 VAL166  LYS551  ARG553  GLY616  TRP617  ASP618  TYR619  PRO620  LYS621  CYS622 
 ASP623  PHE694  ASN695  SER759  ASP760  ASP761  ALA762  ILE779  LEU786  VAL792 
 PHE793  MET794  SER795  GLU796  ALA797  LYS798  CYS799  TRP800  GLU811  SER814 

> <Gold.Protein.RotatedAtoms>
  151.0323  133.5779  159.2659 H   0  0  0  0  0  0  0  0  0  0  0  0  # atno 6907 bound_to 6896
  151.2857  135.0726  159.9195 H   0  0  0  0  0  0  0  0  0  0  0  0  # atno 6908 bound_to 6896
  152.5347  134.0030  159.7957 H   0  0  0  0  0  0  0  0  0  0  0  0  # atno 6909 bound_to 6896
  145.4165  140.9548  143.2205 H   0  0  0  0  0  0  0  0  0  0  0  0  # atno 7974 bound_to 7965
  155.0179  140.0393  157.2425 H   0  0  0  0  0  0  0  0  0  0  0  0  # atno 8008 bound_to 7997
  154.7404  140.2747  155.6355 H   0  0  0  0  0  0  0  0  0  0  0  0  # atno 8009 bound_to 7997
  156.2863  140.2666  156.2129 H   0  0  0  0  0  0  0  0  0  0  0  0  # atno 8010 bound_to 7997
  140.0378  143.5183  152.2145 H   0  0  0  0  0  0  0  0  0  0  0  0  # atno 10167 bound_to 10162
  157.4592  131.1072  150.9941 H   0  0  0  0  0  0  0  0  0  0  0  0  # atno 10718 bound_to 10713
  154.2561  135.2770  155.2797 H   0  0  0  0  0  0  0  0  0  0  0  0  # atno 10763 bound_to 10752
  154.5423  135.5699  153.6854 H   0  0  0  0  0  0  0  0  0  0  0  0  # atno 10764 bound_to 10752
  152.9971  135.6254  154.2710 H   0  0  0  0  0  0  0  0  0  0  0  0  # atno 10765 bound_to 10752
  140.0211  134.6152  155.9639 H   0  0  0  0  0  0  0  0  0  0  0  0  # atno 11005 bound_to 11000
  144.8274  139.5687  143.6959 LP  0  0  0  0  0  0  0  0  0  0  0  0  # atno 17320 bound_to 7965
  146.2678  139.6563  142.9317 LP  0  0  0  0  0  0  0  0  0  0  0  0  # atno 17321 bound_to 7965
  139.6033  144.7589  151.3120 LP  0  0  0  0  0  0  0  0  0  0  0  0  # atno 17342 bound_to 10162
  140.7273  143.6965  150.7879 LP  0  0  0  0  0  0  0  0  0  0  0  0  # atno 17343 bound_to 10162
  157.0744  130.5877  149.5408 LP  0  0  0  0  0  0  0  0  0  0  0  0  # atno 17370 bound_to 10713
  156.0021  130.5101  150.7699 LP  0  0  0  0  0  0  0  0  0  0  0  0  # atno 17371 bound_to 10713
  141.1774  133.6542  156.4882 LP  0  0  0  0  0  0  0  0  0  0  0  0  # atno 17394 bound_to 11000
  140.4386  134.7036  157.4980 LP  0  0  0  0  0  0  0  0  0  0  0  0  # atno 17395 bound_to 11000

$$$$
