AV-unprocessed.smi:2299|AV-procd|sdf|9230|dock6
  -GOLD-   2272012453D 1   1.00000     0.00000
 Structure written by MMmdl.
 42 43  0  0  0  0  0  0  0  0  1 V2000
  152.2074  144.8862  158.0598 C   0  0  0  0  0  0  0  0  0  0  0  0
  151.6838  144.2949  159.3771 C   0  0  0  0  0  0  0  0  0  0  0  0
  151.7135  145.3217  160.5190 C   0  0  0  0  0  0  0  0  0  0  0  0
  152.4176  143.0331  159.7471 C   0  0  0  0  0  0  0  0  0  0  0  0
  153.1450  142.9183  160.8557 N   0  0  0  0  0  0  0  0  0  0  0  0
  153.6588  141.6296  160.8191 C   0  0  0  0  0  0  0  0  0  0  0  0
  153.2220  141.0009  159.6803 C   0  0  0  0  0  0  0  0  0  0  0  0
  152.4115  141.9088  158.9962 N   0  0  0  0  0  0  0  0  0  0  0  0
  151.7122  141.7111  157.7243 C   0  0  0  0  0  0  0  0  0  0  0  0
  151.8555  140.3067  157.1297 C   0  0  0  0  0  0  0  0  0  0  0  0
  152.9706  139.8670  156.8504 O   0  0  0  0  0  0  0  0  0  0  0  0
  150.7180  139.6187  156.9431 N   0  0  0  0  0  0  0  0  0  0  0  0
  150.6178  138.2522  156.4298 C   0  0  2  0  0  0  0  0  0  0  0  0
  151.7747  137.3904  156.9827 C   0  0  0  0  0  0  0  0  0  0  0  0
  151.4904  135.8796  156.9717 C   0  0  0  0  0  0  0  0  0  0  0  0
  151.2832  135.2724  155.5763 C   0  0  0  0  0  0  0  0  0  0  0  0
  150.0269  135.7927  154.8571 C   0  0  0  0  0  0  0  0  0  0  0  0
  150.2278  137.1061  154.2574 N   0  0  0  0  0  0  0  0  0  0  0  0
  150.5046  138.2546  154.8935 C   0  0  0  0  0  0  0  0  0  0  0  0
  150.6708  139.2957  154.2579 O   0  0  0  0  0  0  0  0  0  0  0  0
  152.1263  144.1634  157.2474 H   0  0  0  0  0  0  0  0  0  0  0  0
  153.2548  145.1783  158.1426 H   0  0  0  0  0  0  0  0  0  0  0  0
  151.6380  145.7706  157.7728 H   0  0  0  0  0  0  0  0  0  0  0  0
  150.6355  144.0566  159.2060 H   0  0  0  0  0  0  0  0  0  0  0  0
  151.2781  144.9077  161.4291 H   0  0  0  0  0  0  0  0  0  0  0  0
  151.1455  146.2152  160.2585 H   0  0  0  0  0  0  0  0  0  0  0  0
  152.7332  145.6325  160.7489 H   0  0  0  0  0  0  0  0  0  0  0  0
  154.3007  141.2588  161.6045 H   0  0  0  0  0  0  0  0  0  0  0  0
  153.4235  140.0022  159.3217 H   0  0  0  0  0  0  0  0  0  0  0  0
  150.6516  141.9175  157.8736 H   0  0  0  0  0  0  0  0  0  0  0  0
  152.0861  142.4443  157.0082 H   0  0  0  0  0  0  0  0  0  0  0  0
  149.8497  140.0606  157.2098 H   0  0  0  0  0  0  0  0  0  0  0  0
  149.6760  137.8432  156.8011 H   0  0  0  0  0  0  0  0  0  0  0  0
  152.6945  137.6018  156.4352 H   0  0  0  0  0  0  0  0  0  0  0  0
  151.9771  137.6729  158.0168 H   0  0  0  0  0  0  0  0  0  0  0  0
  152.3257  135.3679  157.4511 H   0  0  0  0  0  0  0  0  0  0  0  0
  150.6191  135.6694  157.5932 H   0  0  0  0  0  0  0  0  0  0  0  0
  152.1681  135.4294  154.9577 H   0  0  0  0  0  0  0  0  0  0  0  0
  151.1881  134.1922  155.6913 H   0  0  0  0  0  0  0  0  0  0  0  0
  149.7720  135.1094  154.0467 H   0  0  0  0  0  0  0  0  0  0  0  0
  149.1659  135.8064  155.5267 H   0  0  0  0  0  0  0  0  0  0  0  0
  150.1588  137.1480  153.2508 H   0  0  0  0  0  0  0  0  0  0  0  0
  1  2  1  0  0  0  0
  1 21  1  0  0  0  0
  1 22  1  0  0  0  0
  1 23  1  0  0  0  0
  2  3  1  0  0  0  0
  2  4  1  0  0  0  0
  2 24  1  0  0  0  0
  3 25  1  0  0  0  0
  3 26  1  0  0  0  0
  3 27  1  0  0  0  0
  4  8  1  0  0  0  0
  4  5  2  0  0  0  0
  5  6  1  0  0  0  0
  6  7  2  0  0  0  0
  6 28  1  0  0  0  0
  7  8  1  0  0  0  0
  7 29  1  0  0  0  0
  8  9  1  0  0  0  0
  9 10  1  0  0  0  0
  9 30  1  0  0  0  0
  9 31  1  0  0  0  0
 10 11  2  0  0  0  0
 10 12  1  0  0  0  0
 12 13  1  0  0  0  0
 12 32  1  0  0  0  0
 13 19  1  0  0  0  0
 13 14  1  0  0  0  0
 13 33  1  0  0  0  0
 14 15  1  0  0  0  0
 14 34  1  0  0  0  0
 14 35  1  0  0  0  0
 15 16  1  0  0  0  0
 15 36  1  0  0  0  0
 15 37  1  0  0  0  0
 16 17  1  0  0  0  0
 16 38  1  0  0  0  0
 16 39  1  0  0  0  0
 17 18  1  0  0  0  0
 17 40  1  0  0  0  0
 17 41  1  0  0  0  0
 18 19  1  0  0  0  0
 18 42  1  0  0  0  0
 19 20  2  0  0  0  0
M  END
> <s_m_source_file>
AV-unprocessed.smi

> <i_m_source_file_index>
2299

> <i_lp_mmshare_version>
43012

> <i_f3d_flags>
0

> <s_epik_input>
W0NIM11bQ0hdKFtDSDNdKWMxbltjSF1bY0hdbjFbQ0gyXUMoPU8pW05IXVtDQEBIXTJbQ0gyXVtDSDJdW0NIMl1bQ0gyXVtOSF1DMj1P

> <s_epik_cmdline>
J2VwaWtfcHl0aG9uJywgJy1waCcsICc3LjAnLCAnLXRuJywgJzgnLCAnLW1hJywgJzIwMCcsICctbWV0YWxfYmluZGluZycsICctaW1hZScsICc8aW5maWxlLm1hZT4nLCAnLW9tYWUnLCAnPG91dGZpbGUubWFlPic=

> <r_lp_tautomer_probability>
1

> <r_epik_Ionization_Penalty>
0.557868

> <r_epik_Ionization_Penalty_Charging>
0.557868

> <r_epik_Ionization_Penalty_Neutral>
1.99744e-07

> <r_epik_State_Penalty>
0.568774

> <r_epik_Charging_Adjusted_Penalty>
1.12664

> <i_epik_Tot_Q>
0

> <i_epik_Tot_abs_Q>
0

> <r_epik_Metal_State_Penalty>
0.289303

> <b_epik_Metal_Only>
0

> <s_lp_Force_Field>
OPLS_2005

> <r_lp_Energy>
12.6328

> <b_lp_Chiralities_Consistent>
1

> <s_lp_Variant>
AV-unprocessed.smi:2299-3

> <Gold.Version>
5.8.1

> <Gold.Id.Protein>
6NUR|6NUR_protein|mol2

> <Gold.PLP.Fitness>
46.1453

> <Gold.PLP.PLP>
-38.6142

> <Gold.PLP.part.hbond>
-3.1289

> <Gold.PLP.part.metal>
0.0000

> <Gold.PLP.part.buried>
-4.9855

> <Gold.PLP.part.nonpolar>
-31.1356

> <Gold.PLP.part.repulsive>
0.2307

> <Gold.PLP.ligand.clash>
0.0000

> <Gold.PLP.ligand.torsion>
0.4220

> <Gold.PLP.Chemscore.Hbond>
2.7680

> <Gold.PLP.Chemscore.CHOScore>
0.0000

> <Gold.PLP.Chemscore.Metal>
0.0000

> <Gold.Chemscore.Hbonds>
donor molecule, donor type, donor heavy atom, donor atom, acceptor molecule, acceptor atom, score
      L1  H    18    42       P1  7948  0.53
      P1  H  7989  7998       L1    20  1.00
      P1  H  7997  8008       L1    11  0.78

> <Gold.PLP.Chemscore.Internal.Correction>
0.0710

> <Gold.Rescore>
     Score         DG    S(hbond)    S(metal)    S(lipo)     H(rot)  DE(clash)    DE(int)     intcor
     17.61     -19.77       2.62        0.00      84.41       1.70       0.19       1.96       ----

> <Gold.Chemscore.Fitness>
17.6086

> <Gold.Chemscore.DG>
-19.7670

> <Gold.Chemscore.ZeroCoef>
-5.4800

> <Gold.Chemscore.Hbond>
2.6240

> <Gold.Chemscore.Metal>
0.0000

> <Gold.Chemscore.Lipo>
84.4088

> <Gold.Chemscore.Internal_Hbond>
0.0000

> <Gold.Chemscore.DEClash>
0.1942

> <Gold.Chemscore.DEInternal>
1.9642

> <Gold.Chemscore.Rot>
1.7004

> <Gold.Chemscore.Internal.Correction>
   9.000000E+99

> <Gold.Chemscore.Hbonds>
donor molecule, donor type, donor heavy atom, donor atom, acceptor molecule, acceptor atom, score
      L1  H    18    42       P1  7948  0.06
      P1  H  7989  7998       L1    20  0.97
      P1  H  7997  8008       L1    11  0.77

> <Gold.Chemscore.Hbond.Weighted>
-8.7642

> <Gold.Chemscore.Metal.Weighted>
-0.0000

> <Gold.Chemscore.Lipo.Weighted>
-9.8758

> <Gold.Chemscore.Internal_Hbond.Weighted>
0.0000

> <Gold.Chemscore.DEClash.Weighted>
0.1942

> <Gold.Chemscore.DEInternal.Weighted>
1.9642

> <Gold.Chemscore.Rot.Weighted>
4.3530

> <Gold.Chemscore.Internal.Correction.Weighted>
   9.000000E+99

> <Gold.Protein.RotatedTorsions>
[ 6907 6896 6895 6894 ] final  157.95 input  -60.11 | X-H torsion
[ 7974 7965 7964 7962 ] final    1.06 input  175.53 | X-H torsion
[ 8008 7997 7996 7995 ] final  -62.15 input   59.86 | X-H torsion
[ 10167 10162 10161 10158 ] final  123.53 input  -65.29 | X-H torsion
[ 10718 10713 10712 10709 ] final   42.37 input   66.30 | X-H torsion
[ 10763 10752 10751 10750 ] final  -32.17 input  -60.55 | X-H torsion
[ 11005 11000 10999 10996 ] final -176.65 input  -57.11 | X-H torsion

> <Gold.Protein.ActiveResidues>
 VAL166  LYS551  ARG553  GLY616  TRP617  ASP618  TYR619  PRO620  LYS621  CYS622 
 ASP623  PHE694  ASN695  SER759  ASP760  ASP761  ALA762  ILE779  LEU786  VAL792 
 PHE793  MET794  SER795  GLU796  ALA797  LYS798  CYS799  TRP800  GLU811  SER814 

> <Gold.Protein.RotatedAtoms>
  152.0076  133.3849  159.4206 H   0  0  0  0  0  0  0  0  0  0  0  0  # atno 6907 bound_to 6896
  150.6903  134.3766  159.5025 H   0  0  0  0  0  0  0  0  0  0  0  0  # atno 6908 bound_to 6896
  152.1522  134.8979  160.0598 H   0  0  0  0  0  0  0  0  0  0  0  0  # atno 6909 bound_to 6896
  146.2438  140.1044  142.8346 H   0  0  0  0  0  0  0  0  0  0  0  0  # atno 7974 bound_to 7965
  154.4484  140.1002  156.6542 H   0  0  0  0  0  0  0  0  0  0  0  0  # atno 8008 bound_to 7997
  155.5364  140.3482  155.4419 H   0  0  0  0  0  0  0  0  0  0  0  0  # atno 8009 bound_to 7997
  156.0628  140.1330  156.9910 H   0  0  0  0  0  0  0  0  0  0  0  0  # atno 8010 bound_to 7997
  139.5794  144.6979  151.3569 H   0  0  0  0  0  0  0  0  0  0  0  0  # atno 10167 bound_to 10162
  157.4040  130.7876  149.7373 H   0  0  0  0  0  0  0  0  0  0  0  0  # atno 10718 bound_to 10713
  153.8093  135.6883  153.4843 H   0  0  0  0  0  0  0  0  0  0  0  0  # atno 10763 bound_to 10752
  153.1638  135.4569  154.9808 H   0  0  0  0  0  0  0  0  0  0  0  0  # atno 10764 bound_to 10752
  154.7974  135.3324  154.7575 H   0  0  0  0  0  0  0  0  0  0  0  0  # atno 10765 bound_to 10752
  140.4497  134.6355  157.4795 H   0  0  0  0  0  0  0  0  0  0  0  0  # atno 11005 bound_to 11000
  145.0541  140.9039  143.4978 LP  0  0  0  0  0  0  0  0  0  0  0  0  # atno 17320 bound_to 7965
  145.1147  139.2733  143.5619 LP  0  0  0  0  0  0  0  0  0  0  0  0  # atno 17321 bound_to 7965
  140.7073  143.7480  150.7505 LP  0  0  0  0  0  0  0  0  0  0  0  0  # atno 17342 bound_to 10162
  140.1008  143.4789  152.2426 LP  0  0  0  0  0  0  0  0  0  0  0  0  # atno 17343 bound_to 10162
  155.9831  130.4003  150.3380 LP  0  0  0  0  0  0  0  0  0  0  0  0  # atno 17370 bound_to 10713
  157.1511  131.0321  151.2884 LP  0  0  0  0  0  0  0  0  0  0  0  0  # atno 17371 bound_to 10713
  140.0015  134.6829  155.9523 LP  0  0  0  0  0  0  0  0  0  0  0  0  # atno 17394 bound_to 11000
  141.1669  133.6537  156.4513 LP  0  0  0  0  0  0  0  0  0  0  0  0  # atno 17395 bound_to 11000

$$$$
