AV-unprocessed.smi:1926|AV-procd|sdf|7794|dock3
  -GOLD-   22720 9533D 1   1.00000     0.00000
 Structure written by MMmdl.
 35 36  0  0  0  0  0  0  0  0  1 V2000
  151.5124  145.4518  160.0085 C   0  0  0  0  0  0  0  0  0  0  0  0
  151.3727  144.4007  159.0589 O   0  0  0  0  0  0  0  0  0  0  0  0
  152.0541  143.2181  159.2771 C   0  0  0  0  0  0  0  0  0  0  0  0
  152.8866  143.1433  160.3458 N   0  0  0  0  0  0  0  0  0  0  0  0
  153.5501  141.9900  160.5640 C   0  0  0  0  0  0  0  0  0  0  0  0
  153.4183  140.8586  159.7391 C   0  0  0  0  0  0  0  0  0  0  0  0
  152.5556  140.9334  158.6300 C   0  0  0  0  0  0  0  0  0  0  0  0
  151.8564  142.1407  158.3812 C   0  0  0  0  0  0  0  0  0  0  0  0
  150.9525  142.3397  157.2986 N   0  0  0  0  0  0  0  0  0  0  0  0
  150.4405  141.4494  156.4314 C   0  0  0  0  0  0  0  0  0  0  0  0
  150.6690  140.2406  156.4222 O   0  0  0  0  0  0  0  0  0  0  0  0
  149.6359  142.0522  155.5449 N   0  0  0  0  0  0  0  0  0  0  0  0
  148.9269  141.3790  154.4614 C   0  0  0  0  0  0  0  0  0  0  0  0
  147.4040  141.3459  154.6946 C   0  0  2  0  0  0  0  0  0  0  0  0
  146.6555  142.5650  154.1925 C   0  0  0  0  0  0  0  0  0  0  0  0
  145.3458  142.4668  154.9681 C   0  0  0  0  0  0  0  0  0  0  0  0
  145.6781  141.8632  156.2152 O   0  0  0  0  0  0  0  0  0  0  0  0
  147.0026  141.3396  156.1693 C   0  0  0  0  0  0  0  0  0  0  0  0
  150.9120  146.3045  159.6926 H   0  0  0  0  0  0  0  0  0  0  0  0
  152.5479  145.7864  160.0845 H   0  0  0  0  0  0  0  0  0  0  0  0
  151.1605  145.1476  160.9953 H   0  0  0  0  0  0  0  0  0  0  0  0
  154.2032  141.9676  161.4237 H   0  0  0  0  0  0  0  0  0  0  0  0
  153.9647  139.9521  159.9535 H   0  0  0  0  0  0  0  0  0  0  0  0
  152.4500  140.0601  158.0072 H   0  0  0  0  0  0  0  0  0  0  0  0
  150.6843  143.3009  157.1454 H   0  0  0  0  0  0  0  0  0  0  0  0
  149.5048  143.0502  155.6228 H   0  0  0  0  0  0  0  0  0  0  0  0
  149.1531  141.8668  153.5119 H   0  0  0  0  0  0  0  0  0  0  0  0
  149.3166  140.3636  154.3856 H   0  0  0  0  0  0  0  0  0  0  0  0
  146.9788  140.4590  154.2215 H   0  0  0  0  0  0  0  0  0  0  0  0
  147.1859  143.4781  154.4663 H   0  0  0  0  0  0  0  0  0  0  0  0
  146.5081  142.5649  153.1120 H   0  0  0  0  0  0  0  0  0  0  0  0
  144.8697  143.4375  155.1076 H   0  0  0  0  0  0  0  0  0  0  0  0
  144.6430  141.8167  154.4455 H   0  0  0  0  0  0  0  0  0  0  0  0
  147.0525  140.3436  156.6104 H   0  0  0  0  0  0  0  0  0  0  0  0
  147.6499  141.9980  156.7502 H   0  0  0  0  0  0  0  0  0  0  0  0
  1  2  1  0  0  0  0
  1 19  1  0  0  0  0
  1 20  1  0  0  0  0
  1 21  1  0  0  0  0
  2  3  1  0  0  0  0
  3  8  1  0  0  0  0
  3  4  2  0  0  0  0
  4  5  1  0  0  0  0
  5  6  2  0  0  0  0
  5 22  1  0  0  0  0
  6  7  1  0  0  0  0
  6 23  1  0  0  0  0
  7  8  2  0  0  0  0
  7 24  1  0  0  0  0
  8  9  1  0  0  0  0
  9 10  1  0  0  0  0
  9 25  1  0  0  0  0
 10 11  2  0  0  0  0
 10 12  1  0  0  0  0
 12 13  1  0  0  0  0
 12 26  1  0  0  0  0
 13 14  1  0  0  0  0
 13 27  1  0  0  0  0
 13 28  1  0  0  0  0
 14 18  1  0  0  0  0
 14 15  1  0  0  0  0
 14 29  1  0  0  0  0
 15 16  1  0  0  0  0
 15 30  1  0  0  0  0
 15 31  1  0  0  0  0
 16 17  1  0  0  0  0
 16 32  1  0  0  0  0
 16 33  1  0  0  0  0
 17 18  1  0  0  0  0
 18 34  1  0  0  0  0
 18 35  1  0  0  0  0
M  END
> <s_m_source_file>
AV-unprocessed.smi

> <i_m_source_file_index>
1926

> <i_lp_mmshare_version>
43012

> <i_f3d_flags>
0

> <s_epik_input>
W0NIM11PYzFuW2NIXVtjSF1bY0hdYzFbTkhdQyg9TylbTkhdW0NIMl1bQ0BASF0yW0NIMl1bQ0gyXU9bQ0gyXTI=

> <s_epik_cmdline>
J2VwaWtfcHl0aG9uJywgJy1waCcsICc3LjAnLCAnLXRuJywgJzgnLCAnLW1hJywgJzIwMCcsICctbWV0YWxfYmluZGluZycsICctaW1hZScsICc8aW5maWxlLm1hZT4nLCAnLW9tYWUnLCAnPG91dGZpbGUubWFlPic=

> <r_lp_tautomer_probability>
1

> <r_epik_Ionization_Penalty>
9.48928e-05

> <r_epik_Ionization_Penalty_Charging>
0

> <r_epik_Ionization_Penalty_Neutral>
9.48928e-05

> <r_epik_State_Penalty>
-0

> <r_epik_Charging_Adjusted_Penalty>
0

> <i_epik_Tot_Q>
0

> <i_epik_Tot_abs_Q>
0

> <r_epik_Metal_State_Penalty>
-0

> <b_epik_Metal_Only>
0

> <s_lp_Force_Field>
OPLS_2005

> <r_lp_Energy>
20.748

> <b_lp_Chiralities_Consistent>
1

> <s_lp_Variant>
AV-unprocessed.smi:1926-1

> <Gold.Version>
5.8.1

> <Gold.Id.Protein>
6NUR|6NUR_protein|mol2

> <Gold.PLP.Fitness>
40.0509

> <Gold.PLP.PLP>
-37.9141

> <Gold.PLP.part.hbond>
-1.0000

> <Gold.PLP.part.metal>
0.0000

> <Gold.PLP.part.buried>
-6.3780

> <Gold.PLP.part.nonpolar>
-30.5496

> <Gold.PLP.part.repulsive>
0.4167

> <Gold.PLP.ligand.clash>
0.0000

> <Gold.PLP.ligand.torsion>
0.4343

> <Gold.PLP.Chemscore.Hbond>
1.0000

> <Gold.PLP.Chemscore.CHOScore>
0.0000

> <Gold.PLP.Chemscore.Metal>
0.0000

> <Gold.Chemscore.Hbonds>
donor molecule, donor type, donor heavy atom, donor atom, acceptor molecule, acceptor atom, score
      L1  H    12    26       P1  8028  1.00

> <Gold.PLP.Chemscore.Internal.Correction>
0.0054

> <Gold.Rescore>
     Score         DG    S(hbond)    S(metal)    S(lipo)     H(rot)  DE(clash)    DE(int)     intcor
     12.89     -14.19       0.99        0.00      78.87       1.50       0.01       1.28       ----

> <Gold.Chemscore.Fitness>
12.8905

> <Gold.Chemscore.DG>
-14.1851

> <Gold.Chemscore.ZeroCoef>
-5.4800

> <Gold.Chemscore.Hbond>
0.9908

> <Gold.Chemscore.Metal>
0.0000

> <Gold.Chemscore.Lipo>
78.8746

> <Gold.Chemscore.Internal_Hbond>
0.0000

> <Gold.Chemscore.DEClash>
0.0147

> <Gold.Chemscore.DEInternal>
1.2798

> <Gold.Chemscore.Rot>
1.4971

> <Gold.Chemscore.Internal.Correction>
   9.000000E+99

> <Gold.Chemscore.Hbonds>
donor molecule, donor type, donor heavy atom, donor atom, acceptor molecule, acceptor atom, score
      L1  H    12    26       P1  8028  1.00

> <Gold.Chemscore.Hbond.Weighted>
-3.3093

> <Gold.Chemscore.Metal.Weighted>
-0.0000

> <Gold.Chemscore.Lipo.Weighted>
-9.2283

> <Gold.Chemscore.Internal_Hbond.Weighted>
0.0000

> <Gold.Chemscore.DEClash.Weighted>
0.0147

> <Gold.Chemscore.DEInternal.Weighted>
1.2798

> <Gold.Chemscore.Rot.Weighted>
3.8326

> <Gold.Chemscore.Internal.Correction.Weighted>
   9.000000E+99

> <Gold.Protein.RotatedTorsions>
[ 6907 6896 6895 6894 ] final -109.89 input  -60.11 | X-H torsion
[ 7974 7965 7964 7962 ] final  155.14 input  175.53 | X-H torsion
[ 8008 7997 7996 7995 ] final   83.74 input   59.86 | X-H torsion
[ 10167 10162 10161 10158 ] final  -78.38 input  -65.29 | X-H torsion
[ 10718 10713 10712 10709 ] final  -83.72 input   66.30 | X-H torsion
[ 10763 10752 10751 10750 ] final  -89.50 input  -60.55 | X-H torsion
[ 11005 11000 10999 10996 ] final -166.21 input  -57.11 | X-H torsion

> <Gold.Protein.ActiveResidues>
 VAL166  LYS551  ARG553  GLY616  TRP617  ASP618  TYR619  PRO620  LYS621  CYS622 
 ASP623  PHE694  ASN695  SER759  ASP760  ASP761  ALA762  ILE779  LEU786  VAL792 
 PHE793  MET794  SER795  GLU796  ALA797  LYS798  CYS799  TRP800  GLU811  SER814 

> <Gold.Protein.RotatedAtoms>
  150.7590  133.9462  159.3471 H   0  0  0  0  0  0  0  0  0  0  0  0  # atno 6907 bound_to 6896
  151.7375  135.0859  160.0319 H   0  0  0  0  0  0  0  0  0  0  0  0  # atno 6908 bound_to 6896
  152.3550  133.6189  159.6008 H   0  0  0  0  0  0  0  0  0  0  0  0  # atno 6909 bound_to 6896
  144.8044  139.7028  143.6168 H   0  0  0  0  0  0  0  0  0  0  0  0  # atno 7974 bound_to 7965
  155.9279  140.3417  155.6225 H   0  0  0  0  0  0  0  0  0  0  0  0  # atno 8008 bound_to 7997
  155.7194  140.0781  157.2356 H   0  0  0  0  0  0  0  0  0  0  0  0  # atno 8009 bound_to 7997
  154.4080  140.1608  156.2372 H   0  0  0  0  0  0  0  0  0  0  0  0  # atno 8010 bound_to 7997
  140.4687  143.2432  151.8238 H   0  0  0  0  0  0  0  0  0  0  0  0  # atno 10167 bound_to 10162
  156.0015  130.4675  150.4301 H   0  0  0  0  0  0  0  0  0  0  0  0  # atno 10718 bound_to 10713
  154.6559  135.5339  153.7958 H   0  0  0  0  0  0  0  0  0  0  0  0  # atno 10763 bound_to 10752
  153.0413  135.6494  154.0946 H   0  0  0  0  0  0  0  0  0  0  0  0  # atno 10764 bound_to 10752
  154.0859  135.2943  155.3261 H   0  0  0  0  0  0  0  0  0  0  0  0  # atno 10765 bound_to 10752
  140.5671  134.5275  157.5154 H   0  0  0  0  0  0  0  0  0  0  0  0  # atno 11005 bound_to 11000
  146.2332  139.5854  142.9541 LP  0  0  0  0  0  0  0  0  0  0  0  0  # atno 17320 bound_to 7965
  145.5475  141.0416  143.2297 LP  0  0  0  0  0  0  0  0  0  0  0  0  # atno 17321 bound_to 7965
  139.4815  144.4918  151.9175 LP  0  0  0  0  0  0  0  0  0  0  0  0  # atno 17342 bound_to 10162
  140.4004  144.2501  150.5893 LP  0  0  0  0  0  0  0  0  0  0  0  0  # atno 17343 bound_to 10162
  157.2350  131.0513  151.2470 LP  0  0  0  0  0  0  0  0  0  0  0  0  # atno 17370 bound_to 10713
  157.3674  130.7163  149.6542 LP  0  0  0  0  0  0  0  0  0  0  0  0  # atno 17371 bound_to 10713
  139.9380  134.7840  156.0753 LP  0  0  0  0  0  0  0  0  0  0  0  0  # atno 17394 bound_to 11000
  141.1079  133.6653  156.2908 LP  0  0  0  0  0  0  0  0  0  0  0  0  # atno 17395 bound_to 11000

$$$$
