AV-unprocessed.smi:15|AV-procd|sdf|83|dock10
  -GOLD-   2262015213D 1   1.00000     0.00000
 Structure written by MMmdl.
 53 56  0  0  0  0  0  0  0  0  1 V2000
  152.5454  139.2036  155.3544 C   0  0  0  0  0  0  0  0  0  0  0  0
  152.1804  140.5279  156.0384 C   0  0  0  0  0  0  0  0  0  0  0  0
  151.0945  140.3916  157.0135 N   0  0  0  0  0  0  0  0  0  0  0  0
  150.6152  141.5780  157.7278 C   0  0  0  0  0  0  0  0  0  0  0  0
  151.5761  142.7768  157.6320 C   0  0  2  0  0  0  0  0  0  0  0  0
  152.7937  142.6476  158.5420 C   0  0  0  0  0  0  0  0  0  0  0  0
  153.2536  144.0859  158.7032 C   0  0  0  0  0  0  0  0  0  0  0  0
  152.0000  144.9087  158.3896 C   0  0  0  0  0  0  0  0  0  0  0  0
  150.9724  143.9595  158.1322 O   0  0  0  0  0  0  0  0  0  0  0  0
  151.0625  139.2430  157.7392 C   0  0  0  0  0  0  0  0  0  0  0  0
  152.2281  138.6386  158.0960 N   0  0  0  0  0  0  0  0  0  0  0  0
  152.2146  137.5229  158.8307 C   0  0  0  0  0  0  0  0  0  0  0  0
  151.1653  136.8514  159.3079 N   0  0  0  0  0  0  0  0  0  0  0  0
  149.9924  137.4451  158.9453 C   0  0  0  0  0  0  0  0  0  0  0  0
  149.8512  138.6319  158.1717 C   0  0  0  0  0  0  0  0  0  0  0  0
  148.5029  138.9267  158.0047 N   0  0  0  0  0  0  0  0  0  0  0  0
  147.8847  137.9771  158.6516 C   0  0  0  0  0  0  0  0  0  0  0  0
  148.7023  137.0354  159.2344 N   0  0  0  0  0  0  0  0  0  0  0  0
  148.2852  135.8788  160.0117 C   0  0  0  0  0  0  0  0  0  0  0  0
  147.4800  136.2064  161.2961 C   0  0  1  0  0  0  0  0  0  0  0  0
  148.3765  136.8874  162.1579 O   0  0  0  0  0  0  0  0  0  0  0  0
  146.2543  137.0840  161.0844 C   0  0  0  0  0  0  0  0  0  0  0  0
  145.4499  136.8433  162.3582 C   0  0  0  0  0  0  0  0  0  0  0  0
  145.7115  135.4928  162.7245 O   0  0  0  0  0  0  0  0  0  0  0  0
  146.8507  134.9971  162.0234 C   0  0  2  0  0  0  0  0  0  0  0  0
  147.7769  134.1997  162.9547 C   0  0  0  0  0  0  0  0  0  0  0  0
  153.4147  139.3332  154.7101 H   0  0  0  0  0  0  0  0  0  0  0  0
  151.7327  138.8341  154.7293 H   0  0  0  0  0  0  0  0  0  0  0  0
  152.7877  138.4340  156.0878 H   0  0  0  0  0  0  0  0  0  0  0  0
  153.0723  140.9008  156.5444 H   0  0  0  0  0  0  0  0  0  0  0  0
  151.9122  141.2742  155.2902 H   0  0  0  0  0  0  0  0  0  0  0  0
  149.6279  141.8592  157.3623 H   0  0  0  0  0  0  0  0  0  0  0  0
  150.4662  141.3351  158.7788 H   0  0  0  0  0  0  0  0  0  0  0  0
  151.9063  142.9392  156.6043 H   0  0  0  0  0  0  0  0  0  0  0  0
  152.4969  142.2460  159.5122 H   0  0  0  0  0  0  0  0  0  0  0  0
  153.5652  141.9975  158.1284 H   0  0  0  0  0  0  0  0  0  0  0  0
  153.6348  144.2763  159.7069 H   0  0  0  0  0  0  0  0  0  0  0  0
  154.0462  144.3208  157.9916 H   0  0  0  0  0  0  0  0  0  0  0  0
  151.7155  145.5623  159.2143 H   0  0  0  0  0  0  0  0  0  0  0  0
  152.1561  145.5262  157.5042 H   0  0  0  0  0  0  0  0  0  0  0  0
  153.1831  137.1101  159.0717 H   0  0  0  0  0  0  0  0  0  0  0  0
  146.8070  137.9331  158.7153 H   0  0  0  0  0  0  0  0  0  0  0  0
  147.6962  135.2327  159.3592 H   0  0  0  0  0  0  0  0  0  0  0  0
  149.1794  135.3100  160.2703 H   0  0  0  0  0  0  0  0  0  0  0  0
  148.7590  136.2573  162.7495 H   0  0  0  0  0  0  0  0  0  0  0  0
  146.4909  138.1357  160.9192 H   0  0  0  0  0  0  0  0  0  0  0  0
  145.6670  136.7371  160.2351 H   0  0  0  0  0  0  0  0  0  0  0  0
  145.7984  137.4960  163.1595 H   0  0  0  0  0  0  0  0  0  0  0  0
  144.3833  137.0193  162.2186 H   0  0  0  0  0  0  0  0  0  0  0  0
  146.4369  134.3104  161.2866 H   0  0  0  0  0  0  0  0  0  0  0  0
  148.6493  133.8292  162.4162 H   0  0  0  0  0  0  0  0  0  0  0  0
  147.2544  133.3378  163.3699 H   0  0  0  0  0  0  0  0  0  0  0  0
  148.1265  134.8042  163.7919 H   0  0  0  0  0  0  0  0  0  0  0  0
  1  2  1  0  0  0  0
  1 27  1  0  0  0  0
  1 28  1  0  0  0  0
  1 29  1  0  0  0  0
  2  3  1  0  0  0  0
  2 30  1  0  0  0  0
  2 31  1  0  0  0  0
  3  4  1  0  0  0  0
  3 10  1  0  0  0  0
  4  5  1  0  0  0  0
  4 32  1  0  0  0  0
  4 33  1  0  0  0  0
  5  9  1  0  0  0  0
  5  6  1  0  0  0  0
  5 34  1  0  0  0  0
  6  7  1  0  0  0  0
  6 35  1  0  0  0  0
  6 36  1  0  0  0  0
  7  8  1  0  0  0  0
  7 37  1  0  0  0  0
  7 38  1  0  0  0  0
  8  9  1  0  0  0  0
  8 39  1  0  0  0  0
  8 40  1  0  0  0  0
 10 15  1  0  0  0  0
 10 11  2  0  0  0  0
 11 12  1  0  0  0  0
 12 13  2  0  0  0  0
 12 41  1  0  0  0  0
 13 14  1  0  0  0  0
 14 18  1  0  0  0  0
 14 15  2  0  0  0  0
 15 16  1  0  0  0  0
 16 17  2  0  0  0  0
 17 18  1  0  0  0  0
 17 42  1  0  0  0  0
 18 19  1  0  0  0  0
 19 20  1  0  0  0  0
 19 43  1  0  0  0  0
 19 44  1  0  0  0  0
 20 25  1  0  0  0  0
 20 21  1  0  0  0  0
 20 22  1  0  0  0  0
 21 45  1  0  0  0  0
 22 23  1  0  0  0  0
 22 46  1  0  0  0  0
 22 47  1  0  0  0  0
 23 24  1  0  0  0  0
 23 48  1  0  0  0  0
 23 49  1  0  0  0  0
 24 25  1  0  0  0  0
 25 26  1  0  0  0  0
 25 50  1  0  0  0  0
 26 51  1  0  0  0  0
 26 52  1  0  0  0  0
 26 53  1  0  0  0  0
M  END
> <s_m_source_file>
AV-unprocessed.smi

> <i_m_source_file_index>
15

> <i_lp_mmshare_version>
43012

> <i_f3d_flags>
0

> <s_epik_input>
TzFbQ0gyXVtDSDJdW0NIMl1bQ0BIXTFbQ0gyXU4oW0NIMl1bQ0gzXSljKG5bY0hdbjIpYyhjMjMpbltjSF1uM1tDSDJdW0NAQF00KFtPSF0pW0NIMl1bQ0gyXU9bQ0BIXTRbQ0gzXQ==

> <s_epik_cmdline>
J2VwaWtfcHl0aG9uJywgJy1waCcsICc3LjAnLCAnLXRuJywgJzgnLCAnLW1hJywgJzIwMCcsICctbWV0YWxfYmluZGluZycsICctaW1hZScsICc8aW5maWxlLm1hZT4nLCAnLW9tYWUnLCAnPG91dGZpbGUubWFlPic=

> <r_lp_tautomer_probability>
1

> <r_epik_Ionization_Penalty>
0.00360814

> <r_epik_Ionization_Penalty_Charging>
0

> <r_epik_Ionization_Penalty_Neutral>
0.00360814

> <r_epik_State_Penalty>
0.00237482

> <r_epik_Charging_Adjusted_Penalty>
0.00237482

> <i_epik_Tot_Q>
0

> <i_epik_Tot_abs_Q>
0

> <r_epik_Metal_State_Penalty>
-0

> <b_epik_Metal_Only>
0

> <s_lp_Force_Field>
OPLS_2005

> <r_lp_Energy>
48.2804

> <b_lp_Chiralities_Consistent>
1

> <s_lp_Variant>
AV-unprocessed.smi:15-5

> <Gold.Version>
5.8.1

> <Gold.Id.Protein>
6NUR|6NUR_protein|mol2

> <Gold.PLP.Fitness>
49.8014

> <Gold.PLP.PLP>
-45.5307

> <Gold.PLP.part.hbond>
-2.0998

> <Gold.PLP.part.metal>
0.0000

> <Gold.PLP.part.buried>
-7.1084

> <Gold.PLP.part.nonpolar>
-36.4293

> <Gold.PLP.part.repulsive>
0.1738

> <Gold.PLP.ligand.clash>
0.0000

> <Gold.PLP.ligand.torsion>
1.3157

> <Gold.PLP.Chemscore.Hbond>
2.0000

> <Gold.PLP.Chemscore.CHOScore>
0.0000

> <Gold.PLP.Chemscore.Metal>
0.0000

> <Gold.Chemscore.Hbonds>
donor molecule, donor type, donor heavy atom, donor atom, acceptor molecule, acceptor atom, score
      P1  H  6896  6909       L1    13  0.98
      P1  H  6931  6943       L1    21  0.98

> <Gold.PLP.Chemscore.Internal.Correction>
0.9020

> <Gold.Rescore>
     Score         DG    S(hbond)    S(metal)    S(lipo)     H(rot)  DE(clash)    DE(int)     intcor
     15.01     -18.47       1.93        0.00     109.47       2.44       0.29       3.18       ----

> <Gold.Chemscore.Fitness>
15.0085

> <Gold.Chemscore.DG>
-18.4726

> <Gold.Chemscore.ZeroCoef>
-5.4800

> <Gold.Chemscore.Hbond>
1.9280

> <Gold.Chemscore.Metal>
0.0000

> <Gold.Chemscore.Lipo>
109.4660

> <Gold.Chemscore.Internal_Hbond>
0.0000

> <Gold.Chemscore.DEClash>
0.2887

> <Gold.Chemscore.DEInternal>
3.1754

> <Gold.Chemscore.Rot>
2.4431

> <Gold.Chemscore.Internal.Correction>
   9.000000E+99

> <Gold.Chemscore.Hbonds>
donor molecule, donor type, donor heavy atom, donor atom, acceptor molecule, acceptor atom, score
      P1  H  6896  6909       L1    13  0.87
      P1  H  6931  6943       L1    21  0.90

> <Gold.Chemscore.Hbond.Weighted>
-6.4396

> <Gold.Chemscore.Metal.Weighted>
-0.0000

> <Gold.Chemscore.Lipo.Weighted>
-12.8075

> <Gold.Chemscore.Internal_Hbond.Weighted>
0.0000

> <Gold.Chemscore.DEClash.Weighted>
0.2887

> <Gold.Chemscore.DEInternal.Weighted>
3.1754

> <Gold.Chemscore.Rot.Weighted>
6.2544

> <Gold.Chemscore.Internal.Correction.Weighted>
   9.000000E+99

> <Gold.Protein.RotatedTorsions>
[ 6907 6896 6895 6894 ] final   86.86 input  -60.11 | X-H torsion
[ 7974 7965 7964 7962 ] final -133.71 input  175.53 | X-H torsion
[ 8008 7997 7996 7995 ] final  -17.90 input   59.86 | X-H torsion
[ 10167 10162 10161 10158 ] final  159.12 input  -65.29 | X-H torsion
[ 10718 10713 10712 10709 ] final  -58.46 input   66.30 | X-H torsion
[ 10763 10752 10751 10750 ] final -114.35 input  -60.55 | X-H torsion
[ 11005 11000 10999 10996 ] final   80.46 input  -57.11 | X-H torsion

> <Gold.Protein.ActiveResidues>
 VAL166  LYS551  ARG553  GLY616  TRP617  ASP618  TYR619  PRO620  LYS621  CYS622 
 ASP623  PHE694  ASN695  SER759  ASP760  ASP761  ALA762  ILE779  LEU786  VAL792 
 PHE793  MET794  SER795  GLU796  ALA797  LYS798  CYS799  TRP800  GLU811  SER814 

> <Gold.Protein.RotatedAtoms>
  152.5401  134.2366  159.8845 H   0  0  0  0  0  0  0  0  0  0  0  0  # atno 6907 bound_to 6896
  151.2335  133.4430  159.2612 H   0  0  0  0  0  0  0  0  0  0  0  0  # atno 6908 bound_to 6896
  151.0693  134.9801  159.8356 H   0  0  0  0  0  0  0  0  0  0  0  0  # atno 6909 bound_to 6896
  144.9168  140.6964  143.4990 H   0  0  0  0  0  0  0  0  0  0  0  0  # atno 7974 bound_to 7965
  154.4944  140.2130  155.9478 H   0  0  0  0  0  0  0  0  0  0  0  0  # atno 8008 bound_to 7997
  156.1350  140.3190  155.8375 H   0  0  0  0  0  0  0  0  0  0  0  0  # atno 8009 bound_to 7997
  155.4226  140.0498  157.3015 H   0  0  0  0  0  0  0  0  0  0  0  0  # atno 8010 bound_to 7997
  139.4830  144.4760  151.8511 H   0  0  0  0  0  0  0  0  0  0  0  0  # atno 10167 bound_to 10162
  156.1133  130.4173  150.0581 H   0  0  0  0  0  0  0  0  0  0  0  0  # atno 10718 bound_to 10713
  154.8436  135.4421  154.1492 H   0  0  0  0  0  0  0  0  0  0  0  0  # atno 10763 bound_to 10752
  153.2657  135.6940  153.7538 H   0  0  0  0  0  0  0  0  0  0  0  0  # atno 10764 bound_to 10752
  153.6798  135.3405  155.3150 H   0  0  0  0  0  0  0  0  0  0  0  0  # atno 10765 bound_to 10752
  139.9133  134.7922  156.1913 H   0  0  0  0  0  0  0  0  0  0  0  0  # atno 11005 bound_to 11000
  145.3362  139.1745  143.4510 LP  0  0  0  0  0  0  0  0  0  0  0  0  # atno 17320 bound_to 7965
  146.3186  140.3398  142.8647 LP  0  0  0  0  0  0  0  0  0  0  0  0  # atno 17321 bound_to 7965
  140.4232  144.2215  150.5887 LP  0  0  0  0  0  0  0  0  0  0  0  0  # atno 17342 bound_to 10162
  140.4853  143.2365  151.8897 LP  0  0  0  0  0  0  0  0  0  0  0  0  # atno 17343 bound_to 10162
  156.8538  130.9468  151.3623 LP  0  0  0  0  0  0  0  0  0  0  0  0  # atno 17370 bound_to 10713
  157.6315  130.8733  149.9283 LP  0  0  0  0  0  0  0  0  0  0  0  0  # atno 17371 bound_to 10713
  141.0582  133.6855  156.1901 LP  0  0  0  0  0  0  0  0  0  0  0  0  # atno 17394 bound_to 11000
  140.6703  134.4875  157.5587 LP  0  0  0  0  0  0  0  0  0  0  0  0  # atno 17395 bound_to 11000

$$$$
