AV-unprocessed.smi:1392|AV-procd|sdf|5660|dock3
  -GOLD-   22720 5283D 1   1.00000     0.00000
 Structure written by MMmdl.
 40 41  0  0  0  0  0  0  0  0  2 V2000
  144.7502  132.1009  150.2311 C   0  0  0  0  0  0  0  0  0  0  0  0
  144.8926  132.6326  151.5800 N   0  0  0  0  0  0  0  0  0  0  0  0
  145.5931  131.8658  152.6043 C   0  0  0  0  0  0  0  0  0  0  0  0
  144.3752  133.9089  151.8903 C   0  0  0  0  0  0  0  0  0  0  0  0
  144.7009  135.0772  151.1588 C   0  0  0  0  0  0  0  0  0  0  0  0
  144.1435  136.3172  151.5325 C   0  0  0  0  0  0  0  0  0  0  0  0
  143.2701  136.3916  152.6374 C   0  0  0  0  0  0  0  0  0  0  0  0
  142.7286  137.6644  152.9672 N   0  0  0  0  0  0  0  0  0  0  0  0
  141.7681  137.9645  153.8589 C   0  0  0  0  0  0  0  0  0  0  0  0
  141.1769  137.1527  154.5703 O   0  0  0  0  0  0  0  0  0  0  0  0
  141.5344  139.2841  153.8939 N   0  0  0  0  0  0  0  0  0  0  0  0
  140.5616  139.9387  154.7628 C   0  0  0  0  0  0  0  0  0  0  0  0
  139.5454  140.7768  153.9644 C   0  0  1  0  0  0  0  0  0  0  0  0
  138.4012  139.9694  153.3873 C   0  0  0  0  0  0  0  0  0  0  0  0
  137.3744  141.0572  153.0936 C   0  0  0  0  0  0  0  0  0  0  0  0
  137.5458  142.0289  154.1206 O   0  0  0  0  0  0  0  0  0  0  0  0
  138.7894  141.8240  154.7864 C   0  0  0  0  0  0  0  0  0  0  0  0
  142.9661  135.1949  153.3294 C   0  0  0  0  0  0  0  0  0  0  0  0
  143.5217  134.0282  152.9365 N   0  3  0  0  0  0  0  0  0  0  0  0
  143.6970  132.0078  149.9649 H   0  0  0  0  0  0  0  0  0  0  0  0
  145.2034  131.1131  150.1447 H   0  0  0  0  0  0  0  0  0  0  0  0
  145.2373  132.7552  149.5072 H   0  0  0  0  0  0  0  0  0  0  0  0
  144.9348  131.6651  153.4502 H   0  0  0  0  0  0  0  0  0  0  0  0
  146.4646  132.4136  152.9644 H   0  0  0  0  0  0  0  0  0  0  0  0
  145.9387  130.9073  152.2164 H   0  0  0  0  0  0  0  0  0  0  0  0
  145.3714  135.0443  150.3132 H   0  0  0  0  0  0  0  0  0  0  0  0
  144.3929  137.2066  150.9721 H   0  0  0  0  0  0  0  0  0  0  0  0
  143.1591  138.4506  152.5029 H   0  0  0  0  0  0  0  0  0  0  0  0
  142.0677  139.8811  153.2788 H   0  0  0  0  0  0  0  0  0  0  0  0
  140.0433  139.1940  155.3691 H   0  0  0  0  0  0  0  0  0  0  0  0
  141.1071  140.5751  155.4604 H   0  0  0  0  0  0  0  0  0  0  0  0
  140.0534  141.2807  153.1401 H   0  0  0  0  0  0  0  0  0  0  0  0
  138.6824  139.4004  152.5007 H   0  0  0  0  0  0  0  0  0  0  0  0
  138.0083  139.2743  154.1308 H   0  0  0  0  0  0  0  0  0  0  0  0
  137.5843  141.5269  152.1319 H   0  0  0  0  0  0  0  0  0  0  0  0
  136.3538  140.6749  153.0691 H   0  0  0  0  0  0  0  0  0  0  0  0
  138.5814  141.4534  155.7909 H   0  0  0  0  0  0  0  0  0  0  0  0
  139.3461  142.7566  154.8803 H   0  0  0  0  0  0  0  0  0  0  0  0
  142.2969  135.1132  154.1723 H   0  0  0  0  0  0  0  0  0  0  0  0
  143.2818  133.1857  153.4595 H   0  0  0  0  0  0  0  0  0  0  0  0
  1  2  1  0  0  0  0
  1 20  1  0  0  0  0
  1 21  1  0  0  0  0
  1 22  1  0  0  0  0
  2  3  1  0  0  0  0
  2  4  1  0  0  0  0
  3 23  1  0  0  0  0
  3 24  1  0  0  0  0
  3 25  1  0  0  0  0
  4 19  1  0  0  0  0
  4  5  2  0  0  0  0
  5  6  1  0  0  0  0
  5 26  1  0  0  0  0
  6  7  2  0  0  0  0
  6 27  1  0  0  0  0
  7  8  1  0  0  0  0
  7 18  1  0  0  0  0
  8  9  1  0  0  0  0
  8 28  1  0  0  0  0
  9 10  2  0  0  0  0
  9 11  1  0  0  0  0
 11 12  1  0  0  0  0
 11 29  1  0  0  0  0
 12 13  1  0  0  0  0
 12 30  1  0  0  0  0
 12 31  1  0  0  0  0
 13 17  1  0  0  0  0
 13 14  1  0  0  0  0
 13 32  1  0  0  0  0
 14 15  1  0  0  0  0
 14 33  1  0  0  0  0
 14 34  1  0  0  0  0
 15 16  1  0  0  0  0
 15 35  1  0  0  0  0
 15 36  1  0  0  0  0
 16 17  1  0  0  0  0
 17 37  1  0  0  0  0
 17 38  1  0  0  0  0
 18 19  2  0  0  0  0
 18 39  1  0  0  0  0
 19 40  1  0  0  0  0
M  CHG  1  19   1
M  END
> <s_m_source_file>
AV-unprocessed.smi

> <i_m_source_file_index>
1392

> <i_lp_mmshare_version>
43012

> <i_f3d_flags>
0

> <s_epik_input>
W0NIM11OKFtDSDNdKWMxW2NIXVtjSF1jKFtjSF1uMSlbTkhdQyg9TylbTkhdW0NIMl1bQ0BASF0yW0NIMl1bQ0gyXU9bQ0gyXTI=

> <s_epik_cmdline>
J2VwaWtfcHl0aG9uJywgJy1waCcsICc3LjAnLCAnLXRuJywgJzgnLCAnLW1hJywgJzIwMCcsICctbWV0YWxfYmluZGluZycsICctaW1hZScsICc8aW5maWxlLm1hZT4nLCAnLW9tYWUnLCAnPG91dGZpbGUubWFlPic=

> <r_lp_tautomer_probability>
0.999994

> <r_epik_Ionization_Penalty>
0.261114

> <r_epik_Ionization_Penalty_Charging>
0.261094

> <r_epik_Ionization_Penalty_Neutral>
2.01539e-05

> <r_epik_State_Penalty>
0.252829

> <r_epik_Charging_Adjusted_Penalty>
0.513923

> <i_epik_Tot_Q>
1

> <i_epik_Tot_abs_Q>
1

> <r_epik_Metal_State_Penalty>
0.54073

> <b_epik_Metal_Only>
0

> <s_lp_Force_Field>
OPLS_2005

> <r_lp_Energy>
29.0313

> <b_lp_Chiralities_Consistent>
1

> <s_lp_Variant>
AV-unprocessed.smi:1392-2

> <Gold.Version>
5.8.1

> <Gold.Id.Protein>
6NUR|6NUR_protein|mol2

> <Gold.PLP.Fitness>
39.8379

> <Gold.PLP.PLP>
-30.2468

> <Gold.PLP.part.hbond>
-2.9757

> <Gold.PLP.part.metal>
0.0000

> <Gold.PLP.part.buried>
-4.5478

> <Gold.PLP.part.nonpolar>
-23.3984

> <Gold.PLP.part.repulsive>
0.0744

> <Gold.PLP.ligand.clash>
0.0000

> <Gold.PLP.ligand.torsion>
1.2102

> <Gold.PLP.Chemscore.Hbond>
4.0000

> <Gold.PLP.Chemscore.CHOScore>
0.0000

> <Gold.PLP.Chemscore.Metal>
0.0000

> <Gold.Chemscore.Hbonds>
donor molecule, donor type, donor heavy atom, donor atom, acceptor molecule, acceptor atom, score
      L1  H     8    28       P1 10175  0.99
      L1  H    11    29       P1 10175  1.00
      L1  H    19    40       P1 10957  1.98

> <Gold.PLP.Chemscore.Internal.Correction>
0.0114

> <Gold.Rescore>
     Score         DG    S(hbond)    S(metal)    S(lipo)     H(rot)  DE(clash)    DE(int)     intcor
     15.75     -18.17       2.78        0.00      55.87       1.23       0.10       2.31       ----

> <Gold.Chemscore.Fitness>
15.7504

> <Gold.Chemscore.DG>
-18.1671

> <Gold.Chemscore.ZeroCoef>
-5.4800

> <Gold.Chemscore.Hbond>
2.7818

> <Gold.Chemscore.Metal>
0.0000

> <Gold.Chemscore.Lipo>
55.8675

> <Gold.Chemscore.Internal_Hbond>
0.0000

> <Gold.Chemscore.DEClash>
0.1019

> <Gold.Chemscore.DEInternal>
2.3147

> <Gold.Chemscore.Rot>
1.2268

> <Gold.Chemscore.Internal.Correction>
   9.000000E+99

> <Gold.Chemscore.Hbonds>
donor molecule, donor type, donor heavy atom, donor atom, acceptor molecule, acceptor atom, score
      L1  H     8    28       P1 10175  0.87
      L1  H    11    29       P1 10175  0.64
      L1  H    19    40       P1 10957  0.87

> <Gold.Chemscore.Hbond.Weighted>
-9.2912

> <Gold.Chemscore.Metal.Weighted>
-0.0000

> <Gold.Chemscore.Lipo.Weighted>
-6.5365

> <Gold.Chemscore.Internal_Hbond.Weighted>
0.0000

> <Gold.Chemscore.DEClash.Weighted>
0.1019

> <Gold.Chemscore.DEInternal.Weighted>
2.3147

> <Gold.Chemscore.Rot.Weighted>
3.1406

> <Gold.Chemscore.Internal.Correction.Weighted>
   9.000000E+99

> <Gold.Protein.RotatedTorsions>
[ 6907 6896 6895 6894 ] final  101.98 input  -60.11 | X-H torsion
[ 7974 7965 7964 7962 ] final  -77.93 input  175.53 | X-H torsion
[ 8008 7997 7996 7995 ] final  -45.89 input   59.86 | X-H torsion
[ 10167 10162 10161 10158 ] final   35.46 input  -65.29 | X-H torsion
[ 10718 10713 10712 10709 ] final   59.03 input   66.30 | X-H torsion
[ 10763 10752 10751 10750 ] final  118.50 input  -60.55 | X-H torsion
[ 11005 11000 10999 10996 ] final  143.12 input  -57.11 | X-H torsion

> <Gold.Protein.ActiveResidues>
 VAL166  LYS551  ARG553  GLY616  TRP617  ASP618  TYR619  PRO620  LYS621  CYS622 
 ASP623  PHE694  ASN695  SER759  ASP760  ASP761  ALA762  ILE779  LEU786  VAL792 
 PHE793  MET794  SER795  GLU796  ALA797  LYS798  CYS799  TRP800  GLU811  SER814 

> <Gold.Protein.RotatedAtoms>
  152.5336  134.0045  159.7909 H   0  0  0  0  0  0  0  0  0  0  0  0  # atno 6907 bound_to 6896
  151.0258  133.5827  159.2673 H   0  0  0  0  0  0  0  0  0  0  0  0  # atno 6908 bound_to 6896
  151.2850  135.0732  159.9237 H   0  0  0  0  0  0  0  0  0  0  0  0  # atno 6909 bound_to 6896
  145.5932  140.9425  143.1281 H   0  0  0  0  0  0  0  0  0  0  0  0  # atno 7974 bound_to 7965
  154.4003  140.1385  156.3921 H   0  0  0  0  0  0  0  0  0  0  0  0  # atno 8008 bound_to 7997
  155.7905  140.3479  155.5326 H   0  0  0  0  0  0  0  0  0  0  0  0  # atno 8009 bound_to 7997
  155.8584  140.0952  157.1619 H   0  0  0  0  0  0  0  0  0  0  0  0  # atno 8010 bound_to 7997
  140.4220  144.1446  150.6149 H   0  0  0  0  0  0  0  0  0  0  0  0  # atno 10167 bound_to 10162
  157.5644  130.8859  149.9162 H   0  0  0  0  0  0  0  0  0  0  0  0  # atno 10718 bound_to 10713
  153.5685  135.3507  155.2828 H   0  0  0  0  0  0  0  0  0  0  0  0  # atno 10763 bound_to 10752
  154.8685  135.4154  154.2751 H   0  0  0  0  0  0  0  0  0  0  0  0  # atno 10764 bound_to 10752
  153.3512  135.7055  153.6857 H   0  0  0  0  0  0  0  0  0  0  0  0  # atno 10765 bound_to 10752
  140.0530  134.9246  157.1050 H   0  0  0  0  0  0  0  0  0  0  0  0  # atno 11005 bound_to 11000
  144.7342  139.7634  143.7335 LP  0  0  0  0  0  0  0  0  0  0  0  0  # atno 17320 bound_to 7965
  146.1631  139.4753  142.9975 LP  0  0  0  0  0  0  0  0  0  0  0  0  # atno 17321 bound_to 7965
  140.4523  143.2482  151.9331 LP  0  0  0  0  0  0  0  0  0  0  0  0  # atno 17342 bound_to 10162
  139.4783  144.5550  151.8328 LP  0  0  0  0  0  0  0  0  0  0  0  0  # atno 17343 bound_to 10162
  156.0693  130.3687  150.0810 LP  0  0  0  0  0  0  0  0  0  0  0  0  # atno 17370 bound_to 10713
  156.8970  130.9608  151.3581 LP  0  0  0  0  0  0  0  0  0  0  0  0  # atno 17371 bound_to 10713
  140.3888  134.2207  155.7167 LP  0  0  0  0  0  0  0  0  0  0  0  0  # atno 17394 bound_to 11000
  141.1939  133.8141  157.0780 LP  0  0  0  0  0  0  0  0  0  0  0  0  # atno 17395 bound_to 11000

$$$$
