AV-unprocessed.smi:8|AV-procd|sdf|48|dock3
  -GOLD-   2262015163D 1   1.00000     0.00000
 Structure written by MMmdl.
 34 35  0  0  0  0  0  0  0  0  3 V2000
  150.6452  136.5714  154.9206 C   0  0  0  0  0  0  0  0  0  0  0  0
  150.1876  135.6797  156.0833 C   0  0  0  0  0  0  0  0  0  0  0  0
  149.8694  134.3208  155.6250 N   0  0  0  0  0  0  0  0  0  0  0  0
  148.9893  134.1924  154.5375 C   0  0  0  0  0  0  0  0  0  0  0  0
  148.6357  132.9942  154.0282 C   0  0  0  0  0  0  0  0  0  0  0  0
  147.6647  132.8601  152.8651 C   0  0  0  0  0  0  0  0  0  0  0  0
  147.1459  134.1436  152.4082 N   0  0  0  0  0  0  0  0  0  0  0  0
  145.9914  134.1672  151.6126 C   0  0  0  0  0  0  0  0  0  0  0  0
  145.4550  132.9976  151.1960 N   0  0  0  0  0  0  0  0  0  0  0  0
  144.3497  133.0094  150.4417 C   0  0  0  0  0  0  0  0  0  0  0  0
  143.7308  134.1400  150.0716 N   0  3  0  0  0  0  0  0  0  0  0  0
  144.2309  135.3353  150.4681 C   0  0  0  0  0  0  0  0  0  0  0  0
  145.3924  135.3965  151.2637 C   0  0  0  0  0  0  0  0  0  0  0  0
  145.9607  136.7315  151.7095 C   0  0  0  0  0  0  0  0  0  0  0  0
  149.1954  131.7999  154.6714 C   0  0  0  0  0  0  0  0  0  0  0  0
  148.8864  130.6823  154.2580 O   0  0  0  0  0  0  0  0  0  0  0  0
  150.0531  131.9786  155.7176 N   0  5  0  0  0  0  0  0  0  0  0  0
  150.4063  133.2073  156.2044 C   0  0  0  0  0  0  0  0  0  0  0  0
  151.1907  133.3426  157.1442 O   0  0  0  0  0  0  0  0  0  0  0  0
  150.8643  137.5804  155.2700 H   0  0  0  0  0  0  0  0  0  0  0  0
  149.8746  136.6449  154.1529 H   0  0  0  0  0  0  0  0  0  0  0  0
  151.5487  136.1793  154.4526 H   0  0  0  0  0  0  0  0  0  0  0  0
  150.9552  135.6566  156.8584 H   0  0  0  0  0  0  0  0  0  0  0  0
  149.3153  136.1269  156.5619 H   0  0  0  0  0  0  0  0  0  0  0  0
  148.6232  135.1279  154.1402 H   0  0  0  0  0  0  0  0  0  0  0  0
  148.1693  132.3546  152.0405 H   0  0  0  0  0  0  0  0  0  0  0  0
  146.8321  132.2245  153.1694 H   0  0  0  0  0  0  0  0  0  0  0  0
  147.8346  134.8590  152.2216 H   0  0  0  0  0  0  0  0  0  0  0  0
  143.9129  132.0819  150.1019 H   0  0  0  0  0  0  0  0  0  0  0  0
  143.6832  136.2045  150.1342 H   0  0  0  0  0  0  0  0  0  0  0  0
  145.3638  137.5615  151.3301 H   0  0  0  0  0  0  0  0  0  0  0  0
  146.9808  136.8521  151.3429 H   0  0  0  0  0  0  0  0  0  0  0  0
  145.9757  136.7948  152.7979 H   0  0  0  0  0  0  0  0  0  0  0  0
  142.8892  134.1099  149.4956 H   0  0  0  0  0  0  0  0  0  0  0  0
  1  2  1  0  0  0  0
  1 20  1  0  0  0  0
  1 21  1  0  0  0  0
  1 22  1  0  0  0  0
  2  3  1  0  0  0  0
  2 23  1  0  0  0  0
  2 24  1  0  0  0  0
  3 18  1  0  0  0  0
  3  4  1  0  0  0  0
  4  5  2  0  0  0  0
  4 25  1  0  0  0  0
  5  6  1  0  0  0  0
  5 15  1  0  0  0  0
  6  7  1  0  0  0  0
  6 26  1  0  0  0  0
  6 27  1  0  0  0  0
  7  8  1  0  0  0  0
  7 28  1  0  0  0  0
  8 13  1  0  0  0  0
  8  9  2  0  0  0  0
  9 10  1  0  0  0  0
 10 11  2  0  0  0  0
 10 29  1  0  0  0  0
 11 12  1  0  0  0  0
 11 34  1  0  0  0  0
 12 13  2  0  0  0  0
 12 30  1  0  0  0  0
 13 14  1  0  0  0  0
 14 31  1  0  0  0  0
 14 32  1  0  0  0  0
 14 33  1  0  0  0  0
 15 16  2  0  0  0  0
 15 17  1  0  0  0  0
 17 18  1  0  0  0  0
 18 19  2  0  0  0  0
M  CHG  1  11   1
M  CHG  1  17  -1
M  END
> <s_m_source_file>
AV-unprocessed.smi

> <i_m_source_file_index>
8

> <i_lp_mmshare_version>
43012

> <i_f3d_flags>
0

> <s_epik_input>
W0NIM11bQ0gyXW4xW2NIXWMoYyg9TylbbkhdYzE9TylbQ0gyXVtOSF1jMm5bY0hdbltjSF1jMltDSDNd

> <s_epik_cmdline>
J2VwaWtfcHl0aG9uJywgJy1waCcsICc3LjAnLCAnLXRuJywgJzgnLCAnLW1hJywgJzIwMCcsICctbWV0YWxfYmluZGluZycsICctaW1hZScsICc8aW5maWxlLm1hZT4nLCAnLW9tYWUnLCAnPG91dGZpbGUubWFlPic=

> <r_lp_tautomer_probability>
0.998874

> <r_epik_Ionization_Penalty>
7.33654

> <r_epik_Ionization_Penalty_Charging>
3.33717

> <r_epik_Ionization_Penalty_Neutral>
3.99937

> <r_epik_State_Penalty>
6.31594

> <r_epik_Charging_Adjusted_Penalty>
9.65311

> <i_epik_Tot_Q>
0

> <i_epik_Tot_abs_Q>
2

> <r_epik_Metal_State_Penalty>
2.94778

> <b_epik_Metal_Only>
1

> <s_lp_Force_Field>
OPLS_2005

> <r_lp_Energy>
21.5879

> <b_lp_Chiralities_Consistent>
1

> <s_lp_Variant>
AV-unprocessed.smi:8-4

> <Gold.Version>
5.8.1

> <Gold.Id.Protein>
6NUR|6NUR_protein|mol2

> <Gold.PLP.Fitness>
45.4425

> <Gold.PLP.PLP>
-32.4706

> <Gold.PLP.part.hbond>
-3.0000

> <Gold.PLP.part.metal>
0.0000

> <Gold.PLP.part.buried>
-4.9698

> <Gold.PLP.part.nonpolar>
-26.4520

> <Gold.PLP.part.repulsive>
0.1990

> <Gold.PLP.ligand.clash>
0.0000

> <Gold.PLP.ligand.torsion>
0.1994

> <Gold.PLP.Chemscore.Hbond>
3.4536

> <Gold.PLP.Chemscore.CHOScore>
0.9991

> <Gold.PLP.Chemscore.Metal>
0.0000

> <Gold.Chemscore.Hbonds>
donor molecule, donor type, donor heavy atom, donor atom, acceptor molecule, acceptor atom, score
      L1  H     7    28       P1  7948  1.00
      L1  H    11    34       P1 10186  1.70
      P1  H  6896  6908       L1    19  0.69
      L1  C     4    25       P1  7948  1.00

> <Gold.PLP.Chemscore.Internal.Correction>
0.0128

> <Gold.Rescore>
     Score         DG    S(hbond)    S(metal)    S(lipo)     H(rot)  DE(clash)    DE(int)     intcor
     14.82     -14.97       2.73        0.00      41.08       1.73       0.01       0.14       ----

> <Gold.Chemscore.Fitness>
14.8168

> <Gold.Chemscore.DG>
-14.9736

> <Gold.Chemscore.ZeroCoef>
-5.4800

> <Gold.Chemscore.Hbond>
2.7286

> <Gold.Chemscore.Metal>
0.0000

> <Gold.Chemscore.Lipo>
41.0811

> <Gold.Chemscore.Internal_Hbond>
0.0000

> <Gold.Chemscore.DEClash>
0.0137

> <Gold.Chemscore.DEInternal>
0.1432

> <Gold.Chemscore.Rot>
1.7290

> <Gold.Chemscore.Internal.Correction>
   9.000000E+99

> <Gold.Chemscore.Hbonds>
donor molecule, donor type, donor heavy atom, donor atom, acceptor molecule, acceptor atom, score
      L1  H     7    28       P1  7948  0.74
      L1  H    11    34       P1 10186  0.85
      P1  H  6896  6908       L1    19  0.66

> <Gold.Chemscore.Hbond.Weighted>
-9.1135

> <Gold.Chemscore.Metal.Weighted>
-0.0000

> <Gold.Chemscore.Lipo.Weighted>
-4.8065

> <Gold.Chemscore.Internal_Hbond.Weighted>
0.0000

> <Gold.Chemscore.DEClash.Weighted>
0.0137

> <Gold.Chemscore.DEInternal.Weighted>
0.1432

> <Gold.Chemscore.Rot.Weighted>
4.4263

> <Gold.Chemscore.Internal.Correction.Weighted>
   9.000000E+99

> <Gold.Protein.RotatedTorsions>
[ 6907 6896 6895 6894 ] final   84.61 input  -60.11 | X-H torsion
[ 7974 7965 7964 7962 ] final  147.15 input  175.53 | X-H torsion
[ 8008 7997 7996 7995 ] final -104.88 input   59.86 | X-H torsion
[ 10167 10162 10161 10158 ] final  -77.81 input  -65.29 | X-H torsion
[ 10718 10713 10712 10709 ] final    4.88 input   66.30 | X-H torsion
[ 10763 10752 10751 10750 ] final -115.87 input  -60.55 | X-H torsion
[ 11005 11000 10999 10996 ] final -153.94 input  -57.11 | X-H torsion

> <Gold.Protein.ActiveResidues>
 VAL166  LYS551  ARG553  GLY616  TRP617  ASP618  TYR619  PRO620  LYS621  CYS622 
 ASP623  PHE694  ASN695  SER759  ASP760  ASP761  ALA762  ILE779  LEU786  VAL792 
 PHE793  MET794  SER795  GLU796  ALA797  LYS798  CYS799  TRP800  GLU811  SER814 

> <Gold.Protein.RotatedAtoms>
  152.5356  134.2714  159.8972 H   0  0  0  0  0  0  0  0  0  0  0  0  # atno 6907 bound_to 6896
  151.2670  133.4267  159.2627 H   0  0  0  0  0  0  0  0  0  0  0  0  # atno 6908 bound_to 6896
  151.0401  134.9616  159.8214 H   0  0  0  0  0  0  0  0  0  0  0  0  # atno 6909 bound_to 6896
  144.8614  139.5993  143.5929 H   0  0  0  0  0  0  0  0  0  0  0  0  # atno 7974 bound_to 7965
  154.8918  140.0415  157.1842 H   0  0  0  0  0  0  0  0  0  0  0  0  # atno 8008 bound_to 7997
  154.8533  140.2932  155.5563 H   0  0  0  0  0  0  0  0  0  0  0  0  # atno 8009 bound_to 7997
  156.2996  140.2460  156.3496 H   0  0  0  0  0  0  0  0  0  0  0  0  # atno 8010 bound_to 7997
  140.4738  143.2420  151.8165 H   0  0  0  0  0  0  0  0  0  0  0  0  # atno 10167 bound_to 10162
  156.8992  130.5715  149.5648 H   0  0  0  0  0  0  0  0  0  0  0  0  # atno 10718 bound_to 10713
  154.8498  135.4366  154.1732 H   0  0  0  0  0  0  0  0  0  0  0  0  # atno 10763 bound_to 10752
  153.2840  135.6956  153.7363 H   0  0  0  0  0  0  0  0  0  0  0  0  # atno 10764 bound_to 10752
  153.6556  135.3444  155.3087 H   0  0  0  0  0  0  0  0  0  0  0  0  # atno 10765 bound_to 10752
  140.7028  134.3919  157.5207 H   0  0  0  0  0  0  0  0  0  0  0  0  # atno 11005 bound_to 11000
  146.2863  139.7014  142.9193 LP  0  0  0  0  0  0  0  0  0  0  0  0  # atno 17320 bound_to 7965
  145.4305  141.0414  143.2913 LP  0  0  0  0  0  0  0  0  0  0  0  0  # atno 17321 bound_to 7965
  139.4822  144.4859  151.9247 LP  0  0  0  0  0  0  0  0  0  0  0  0  # atno 17342 bound_to 10162
  140.3944  144.2573  150.5897 LP  0  0  0  0  0  0  0  0  0  0  0  0  # atno 17343 bound_to 10162
  156.0590  130.5647  150.9154 LP  0  0  0  0  0  0  0  0  0  0  0  0  # atno 17370 bound_to 10713
  157.6037  131.0940  150.8917 LP  0  0  0  0  0  0  0  0  0  0  0  0  # atno 17371 bound_to 10713
  139.8892  134.8836  156.2432 LP  0  0  0  0  0  0  0  0  0  0  0  0  # atno 17394 bound_to 11000
  141.0150  133.7074  156.1173 LP  0  0  0  0  0  0  0  0  0  0  0  0  # atno 17395 bound_to 11000

$$$$
