#       Name:                AV-unprocessed.smi:1197
#       Creating user name   scv26
#       Creation time:       Fri Mar 27 04:02:18 2020


#       File generated by GOLD software.
#

@<TRIPOS>MOLECULE
AV-unprocessed.smi:1197
    48    49     1
SMALL
NO_CHARGES


@<TRIPOS>ATOM
      1 ****        -7.4733   2.6897   1.7055 C.3            1 S1                 0.0000
      2 ****        -6.8492   1.4126   1.7797 O.3            1 S1                 0.0000
      3 ****        -5.4820   1.3407   1.6074 C.ar           1 S1                 0.0000
      4 ****        -4.8569   0.0813   1.6961 C.ar           1 S1                 0.0000
      5 ****        -3.4617  -0.0016   1.5243 C.ar           1 S1                 0.0000
      6 ****        -2.7323   1.1832   1.2607 C.ar           1 S1                 0.0000
      7 ****        -1.3226   1.2466   1.0819 N.am           1 S1                 0.0000
      8 ****        -0.4429   0.2471   0.8962 C.2            1 S1                 0.0000
      9 ****        -0.7236  -0.9477   0.8099 O.2            1 S1                 0.0000
     10 ****         0.8083   0.7184   0.7982 N.am           1 S1                 0.0000
     11 ****         1.9977  -0.1009   0.5985 C.3            1 S1                 0.0000
     12 ****         2.1495  -0.5253  -0.8747 C.3            1 S1                 0.0000
     13 ****         3.2764  -1.4161  -1.1449 N.3            1 S1                 0.0000
     14 ****         4.5697  -0.7604  -0.9626 C.3            1 S1                 0.0000
     15 ****         5.7419  -1.7062  -1.2773 C.3            1 S1                 0.0000
     16 ****         5.6095  -2.2102  -2.6022 O.3            1 S1                 0.0000
     17 ****         4.3799  -2.8982  -2.8064 C.3            1 S1                 0.0000
     18 ****         3.2051  -1.9533  -2.4997 C.3            1 S1                 0.0000
     19 ****        -3.4533   2.3938   1.1980 C.ar           1 S1                 0.0000
     20 ****        -4.7899   2.4807   1.3632 N.ar           1 S1                 0.0000
     21 ****        -8.5470   2.5753   1.8542 H              1 S1                 0.0000
     22 ****        -7.3226   3.1525   0.7291 H              1 S1                 0.0000
     23 ****        -7.1014   3.3604   2.4813 H              1 S1                 0.0000
     24 ****        -5.4370  -0.8071   1.8978 H              1 S1                 0.0000
     25 ****        -2.9902  -0.9673   1.6106 H              1 S1                 0.0000
     26 ****        -0.9355   2.1787   1.0722 H              1 S1                 0.0000
     27 ****         0.9505   1.7147   0.8760 H              1 S1                 0.0000
     28 ****         2.8541   0.4900   0.9210 H              1 S1                 0.0000
     29 ****         1.9598  -0.9777   1.2475 H              1 S1                 0.0000
     30 ****         1.2304  -1.0311  -1.1739 H              1 S1                 0.0000
     31 ****         2.2209   0.3617  -1.5062 H              1 S1                 0.0000
     32 ****         4.6331   0.1189  -1.6053 H              1 S1                 0.0000
     33 ****         4.6757  -0.4075   0.0628 H              1 S1                 0.0000
     34 ****         6.6903  -1.1759  -1.1905 H              1 S1                 0.0000
     35 ****         5.7705  -2.5342  -0.5671 H              1 S1                 0.0000
     36 ****         4.3308  -3.2420  -3.8396 H              1 S1                 0.0000
     37 ****         4.3400  -3.7841  -2.1705 H              1 S1                 0.0000
     38 ****         2.2665  -2.4920  -2.6357 H              1 S1                 0.0000
     39 ****         3.2025  -1.1357  -3.2225 H              1 S1                 0.0000
     40 ****        -2.9421   3.3264   1.0083 H              1 S1                 0.0000
     41 ****        -7.2668   0.8379   1.0759 LP             1 S1                 0.0000
     42 ****        -7.0539   1.0353   2.6828 LP             1 S1                 0.0000
     43 ****        -1.6763  -1.2437   0.8784 LP             1 S1                 0.0000
     44 ****         0.0010  -1.6227   0.6711 LP             1 S1                 0.0000
     45 ****         3.2063  -2.1587  -0.4789 LP             1 S1                 0.0000
     46 ****         6.3636  -2.8421  -2.7813 LP             1 S1                 0.0000
     47 ****         5.6578  -1.4437  -3.2427 LP             1 S1                 0.0000
     48 ****        -5.2576   3.3629   1.3069 LP             1 S1                 0.0000
@<TRIPOS>BOND
    1    1    2 1     
    2    1   21 1     
    3    1   22 1     
    4    1   23 1     
    5    2    3 1     
    6    3   20 ar    
    7    3    4 ar    
    8    4    5 ar    
    9    4   24 1     
   10    5    6 ar    
   11    5   25 1     
   12    6    7 1     
   13    6   19 ar    
   14    7    8 am    
   15    7   26 1     
   16    8    9 2     
   17    8   10 am    
   18   10   11 1     
   19   10   27 1     
   20   11   12 1     
   21   11   28 1     
   22   11   29 1     
   23   12   13 1     
   24   12   30 1     
   25   12   31 1     
   26   13   18 1     
   27   13   14 1     
   28   14   15 1     
   29   14   32 1     
   30   14   33 1     
   31   15   16 1     
   32   15   34 1     
   33   15   35 1     
   34   16   17 1     
   35   17   18 1     
   36   17   36 1     
   37   17   37 1     
   38   18   38 1     
   39   18   39 1     
   40   19   20 ar    
   41   19   40 1     
   42    2   41 1     
   43    2   42 1     
   44    9   43 1     
   45    9   44 1     
   46   13   45 1     
   47   16   46 1     
   48   16   47 1     
   49   20   48 1     
@<TRIPOS>SUBSTRUCTURE
      1 S1             1
@<TRIPOS>SET
LONE_PAIRS      STATIC     ATOMS    <user>   **** ""
8 41 42 43 44 45 46 47 48
DONOR_HYDROGENS      STATIC     ATOMS    <user>   **** ""
2 26 27
ATOM$BLUE        STATIC     ATOMS    COLORGROUP SYSTEM
8 41 42 43 44 45 46 47 48
ATOM$RED        STATIC     ATOMS    COLORGROUP SYSTEM
2 26 27
