AV-unprocessed.smi:1106|AV-procd|sdf|4777|dock2
  -GOLD-   22720 3313D 1   1.00000     0.00000
 Structure written by MMmdl.
 48 49  0  0  0  0  0  0  0  0  2 V2000
  150.6690  142.0643  157.7690 C   0  0  0  0  0  0  0  0  0  0  0  0
  150.2993  141.9350  156.2838 C   0  0  0  0  0  0  0  0  0  0  0  0
  149.1006  141.1668  156.0678 N   0  0  0  0  0  0  0  0  0  0  0  0
  148.4220  140.5715  157.1135 C   0  0  0  0  0  0  0  0  0  0  0  0
  147.2990  139.8425  156.9374 C   0  0  0  0  0  0  0  0  0  0  0  0
  146.6140  139.2420  158.0338 C   0  0  0  0  0  0  0  0  0  0  0  0
  146.0403  138.7686  158.9204 N   0  0  0  0  0  0  0  0  0  0  0  0
  146.7337  139.6358  155.6061 C   0  0  0  0  0  0  0  0  0  0  0  0
  145.7029  138.9943  155.3934 O   0  0  0  0  0  0  0  0  0  0  0  0
  147.4640  140.2444  154.5543 N   0  0  0  0  0  0  0  0  0  0  0  0
  146.9556  140.0693  153.2013 C   0  0  0  0  0  0  0  0  0  0  0  0
  147.1149  138.6356  152.6472 C   0  0  2  0  0  0  0  0  0  0  0  0
  147.5679  138.7453  151.3134 O   0  0  0  0  0  0  0  0  0  0  0  0
  145.8045  137.8194  152.6537 C   0  0  0  0  0  0  0  0  0  0  0  0
  146.0151  136.4030  152.2603 N   0  3  2  0  0  0  0  0  0  0  0  0
  145.0625  135.9617  151.2095 C   0  0  0  0  0  0  0  0  0  0  0  0
  145.3910  134.5401  150.7225 C   0  0  0  0  0  0  0  0  0  0  0  0
  145.4039  133.5374  151.8888 C   0  0  1  0  0  0  0  0  0  0  0  0
  145.7611  132.1204  151.4183 C   0  0  0  0  0  0  0  0  0  0  0  0
  146.3714  134.0380  152.9743 C   0  0  0  0  0  0  0  0  0  0  0  0
  146.0212  135.4684  153.4175 C   0  0  0  0  0  0  0  0  0  0  0  0
  148.6365  141.0177  154.7400 C   0  0  0  0  0  0  0  0  0  0  0  0
  149.2239  141.5479  153.7932 O   0  0  0  0  0  0  0  0  0  0  0  0
  151.5555  142.6865  157.8922 H   0  0  0  0  0  0  0  0  0  0  0  0
  150.8836  141.0935  158.2166 H   0  0  0  0  0  0  0  0  0  0  0  0
  149.8596  142.5237  158.3369 H   0  0  0  0  0  0  0  0  0  0  0  0
  150.1084  142.9172  155.8490 H   0  0  0  0  0  0  0  0  0  0  0  0
  151.0945  141.4801  155.6902 H   0  0  0  0  0  0  0  0  0  0  0  0
  148.8045  140.6950  158.1167 H   0  0  0  0  0  0  0  0  0  0  0  0
  145.9161  140.3987  153.1698 H   0  0  0  0  0  0  0  0  0  0  0  0
  147.4862  140.7935  152.5796 H   0  0  0  0  0  0  0  0  0  0  0  0
  147.8899  138.1205  153.2130 H   0  0  0  0  0  0  0  0  0  0  0  0
  148.1867  139.4585  151.2628 H   0  0  0  0  0  0  0  0  0  0  0  0
  145.3341  137.8394  153.6370 H   0  0  0  0  0  0  0  0  0  0  0  0
  145.0996  138.2967  151.9709 H   0  0  0  0  0  0  0  0  0  0  0  0
  144.0435  136.0026  151.5983 H   0  0  0  0  0  0  0  0  0  0  0  0
  145.1066  136.6466  150.3616 H   0  0  0  0  0  0  0  0  0  0  0  0
  144.6609  134.2323  149.9730 H   0  0  0  0  0  0  0  0  0  0  0  0
  146.3620  134.5421  150.2247 H   0  0  0  0  0  0  0  0  0  0  0  0
  144.4011  133.5011  152.3174 H   0  0  0  0  0  0  0  0  0  0  0  0
  146.7583  132.0867  150.9780 H   0  0  0  0  0  0  0  0  0  0  0  0
  145.0536  131.7664  150.6678 H   0  0  0  0  0  0  0  0  0  0  0  0
  145.7399  131.4141  152.2486 H   0  0  0  0  0  0  0  0  0  0  0  0
  146.3428  133.3707  153.8365 H   0  0  0  0  0  0  0  0  0  0  0  0
  147.3959  134.0136  152.5994 H   0  0  0  0  0  0  0  0  0  0  0  0
  146.7439  135.7920  154.1656 H   0  0  0  0  0  0  0  0  0  0  0  0
  145.0430  135.4801  153.9007 H   0  0  0  0  0  0  0  0  0  0  0  0
  146.9331  136.3634  151.8398 H   0  0  0  0  0  0  0  0  0  0  0  0
  1  2  1  0  0  0  0
  1 24  1  0  0  0  0
  1 25  1  0  0  0  0
  1 26  1  0  0  0  0
  2  3  1  0  0  0  0
  2 27  1  0  0  0  0
  2 28  1  0  0  0  0
  3 22  1  0  0  0  0
  3  4  1  0  0  0  0
  4  5  2  0  0  0  0
  4 29  1  0  0  0  0
  5  6  1  0  0  0  0
  5  8  1  0  0  0  0
  6  7  3  0  0  0  0
  8  9  2  0  0  0  0
  8 10  1  0  0  0  0
 10 11  1  0  0  0  0
 10 22  1  0  0  0  0
 11 12  1  0  0  0  0
 11 30  1  0  0  0  0
 11 31  1  0  0  0  0
 12 13  1  0  0  0  0
 12 14  1  0  0  0  0
 12 32  1  0  0  0  0
 13 33  1  0  0  0  0
 14 15  1  0  0  0  0
 14 34  1  0  0  0  0
 14 35  1  0  0  0  0
 15 21  1  0  0  0  0
 15 16  1  0  0  0  0
 15 48  1  0  0  0  0
 16 17  1  0  0  0  0
 16 36  1  0  0  0  0
 16 37  1  0  0  0  0
 17 18  1  0  0  0  0
 17 38  1  0  0  0  0
 17 39  1  0  0  0  0
 18 19  1  0  0  0  0
 18 20  1  0  0  0  0
 18 40  1  0  0  0  0
 19 41  1  0  0  0  0
 19 42  1  0  0  0  0
 19 43  1  0  0  0  0
 20 21  1  0  0  0  0
 20 44  1  0  0  0  0
 20 45  1  0  0  0  0
 21 46  1  0  0  0  0
 21 47  1  0  0  0  0
 22 23  2  0  0  0  0
M  CHG  1  15   1
M  END
> <s_m_source_file>
AV-unprocessed.smi

> <i_m_source_file_index>
1106

> <i_lp_mmshare_version>
43012

> <i_f3d_flags>
0

> <s_epik_input>
W0NIM11bQ0gyXW4xW2NIXWMoQyNOKWMoPU8pbihjMT1PKVtDSDJdW0NASF0oW09IXSlbQ0gyXU4yW0NIMl1bQ0gyXVtDSF0oW0NIM10pW0NIMl1bQ0gyXTI=

> <s_epik_cmdline>
J2VwaWtfcHl0aG9uJywgJy1waCcsICc3LjAnLCAnLXRuJywgJzgnLCAnLW1hJywgJzIwMCcsICctbWV0YWxfYmluZGluZycsICctaW1hZScsICc8aW5maWxlLm1hZT4nLCAnLW9tYWUnLCAnPG91dGZpbGUubWFlPic=

> <r_epik_Ionization_Penalty>
0.00136816

> <r_epik_Ionization_Penalty_Charging>
0.00136813

> <r_epik_Ionization_Penalty_Neutral>
3.19882e-08

> <r_epik_State_Penalty>
0.000910892

> <r_epik_Charging_Adjusted_Penalty>
0.00227902

> <i_epik_Tot_Q>
1

> <i_epik_Tot_abs_Q>
1

> <r_epik_Metal_State_Penalty>
-0

> <b_epik_Metal_Only>
0

> <s_lp_Force_Field>
OPLS_2005

> <r_lp_Energy>
27.8711

> <b_lp_Chiralities_Consistent>
1

> <s_lp_Variant>
AV-unprocessed.smi:1106-1

> <Gold.Version>
5.8.1

> <Gold.Id.Protein>
6NUR|6NUR_protein|mol2

> <Gold.PLP.Fitness>
43.2131

> <Gold.PLP.PLP>
-31.9060

> <Gold.PLP.part.hbond>
-6.7736

> <Gold.PLP.part.metal>
0.0000

> <Gold.PLP.part.buried>
-0.5777

> <Gold.PLP.part.nonpolar>
-25.4884

> <Gold.PLP.part.repulsive>
0.7815

> <Gold.PLP.ligand.clash>
0.0000

> <Gold.PLP.ligand.torsion>
1.3924

> <Gold.PLP.Chemscore.Hbond>
4.6424

> <Gold.PLP.Chemscore.CHOScore>
0.0000

> <Gold.PLP.Chemscore.Metal>
0.0000

> <Gold.Chemscore.Hbonds>
donor molecule, donor type, donor heavy atom, donor atom, acceptor molecule, acceptor atom, score
      L1  H    13    33       P1  7957  0.89
      L1  H    15    48       P1  7948  2.00
      P1  H  6934  6947       L1     7  0.11
      P1  H  7954  7966       L1    13  0.66
      P1  H  8011  8017       L1    23  0.72

> <Gold.PLP.Chemscore.Internal.Correction>
0.1649

> <Gold.Rescore>
     Score         DG    S(hbond)    S(metal)    S(lipo)     H(rot)  DE(clash)    DE(int)     intcor
     13.75     -16.63       2.89        0.00      67.23       2.48       0.40       2.47       ----

> <Gold.Chemscore.Fitness>
13.7517

> <Gold.Chemscore.DG>
-16.6275

> <Gold.Chemscore.ZeroCoef>
-5.4800

> <Gold.Chemscore.Hbond>
2.8862

> <Gold.Chemscore.Metal>
0.0000

> <Gold.Chemscore.Lipo>
67.2303

> <Gold.Chemscore.Internal_Hbond>
0.0000

> <Gold.Chemscore.DEClash>
0.4017

> <Gold.Chemscore.DEInternal>
2.4742

> <Gold.Chemscore.Rot>
2.4838

> <Gold.Chemscore.Internal.Correction>
   9.000000E+99

> <Gold.Chemscore.Hbonds>
donor molecule, donor type, donor heavy atom, donor atom, acceptor molecule, acceptor atom, score
      L1  H    13    33       P1  7957  0.72
      L1  H    15    48       P1  7948  0.95
      P1  H  6934  6947       L1     7  0.09
      P1  H  7954  7966       L1    13  0.08
      P1  H  8011  8017       L1    23  0.72

> <Gold.Chemscore.Hbond.Weighted>
-9.6400

> <Gold.Chemscore.Metal.Weighted>
-0.0000

> <Gold.Chemscore.Lipo.Weighted>
-7.8659

> <Gold.Chemscore.Internal_Hbond.Weighted>
0.0000

> <Gold.Chemscore.DEClash.Weighted>
0.4017

> <Gold.Chemscore.DEInternal.Weighted>
2.4742

> <Gold.Chemscore.Rot.Weighted>
6.3585

> <Gold.Chemscore.Internal.Correction.Weighted>
   9.000000E+99

> <Gold.Protein.RotatedTorsions>
[ 6907 6896 6895 6894 ] final  158.41 input  -60.11 | X-H torsion
[ 7974 7965 7964 7962 ] final  172.45 input  175.53 | X-H torsion
[ 8008 7997 7996 7995 ] final   36.24 input   59.86 | X-H torsion
[ 10167 10162 10161 10158 ] final   53.52 input  -65.29 | X-H torsion
[ 10718 10713 10712 10709 ] final  116.73 input   66.30 | X-H torsion
[ 10763 10752 10751 10750 ] final  -34.89 input  -60.55 | X-H torsion
[ 11005 11000 10999 10996 ] final -177.67 input  -57.11 | X-H torsion

> <Gold.Protein.ActiveResidues>
 VAL166  LYS551  ARG553  GLY616  TRP617  ASP618  TYR619  PRO620  LYS621  CYS622 
 ASP623  PHE694  ASN695  SER759  ASP760  ASP761  ALA762  ILE779  LEU786  VAL792 
 PHE793  MET794  SER795  GLU796  ALA797  LYS798  CYS799  TRP800  GLU811  SER814 

> <Gold.Protein.RotatedAtoms>
  152.0008  133.3825  159.4180 H   0  0  0  0  0  0  0  0  0  0  0  0  # atno 6907 bound_to 6896
  150.6910  134.3836  159.5054 H   0  0  0  0  0  0  0  0  0  0  0  0  # atno 6908 bound_to 6896
  152.1583  134.8933  160.0594 H   0  0  0  0  0  0  0  0  0  0  0  0  # atno 6909 bound_to 6896
  144.7268  139.9500  143.6431 H   0  0  0  0  0  0  0  0  0  0  0  0  # atno 7974 bound_to 7965
  155.1842  140.3302  155.4370 H   0  0  0  0  0  0  0  0  0  0  0  0  # atno 8008 bound_to 7997
  156.2466  140.1921  156.6888 H   0  0  0  0  0  0  0  0  0  0  0  0  # atno 8009 bound_to 7997
  154.6250  140.0590  156.9648 H   0  0  0  0  0  0  0  0  0  0  0  0  # atno 8010 bound_to 7997
  140.2399  144.3595  150.6384 H   0  0  0  0  0  0  0  0  0  0  0  0  # atno 10167 bound_to 10162
  157.6142  131.1029  150.7515 H   0  0  0  0  0  0  0  0  0  0  0  0  # atno 10718 bound_to 10713
  153.8542  135.6846  153.4789 H   0  0  0  0  0  0  0  0  0  0  0  0  # atno 10763 bound_to 10752
  153.1379  135.4669  154.9449 H   0  0  0  0  0  0  0  0  0  0  0  0  # atno 10764 bound_to 10752
  154.7788  135.3262  154.7982 H   0  0  0  0  0  0  0  0  0  0  0  0  # atno 10765 bound_to 10752
  140.4383  134.6455  157.4745 H   0  0  0  0  0  0  0  0  0  0  0  0  # atno 11005 bound_to 11000
  146.0719  139.3707  143.0518 LP  0  0  0  0  0  0  0  0  0  0  0  0  # atno 17320 bound_to 7965
  145.7957  140.9794  143.1025 LP  0  0  0  0  0  0  0  0  0  0  0  0  # atno 17321 bound_to 7965
  140.6121  143.2170  151.6864 LP  0  0  0  0  0  0  0  0  0  0  0  0  # atno 17342 bound_to 10162
  139.5081  144.3624  152.0550 LP  0  0  0  0  0  0  0  0  0  0  0  0  # atno 17343 bound_to 10162
  156.7886  130.4882  149.5388 LP  0  0  0  0  0  0  0  0  0  0  0  0  # atno 17370 bound_to 10713
  156.1256  130.6141  151.0259 LP  0  0  0  0  0  0  0  0  0  0  0  0  # atno 17371 bound_to 10713
  140.0087  134.6724  155.9415 LP  0  0  0  0  0  0  0  0  0  0  0  0  # atno 17394 bound_to 11000
  141.1716  133.6537  156.4673 LP  0  0  0  0  0  0  0  0  0  0  0  0  # atno 17395 bound_to 11000

$$$$
