AV-unprocessed.smi:37|AV-procd|sdf|320|dock9
  -GOLD-   2262016143D 1   1.00000     0.00000
 Structure written by MMmdl.
 43 44  0  0  0  0  0  0  0  0  2 V2000
  147.4527  134.5562  162.3826 C   0  0  0  0  0  0  0  0  0  0  0  0
  148.4435  135.7164  162.2058 C   0  0  0  0  0  0  0  0  0  0  0  0
  148.1527  136.5900  160.9837 C   0  0  0  0  0  0  0  0  0  0  0  0
  147.1028  137.2227  160.8563 O   0  0  0  0  0  0  0  0  0  0  0  0
  149.1635  136.5680  160.1054 O   0  0  0  0  0  0  0  0  0  0  0  0
  149.1662  137.4596  159.0024 C   0  0  0  0  0  0  0  0  0  0  0  0
  150.0889  136.9435  157.8842 C   0  0  1  0  0  0  0  0  0  0  0  0
  149.5695  135.7335  157.3381 O   0  0  0  0  0  0  0  0  0  0  0  0
  150.0345  135.6441  156.0288 C   0  0  1  0  0  0  0  0  0  0  0  0
  149.3193  134.5229  155.2930 N   0  0  0  0  0  0  0  0  0  0  0  0
  148.5596  134.7692  154.1594 C   0  0  0  0  0  0  0  0  0  0  0  0
  147.9638  133.7701  153.4773 C   0  0  0  0  0  0  0  0  0  0  0  0
  147.2315  134.0489  152.3851 F   0  0  0  0  0  0  0  0  0  0  0  0
  148.1356  132.3898  153.9218 C   0  0  0  0  0  0  0  0  0  0  0  0
  147.5613  131.4846  153.3184 O   0  0  0  0  0  0  0  0  0  0  0  0
  148.9460  132.1655  154.9953 N   0  5  0  0  0  0  0  0  0  0  0  0
  149.5685  133.1732  155.6749 C   0  0  0  0  0  0  0  0  0  0  0  0
  150.3519  132.9643  156.6011 O   0  0  0  0  0  0  0  0  0  0  0  0
  149.7807  137.0641  155.5019 C   0  0  1  0  0  0  0  0  0  0  0  0
  147.8238  137.4491  155.2901 Br  0  0  0  0  0  0  0  0  0  0  0  0
  150.3352  137.8729  156.6742 C   0  0  1  0  0  0  0  0  0  0  0  0
  149.7534  139.1670  156.7994 O   0  0  0  0  0  0  0  0  0  0  0  0
  150.1284  140.1645  155.9804 C   0  0  0  0  0  0  0  0  0  0  0  0
  150.6553  140.0264  154.8750 O   0  0  0  0  0  0  0  0  0  0  0  0
  149.8158  141.5385  156.5756 C   0  0  0  0  0  0  0  0  0  0  0  0
  151.0613  142.4100  156.7975 C   0  0  0  0  0  0  0  0  0  0  0  0
  147.6981  133.9749  163.2714 H   0  0  0  0  0  0  0  0  0  0  0  0
  147.4766  133.8783  161.5286 H   0  0  0  0  0  0  0  0  0  0  0  0
  146.4310  134.9199  162.4989 H   0  0  0  0  0  0  0  0  0  0  0  0
  148.4280  136.3499  163.0932 H   0  0  0  0  0  0  0  0  0  0  0  0
  149.4572  135.3249  162.1176 H   0  0  0  0  0  0  0  0  0  0  0  0
  148.1530  137.5764  158.6151 H   0  0  0  0  0  0  0  0  0  0  0  0
  149.5001  138.4427  159.3360 H   0  0  0  0  0  0  0  0  0  0  0  0
  151.0572  136.7102  158.3287 H   0  0  0  0  0  0  0  0  0  0  0  0
  151.0896  135.3628  156.0076 H   0  0  0  0  0  0  0  0  0  0  0  0
  148.4393  135.7752  153.7897 H   0  0  0  0  0  0  0  0  0  0  0  0
  150.2926  137.2524  154.5579 H   0  0  0  0  0  0  0  0  0  0  0  0
  151.4164  137.9668  156.5579 H   0  0  0  0  0  0  0  0  0  0  0  0
  149.1224  142.0525  155.9092 H   0  0  0  0  0  0  0  0  0  0  0  0
  149.2950  141.3943  157.5223 H   0  0  0  0  0  0  0  0  0  0  0  0
  150.7828  143.3809  157.2071 H   0  0  0  0  0  0  0  0  0  0  0  0
  151.5943  142.5884  155.8626 H   0  0  0  0  0  0  0  0  0  0  0  0
  151.7538  141.9431  157.4990 H   0  0  0  0  0  0  0  0  0  0  0  0
  1  2  1  0  0  0  0
  1 27  1  0  0  0  0
  1 28  1  0  0  0  0
  1 29  1  0  0  0  0
  2  3  1  0  0  0  0
  2 30  1  0  0  0  0
  2 31  1  0  0  0  0
  3  4  2  0  0  0  0
  3  5  1  0  0  0  0
  5  6  1  0  0  0  0
  6  7  1  0  0  0  0
  6 32  1  0  0  0  0
  6 33  1  0  0  0  0
  7 21  1  0  0  0  0
  7  8  1  0  0  0  0
  7 34  1  0  0  0  0
  8  9  1  0  0  0  0
  9 10  1  0  0  0  0
  9 19  1  0  0  0  0
  9 35  1  0  0  0  0
 10 17  1  0  0  0  0
 10 11  1  0  0  0  0
 11 12  2  0  0  0  0
 11 36  1  0  0  0  0
 12 13  1  0  0  0  0
 12 14  1  0  0  0  0
 14 15  2  0  0  0  0
 14 16  1  0  0  0  0
 16 17  1  0  0  0  0
 17 18  2  0  0  0  0
 19 20  1  0  0  0  0
 19 21  1  0  0  0  0
 19 37  1  0  0  0  0
 21 22  1  0  0  0  0
 21 38  1  0  0  0  0
 22 23  1  0  0  0  0
 23 24  2  0  0  0  0
 23 25  1  0  0  0  0
 25 26  1  0  0  0  0
 25 39  1  0  0  0  0
 25 40  1  0  0  0  0
 26 41  1  0  0  0  0
 26 42  1  0  0  0  0
 26 43  1  0  0  0  0
M  CHG  1  16  -1
M  END
> <s_m_source_file>
AV-unprocessed.smi

> <i_m_source_file_index>
37

> <i_lp_mmshare_version>
43012

> <i_f3d_flags>
0

> <s_epik_input>
W0NIM11bQ0gyXUMoPU8pT1tDSDJdW0NAQEhdMU9bQ0BASF0objJbY0hdYyhGKWMoPU8pW25IXWMyPU8pW0NAQEhdKEJyKVtDQEhdMU9DKD1PKVtDSDJdW0NIM10=

> <s_epik_cmdline>
J2VwaWtfcHl0aG9uJywgJy1waCcsICc3LjAnLCAnLXRuJywgJzgnLCAnLW1hJywgJzIwMCcsICctbWV0YWxfYmluZGluZycsICctaW1hZScsICc8aW5maWxlLm1hZT4nLCAnLW9tYWUnLCAnPG91dGZpbGUubWFlPic=

> <r_epik_Ionization_Penalty>
1.08158

> <r_epik_Ionization_Penalty_Charging>
9.05154e-09

> <r_epik_Ionization_Penalty_Neutral>
1.08158

> <r_epik_State_Penalty>
1.13706

> <r_epik_Charging_Adjusted_Penalty>
1.13706

> <i_epik_Tot_Q>
-1

> <i_epik_Tot_abs_Q>
1

> <r_epik_Metal_State_Penalty>
0.00343535

> <b_epik_Metal_Only>
0

> <s_epik_Chemistry_Notes>
This compound has an ester and may undergo hydrolysis at high or low pH. This compound contains an acetal/aminal-like group ( X-CH(R)-Y where X, Y are N, S, or O) that may be acid/base labile, releasing an aldehyde.

> <s_lp_Force_Field>
OPLS_2005

> <r_lp_Energy>
41.8028

> <b_lp_Chiralities_Consistent>
1

> <s_lp_Variant>
AV-unprocessed.smi:37-18

> <Gold.Version>
5.8.1

> <Gold.Id.Protein>
6NUR|6NUR_protein|mol2

> <Gold.PLP.Fitness>
51.9612

> <Gold.PLP.PLP>
-41.1089

> <Gold.PLP.part.hbond>
-4.6827

> <Gold.PLP.part.metal>
0.0000

> <Gold.PLP.part.buried>
-5.6744

> <Gold.PLP.part.nonpolar>
-31.2977

> <Gold.PLP.part.repulsive>
0.1220

> <Gold.PLP.ligand.clash>
0.0000

> <Gold.PLP.ligand.torsion>
0.6881

> <Gold.PLP.Chemscore.Hbond>
3.0478

> <Gold.PLP.Chemscore.CHOScore>
0.9568

> <Gold.PLP.Chemscore.Metal>
0.0000

> <Gold.Chemscore.Hbonds>
donor molecule, donor type, donor heavy atom, donor atom, acceptor molecule, acceptor atom, score
      P1  H  6934  6947       L1     4  1.00
      P1  H  7989  7998       L1    24  1.00
      L1  C    11    36       P1  7948  0.78

> <Gold.PLP.Chemscore.Internal.Correction>
0.2145

> <Gold.Rescore>
     Score         DG    S(hbond)    S(metal)    S(lipo)     H(rot)  DE(clash)    DE(int)     intcor
     11.95     -13.96       2.93        0.00      60.36       3.27       0.04       1.97       ----

> <Gold.Chemscore.Fitness>
11.9532

> <Gold.Chemscore.DG>
-13.9643

> <Gold.Chemscore.ZeroCoef>
-5.4800

> <Gold.Chemscore.Hbond>
2.9298

> <Gold.Chemscore.Metal>
0.0000

> <Gold.Chemscore.Lipo>
60.3597

> <Gold.Chemscore.Internal_Hbond>
0.0000

> <Gold.Chemscore.DEClash>
0.0365

> <Gold.Chemscore.DEInternal>
1.9746

> <Gold.Chemscore.Rot>
3.2669

> <Gold.Chemscore.Internal.Correction>
   9.000000E+99

> <Gold.Chemscore.Hbonds>
donor molecule, donor type, donor heavy atom, donor atom, acceptor molecule, acceptor atom, score
      P1  H  6934  6947       L1     4  0.96
      P1  H  7989  7998       L1    24  1.00

> <Gold.Chemscore.Hbond.Weighted>
-9.7856

> <Gold.Chemscore.Metal.Weighted>
-0.0000

> <Gold.Chemscore.Lipo.Weighted>
-7.0621

> <Gold.Chemscore.Internal_Hbond.Weighted>
0.0000

> <Gold.Chemscore.DEClash.Weighted>
0.0365

> <Gold.Chemscore.DEInternal.Weighted>
1.9746

> <Gold.Chemscore.Rot.Weighted>
8.3634

> <Gold.Chemscore.Internal.Correction.Weighted>
   9.000000E+99

> <Gold.Protein.RotatedTorsions>
[ 6907 6896 6895 6894 ] final   71.98 input  -60.11 | X-H torsion
[ 7974 7965 7964 7962 ] final   34.67 input  175.53 | X-H torsion
[ 8008 7997 7996 7995 ] final   69.82 input   59.86 | X-H torsion
[ 10167 10162 10161 10158 ] final  -36.04 input  -65.29 | X-H torsion
[ 10718 10713 10712 10709 ] final  -56.70 input   66.30 | X-H torsion
[ 10763 10752 10751 10750 ] final -126.20 input  -60.55 | X-H torsion
[ 11005 11000 10999 10996 ] final -133.99 input  -57.11 | X-H torsion

> <Gold.Protein.ActiveResidues>
 VAL166  LYS551  ARG553  GLY616  TRP617  ASP618  TYR619  PRO620  LYS621  CYS622 
 ASP623  PHE694  ASN695  SER759  ASP760  ASP761  ALA762  ILE779  LEU786  VAL792 
 PHE793  MET794  SER795  GLU796  ALA797  LYS798  CYS799  TRP800  GLU811  SER814 

> <Gold.Protein.RotatedAtoms>
  152.4842  134.4639  159.9613 H   0  0  0  0  0  0  0  0  0  0  0  0  # atno 6907 bound_to 6896
  151.4638  133.3580  159.2821 H   0  0  0  0  0  0  0  0  0  0  0  0  # atno 6908 bound_to 6896
  150.8938  134.8370  159.7373 H   0  0  0  0  0  0  0  0  0  0  0  0  # atno 6909 bound_to 6896
  146.1337  139.6240  142.9210 H   0  0  0  0  0  0  0  0  0  0  0  0  # atno 7974 bound_to 7965
  155.7294  140.3492  155.5052 H   0  0  0  0  0  0  0  0  0  0  0  0  # atno 8008 bound_to 7997
  155.9196  140.1065  157.1238 H   0  0  0  0  0  0  0  0  0  0  0  0  # atno 8009 bound_to 7997
  154.4068  140.1252  156.4649 H   0  0  0  0  0  0  0  0  0  0  0  0  # atno 8010 bound_to 7997
  140.7151  143.3435  151.2305 H   0  0  0  0  0  0  0  0  0  0  0  0  # atno 10167 bound_to 10162
  156.1268  130.4162  150.0341 H   0  0  0  0  0  0  0  0  0  0  0  0  # atno 10718 bound_to 10713
  154.8743  135.4003  154.3393 H   0  0  0  0  0  0  0  0  0  0  0  0  # atno 10763 bound_to 10752
  153.4194  135.7023  153.6309 H   0  0  0  0  0  0  0  0  0  0  0  0  # atno 10764 bound_to 10752
  153.4978  135.3734  155.2495 H   0  0  0  0  0  0  0  0  0  0  0  0  # atno 10765 bound_to 10752
  140.9031  134.1665  157.4446 H   0  0  0  0  0  0  0  0  0  0  0  0  # atno 11005 bound_to 11000
  145.5204  141.0432  143.2438 LP  0  0  0  0  0  0  0  0  0  0  0  0  # atno 17320 bound_to 7965
  144.7717  139.6720  143.7192 LP  0  0  0  0  0  0  0  0  0  0  0  0  # atno 17321 bound_to 7965
  139.6949  143.9630  152.2877 LP  0  0  0  0  0  0  0  0  0  0  0  0  # atno 17342 bound_to 10162
  139.9304  144.6745  150.8369 LP  0  0  0  0  0  0  0  0  0  0  0  0  # atno 17343 bound_to 10162
  156.8264  130.9377  151.3639 LP  0  0  0  0  0  0  0  0  0  0  0  0  # atno 17370 bound_to 10713
  157.6449  130.8836  149.9519 LP  0  0  0  0  0  0  0  0  0  0  0  0  # atno 17371 bound_to 10713
  139.8745  134.9906  156.5509 LP  0  0  0  0  0  0  0  0  0  0  0  0  # atno 17394 bound_to 11000
  140.8205  133.8357  155.8891 LP  0  0  0  0  0  0  0  0  0  0  0  0  # atno 17395 bound_to 11000

$$$$
