AV-unprocessed.smi:3135|AV-procd|sdf|11947|dock6
  -GOLD-   2272017343D 1   1.00000     0.00000
 Structure written by MMmdl.
 37 38  0  0  0  0  0  0  0  0  1 V2000
  144.6830  131.5106  150.4996 C   0  0  0  0  0  0  0  0  0  0  0  0
  145.0662  132.8871  150.9606 C   0  0  0  0  0  0  0  0  0  0  0  0
  146.3665  133.3672  151.2860 C   0  0  0  0  0  0  0  0  0  0  0  0
  146.3675  134.6358  151.6614 N   0  0  0  0  0  0  0  0  0  0  0  0
  145.0733  135.0127  151.5845 N   0  0  0  0  0  0  0  0  0  0  0  0
  144.6928  136.3705  151.9346 C   0  0  0  0  0  0  0  0  0  0  0  0
  143.4306  136.3906  152.8002 C   0  0  0  0  0  0  0  0  0  0  0  0
  142.9282  135.3346  153.1846 O   0  0  0  0  0  0  0  0  0  0  0  0
  142.9297  137.5989  153.1009 N   0  0  0  0  0  0  0  0  0  0  0  0
  141.7438  137.8354  153.9148 C   0  0  0  0  0  0  0  0  0  0  0  0
  140.6761  138.6253  153.1334 C   0  0  0  0  0  0  0  0  0  0  0  0
  139.4329  138.7611  153.8893 N   0  0  0  0  0  0  0  0  0  0  0  0
  138.5408  139.7297  153.2625 C   0  0  0  0  0  0  0  0  0  0  0  0
  138.7572  137.4732  153.9047 C   0  0  0  0  0  0  0  0  0  0  0  0
  137.3717  137.4160  154.5075 C   0  0  0  0  0  0  0  0  0  0  0  0
  138.5409  136.8136  155.2481 C   0  0  0  0  0  0  0  0  0  0  0  0
  144.2654  133.9742  151.1695 C   0  0  0  0  0  0  0  0  0  0  0  0
  145.3701  131.1350  149.7413 H   0  0  0  0  0  0  0  0  0  0  0  0
  143.6839  131.4914  150.0640 H   0  0  0  0  0  0  0  0  0  0  0  0
  144.6893  130.7958  151.3225 H   0  0  0  0  0  0  0  0  0  0  0  0
  147.3048  132.8330  151.2613 H   0  0  0  0  0  0  0  0  0  0  0  0
  145.5286  136.8403  152.4551 H   0  0  0  0  0  0  0  0  0  0  0  0
  144.5154  136.9482  151.0260 H   0  0  0  0  0  0  0  0  0  0  0  0
  143.4065  138.4137  152.7425 H   0  0  0  0  0  0  0  0  0  0  0  0
  141.3377  136.8852  154.2659 H   0  0  0  0  0  0  0  0  0  0  0  0
  142.0647  138.3840  154.7995 H   0  0  0  0  0  0  0  0  0  0  0  0
  141.0532  139.6067  152.8411 H   0  0  0  0  0  0  0  0  0  0  0  0
  140.4607  138.0868  152.2092 H   0  0  0  0  0  0  0  0  0  0  0  0
  137.5973  139.7842  153.8068 H   0  0  0  0  0  0  0  0  0  0  0  0
  138.3197  139.4569  152.2296 H   0  0  0  0  0  0  0  0  0  0  0  0
  138.9723  140.7299  153.2683 H   0  0  0  0  0  0  0  0  0  0  0  0
  138.9299  136.7877  153.0764 H   0  0  0  0  0  0  0  0  0  0  0  0
  136.9487  138.3372  154.9039 H   0  0  0  0  0  0  0  0  0  0  0  0
  136.6568  136.7322  154.0547 H   0  0  0  0  0  0  0  0  0  0  0  0
  138.6056  135.7283  155.2895 H   0  0  0  0  0  0  0  0  0  0  0  0
  138.8954  137.3356  156.1352 H   0  0  0  0  0  0  0  0  0  0  0  0
  143.1981  134.0954  151.0552 H   0  0  0  0  0  0  0  0  0  0  0  0
  1  2  1  0  0  0  0
  1 18  1  0  0  0  0
  1 19  1  0  0  0  0
  1 20  1  0  0  0  0
  2 17  2  0  0  0  0
  2  3  1  0  0  0  0
  3  4  2  0  0  0  0
  3 21  1  0  0  0  0
  4  5  1  0  0  0  0
  5  6  1  0  0  0  0
  5 17  1  0  0  0  0
  6  7  1  0  0  0  0
  6 22  1  0  0  0  0
  6 23  1  0  0  0  0
  7  8  2  0  0  0  0
  7  9  1  0  0  0  0
  9 10  1  0  0  0  0
  9 24  1  0  0  0  0
 10 11  1  0  0  0  0
 10 25  1  0  0  0  0
 10 26  1  0  0  0  0
 11 12  1  0  0  0  0
 11 27  1  0  0  0  0
 11 28  1  0  0  0  0
 12 13  1  0  0  0  0
 12 14  1  0  0  0  0
 13 29  1  0  0  0  0
 13 30  1  0  0  0  0
 13 31  1  0  0  0  0
 14 16  1  0  0  0  0
 14 15  1  0  0  0  0
 14 32  1  0  0  0  0
 15 16  1  0  0  0  0
 15 33  1  0  0  0  0
 15 34  1  0  0  0  0
 16 35  1  0  0  0  0
 16 36  1  0  0  0  0
 17 37  1  0  0  0  0
M  END
> <s_m_source_file>
AV-unprocessed.smi

> <i_m_source_file_index>
3135

> <i_lp_mmshare_version>
43012

> <i_f3d_flags>
0

> <s_epik_input>
W0NIM11jMVtjSF1ubihbY0hdMSlbQ0gyXUMoPU8pW05IXVtDSDJdW0NIMl1OKFtDSDNdKVtDSF0yW0NIMl1bQ0gyXTI=

> <s_epik_cmdline>
J2VwaWtfcHl0aG9uJywgJy1waCcsICc3LjAnLCAnLXRuJywgJzgnLCAnLW1hJywgJzIwMCcsICctbWV0YWxfYmluZGluZycsICctaW1hZScsICc8aW5maWxlLm1hZT4nLCAnLW9tYWUnLCAnPG91dGZpbGUubWFlPic=

> <r_lp_tautomer_probability>
1

> <r_epik_Ionization_Penalty>
0.809981

> <r_epik_Ionization_Penalty_Charging>
0

> <r_epik_Ionization_Penalty_Neutral>
0.809981

> <r_epik_State_Penalty>
0.842006

> <r_epik_Charging_Adjusted_Penalty>
0.842006

> <i_epik_Tot_Q>
0

> <i_epik_Tot_abs_Q>
0

> <r_epik_Metal_State_Penalty>
0.84199

> <b_epik_Metal_Only>
0

> <s_lp_Force_Field>
OPLS_2005

> <r_lp_Energy>
14.2809

> <b_lp_Chiralities_Consistent>
1

> <s_lp_Variant>
AV-unprocessed.smi:3135-3

> <Gold.Version>
5.8.1

> <Gold.Id.Protein>
6NUR|6NUR_protein|mol2

> <Gold.PLP.Fitness>
36.4541

> <Gold.PLP.PLP>
-30.3481

> <Gold.PLP.part.hbond>
-1.0000

> <Gold.PLP.part.metal>
0.0000

> <Gold.PLP.part.buried>
-1.6718

> <Gold.PLP.part.nonpolar>
-28.3458

> <Gold.PLP.part.repulsive>
0.6609

> <Gold.PLP.ligand.clash>
0.0000

> <Gold.PLP.ligand.torsion>
1.0921

> <Gold.PLP.Chemscore.Hbond>
0.9913

> <Gold.PLP.Chemscore.CHOScore>
1.3682

> <Gold.PLP.Chemscore.Metal>
0.0000

> <Gold.Chemscore.Hbonds>
donor molecule, donor type, donor heavy atom, donor atom, acceptor molecule, acceptor atom, score
      L1  H     9    24       P1 10175  0.94
      L1  C     3    21       P1 10747  0.41
      L1  C    17    37       P1 10186  0.65

> <Gold.PLP.Chemscore.Internal.Correction>
1.2119

> <Gold.Rescore>
     Score         DG    S(hbond)    S(metal)    S(lipo)     H(rot)  DE(clash)    DE(int)     intcor
      9.51     -12.01       0.91        0.00      70.23       1.85       0.33       2.17       ----

> <Gold.Chemscore.Fitness>
9.5070

> <Gold.Chemscore.DG>
-12.0061

> <Gold.Chemscore.ZeroCoef>
-5.4800

> <Gold.Chemscore.Hbond>
0.9109

> <Gold.Chemscore.Metal>
0.0000

> <Gold.Chemscore.Lipo>
70.2256

> <Gold.Chemscore.Internal_Hbond>
0.0000

> <Gold.Chemscore.DEClash>
0.3294

> <Gold.Chemscore.DEInternal>
2.1697

> <Gold.Chemscore.Rot>
1.8487

> <Gold.Chemscore.Internal.Correction>
   9.000000E+99

> <Gold.Chemscore.Hbonds>
donor molecule, donor type, donor heavy atom, donor atom, acceptor molecule, acceptor atom, score
      L1  H     9    24       P1 10175  0.87

> <Gold.Chemscore.Hbond.Weighted>
-3.0424

> <Gold.Chemscore.Metal.Weighted>
-0.0000

> <Gold.Chemscore.Lipo.Weighted>
-8.2164

> <Gold.Chemscore.Internal_Hbond.Weighted>
0.0000

> <Gold.Chemscore.DEClash.Weighted>
0.3294

> <Gold.Chemscore.DEInternal.Weighted>
2.1697

> <Gold.Chemscore.Rot.Weighted>
4.7326

> <Gold.Chemscore.Internal.Correction.Weighted>
   9.000000E+99

> <Gold.Protein.RotatedTorsions>
[ 6907 6896 6895 6894 ] final  148.41 input  -60.11 | X-H torsion
[ 7974 7965 7964 7962 ] final   51.89 input  175.53 | X-H torsion
[ 8008 7997 7996 7995 ] final  -84.42 input   59.86 | X-H torsion
[ 10167 10162 10161 10158 ] final  -99.13 input  -65.29 | X-H torsion
[ 10718 10713 10712 10709 ] final  177.39 input   66.30 | X-H torsion
[ 10763 10752 10751 10750 ] final  152.71 input  -60.55 | X-H torsion
[ 11005 11000 10999 10996 ] final  -52.38 input  -57.11 | X-H torsion

> <Gold.Protein.ActiveResidues>
 VAL166  LYS551  ARG553  GLY616  TRP617  ASP618  TYR619  PRO620  LYS621  CYS622 
 ASP623  PHE694  ASN695  SER759  ASP760  ASP761  ALA762  ILE779  LEU786  VAL792 
 PHE793  MET794  SER795  GLU796  ALA797  LYS798  CYS799  TRP800  GLU811  SER814 

> <Gold.Protein.RotatedAtoms>
  152.1418  133.4468  159.4770 H   0  0  0  0  0  0  0  0  0  0  0  0  # atno 6907 bound_to 6896
  150.6887  134.2296  159.4438 H   0  0  0  0  0  0  0  0  0  0  0  0  # atno 6908 bound_to 6896
  152.0187  134.9834  160.0620 H   0  0  0  0  0  0  0  0  0  0  0  0  # atno 6909 bound_to 6896
  145.9868  139.4298  143.0098 H   0  0  0  0  0  0  0  0  0  0  0  0  # atno 7974 bound_to 7965
  154.6296  140.0605  156.9716 H   0  0  0  0  0  0  0  0  0  0  0  0  # atno 8008 bound_to 7997
  155.1686  140.3289  155.4378 H   0  0  0  0  0  0  0  0  0  0  0  0  # atno 8009 bound_to 7997
  156.2476  140.1918  156.6789 H   0  0  0  0  0  0  0  0  0  0  0  0  # atno 8010 bound_to 7997
  140.2657  143.3377  152.0583 H   0  0  0  0  0  0  0  0  0  0  0  0  # atno 10167 bound_to 10162
  156.9061  130.9894  151.3028 H   0  0  0  0  0  0  0  0  0  0  0  0  # atno 10718 bound_to 10713
  154.1243  135.2830  155.3201 H   0  0  0  0  0  0  0  0  0  0  0  0  # atno 10763 bound_to 10752
  154.6400  135.5405  153.7782 H   0  0  0  0  0  0  0  0  0  0  0  0  # atno 10764 bound_to 10752
  153.0302  135.6484  154.1396 H   0  0  0  0  0  0  0  0  0  0  0  0  # atno 10765 bound_to 10752
  141.0921  133.6631  156.4016 H   0  0  0  0  0  0  0  0  0  0  0  0  # atno 11005 bound_to 11000
  145.7689  140.9905  143.1160 LP  0  0  0  0  0  0  0  0  0  0  0  0  # atno 17320 bound_to 7965
  144.6877  139.9422  143.7475 LP  0  0  0  0  0  0  0  0  0  0  0  0  # atno 17321 bound_to 7965
  139.5003  144.6690  151.6289 LP  0  0  0  0  0  0  0  0  0  0  0  0  # atno 17342 bound_to 10162
  140.5930  143.9746  150.6337 LP  0  0  0  0  0  0  0  0  0  0  0  0  # atno 17343 bound_to 10162
  157.5996  130.8503  149.8782 LP  0  0  0  0  0  0  0  0  0  0  0  0  # atno 17370 bound_to 10713
  156.0558  130.3708  150.1094 LP  0  0  0  0  0  0  0  0  0  0  0  0  # atno 17371 bound_to 10713
  140.5227  134.6289  157.5323 LP  0  0  0  0  0  0  0  0  0  0  0  0  # atno 17394 bound_to 11000
  139.9749  134.7231  155.9968 LP  0  0  0  0  0  0  0  0  0  0  0  0  # atno 17395 bound_to 11000

$$$$
