AV-unprocessed.smi:37|AV-procd|sdf|308|dock2
  -GOLD-   2262016123D 1   1.00000     0.00000
 Structure written by MMmdl.
 44 45  0  0  0  0  0  0  0  0  1 V2000
  147.2752  134.5250  162.5682 C   0  0  0  0  0  0  0  0  0  0  0  0
  147.1167  134.7712  161.0622 C   0  0  0  0  0  0  0  0  0  0  0  0
  147.6718  136.1288  160.6379 C   0  0  0  0  0  0  0  0  0  0  0  0
  147.3327  137.1663  161.2070 O   0  0  0  0  0  0  0  0  0  0  0  0
  148.5462  136.0342  159.6230 O   0  0  0  0  0  0  0  0  0  0  0  0
  149.1628  137.2018  159.1031 C   0  0  0  0  0  0  0  0  0  0  0  0
  150.4744  136.8234  158.3921 C   0  0  1  0  0  0  0  0  0  0  0  0
  150.2234  135.6175  157.6662 O   0  0  0  0  0  0  0  0  0  0  0  0
  150.3934  135.8372  156.3000 C   0  0  1  0  0  0  0  0  0  0  0  0
  149.3010  135.1032  155.5605 N   0  0  0  0  0  0  0  0  0  0  0  0
  149.6111  134.0345  154.7311 C   0  0  0  0  0  0  0  0  0  0  0  0
  148.6788  133.3556  154.0222 C   0  0  0  0  0  0  0  0  0  0  0  0
  149.0563  132.3296  153.2409 F   0  0  0  0  0  0  0  0  0  0  0  0
  147.2698  133.7309  154.0957 C   0  0  0  0  0  0  0  0  0  0  0  0
  146.3517  133.1766  153.4946 O   0  0  0  0  0  0  0  0  0  0  0  0
  147.0059  134.8187  154.9334 N   0  0  0  0  0  0  0  0  0  0  0  0
  147.9576  135.5282  155.6688 C   0  0  0  0  0  0  0  0  0  0  0  0
  147.6038  136.4696  156.3770 O   0  0  0  0  0  0  0  0  0  0  0  0
  150.3169  137.3421  156.0760 C   0  0  2  0  0  0  0  0  0  0  0  0
  151.3233  137.9035  154.4529 Br  0  0  0  0  0  0  0  0  0  0  0  0
  150.9679  137.8429  157.3453 C   0  0  1  0  0  0  0  0  0  0  0  0
  150.5884  139.1903  157.5952 O   0  0  0  0  0  0  0  0  0  0  0  0
  151.3808  140.2035  157.2002 C   0  0  0  0  0  0  0  0  0  0  0  0
  152.3560  140.1096  156.4550 O   0  0  0  0  0  0  0  0  0  0  0  0
  150.9700  141.5429  157.8075 C   0  0  0  0  0  0  0  0  0  0  0  0
  152.0679  142.1392  158.6984 C   0  0  0  0  0  0  0  0  0  0  0  0
  146.0444  135.1163  155.0133 H   0  0  0  0  0  0  0  0  0  0  0  0
  146.8971  133.5387  162.8366 H   0  0  0  0  0  0  0  0  0  0  0  0
  146.7228  135.2601  163.1546 H   0  0  0  0  0  0  0  0  0  0  0  0
  148.3223  134.5703  162.8693 H   0  0  0  0  0  0  0  0  0  0  0  0
  147.6297  133.9887  160.5026 H   0  0  0  0  0  0  0  0  0  0  0  0
  146.0635  134.7202  160.7849 H   0  0  0  0  0  0  0  0  0  0  0  0
  148.4714  137.6555  158.3922 H   0  0  0  0  0  0  0  0  0  0  0  0
  149.3558  137.9412  159.8816 H   0  0  0  0  0  0  0  0  0  0  0  0
  151.2507  136.6296  159.1330 H   0  0  0  0  0  0  0  0  0  0  0  0
  151.3614  135.4198  156.0193 H   0  0  0  0  0  0  0  0  0  0  0  0
  150.6421  133.7252  154.6397 H   0  0  0  0  0  0  0  0  0  0  0  0
  149.2818  137.6754  155.9930 H   0  0  0  0  0  0  0  0  0  0  0  0
  152.0495  137.7471  157.2349 H   0  0  0  0  0  0  0  0  0  0  0  0
  150.7258  142.2354  157.0015 H   0  0  0  0  0  0  0  0  0  0  0  0
  150.0586  141.4004  158.3886 H   0  0  0  0  0  0  0  0  0  0  0  0
  151.7274  143.0674  159.1574 H   0  0  0  0  0  0  0  0  0  0  0  0
  152.9680  142.3666  158.1261 H   0  0  0  0  0  0  0  0  0  0  0  0
  152.3429  141.4550  159.5018 H   0  0  0  0  0  0  0  0  0  0  0  0
  1  2  1  0  0  0  0
  1 28  1  0  0  0  0
  1 29  1  0  0  0  0
  1 30  1  0  0  0  0
  2  3  1  0  0  0  0
  2 31  1  0  0  0  0
  2 32  1  0  0  0  0
  3  4  2  0  0  0  0
  3  5  1  0  0  0  0
  5  6  1  0  0  0  0
  6  7  1  0  0  0  0
  6 33  1  0  0  0  0
  6 34  1  0  0  0  0
  7 21  1  0  0  0  0
  7  8  1  0  0  0  0
  7 35  1  0  0  0  0
  8  9  1  0  0  0  0
  9 10  1  0  0  0  0
  9 19  1  0  0  0  0
  9 36  1  0  0  0  0
 10 17  1  0  0  0  0
 10 11  1  0  0  0  0
 11 12  2  0  0  0  0
 11 37  1  0  0  0  0
 12 13  1  0  0  0  0
 12 14  1  0  0  0  0
 14 15  2  0  0  0  0
 14 16  1  0  0  0  0
 16 27  1  0  0  0  0
 16 17  1  0  0  0  0
 17 18  2  0  0  0  0
 19 20  1  0  0  0  0
 19 21  1  0  0  0  0
 19 38  1  0  0  0  0
 21 22  1  0  0  0  0
 21 39  1  0  0  0  0
 22 23  1  0  0  0  0
 23 24  2  0  0  0  0
 23 25  1  0  0  0  0
 25 26  1  0  0  0  0
 25 40  1  0  0  0  0
 25 41  1  0  0  0  0
 26 42  1  0  0  0  0
 26 43  1  0  0  0  0
 26 44  1  0  0  0  0
M  END
> <s_m_source_file>
AV-unprocessed.smi

> <i_m_source_file_index>
37

> <i_lp_mmshare_version>
43012

> <i_f3d_flags>
0

> <s_epik_input>
W0NIM11bQ0gyXUMoPU8pT1tDSDJdW0NAQEhdMU9bQ0BASF0objJbY0hdYyhGKWMoPU8pW25IXWMyPU8pW0NAQEhdKEJyKVtDQEhdMU9DKD1PKVtDSDJdW0NIM10=

> <s_epik_cmdline>
J2VwaWtfcHl0aG9uJywgJy1waCcsICc3LjAnLCAnLXRuJywgJzgnLCAnLW1hJywgJzIwMCcsICctbWV0YWxfYmluZGluZycsICctaW1hZScsICc8aW5maWxlLm1hZT4nLCAnLW9tYWUnLCAnPG91dGZpbGUubWFlPic=

> <r_lp_tautomer_probability>
0.999537

> <r_epik_Ionization_Penalty>
0.104106

> <r_epik_Ionization_Penalty_Charging>
0.104106

> <r_epik_Ionization_Penalty_Neutral>
3.94675e-16

> <r_epik_State_Penalty>
0.0940182

> <r_epik_Charging_Adjusted_Penalty>
0.198124

> <i_epik_Tot_Q>
0

> <i_epik_Tot_abs_Q>
0

> <r_epik_Metal_State_Penalty>
3.05314

> <b_epik_Metal_Only>
0

> <s_epik_Chemistry_Notes>
This compound has an ester and may undergo hydrolysis at high or low pH. This compound contains an acetal/aminal-like group ( X-CH(R)-Y where X, Y are N, S, or O) that may be acid/base labile, releasing an aldehyde.

> <s_lp_Force_Field>
OPLS_2005

> <r_lp_Energy>
26.2696

> <b_lp_Chiralities_Consistent>
1

> <s_lp_Variant>
AV-unprocessed.smi:37-6

> <Gold.Version>
5.8.1

> <Gold.Id.Protein>
6NUR|6NUR_protein|mol2

> <Gold.PLP.Fitness>
43.8613

> <Gold.PLP.PLP>
-35.8010

> <Gold.PLP.part.hbond>
-4.0000

> <Gold.PLP.part.metal>
0.0000

> <Gold.PLP.part.buried>
-4.6811

> <Gold.PLP.part.nonpolar>
-27.2266

> <Gold.PLP.part.repulsive>
0.0989

> <Gold.PLP.ligand.clash>
0.0000

> <Gold.PLP.ligand.torsion>
1.0714

> <Gold.PLP.Chemscore.Hbond>
3.2668

> <Gold.PLP.Chemscore.CHOScore>
0.0000

> <Gold.PLP.Chemscore.Metal>
0.0000

> <Gold.Chemscore.Hbonds>
donor molecule, donor type, donor heavy atom, donor atom, acceptor molecule, acceptor atom, score
      P1  H  6896  6908       L1     8  0.21
      P1  H  6931  6943       L1     4  0.65
      P1  H  6934  6947       L1     4  1.00
      P1  H  7997  8009       L1    24  1.00

> <Gold.PLP.Chemscore.Internal.Correction>
0.4026

> <Gold.Rescore>
     Score         DG    S(hbond)    S(metal)    S(lipo)     H(rot)  DE(clash)    DE(int)     intcor
     11.37     -14.09       2.85        0.00      65.15       3.33       0.01       2.71       ----

> <Gold.Chemscore.Fitness>
11.3731

> <Gold.Chemscore.DG>
-14.0937

> <Gold.Chemscore.ZeroCoef>
-5.4800

> <Gold.Chemscore.Hbond>
2.8492

> <Gold.Chemscore.Metal>
0.0000

> <Gold.Chemscore.Lipo>
65.1536

> <Gold.Chemscore.Internal_Hbond>
0.0000

> <Gold.Chemscore.DEClash>
0.0121

> <Gold.Chemscore.DEInternal>
2.7084

> <Gold.Chemscore.Rot>
3.3303

> <Gold.Chemscore.Internal.Correction>
   9.000000E+99

> <Gold.Chemscore.Hbonds>
donor molecule, donor type, donor heavy atom, donor atom, acceptor molecule, acceptor atom, score
      P1  H  6896  6908       L1     8  0.02
      P1  H  6931  6943       L1     4  0.53
      P1  H  6934  6947       L1     4  0.96
      P1  H  7997  8009       L1    24  0.91

> <Gold.Chemscore.Hbond.Weighted>
-9.5163

> <Gold.Chemscore.Metal.Weighted>
-0.0000

> <Gold.Chemscore.Lipo.Weighted>
-7.6230

> <Gold.Chemscore.Internal_Hbond.Weighted>
0.0000

> <Gold.Chemscore.DEClash.Weighted>
0.0121

> <Gold.Chemscore.DEInternal.Weighted>
2.7084

> <Gold.Chemscore.Rot.Weighted>
8.5256

> <Gold.Chemscore.Internal.Correction.Weighted>
   9.000000E+99

> <Gold.Protein.RotatedTorsions>
[ 6907 6896 6895 6894 ] final  148.89 input  -60.11 | X-H torsion
[ 7974 7965 7964 7962 ] final -163.71 input  175.53 | X-H torsion
[ 8008 7997 7996 7995 ] final -151.71 input   59.86 | X-H torsion
[ 10167 10162 10161 10158 ] final -138.29 input  -65.29 | X-H torsion
[ 10718 10713 10712 10709 ] final  -60.87 input   66.30 | X-H torsion
[ 10763 10752 10751 10750 ] final -170.48 input  -60.55 | X-H torsion
[ 11005 11000 10999 10996 ] final   14.15 input  -57.11 | X-H torsion

> <Gold.Protein.ActiveResidues>
 VAL166  LYS551  ARG553  GLY616  TRP617  ASP618  TYR619  PRO620  LYS621  CYS622 
 ASP623  PHE694  ASN695  SER759  ASP760  ASP761  ALA762  ILE779  LEU786  VAL792 
 PHE793  MET794  SER795  GLU796  ALA797  LYS798  CYS799  TRP800  GLU811  SER814 

> <Gold.Protein.RotatedAtoms>
  152.1354  133.4432  159.4740 H   0  0  0  0  0  0  0  0  0  0  0  0  # atno 6907 bound_to 6896
  150.6881  134.2370  159.4466 H   0  0  0  0  0  0  0  0  0  0  0  0  # atno 6908 bound_to 6896
  152.0257  134.9796  160.0622 H   0  0  0  0  0  0  0  0  0  0  0  0  # atno 6909 bound_to 6896
  144.7318  140.3067  143.6195 H   0  0  0  0  0  0  0  0  0  0  0  0  # atno 7974 bound_to 7965
  155.6436  140.0704  157.2610 H   0  0  0  0  0  0  0  0  0  0  0  0  # atno 8008 bound_to 7997
  154.4178  140.1746  156.1649 H   0  0  0  0  0  0  0  0  0  0  0  0  # atno 8009 bound_to 7997
  155.9835  140.3351  155.6688 H   0  0  0  0  0  0  0  0  0  0  0  0  # atno 8010 bound_to 7997
  139.8493  143.7219  152.2659 H   0  0  0  0  0  0  0  0  0  0  0  0  # atno 10167 bound_to 10162
  156.0961  130.4193  150.0914 H   0  0  0  0  0  0  0  0  0  0  0  0  # atno 10718 bound_to 10713
  154.6411  135.2898  155.0102 H   0  0  0  0  0  0  0  0  0  0  0  0  # atno 10763 bound_to 10752
  154.1229  135.6545  153.4910 H   0  0  0  0  0  0  0  0  0  0  0  0  # atno 10764 bound_to 10752
  153.0327  135.5292  154.7278 H   0  0  0  0  0  0  0  0  0  0  0  0  # atno 10765 bound_to 10752
  140.4728  134.1014  155.7736 H   0  0  0  0  0  0  0  0  0  0  0  0  # atno 11005 bound_to 11000
  145.7706  139.1856  143.2214 LP  0  0  0  0  0  0  0  0  0  0  0  0  # atno 17320 bound_to 7965
  146.0914  140.7652  142.9593 LP  0  0  0  0  0  0  0  0  0  0  0  0  # atno 17321 bound_to 7965
  139.7481  144.7541  151.0548 LP  0  0  0  0  0  0  0  0  0  0  0  0  # atno 17342 bound_to 10162
  140.7789  143.4892  150.9915 LP  0  0  0  0  0  0  0  0  0  0  0  0  # atno 17343 bound_to 10162
  156.8913  130.9589  151.3588 LP  0  0  0  0  0  0  0  0  0  0  0  0  # atno 17370 bound_to 10713
  157.6121  130.8591  149.8969 LP  0  0  0  0  0  0  0  0  0  0  0  0  # atno 17371 bound_to 10713
  141.1569  133.8866  157.1953 LP  0  0  0  0  0  0  0  0  0  0  0  0  # atno 17394 bound_to 11000
  139.9875  135.0077  156.9896 LP  0  0  0  0  0  0  0  0  0  0  0  0  # atno 17395 bound_to 11000

$$$$
