AV-unprocessed.smi:242|AV-procd|sdf|1847|dock7
  -GOLD-   2262020463D 1   1.00000     0.00000
 Structure written by MMmdl.
 58 61  0  0  0  0  0  0  0  0  2 V2000
  143.4500  136.1131  152.3039 C   0  0  0  0  0  0  0  0  0  0  0  0
  144.8575  136.6486  151.9758 C   0  0  0  0  0  0  0  0  0  0  0  0
  145.9022  135.5659  152.3109 C   0  0  0  0  0  0  0  0  0  0  0  0
  145.1300  137.9219  152.7011 N   0  3  1  0  0  0  0  0  0  0  0  0
  145.0552  137.8507  154.1790 C   0  0  0  0  0  0  0  0  0  0  0  0
  145.9708  138.9609  154.6862 C   0  0  0  0  0  0  0  0  0  0  0  0
  147.1304  138.8879  153.6974 C   0  0  2  0  0  0  0  0  0  0  0  0
  147.9757  140.0859  153.6670 N   0  0  0  0  0  0  0  0  0  0  0  0
  147.5292  141.1978  152.8362 C   0  0  0  0  0  0  0  0  0  0  0  0
  148.4328  140.5326  154.8611 C   0  0  0  0  0  0  0  0  0  0  0  0
  147.6054  141.2102  155.7006 N   0  0  0  0  0  0  0  0  0  0  0  0
  148.0618  141.6493  156.8778 C   0  0  0  0  0  0  0  0  0  0  0  0
  149.2838  141.5215  157.3996 N   0  0  0  0  0  0  0  0  0  0  0  0
  150.1178  140.8511  156.5535 C   0  0  0  0  0  0  0  0  0  0  0  0
  149.7756  140.3286  155.2753 C   0  0  0  0  0  0  0  0  0  0  0  0
  150.8750  139.7005  154.7048 N   0  0  0  0  0  0  0  0  0  0  0  0
  151.8165  139.8420  155.5978 C   0  0  0  0  0  0  0  0  0  0  0  0
  151.4504  140.5257  156.7361 N   0  0  0  0  0  0  0  0  0  0  0  0
  152.2936  140.8182  157.8853 C   0  0  0  0  0  0  0  0  0  0  0  0
  151.8568  142.0669  158.6912 C   0  0  0  0  0  0  0  0  0  0  0  0
  150.7153  141.7141  159.4527 O   0  0  0  0  0  0  0  0  0  0  0  0
  152.9762  142.4938  159.6619 C   0  0  0  0  0  0  0  0  0  0  0  0
  152.6630  143.8289  160.3604 C   0  0  0  0  0  0  0  0  0  0  0  0
  152.4077  144.8367  159.3899 O   0  0  0  0  0  0  0  0  0  0  0  0
  151.2647  144.5537  158.5923 C   0  0  0  0  0  0  0  0  0  0  0  0
  151.4876  143.2620  157.7855 C   0  0  0  0  0  0  0  0  0  0  0  0
  146.4165  138.5850  152.3661 C   0  0  0  0  0  0  0  0  0  0  0  0
  143.2630  135.1694  151.7903 H   0  0  0  0  0  0  0  0  0  0  0  0
  142.6607  136.7986  151.9972 H   0  0  0  0  0  0  0  0  0  0  0  0
  143.3353  135.9330  153.3732 H   0  0  0  0  0  0  0  0  0  0  0  0
  144.9103  136.8507  150.9049 H   0  0  0  0  0  0  0  0  0  0  0  0
  145.6626  134.6260  151.8124 H   0  0  0  0  0  0  0  0  0  0  0  0
  145.9399  135.3688  153.3829 H   0  0  0  0  0  0  0  0  0  0  0  0
  146.9043  135.8457  151.9862 H   0  0  0  0  0  0  0  0  0  0  0  0
  144.0314  137.9614  154.5380 H   0  0  0  0  0  0  0  0  0  0  0  0
  145.4345  136.8870  154.5238 H   0  0  0  0  0  0  0  0  0  0  0  0
  145.4653  139.9257  154.6168 H   0  0  0  0  0  0  0  0  0  0  0  0
  146.2798  138.8092  155.7210 H   0  0  0  0  0  0  0  0  0  0  0  0
  147.7471  138.0290  153.9679 H   0  0  0  0  0  0  0  0  0  0  0  0
  148.2206  142.0404  152.8876 H   0  0  0  0  0  0  0  0  0  0  0  0
  146.5450  141.5433  153.1551 H   0  0  0  0  0  0  0  0  0  0  0  0
  147.4635  140.8949  151.7914 H   0  0  0  0  0  0  0  0  0  0  0  0
  147.3461  142.1783  157.4898 H   0  0  0  0  0  0  0  0  0  0  0  0
  152.8127  139.4514  155.4489 H   0  0  0  0  0  0  0  0  0  0  0  0
  152.3114  139.9381  158.5299 H   0  0  0  0  0  0  0  0  0  0  0  0
  153.3147  140.9475  157.5240 H   0  0  0  0  0  0  0  0  0  0  0  0
  149.9922  141.5682  158.8621 H   0  0  0  0  0  0  0  0  0  0  0  0
  153.1558  141.7159  160.4050 H   0  0  0  0  0  0  0  0  0  0  0  0
  153.9093  142.6074  159.1083 H   0  0  0  0  0  0  0  0  0  0  0  0
  151.8103  143.7307  161.0338 H   0  0  0  0  0  0  0  0  0  0  0  0
  153.5119  144.1373  160.9708 H   0  0  0  0  0  0  0  0  0  0  0  0
  150.3778  144.4756  159.2226 H   0  0  0  0  0  0  0  0  0  0  0  0
  151.0954  145.3901  157.9142 H   0  0  0  0  0  0  0  0  0  0  0  0
  152.2946  143.4336  157.0720 H   0  0  0  0  0  0  0  0  0  0  0  0
  150.5969  143.0438  157.1952 H   0  0  0  0  0  0  0  0  0  0  0  0
  147.0550  137.9733  151.7282 H   0  0  0  0  0  0  0  0  0  0  0  0
  146.1851  139.5025  151.8232 H   0  0  0  0  0  0  0  0  0  0  0  0
  144.4090  138.5718  152.4216 H   0  0  0  0  0  0  0  0  0  0  0  0
  1  2  1  0  0  0  0
  1 28  1  0  0  0  0
  1 29  1  0  0  0  0
  1 30  1  0  0  0  0
  2  3  1  0  0  0  0
  2  4  1  0  0  0  0
  2 31  1  0  0  0  0
  3 32  1  0  0  0  0
  3 33  1  0  0  0  0
  3 34  1  0  0  0  0
  4 27  1  0  0  0  0
  4  5  1  0  0  0  0
  4 58  1  0  0  0  0
  5  6  1  0  0  0  0
  5 35  1  0  0  0  0
  5 36  1  0  0  0  0
  6  7  1  0  0  0  0
  6 37  1  0  0  0  0
  6 38  1  0  0  0  0
  7  8  1  0  0  0  0
  7 27  1  0  0  0  0
  7 39  1  0  0  0  0
  8  9  1  0  0  0  0
  8 10  1  0  0  0  0
  9 40  1  0  0  0  0
  9 41  1  0  0  0  0
  9 42  1  0  0  0  0
 10 15  1  0  0  0  0
 10 11  2  0  0  0  0
 11 12  1  0  0  0  0
 12 13  2  0  0  0  0
 12 43  1  0  0  0  0
 13 14  1  0  0  0  0
 14 18  1  0  0  0  0
 14 15  2  0  0  0  0
 15 16  1  0  0  0  0
 16 17  2  0  0  0  0
 17 18  1  0  0  0  0
 17 44  1  0  0  0  0
 18 19  1  0  0  0  0
 19 20  1  0  0  0  0
 19 45  1  0  0  0  0
 19 46  1  0  0  0  0
 20 26  1  0  0  0  0
 20 21  1  0  0  0  0
 20 22  1  0  0  0  0
 21 47  1  0  0  0  0
 22 23  1  0  0  0  0
 22 48  1  0  0  0  0
 22 49  1  0  0  0  0
 23 24  1  0  0  0  0
 23 50  1  0  0  0  0
 23 51  1  0  0  0  0
 24 25  1  0  0  0  0
 25 26  1  0  0  0  0
 25 52  1  0  0  0  0
 25 53  1  0  0  0  0
 26 54  1  0  0  0  0
 26 55  1  0  0  0  0
 27 56  1  0  0  0  0
 27 57  1  0  0  0  0
M  CHG  1   4   1
M  END
> <s_m_source_file>
AV-unprocessed.smi

> <i_m_source_file_index>
242

> <i_lp_mmshare_version>
43012

> <i_f3d_flags>
0

> <s_epik_input>
W0NIM11bQ0hdKFtDSDNdKU4xW0NIMl1bQ0gyXVtDQEhdKFtDSDJdMSlOKFtDSDNdKWMobltjSF1uMiljKGMyMyluW2NIXW4zW0NIMl1DNChbT0hdKVtDSDJdW0NIMl1PW0NIMl1bQ0gyXTQ=

> <s_epik_cmdline>
J2VwaWtfcHl0aG9uJywgJy1waCcsICc3LjAnLCAnLXRuJywgJzgnLCAnLW1hJywgJzIwMCcsICctbWV0YWxfYmluZGluZycsICctaW1hZScsICc8aW5maWxlLm1hZT4nLCAnLW9tYWUnLCAnPG91dGZpbGUubWFlPic=

> <r_lp_tautomer_probability>
1

> <r_epik_Ionization_Penalty>
0.000825961

> <r_epik_Ionization_Penalty_Charging>
0.00034898

> <r_epik_Ionization_Penalty_Neutral>
0.000476981

> <r_epik_State_Penalty>
-0

> <r_epik_Charging_Adjusted_Penalty>
0.00034898

> <i_epik_Tot_Q>
1

> <i_epik_Tot_abs_Q>
1

> <r_epik_Metal_State_Penalty>
-0

> <b_epik_Metal_Only>
0

> <s_lp_Force_Field>
OPLS_2005

> <r_lp_Energy>
48.0366

> <b_lp_Chiralities_Consistent>
1

> <s_lp_Variant>
AV-unprocessed.smi:242-4

> <Gold.Version>
5.8.1

> <Gold.Id.Protein>
6NUR|6NUR_protein|mol2

> <Gold.PLP.Fitness>
45.5165

> <Gold.PLP.PLP>
-38.9943

> <Gold.PLP.part.hbond>
-3.3574

> <Gold.PLP.part.metal>
0.0000

> <Gold.PLP.part.buried>
-2.8914

> <Gold.PLP.part.nonpolar>
-34.4611

> <Gold.PLP.part.repulsive>
1.2212

> <Gold.PLP.ligand.clash>
0.0000

> <Gold.PLP.ligand.torsion>
1.0716

> <Gold.PLP.Chemscore.Hbond>
2.7340

> <Gold.PLP.Chemscore.CHOScore>
0.0000

> <Gold.PLP.Chemscore.Metal>
0.0000

> <Gold.Chemscore.Hbonds>
donor molecule, donor type, donor heavy atom, donor atom, acceptor molecule, acceptor atom, score
      L1  H     4    58       P1 10175  1.98
      P1  H  7989  7998       L1    16  0.75

> <Gold.PLP.Chemscore.Internal.Correction>
0.4634

> <Gold.Rescore>
     Score         DG    S(hbond)    S(metal)    S(lipo)     H(rot)  DE(clash)    DE(int)     intcor
      7.63     -14.76       1.07        0.00     103.32       2.50       0.98       6.14       ----

> <Gold.Chemscore.Fitness>
7.6315

> <Gold.Chemscore.DG>
-14.7564

> <Gold.Chemscore.ZeroCoef>
-5.4800

> <Gold.Chemscore.Hbond>
1.0738

> <Gold.Chemscore.Metal>
0.0000

> <Gold.Chemscore.Lipo>
103.3246

> <Gold.Chemscore.Internal_Hbond>
0.0000

> <Gold.Chemscore.DEClash>
0.9842

> <Gold.Chemscore.DEInternal>
6.1408

> <Gold.Chemscore.Rot>
2.4996

> <Gold.Chemscore.Internal.Correction>
   9.000000E+99

> <Gold.Chemscore.Hbonds>
donor molecule, donor type, donor heavy atom, donor atom, acceptor molecule, acceptor atom, score
      L1  H     4    58       P1 10175  0.90
      P1  H  7989  7998       L1    16  0.06

> <Gold.Chemscore.Hbond.Weighted>
-3.5864

> <Gold.Chemscore.Metal.Weighted>
-0.0000

> <Gold.Chemscore.Lipo.Weighted>
-12.0890

> <Gold.Chemscore.Internal_Hbond.Weighted>
0.0000

> <Gold.Chemscore.DEClash.Weighted>
0.9842

> <Gold.Chemscore.DEInternal.Weighted>
6.1408

> <Gold.Chemscore.Rot.Weighted>
6.3990

> <Gold.Chemscore.Internal.Correction.Weighted>
   9.000000E+99

> <Gold.Protein.RotatedTorsions>
[ 6907 6896 6895 6894 ] final -165.73 input  -60.11 | X-H torsion
[ 7974 7965 7964 7962 ] final  136.52 input  175.53 | X-H torsion
[ 8008 7997 7996 7995 ] final  122.83 input   59.86 | X-H torsion
[ 10167 10162 10161 10158 ] final   -2.22 input  -65.29 | X-H torsion
[ 10718 10713 10712 10709 ] final  119.19 input   66.30 | X-H torsion
[ 10763 10752 10751 10750 ] final  100.42 input  -60.55 | X-H torsion
[ 11005 11000 10999 10996 ] final -135.54 input  -57.11 | X-H torsion

> <Gold.Protein.ActiveResidues>
 VAL166  LYS551  ARG553  GLY616  TRP617  ASP618  TYR619  PRO620  LYS621  CYS622 
 ASP623  PHE694  ASN695  SER759  ASP760  ASP761  ALA762  ILE779  LEU786  VAL792 
 PHE793  MET794  SER795  GLU796  ALA797  LYS798  CYS799  TRP800  GLU811  SER814 

> <Gold.Protein.RotatedAtoms>
  151.4323  133.3667  159.2770 H   0  0  0  0  0  0  0  0  0  0  0  0  # atno 6907 bound_to 6896
  150.9216  134.8635  159.7503 H   0  0  0  0  0  0  0  0  0  0  0  0  # atno 6908 bound_to 6896
  152.4985  134.4261  159.9548 H   0  0  0  0  0  0  0  0  0  0  0  0  # atno 6909 bound_to 6896
  144.9556  139.4768  143.5504 H   0  0  0  0  0  0  0  0  0  0  0  0  # atno 7974 bound_to 7965
  156.2743  140.2777  156.1530 H   0  0  0  0  0  0  0  0  0  0  0  0  # atno 8008 bound_to 7997
  155.0833  140.0388  157.2664 H   0  0  0  0  0  0  0  0  0  0  0  0  # atno 8009 bound_to 7997
  154.6947  140.2636  155.6784 H   0  0  0  0  0  0  0  0  0  0  0  0  # atno 8010 bound_to 7997
  140.6842  143.6683  150.8207 H   0  0  0  0  0  0  0  0  0  0  0  0  # atno 10167 bound_to 10162
  157.5978  131.1055  150.7862 H   0  0  0  0  0  0  0  0  0  0  0  0  # atno 10718 bound_to 10713
  153.3137  135.4079  155.1358 H   0  0  0  0  0  0  0  0  0  0  0  0  # atno 10763 bound_to 10752
  154.8583  135.3571  154.5689 H   0  0  0  0  0  0  0  0  0  0  0  0  # atno 10764 bound_to 10752
  153.6119  135.7067  153.5402 H   0  0  0  0  0  0  0  0  0  0  0  0  # atno 10765 bound_to 10752
  140.8888  134.1837  157.4541 H   0  0  0  0  0  0  0  0  0  0  0  0  # atno 11005 bound_to 11000
  146.3336  139.8672  142.8846 LP  0  0  0  0  0  0  0  0  0  0  0  0  # atno 17320 bound_to 7965
  145.2777  141.0129  143.3735 LP  0  0  0  0  0  0  0  0  0  0  0  0  # atno 17321 bound_to 7965
  140.0388  143.5368  152.2727 LP  0  0  0  0  0  0  0  0  0  0  0  0  # atno 17342 bound_to 10162
  139.6187  144.7625  151.2788 LP  0  0  0  0  0  0  0  0  0  0  0  0  # atno 17343 bound_to 10162
  156.8268  130.5002  149.5336 LP  0  0  0  0  0  0  0  0  0  0  0  0  # atno 17370 bound_to 10713
  156.1045  130.5994  150.9948 LP  0  0  0  0  0  0  0  0  0  0  0  0  # atno 17371 bound_to 10713
  139.8727  134.9850  156.5261 LP  0  0  0  0  0  0  0  0  0  0  0  0  # atno 17394 bound_to 11000
  140.8372  133.8233  155.9040 LP  0  0  0  0  0  0  0  0  0  0  0  0  # atno 17395 bound_to 11000

$$$$
