AV-unprocessed.smi:1611|AV-procd|sdf|6475|dock6
  -GOLD-   22720 7133D 1   1.00000     0.00000
 Structure written by MMmdl.
 48 49  0  0  0  0  0  0  0  0  1 V2000
  153.2902  143.1832  163.4614 C   0  0  0  0  0  0  0  0  0  0  0  0
  152.8514  143.1301  162.0081 C   0  0  0  0  0  0  0  0  0  0  0  0
  152.0633  144.1803  161.4947 C   0  0  0  0  0  0  0  0  0  0  0  0
  151.6422  144.1648  160.1537 C   0  0  0  0  0  0  0  0  0  0  0  0
  151.9973  143.0932  159.3119 C   0  0  0  0  0  0  0  0  0  0  0  0
  151.5391  143.0952  157.8655 C   0  0  0  0  0  0  0  0  0  0  0  0
  152.7731  142.0266  159.8214 C   0  0  0  0  0  0  0  0  0  0  0  0
  153.1068  140.9822  158.9976 O   0  0  0  0  0  0  0  0  0  0  0  0
  152.5547  139.7381  159.4047 C   0  0  0  0  0  0  0  0  0  0  0  0
  152.2857  138.8770  158.1592 C   0  0  1  0  0  0  0  0  0  0  0  0
  153.5013  138.7987  157.4405 O   0  0  0  0  0  0  0  0  0  0  0  0
  151.8491  137.4435  158.5345 C   0  0  0  0  0  0  0  0  0  0  0  0
  150.3880  137.3170  158.6106 N   0  0  0  0  0  0  0  0  0  0  0  0
  149.9363  136.7008  159.7619 N   0  0  0  0  0  0  0  0  0  0  0  0
  148.6743  136.5318  159.9844 C   0  0  0  0  0  0  0  0  0  0  0  0
  148.3001  135.8475  161.2716 C   0  0  0  0  0  0  0  0  0  0  0  0
  147.6985  136.9981  159.0049 C   0  0  0  0  0  0  0  0  0  0  0  0
  146.2262  136.7724  159.3211 C   0  0  0  0  0  0  0  0  0  0  0  0
  148.1544  137.5988  157.8773 C   0  0  0  0  0  0  0  0  0  0  0  0
  147.2757  138.0855  156.8631 C   0  0  0  0  0  0  0  0  0  0  0  0
  146.5504  138.4645  156.0443 N   0  0  0  0  0  0  0  0  0  0  0  0
  149.5829  137.7929  157.6180 C   0  0  0  0  0  0  0  0  0  0  0  0
  150.0268  138.3339  156.6042 O   0  0  0  0  0  0  0  0  0  0  0  0
  153.2199  142.0503  161.1669 C   0  0  0  0  0  0  0  0  0  0  0  0
  154.0871  140.9192  161.7034 C   0  0  0  0  0  0  0  0  0  0  0  0
  152.8010  143.9991  163.9942 H   0  0  0  0  0  0  0  0  0  0  0  0
  154.3674  143.3380  163.5276 H   0  0  0  0  0  0  0  0  0  0  0  0
  153.0396  142.2543  163.9745 H   0  0  0  0  0  0  0  0  0  0  0  0
  151.7804  145.0085  162.1280 H   0  0  0  0  0  0  0  0  0  0  0  0
  151.0438  144.9801  159.7744 H   0  0  0  0  0  0  0  0  0  0  0  0
  152.3399  142.7624  157.2043 H   0  0  0  0  0  0  0  0  0  0  0  0
  151.2397  144.0950  157.5493 H   0  0  0  0  0  0  0  0  0  0  0  0
  150.6865  142.4282  157.7382 H   0  0  0  0  0  0  0  0  0  0  0  0
  153.1970  139.2142  160.1155 H   0  0  0  0  0  0  0  0  0  0  0  0
  151.6176  139.9470  159.9218 H   0  0  0  0  0  0  0  0  0  0  0  0
  151.5198  139.3537  157.5456 H   0  0  0  0  0  0  0  0  0  0  0  0
  153.9172  137.9739  157.6399 H   0  0  0  0  0  0  0  0  0  0  0  0
  152.2931  136.7088  157.8600 H   0  0  0  0  0  0  0  0  0  0  0  0
  152.2498  137.1911  159.5179 H   0  0  0  0  0  0  0  0  0  0  0  0
  147.7543  134.9248  161.0740 H   0  0  0  0  0  0  0  0  0  0  0  0
  147.6672  136.4909  161.8828 H   0  0  0  0  0  0  0  0  0  0  0  0
  149.1776  135.5895  161.8661 H   0  0  0  0  0  0  0  0  0  0  0  0
  145.5714  137.1714  158.5470 H   0  0  0  0  0  0  0  0  0  0  0  0
  145.9562  137.2593  160.2587 H   0  0  0  0  0  0  0  0  0  0  0  0
  146.0140  135.7067  159.4125 H   0  0  0  0  0  0  0  0  0  0  0  0
  154.5538  140.3463  160.9025 H   0  0  0  0  0  0  0  0  0  0  0  0
  153.4844  140.2362  162.3020 H   0  0  0  0  0  0  0  0  0  0  0  0
  154.8943  141.3029  162.3270 H   0  0  0  0  0  0  0  0  0  0  0  0
  1  2  1  0  0  0  0
  1 26  1  0  0  0  0
  1 27  1  0  0  0  0
  1 28  1  0  0  0  0
  2 24  1  0  0  0  0
  2  3  2  0  0  0  0
  3  4  1  0  0  0  0
  3 29  1  0  0  0  0
  4  5  2  0  0  0  0
  4 30  1  0  0  0  0
  5  6  1  0  0  0  0
  5  7  1  0  0  0  0
  6 31  1  0  0  0  0
  6 32  1  0  0  0  0
  6 33  1  0  0  0  0
  7  8  1  0  0  0  0
  7 24  2  0  0  0  0
  8  9  1  0  0  0  0
  9 10  1  0  0  0  0
  9 34  1  0  0  0  0
  9 35  1  0  0  0  0
 10 11  1  0  0  0  0
 10 12  1  0  0  0  0
 10 36  1  0  0  0  0
 11 37  1  0  0  0  0
 12 13  1  0  0  0  0
 12 38  1  0  0  0  0
 12 39  1  0  0  0  0
 13 22  1  0  0  0  0
 13 14  1  0  0  0  0
 14 15  2  0  0  0  0
 15 16  1  0  0  0  0
 15 17  1  0  0  0  0
 16 40  1  0  0  0  0
 16 41  1  0  0  0  0
 16 42  1  0  0  0  0
 17 18  1  0  0  0  0
 17 19  2  0  0  0  0
 18 43  1  0  0  0  0
 18 44  1  0  0  0  0
 18 45  1  0  0  0  0
 19 20  1  0  0  0  0
 19 22  1  0  0  0  0
 20 21  3  0  0  0  0
 22 23  2  0  0  0  0
 24 25  1  0  0  0  0
 25 46  1  0  0  0  0
 25 47  1  0  0  0  0
 25 48  1  0  0  0  0
M  END
> <s_m_source_file>
AV-unprocessed.smi

> <i_m_source_file_index>
1611

> <i_lp_mmshare_version>
43012

> <i_f3d_flags>
0

> <s_epik_input>
W0NIM11jMVtjSF1bY0hdYyhbQ0gzXSljKGMxW0NIM10pT1tDSDJdW0NASF0oW09IXSlbQ0gyXW4ybmMoW0NIM10pYyhbQ0gzXSljKEMjTiljMj1P

> <s_epik_cmdline>
J2VwaWtfcHl0aG9uJywgJy1waCcsICc3LjAnLCAnLXRuJywgJzgnLCAnLW1hJywgJzIwMCcsICctbWV0YWxfYmluZGluZycsICctaW1hZScsICc8aW5maWxlLm1hZT4nLCAnLW9tYWUnLCAnPG91dGZpbGUubWFlPic=

> <r_lp_tautomer_probability>
1

> <r_epik_Ionization_Penalty>
1.17331e-07

> <r_epik_Ionization_Penalty_Charging>
1.57223e-10

> <r_epik_Ionization_Penalty_Neutral>
1.17174e-07

> <r_epik_State_Penalty>
-0

> <r_epik_Charging_Adjusted_Penalty>
1.57223e-10

> <i_epik_Tot_Q>
0

> <i_epik_Tot_abs_Q>
0

> <r_epik_Metal_State_Penalty>
-0

> <b_epik_Metal_Only>
0

> <s_lp_Force_Field>
OPLS_2005

> <r_lp_Energy>
37.4128

> <b_lp_Chiralities_Consistent>
1

> <s_lp_Variant>
AV-unprocessed.smi:1611-2

> <Gold.Version>
5.8.1

> <Gold.Id.Protein>
6NUR|6NUR_protein|mol2

> <Gold.PLP.Fitness>
51.5207

> <Gold.PLP.PLP>
-47.0404

> <Gold.PLP.part.hbond>
-2.0331

> <Gold.PLP.part.metal>
0.0000

> <Gold.PLP.part.buried>
-6.3334

> <Gold.PLP.part.nonpolar>
-38.1543

> <Gold.PLP.part.repulsive>
0.0000

> <Gold.PLP.ligand.clash>
0.0000

> <Gold.PLP.ligand.torsion>
0.7628

> <Gold.PLP.Chemscore.Hbond>
1.9670

> <Gold.PLP.Chemscore.CHOScore>
0.0000

> <Gold.PLP.Chemscore.Metal>
0.0000

> <Gold.Chemscore.Hbonds>
donor molecule, donor type, donor heavy atom, donor atom, acceptor molecule, acceptor atom, score
      P1  H  6896  6908       L1    14  1.00
      P1  H  7997  8010       L1    11  0.99

> <Gold.PLP.Chemscore.Internal.Correction>
0.1049

> <Gold.Rescore>
     Score         DG    S(hbond)    S(metal)    S(lipo)     H(rot)  DE(clash)    DE(int)     intcor
     16.59     -19.92       1.63        0.00     126.62       2.27       0.00       3.34       ----

> <Gold.Chemscore.Fitness>
16.5881

> <Gold.Chemscore.DG>
-19.9235

> <Gold.Chemscore.ZeroCoef>
-5.4800

> <Gold.Chemscore.Hbond>
1.6291

> <Gold.Chemscore.Metal>
0.0000

> <Gold.Chemscore.Lipo>
126.6231

> <Gold.Chemscore.Internal_Hbond>
0.0000

> <Gold.Chemscore.DEClash>
0.0000

> <Gold.Chemscore.DEInternal>
3.3354

> <Gold.Chemscore.Rot>
2.2706

> <Gold.Chemscore.Internal.Correction>
   9.000000E+99

> <Gold.Chemscore.Hbonds>
donor molecule, donor type, donor heavy atom, donor atom, acceptor molecule, acceptor atom, score
      P1  H  6896  6908       L1    14  0.34
      P1  H  7997  8010       L1    11  0.69

> <Gold.Chemscore.Hbond.Weighted>
-5.4413

> <Gold.Chemscore.Metal.Weighted>
-0.0000

> <Gold.Chemscore.Lipo.Weighted>
-14.8149

> <Gold.Chemscore.Internal_Hbond.Weighted>
0.0000

> <Gold.Chemscore.DEClash.Weighted>
0.0000

> <Gold.Chemscore.DEInternal.Weighted>
3.3354

> <Gold.Chemscore.Rot.Weighted>
5.8127

> <Gold.Chemscore.Internal.Correction.Weighted>
   9.000000E+99

> <Gold.Protein.RotatedTorsions>
[ 6907 6896 6895 6894 ] final -155.15 input  -60.11 | X-H torsion
[ 7974 7965 7964 7962 ] final  -25.13 input  175.53 | X-H torsion
[ 8008 7997 7996 7995 ] final   25.88 input   59.86 | X-H torsion
[ 10167 10162 10161 10158 ] final  -17.83 input  -65.29 | X-H torsion
[ 10718 10713 10712 10709 ] final -117.02 input   66.30 | X-H torsion
[ 10763 10752 10751 10750 ] final  -52.55 input  -60.55 | X-H torsion
[ 11005 11000 10999 10996 ] final  111.06 input  -57.11 | X-H torsion

> <Gold.Protein.ActiveResidues>
 VAL166  LYS551  ARG553  GLY616  TRP617  ASP618  TYR619  PRO620  LYS621  CYS622 
 ASP623  PHE694  ASN695  SER759  ASP760  ASP761  ALA762  ILE779  LEU786  VAL792 
 PHE793  MET794  SER795  GLU796  ALA797  LYS798  CYS799  TRP800  GLU811  SER814 

> <Gold.Protein.RotatedAtoms>
  151.2682  133.4268  159.2619 H   0  0  0  0  0  0  0  0  0  0  0  0  # atno 6907 bound_to 6896
  151.0469  134.9646  159.8201 H   0  0  0  0  0  0  0  0  0  0  0  0  # atno 6908 bound_to 6896
  152.5375  134.2638  159.8998 H   0  0  0  0  0  0  0  0  0  0  0  0  # atno 6909 bound_to 6896
  146.1511  140.4845  142.8611 H   0  0  0  0  0  0  0  0  0  0  0  0  # atno 7974 bound_to 7965
  155.0187  140.3145  155.4802 H   0  0  0  0  0  0  0  0  0  0  0  0  # atno 8008 bound_to 7997
  156.2896  140.2201  156.5246 H   0  0  0  0  0  0  0  0  0  0  0  0  # atno 8009 bound_to 7997
  154.7471  140.0469  157.0849 H   0  0  0  0  0  0  0  0  0  0  0  0  # atno 8010 bound_to 7997
  140.7252  143.4976  150.9911 H   0  0  0  0  0  0  0  0  0  0  0  0  # atno 10167 bound_to 10162
  156.1004  130.6167  150.9110 H   0  0  0  0  0  0  0  0  0  0  0  0  # atno 10718 bound_to 10713
  154.1445  135.6500  153.4949 H   0  0  0  0  0  0  0  0  0  0  0  0  # atno 10763 bound_to 10752
  153.0156  135.5323  154.6871 H   0  0  0  0  0  0  0  0  0  0  0  0  # atno 10764 bound_to 10752
  154.6141  135.2957  155.0370 H   0  0  0  0  0  0  0  0  0  0  0  0  # atno 10765 bound_to 10752
  139.8895  134.9499  156.6374 H   0  0  0  0  0  0  0  0  0  0  0  0  # atno 11005 bound_to 11000
  144.7905  140.6022  143.6545 LP  0  0  0  0  0  0  0  0  0  0  0  0  # atno 17320 bound_to 7965
  145.4821  139.1494  143.3756 LP  0  0  0  0  0  0  0  0  0  0  0  0  # atno 17321 bound_to 7965
  139.8684  143.7224  152.3168 LP  0  0  0  0  0  0  0  0  0  0  0  0  # atno 17342 bound_to 10162
  139.7464  144.7546  151.0573 LP  0  0  0  0  0  0  0  0  0  0  0  0  # atno 17343 bound_to 10162
  157.6173  131.0932  150.8687 LP  0  0  0  0  0  0  0  0  0  0  0  0  # atno 17370 bound_to 10713
  156.8816  130.5181  149.5290 LP  0  0  0  0  0  0  0  0  0  0  0  0  # atno 17371 bound_to 10713
  140.7620  133.8810  155.8425 LP  0  0  0  0  0  0  0  0  0  0  0  0  # atno 17394 bound_to 11000
  140.9914  134.1273  157.4404 LP  0  0  0  0  0  0  0  0  0  0  0  0  # atno 17395 bound_to 11000

$$$$
