AV-unprocessed.smi:2090|AV-procd|sdf|8534|dock10
  -GOLD-   2272011253D 1   1.00000     0.00000
 Structure written by MMmdl.
 41 42  0  0  0  0  0  0  0  0  3 V2000
  149.4782  140.5619  155.0557 C   0  0  0  0  0  0  0  0  0  0  0  0
  150.1618  139.2442  154.9185 C   0  0  0  0  0  0  0  0  0  0  0  0
  149.7488  137.9588  155.1270 C   0  0  0  0  0  0  0  0  0  0  0  0
  150.8993  137.1906  154.7991 C   0  0  0  0  0  0  0  0  0  0  0  0
  150.9963  135.8531  154.8567 N   0  5  0  0  0  0  0  0  0  0  0  0
  149.8956  135.1005  155.0846 C   0  0  0  0  0  0  0  0  0  0  0  0
  148.9327  135.4043  155.7926 O   0  0  0  0  0  0  0  0  0  0  0  0
  149.9109  133.9192  154.4534 N   0  0  0  0  0  0  0  0  0  0  0  0
  148.8563  132.9178  154.5270 C   0  0  0  0  0  0  0  0  0  0  0  0
  149.0554  131.8485  153.4419 C   0  0  0  0  0  0  0  0  0  0  0  0
  147.9050  131.7784  152.5067 N   0  3  2  0  0  0  0  0  0  0  0  0
  147.3526  133.1210  152.1911 C   0  0  0  0  0  0  0  0  0  0  0  0
  146.2576  133.0334  151.1145 C   0  0  0  0  0  0  0  0  0  0  0  0
  145.1298  132.0788  151.5402 C   0  0  1  0  0  0  0  0  0  0  0  0
  144.0478  131.9588  150.4577 C   0  0  0  0  0  0  0  0  0  0  0  0
  145.7335  130.7099  151.8967 C   0  0  0  0  0  0  0  0  0  0  0  0
  146.8392  130.8445  152.9575 C   0  0  0  0  0  0  0  0  0  0  0  0
  151.9255  137.9442  154.4412 N   0  0  0  0  0  0  0  0  0  0  0  0
  151.4581  139.2624  154.5071 O   0  0  0  0  0  0  0  0  0  0  0  0
  148.9619  140.6302  156.0131 H   0  0  0  0  0  0  0  0  0  0  0  0
  148.7423  140.6978  154.2631 H   0  0  0  0  0  0  0  0  0  0  0  0
  150.1925  141.3835  154.9989 H   0  0  0  0  0  0  0  0  0  0  0  0
  148.7781  137.6204  155.4569 H   0  0  0  0  0  0  0  0  0  0  0  0
  150.7145  133.7075  153.8800 H   0  0  0  0  0  0  0  0  0  0  0  0
  148.8632  132.4505  155.5132 H   0  0  0  0  0  0  0  0  0  0  0  0
  147.8968  133.4226  154.4138 H   0  0  0  0  0  0  0  0  0  0  0  0
  149.9774  132.0231  152.8848 H   0  0  0  0  0  0  0  0  0  0  0  0
  149.1746  130.8848  153.9398 H   0  0  0  0  0  0  0  0  0  0  0  0
  146.9540  133.5747  153.0998 H   0  0  0  0  0  0  0  0  0  0  0  0
  148.1501  133.7737  151.8336 H   0  0  0  0  0  0  0  0  0  0  0  0
  145.8526  134.0275  150.9219 H   0  0  0  0  0  0  0  0  0  0  0  0
  146.6973  132.6927  150.1758 H   0  0  0  0  0  0  0  0  0  0  0  0
  144.6588  132.4865  152.4362 H   0  0  0  0  0  0  0  0  0  0  0  0
  144.4571  131.5621  149.5281 H   0  0  0  0  0  0  0  0  0  0  0  0
  143.6035  132.9300  150.2377 H   0  0  0  0  0  0  0  0  0  0  0  0
  143.2447  131.2944  150.7779 H   0  0  0  0  0  0  0  0  0  0  0  0
  144.9536  130.0424  152.2649 H   0  0  0  0  0  0  0  0  0  0  0  0
  146.1442  130.2405  151.0015 H   0  0  0  0  0  0  0  0  0  0  0  0
  147.2566  129.8581  153.1563 H   0  0  0  0  0  0  0  0  0  0  0  0
  146.4147  131.2015  153.8972 H   0  0  0  0  0  0  0  0  0  0  0  0
  148.2694  131.4137  151.6381 H   0  0  0  0  0  0  0  0  0  0  0  0
  1  2  1  0  0  0  0
  1 20  1  0  0  0  0
  1 21  1  0  0  0  0
  1 22  1  0  0  0  0
  2 19  1  0  0  0  0
  2  3  2  0  0  0  0
  3  4  1  0  0  0  0
  3 23  1  0  0  0  0
  4  5  1  0  0  0  0
  4 18  2  0  0  0  0
  5  6  1  0  0  0  0
  6  7  2  0  0  0  0
  6  8  1  0  0  0  0
  8  9  1  0  0  0  0
  8 24  1  0  0  0  0
  9 10  1  0  0  0  0
  9 25  1  0  0  0  0
  9 26  1  0  0  0  0
 10 11  1  0  0  0  0
 10 27  1  0  0  0  0
 10 28  1  0  0  0  0
 11 17  1  0  0  0  0
 11 12  1  0  0  0  0
 11 41  1  0  0  0  0
 12 13  1  0  0  0  0
 12 29  1  0  0  0  0
 12 30  1  0  0  0  0
 13 14  1  0  0  0  0
 13 31  1  0  0  0  0
 13 32  1  0  0  0  0
 14 15  1  0  0  0  0
 14 16  1  0  0  0  0
 14 33  1  0  0  0  0
 15 34  1  0  0  0  0
 15 35  1  0  0  0  0
 15 36  1  0  0  0  0
 16 17  1  0  0  0  0
 16 37  1  0  0  0  0
 16 38  1  0  0  0  0
 17 39  1  0  0  0  0
 17 40  1  0  0  0  0
 18 19  1  0  0  0  0
M  CHG  1   5  -1
M  CHG  1  11   1
M  END
> <s_m_source_file>
AV-unprocessed.smi

> <i_m_source_file_index>
2090

> <i_lp_mmshare_version>
43012

> <i_f3d_flags>
0

> <s_epik_input>
W0NIM11jMVtjSF1jKG5vMSlbTkhdQyg9TylbTkhdW0NIMl1bQ0gyXU4yW0NIMl1bQ0gyXVtDSF0oW0NIM10pW0NIMl1bQ0gyXTI=

> <s_epik_cmdline>
J2VwaWtfcHl0aG9uJywgJy1waCcsICc3LjAnLCAnLXRuJywgJzgnLCAnLW1hJywgJzIwMCcsICctbWV0YWxfYmluZGluZycsICctaW1hZScsICc8aW5maWxlLm1hZT4nLCAnLW9tYWUnLCAnPG91dGZpbGUubWFlPic=

> <r_epik_Ionization_Penalty>
6.22503

> <r_epik_Ionization_Penalty_Charging>
6.22494

> <r_epik_Ionization_Penalty_Neutral>
9.3589e-05

> <r_epik_State_Penalty>
6.22491

> <r_epik_Charging_Adjusted_Penalty>
12.4498

> <i_epik_Tot_Q>
0

> <i_epik_Tot_abs_Q>
2

> <r_epik_Metal_State_Penalty>
2.16853

> <b_epik_Metal_Only>
1

> <s_lp_Force_Field>
OPLS_2005

> <r_lp_Energy>
5.4778

> <b_lp_Chiralities_Consistent>
1

> <s_lp_Variant>
AV-unprocessed.smi:2090-3

> <Gold.Version>
5.8.1

> <Gold.Id.Protein>
6NUR|6NUR_protein|mol2

> <Gold.PLP.Fitness>
45.2641

> <Gold.PLP.PLP>
-35.6331

> <Gold.PLP.part.hbond>
-3.1304

> <Gold.PLP.part.metal>
0.0000

> <Gold.PLP.part.buried>
-5.4912

> <Gold.PLP.part.nonpolar>
-28.5016

> <Gold.PLP.part.repulsive>
0.5132

> <Gold.PLP.ligand.clash>
0.0000

> <Gold.PLP.ligand.torsion>
0.9780

> <Gold.PLP.Chemscore.Hbond>
3.8500

> <Gold.PLP.Chemscore.CHOScore>
0.0000

> <Gold.PLP.Chemscore.Metal>
0.0000

> <Gold.Chemscore.Hbonds>
donor molecule, donor type, donor heavy atom, donor atom, acceptor molecule, acceptor atom, score
      L1  H    11    41       P1 10747  1.00
      P1  H  7989  7998       L1    19  1.00
      P1  H 10752 10765       L1     5  2.00

> <Gold.PLP.Chemscore.Internal.Correction>
0.0369

> <Gold.Rescore>
     Score         DG    S(hbond)    S(metal)    S(lipo)     H(rot)  DE(clash)    DE(int)     intcor
     16.75     -19.16       2.72        0.00      72.87       1.54       0.03       2.37       ----

> <Gold.Chemscore.Fitness>
16.7524

> <Gold.Chemscore.DG>
-19.1584

> <Gold.Chemscore.ZeroCoef>
-5.4800

> <Gold.Chemscore.Hbond>
2.7238

> <Gold.Chemscore.Metal>
0.0000

> <Gold.Chemscore.Lipo>
72.8684

> <Gold.Chemscore.Internal_Hbond>
0.0000

> <Gold.Chemscore.DEClash>
0.0347

> <Gold.Chemscore.DEInternal>
2.3714

> <Gold.Chemscore.Rot>
1.5409

> <Gold.Chemscore.Internal.Correction>
   9.000000E+99

> <Gold.Chemscore.Hbonds>
donor molecule, donor type, donor heavy atom, donor atom, acceptor molecule, acceptor atom, score
      L1  H    11    41       P1 10747  0.99
      P1  H  7989  7998       L1    19  0.55
      P1  H 10752 10765       L1     5  0.34

> <Gold.Chemscore.Hbond.Weighted>
-9.0974

> <Gold.Chemscore.Metal.Weighted>
-0.0000

> <Gold.Chemscore.Lipo.Weighted>
-8.5256

> <Gold.Chemscore.Internal_Hbond.Weighted>
0.0000

> <Gold.Chemscore.DEClash.Weighted>
0.0347

> <Gold.Chemscore.DEInternal.Weighted>
2.3714

> <Gold.Chemscore.Rot.Weighted>
3.9446

> <Gold.Chemscore.Internal.Correction.Weighted>
   9.000000E+99

> <Gold.Protein.RotatedTorsions>
[ 6907 6896 6895 6894 ] final  104.63 input  -60.11 | X-H torsion
[ 7974 7965 7964 7962 ] final   60.47 input  175.53 | X-H torsion
[ 8008 7997 7996 7995 ] final  121.50 input   59.86 | X-H torsion
[ 10167 10162 10161 10158 ] final  178.16 input  -65.29 | X-H torsion
[ 10718 10713 10712 10709 ] final  -49.59 input   66.30 | X-H torsion
[ 10763 10752 10751 10750 ] final -175.82 input  -60.55 | X-H torsion
[ 11005 11000 10999 10996 ] final   -0.98 input  -57.11 | X-H torsion

> <Gold.Protein.ActiveResidues>
 VAL166  LYS551  ARG553  GLY616  TRP617  ASP618  TYR619  PRO620  LYS621  CYS622 
 ASP623  PHE694  ASN695  SER759  ASP760  ASP761  ALA762  ILE779  LEU786  VAL792 
 PHE793  MET794  SER795  GLU796  ALA797  LYS798  CYS799  TRP800  GLU811  SER814 

> <Gold.Protein.RotatedAtoms>
  152.5258  133.9649  159.7734 H   0  0  0  0  0  0  0  0  0  0  0  0  # atno 6907 bound_to 6896
  150.9932  133.6121  159.2712 H   0  0  0  0  0  0  0  0  0  0  0  0  # atno 6908 bound_to 6896
  151.3256  135.0835  159.9374 H   0  0  0  0  0  0  0  0  0  0  0  0  # atno 6909 bound_to 6896
  145.8956  139.3543  143.0623 H   0  0  0  0  0  0  0  0  0  0  0  0  # atno 7974 bound_to 7965
  156.2689  140.2807  156.1318 H   0  0  0  0  0  0  0  0  0  0  0  0  # atno 8008 bound_to 7997
  155.1046  140.0390  157.2724 H   0  0  0  0  0  0  0  0  0  0  0  0  # atno 8009 bound_to 7997
  154.6789  140.2604  155.6935 H   0  0  0  0  0  0  0  0  0  0  0  0  # atno 8010 bound_to 7997
  139.5282  144.2713  152.0625 H   0  0  0  0  0  0  0  0  0  0  0  0  # atno 10167 bound_to 10162
  156.1879  130.4152  149.9413 H   0  0  0  0  0  0  0  0  0  0  0  0  # atno 10718 bound_to 10713
  154.5798  135.2835  155.0744 H   0  0  0  0  0  0  0  0  0  0  0  0  # atno 10763 bound_to 10752
  154.2085  135.6412  153.5112 H   0  0  0  0  0  0  0  0  0  0  0  0  # atno 10764 bound_to 10752
  153.0084  135.5486  154.6448 H   0  0  0  0  0  0  0  0  0  0  0  0  # atno 10765 bound_to 10752
  140.6423  133.9478  155.8333 H   0  0  0  0  0  0  0  0  0  0  0  0  # atno 11005 bound_to 11000
  145.8854  140.9337  143.0579 LP  0  0  0  0  0  0  0  0  0  0  0  0  # atno 17320 bound_to 7965
  144.6733  140.0835  143.7468 LP  0  0  0  0  0  0  0  0  0  0  0  0  # atno 17321 bound_to 7965
  140.2172  144.4503  150.6358 LP  0  0  0  0  0  0  0  0  0  0  0  0  # atno 17342 bound_to 10162
  140.6442  143.2210  151.6223 LP  0  0  0  0  0  0  0  0  0  0  0  0  # atno 17343 bound_to 10162
  156.7163  130.8989  151.3614 LP  0  0  0  0  0  0  0  0  0  0  0  0  # atno 17370 bound_to 10713
  157.6910  130.9234  150.0515 LP  0  0  0  0  0  0  0  0  0  0  0  0  # atno 17371 bound_to 10713
  141.0598  134.0363  157.3674 LP  0  0  0  0  0  0  0  0  0  0  0  0  # atno 17394 bound_to 11000
  139.9076  135.0183  156.7552 LP  0  0  0  0  0  0  0  0  0  0  0  0  # atno 17395 bound_to 11000

$$$$
