#       Name:                AV-unprocessed.smi:1366
#       Creating user name   scv26
#       Creation time:       Fri Mar 27 05:16:32 2020


#       File generated by GOLD software.
#

@<TRIPOS>MOLECULE
AV-unprocessed.smi:1366
    36    37     1
SMALL
NO_CHARGES


@<TRIPOS>ATOM
      1 ****        -6.6570   1.8771   2.1050 N.1            1 S1                 0.0000
      2 ****        -5.5326   1.6139   2.0331 C.1            1 S1                 0.0000
      3 ****        -4.1173   1.2824   1.9427 C.ar           1 S1                 0.0000
      4 ****        -3.1474   2.3053   1.8551 C.ar           1 S1                 0.0000
      5 ****        -1.8271   2.0335   1.7682 N.ar           1 S1                 0.0000
      6 ****        -1.4904   0.7428   1.7727 C.ar           1 S1                 0.0000
      7 ****         0.2411   0.3829   1.6495 S.3            1 S1                 0.0000
      8 ****         0.4159   0.4213  -0.1551 C.3            1 S1                 0.0000
      9 ****         1.8454   0.0819  -0.5976 C.3            1 S1                 0.0000
     10 ****         2.0228   0.2131  -2.1228 C.3            1 S1                 0.0000
     11 ****         3.4354  -0.2122  -2.5396 C.3            1 S1                 0.0000
     12 ****         3.7379  -1.6096  -1.9884 C.3            1 S1                 0.0000
     13 ****         3.4723  -1.6554  -0.4755 C.3            1 S1                 0.0000
     14 ****         2.1305  -1.2604  -0.2078 O.3            1 S1                 0.0000
     15 ****        -2.3051  -0.3110   1.8503 N.ar           1 S1                 0.0000
     16 ****        -3.6276  -0.0491   1.9357 C.ar           1 S1                 0.0000
     17 ****        -4.4703  -1.1595   2.0132 N.pl3          1 S1                 0.0000
     18 ****        -3.4272   3.3490   1.8531 H              1 S1                 0.0000
     19 ****        -0.2941  -0.2802  -0.5948 H              1 S1                 0.0000
     20 ****         0.1408   1.4169  -0.5044 H              1 S1                 0.0000
     21 ****         2.5387   0.7577  -0.0932 H              1 S1                 0.0000
     22 ****         1.2892  -0.4119  -2.6340 H              1 S1                 0.0000
     23 ****         1.8346   1.2391  -2.4401 H              1 S1                 0.0000
     24 ****         3.5314  -0.2018  -3.6257 H              1 S1                 0.0000
     25 ****         4.1640   0.5012  -2.1524 H              1 S1                 0.0000
     26 ****         3.1090  -2.3462  -2.4903 H              1 S1                 0.0000
     27 ****         4.7716  -1.8839  -2.1997 H              1 S1                 0.0000
     28 ****         3.6230  -2.6672  -0.0990 H              1 S1                 0.0000
     29 ****         4.1674  -1.0091   0.0626 H              1 S1                 0.0000
     30 ****        -5.4732  -1.0603   2.0781 H              1 S1                 0.0000
     31 ****        -4.1015  -2.0997   2.0013 H              1 S1                 0.0000
     32 ****        -7.6288   2.1046   2.1671 LP             1 S1                 0.0000
     33 ****        -1.1413   2.7584   1.7041 LP             1 S1                 0.0000
     34 ****         1.5150  -1.8721  -0.7048 LP             1 S1                 0.0000
     35 ****         1.9648  -1.3470   0.7746 LP             1 S1                 0.0000
     36 ****        -1.9544  -1.2475   1.8455 LP             1 S1                 0.0000
@<TRIPOS>BOND
    1    1    2 3     
    2    2    3 1     
    3    3   16 ar    
    4    3    4 ar    
    5    4    5 ar    
    6    4   18 1     
    7    5    6 ar    
    8    6    7 1     
    9    6   15 ar    
   10    7    8 1     
   11    8    9 1     
   12    8   19 1     
   13    8   20 1     
   14    9   14 1     
   15    9   10 1     
   16    9   21 1     
   17   10   11 1     
   18   10   22 1     
   19   10   23 1     
   20   11   12 1     
   21   11   24 1     
   22   11   25 1     
   23   12   13 1     
   24   12   26 1     
   25   12   27 1     
   26   13   14 1     
   27   13   28 1     
   28   13   29 1     
   29   15   16 ar    
   30   16   17 1     
   31   17   30 1     
   32   17   31 1     
   33    1   32 1     
   34    5   33 1     
   35   14   34 1     
   36   14   35 1     
   37   15   36 1     
@<TRIPOS>SUBSTRUCTURE
      1 S1             1
@<TRIPOS>SET
LONE_PAIRS      STATIC     ATOMS    <user>   **** ""
5 32 33 34 35 36
DONOR_HYDROGENS      STATIC     ATOMS    <user>   **** ""
2 30 31
ATOM$BLUE        STATIC     ATOMS    COLORGROUP SYSTEM
5 32 33 34 35 36
ATOM$RED        STATIC     ATOMS    COLORGROUP SYSTEM
2 30 31
