AV-unprocessed.smi:1495|AV-procd|sdf|6054|dock1
  -GOLD-   22720 6173D 1   1.00000     0.00000
 Structure written by MMmdl.
 40 41  0  0  0  0  0  0  0  0  1 V2000
  152.2525  142.4315  160.1189 C   0  0  0  0  0  0  0  0  0  0  0  0
  151.7470  142.8767  158.7413 C   0  0  0  0  0  0  0  0  0  0  0  0
  151.3048  141.7012  157.8561 C   0  0  1  0  0  0  0  0  0  0  0  0
  151.0007  142.1495  156.4139 C   0  0  0  0  0  0  0  0  0  0  0  0
  150.6197  140.9665  155.6293 N   0  0  0  0  0  0  0  0  0  0  0  0
  149.4459  140.7728  154.9812 C   0  0  0  0  0  0  0  0  0  0  0  0
  149.0717  139.6724  154.5743 O   0  0  0  0  0  0  0  0  0  0  0  0
  148.6875  141.8759  154.8793 N   0  0  0  0  0  0  0  0  0  0  0  0
  147.4139  141.9871  154.1757 C   0  0  0  0  0  0  0  0  0  0  0  0
  146.2970  142.4751  155.1157 C   0  0  0  0  0  0  0  0  0  0  0  0
  145.4639  143.5729  154.5182 C   0  0  0  0  0  0  0  0  0  0  0  0
  145.5772  144.0983  153.2549 C   0  0  0  0  0  0  0  0  0  0  0  0
  144.4407  145.3901  152.9841 S   0  0  0  0  0  0  0  0  0  0  0  0
  143.8355  145.1588  154.6201 C   0  0  0  0  0  0  0  0  0  0  0  0
  142.7367  145.9736  155.2109 C   0  0  0  0  0  0  0  0  0  0  0  0
  144.4655  144.1853  155.2822 N   0  0  0  0  0  0  0  0  0  0  0  0
  151.7190  140.0003  155.5913 C   0  0  0  0  0  0  0  0  0  0  0  0
  152.0433  139.5844  157.0377 C   0  0  0  0  0  0  0  0  0  0  0  0
  152.3570  140.7370  157.8166 O   0  0  0  0  0  0  0  0  0  0  0  0
  152.5460  143.2918  160.7205 H   0  0  0  0  0  0  0  0  0  0  0  0
  153.1200  141.7770  160.0306 H   0  0  0  0  0  0  0  0  0  0  0  0
  151.4790  141.8918  160.6657 H   0  0  0  0  0  0  0  0  0  0  0  0
  150.9072  143.5581  158.8826 H   0  0  0  0  0  0  0  0  0  0  0  0
  152.5242  143.4490  158.2337 H   0  0  0  0  0  0  0  0  0  0  0  0
  150.4127  141.2455  158.2900 H   0  0  0  0  0  0  0  0  0  0  0  0
  150.2462  142.9365  156.4170 H   0  0  0  0  0  0  0  0  0  0  0  0
  151.8881  142.5997  155.9661 H   0  0  0  0  0  0  0  0  0  0  0  0
  149.0529  142.7286  155.2783 H   0  0  0  0  0  0  0  0  0  0  0  0
  147.4850  142.6389  153.3039 H   0  0  0  0  0  0  0  0  0  0  0  0
  147.1635  140.9960  153.7963 H   0  0  0  0  0  0  0  0  0  0  0  0
  145.6583  141.6296  155.3744 H   0  0  0  0  0  0  0  0  0  0  0  0
  146.7387  142.8089  156.0553 H   0  0  0  0  0  0  0  0  0  0  0  0
  146.2665  143.8122  152.4742 H   0  0  0  0  0  0  0  0  0  0  0  0
  142.0592  145.3377  155.7816 H   0  0  0  0  0  0  0  0  0  0  0  0
  142.1685  146.4701  154.4240 H   0  0  0  0  0  0  0  0  0  0  0  0
  143.1513  146.7319  155.8755 H   0  0  0  0  0  0  0  0  0  0  0  0
  151.4804  139.1118  155.0051 H   0  0  0  0  0  0  0  0  0  0  0  0
  152.5908  140.4564  155.1204 H   0  0  0  0  0  0  0  0  0  0  0  0
  151.2027  139.0520  157.4858 H   0  0  0  0  0  0  0  0  0  0  0  0
  152.8961  138.9057  157.0533 H   0  0  0  0  0  0  0  0  0  0  0  0
  1  2  1  0  0  0  0
  1 20  1  0  0  0  0
  1 21  1  0  0  0  0
  1 22  1  0  0  0  0
  2  3  1  0  0  0  0
  2 23  1  0  0  0  0
  2 24  1  0  0  0  0
  3 19  1  0  0  0  0
  3  4  1  0  0  0  0
  3 25  1  0  0  0  0
  4  5  1  0  0  0  0
  4 26  1  0  0  0  0
  4 27  1  0  0  0  0
  5  6  1  0  0  0  0
  5 17  1  0  0  0  0
  6  7  2  0  0  0  0
  6  8  1  0  0  0  0
  8  9  1  0  0  0  0
  8 28  1  0  0  0  0
  9 10  1  0  0  0  0
  9 29  1  0  0  0  0
  9 30  1  0  0  0  0
 10 11  1  0  0  0  0
 10 31  1  0  0  0  0
 10 32  1  0  0  0  0
 11 16  1  0  0  0  0
 11 12  2  0  0  0  0
 12 13  1  0  0  0  0
 12 33  1  0  0  0  0
 13 14  1  0  0  0  0
 14 15  1  0  0  0  0
 14 16  2  0  0  0  0
 15 34  1  0  0  0  0
 15 35  1  0  0  0  0
 15 36  1  0  0  0  0
 17 18  1  0  0  0  0
 17 37  1  0  0  0  0
 17 38  1  0  0  0  0
 18 19  1  0  0  0  0
 18 39  1  0  0  0  0
 18 40  1  0  0  0  0
M  END
> <s_m_source_file>
AV-unprocessed.smi

> <i_m_source_file_index>
1495

> <i_lp_mmshare_version>
43012

> <i_f3d_flags>
0

> <s_epik_input>
W0NIM11bQ0gyXVtDQEBIXTFbQ0gyXU4oW0NIMl1bQ0gyXU8xKUMoPU8pW05IXVtDSDJdW0NIMl1jMltjSF1zYyhuMilbQ0gzXQ==

> <s_epik_cmdline>
J2VwaWtfcHl0aG9uJywgJy1waCcsICc3LjAnLCAnLXRuJywgJzgnLCAnLW1hJywgJzIwMCcsICctbWV0YWxfYmluZGluZycsICctaW1hZScsICc8aW5maWxlLm1hZT4nLCAnLW9tYWUnLCAnPG91dGZpbGUubWFlPic=

> <r_epik_Ionization_Penalty>
0.00206013

> <r_epik_Ionization_Penalty_Charging>
0

> <r_epik_Ionization_Penalty_Neutral>
0.00206013

> <r_epik_State_Penalty>
0.00138662

> <r_epik_Charging_Adjusted_Penalty>
0.00138662

> <i_epik_Tot_Q>
0

> <i_epik_Tot_abs_Q>
0

> <r_epik_Metal_State_Penalty>
-0

> <b_epik_Metal_Only>
0

> <s_lp_Force_Field>
OPLS_2005

> <r_lp_Energy>
24.1464

> <b_lp_Chiralities_Consistent>
1

> <s_lp_Variant>
AV-unprocessed.smi:1495-2

> <Gold.Version>
5.8.1

> <Gold.Id.Protein>
6NUR|6NUR_protein|mol2

> <Gold.PLP.Fitness>
42.4513

> <Gold.PLP.PLP>
-40.3879

> <Gold.PLP.part.hbond>
-1.2976

> <Gold.PLP.part.metal>
0.0000

> <Gold.PLP.part.buried>
-2.1290

> <Gold.PLP.part.nonpolar>
-36.4445

> <Gold.PLP.part.repulsive>
0.4309

> <Gold.PLP.ligand.clash>
0.0000

> <Gold.PLP.ligand.torsion>
0.4849

> <Gold.PLP.Chemscore.Hbond>
1.0000

> <Gold.PLP.Chemscore.CHOScore>
0.0000

> <Gold.PLP.Chemscore.Metal>
0.0000

> <Gold.Chemscore.Hbonds>
donor molecule, donor type, donor heavy atom, donor atom, acceptor molecule, acceptor atom, score
      L1  H     8    28       P1  8028  0.99

> <Gold.PLP.Chemscore.Internal.Correction>
0.0332

> <Gold.Rescore>
     Score         DG    S(hbond)    S(metal)    S(lipo)     H(rot)  DE(clash)    DE(int)     intcor
     15.33     -16.16       0.84        0.00      98.46       1.42       0.36       0.46       ----

> <Gold.Chemscore.Fitness>
15.3271

> <Gold.Chemscore.DG>
-16.1555

> <Gold.Chemscore.ZeroCoef>
-5.4800

> <Gold.Chemscore.Hbond>
0.8368

> <Gold.Chemscore.Metal>
0.0000

> <Gold.Chemscore.Lipo>
98.4564

> <Gold.Chemscore.Internal_Hbond>
0.0000

> <Gold.Chemscore.DEClash>
0.3635

> <Gold.Chemscore.DEInternal>
0.4648

> <Gold.Chemscore.Rot>
1.4214

> <Gold.Chemscore.Internal.Correction>
   9.000000E+99

> <Gold.Chemscore.Hbonds>
donor molecule, donor type, donor heavy atom, donor atom, acceptor molecule, acceptor atom, score
      L1  H     8    28       P1  8028  0.88

> <Gold.Chemscore.Hbond.Weighted>
-2.7949

> <Gold.Chemscore.Metal.Weighted>
-0.0000

> <Gold.Chemscore.Lipo.Weighted>
-11.5194

> <Gold.Chemscore.Internal_Hbond.Weighted>
0.0000

> <Gold.Chemscore.DEClash.Weighted>
0.3635

> <Gold.Chemscore.DEInternal.Weighted>
0.4648

> <Gold.Chemscore.Rot.Weighted>
3.6388

> <Gold.Chemscore.Internal.Correction.Weighted>
   9.000000E+99

> <Gold.Protein.RotatedTorsions>
[ 6907 6896 6895 6894 ] final -129.25 input  -60.11 | X-H torsion
[ 7974 7965 7964 7962 ] final  168.30 input  175.53 | X-H torsion
[ 8008 7997 7996 7995 ] final  167.25 input   59.86 | X-H torsion
[ 10167 10162 10161 10158 ] final   22.39 input  -65.29 | X-H torsion
[ 10718 10713 10712 10709 ] final -157.65 input   66.30 | X-H torsion
[ 10763 10752 10751 10750 ] final   88.67 input  -60.55 | X-H torsion
[ 11005 11000 10999 10996 ] final   60.04 input  -57.11 | X-H torsion

> <Gold.Protein.ActiveResidues>
 VAL166  LYS551  ARG553  GLY616  TRP617  ASP618  TYR619  PRO620  LYS621  CYS622 
 ASP623  PHE694  ASN695  SER759  ASP760  ASP761  ALA762  ILE779  LEU786  VAL792 
 PHE793  MET794  SER795  GLU796  ALA797  LYS798  CYS799  TRP800  GLU811  SER814 

> <Gold.Protein.RotatedAtoms>
  150.9266  133.6816  159.2819 H   0  0  0  0  0  0  0  0  0  0  0  0  # atno 6907 bound_to 6896
  151.4252  135.1001  159.9635 H   0  0  0  0  0  0  0  0  0  0  0  0  # atno 6908 bound_to 6896
  152.5006  133.8709  159.7353 H   0  0  0  0  0  0  0  0  0  0  0  0  # atno 6909 bound_to 6896
  144.7393  139.8887  143.6401 H   0  0  0  0  0  0  0  0  0  0  0  0  # atno 7974 bound_to 7965
  156.1650  140.1622  156.8547 H   0  0  0  0  0  0  0  0  0  0  0  0  # atno 8008 bound_to 7997
  154.5198  140.0781  156.8186 H   0  0  0  0  0  0  0  0  0  0  0  0  # atno 8009 bound_to 7997
  155.3630  140.3396  155.4243 H   0  0  0  0  0  0  0  0  0  0  0  0  # atno 8010 bound_to 7997
  140.5352  143.9773  150.6487 H   0  0  0  0  0  0  0  0  0  0  0  0  # atno 10167 bound_to 10162
  156.5432  130.8572  151.2756 H   0  0  0  0  0  0  0  0  0  0  0  0  # atno 10718 bound_to 10713
  153.1792  135.4498  155.0005 H   0  0  0  0  0  0  0  0  0  0  0  0  # atno 10763 bound_to 10752
  154.8018  135.3259  154.7532 H   0  0  0  0  0  0  0  0  0  0  0  0  # atno 10764 bound_to 10752
  153.7999  135.6963  153.4912 H   0  0  0  0  0  0  0  0  0  0  0  0  # atno 10765 bound_to 10752
  140.0260  134.6082  155.9572 H   0  0  0  0  0  0  0  0  0  0  0  0  # atno 11005 bound_to 11000
  146.1158  139.4168  143.0259 LP  0  0  0  0  0  0  0  0  0  0  0  0  # atno 17320 bound_to 7965
  145.7377  141.0019  143.1317 LP  0  0  0  0  0  0  0  0  0  0  0  0  # atno 17321 bound_to 7965
  140.3159  143.3168  152.0833 LP  0  0  0  0  0  0  0  0  0  0  0  0  # atno 17342 bound_to 10162
  139.4968  144.6606  151.6473 LP  0  0  0  0  0  0  0  0  0  0  0  0  # atno 17343 bound_to 10162
  157.7401  130.9844  150.2358 LP  0  0  0  0  0  0  0  0  0  0  0  0  # atno 17370 bound_to 10713
  156.2952  130.3751  149.7803 LP  0  0  0  0  0  0  0  0  0  0  0  0  # atno 17371 bound_to 10713
  141.1803  133.6545  156.4993 LP  0  0  0  0  0  0  0  0  0  0  0  0  # atno 17394 bound_to 11000
  140.4305  134.7106  157.4939 LP  0  0  0  0  0  0  0  0  0  0  0  0  # atno 17395 bound_to 11000

$$$$
