AV-unprocessed.smi:170|AV-procd|sdf|1413|dock6
  -GOLD-   2262019173D 1   1.00000     0.00000
 Structure written by MMmdl.
 57 61  0  0  0  0  0  0  0  0  1 V2000
  147.3213  138.8868  151.0023 O   0  0  0  0  0  0  0  0  0  0  0  0
  147.0100  137.8875  151.9553 C   0  0  1  0  0  0  0  0  0  0  0  0
  146.6280  138.5612  153.2887 C   0  0  0  0  0  0  0  0  0  0  0  0
  147.7308  138.5827  154.2334 N   0  0  0  0  0  0  0  0  0  0  0  0
  148.2339  137.5152  154.9433 C   0  0  0  0  0  0  0  0  0  0  0  0
  149.2299  137.7961  155.7394 N   0  0  0  0  0  0  0  0  0  0  0  0
  149.4268  139.1596  155.5616 C   0  0  0  0  0  0  0  0  0  0  0  0
  150.3268  140.1064  156.1172 C   0  0  0  0  0  0  0  0  0  0  0  0
  151.2666  139.7501  157.0247 N   0  0  0  0  0  0  0  0  0  0  0  0
  152.1603  138.7509  156.4485 C   0  0  0  0  0  0  0  0  0  0  0  0
  153.1216  138.2120  157.5148 C   0  0  0  0  0  0  0  0  0  0  0  0
  153.8388  139.3021  158.0760 O   0  0  0  0  0  0  0  0  0  0  0  0
  152.9742  140.2198  158.7348 C   0  0  0  0  0  0  0  0  0  0  0  0
  151.9594  140.8321  157.7393 C   0  0  2  0  0  0  0  0  0  0  0  0
  150.9679  141.7791  158.4664 C   0  0  0  0  0  0  0  0  0  0  0  0
  151.6235  143.0003  159.1083 C   0  0  0  0  0  0  0  0  0  0  0  0
  150.7657  143.9849  159.9176 C   0  0  0  0  0  0  0  0  0  0  0  0
  151.6577  145.1163  159.3992 C   0  0  0  0  0  0  0  0  0  0  0  0
  152.0352  144.1955  158.2356 C   0  0  0  0  0  0  0  0  0  0  0  0
  150.2378  141.3941  155.6887 N   0  0  0  0  0  0  0  0  0  0  0  0
  149.3124  141.7356  154.7869 C   0  0  0  0  0  0  0  0  0  0  0  0
  148.4003  140.9630  154.1920 N   0  0  0  0  0  0  0  0  0  0  0  0
  148.4969  139.6695  154.6138 C   0  0  0  0  0  0  0  0  0  0  0  0
  145.8775  137.0041  151.3996 C   0  0  1  0  0  0  0  0  0  0  0  0
  146.2055  136.3204  150.0704 C   0  0  0  0  0  0  0  0  0  0  0  0
  145.2744  135.1306  150.0988 C   0  0  0  0  0  0  0  0  0  0  0  0
  145.3322  134.7294  151.5690 C   0  0  0  0  0  0  0  0  0  0  0  0
  145.5966  135.9284  152.2935 O   0  0  0  0  0  0  0  0  0  0  0  0
  148.2579  138.9032  150.8797 H   0  0  0  0  0  0  0  0  0  0  0  0
  147.9011  137.2761  152.1036 H   0  0  0  0  0  0  0  0  0  0  0  0
  146.2932  139.5853  153.1179 H   0  0  0  0  0  0  0  0  0  0  0  0
  145.7947  138.0350  153.7556 H   0  0  0  0  0  0  0  0  0  0  0  0
  147.8324  136.5161  154.8564 H   0  0  0  0  0  0  0  0  0  0  0  0
  151.5833  137.9264  156.0267 H   0  0  0  0  0  0  0  0  0  0  0  0
  152.7276  139.1982  155.6306 H   0  0  0  0  0  0  0  0  0  0  0  0
  152.5819  137.6695  158.2929 H   0  0  0  0  0  0  0  0  0  0  0  0
  153.8280  137.5134  157.0666 H   0  0  0  0  0  0  0  0  0  0  0  0
  152.4604  139.7179  159.5565 H   0  0  0  0  0  0  0  0  0  0  0  0
  153.5971  140.9963  159.1774 H   0  0  0  0  0  0  0  0  0  0  0  0
  152.5223  141.4099  157.0045 H   0  0  0  0  0  0  0  0  0  0  0  0
  150.2056  142.1295  157.7713 H   0  0  0  0  0  0  0  0  0  0  0  0
  150.4262  141.2147  159.2262 H   0  0  0  0  0  0  0  0  0  0  0  0
  152.4747  142.7084  159.7262 H   0  0  0  0  0  0  0  0  0  0  0  0
  149.7402  144.0582  159.5517 H   0  0  0  0  0  0  0  0  0  0  0  0
  150.7966  143.8362  160.9974 H   0  0  0  0  0  0  0  0  0  0  0  0
  151.1255  146.0232  159.1110 H   0  0  0  0  0  0  0  0  0  0  0  0
  152.4989  145.3298  160.0606 H   0  0  0  0  0  0  0  0  0  0  0  0
  153.0894  144.2157  157.9580 H   0  0  0  0  0  0  0  0  0  0  0  0
  151.3880  144.3280  157.3668 H   0  0  0  0  0  0  0  0  0  0  0  0
  149.3009  142.7772  154.5016 H   0  0  0  0  0  0  0  0  0  0  0  0
  144.9618  137.5871  151.2866 H   0  0  0  0  0  0  0  0  0  0  0  0
  146.0445  136.9671  149.2074 H   0  0  0  0  0  0  0  0  0  0  0  0
  147.2425  135.9812  150.0555 H   0  0  0  0  0  0  0  0  0  0  0  0
  144.2633  135.4406  149.8311 H   0  0  0  0  0  0  0  0  0  0  0  0
  145.5780  134.3289  149.4250 H   0  0  0  0  0  0  0  0  0  0  0  0
  144.4101  134.2546  151.9055 H   0  0  0  0  0  0  0  0  0  0  0  0
  146.1545  134.0338  151.7423 H   0  0  0  0  0  0  0  0  0  0  0  0
  1  2  1  0  0  0  0
  1 29  1  0  0  0  0
  2  3  1  0  0  0  0
  2 24  1  0  0  0  0
  2 30  1  0  0  0  0
  3  4  1  0  0  0  0
  3 31  1  0  0  0  0
  3 32  1  0  0  0  0
  4 23  1  0  0  0  0
  4  5  1  0  0  0  0
  5  6  2  0  0  0  0
  5 33  1  0  0  0  0
  6  7  1  0  0  0  0
  7 23  2  0  0  0  0
  7  8  1  0  0  0  0
  8  9  1  0  0  0  0
  8 20  2  0  0  0  0
  9 14  1  0  0  0  0
  9 10  1  0  0  0  0
 10 11  1  0  0  0  0
 10 34  1  0  0  0  0
 10 35  1  0  0  0  0
 11 12  1  0  0  0  0
 11 36  1  0  0  0  0
 11 37  1  0  0  0  0
 12 13  1  0  0  0  0
 13 14  1  0  0  0  0
 13 38  1  0  0  0  0
 13 39  1  0  0  0  0
 14 15  1  0  0  0  0
 14 40  1  0  0  0  0
 15 16  1  0  0  0  0
 15 41  1  0  0  0  0
 15 42  1  0  0  0  0
 16 19  1  0  0  0  0
 16 17  1  0  0  0  0
 16 43  1  0  0  0  0
 17 18  1  0  0  0  0
 17 44  1  0  0  0  0
 17 45  1  0  0  0  0
 18 19  1  0  0  0  0
 18 46  1  0  0  0  0
 18 47  1  0  0  0  0
 19 48  1  0  0  0  0
 19 49  1  0  0  0  0
 20 21  1  0  0  0  0
 21 22  2  0  0  0  0
 21 50  1  0  0  0  0
 22 23  1  0  0  0  0
 24 28  1  0  0  0  0
 24 25  1  0  0  0  0
 24 51  1  0  0  0  0
 25 26  1  0  0  0  0
 25 52  1  0  0  0  0
 25 53  1  0  0  0  0
 26 27  1  0  0  0  0
 26 54  1  0  0  0  0
 26 55  1  0  0  0  0
 27 28  1  0  0  0  0
 27 56  1  0  0  0  0
 27 57  1  0  0  0  0
M  END
> <s_m_source_file>
AV-unprocessed.smi

> <i_m_source_file_index>
170

> <i_lp_mmshare_version>
43012

> <i_f3d_flags>
0

> <s_epik_input>
TzFbQ0gyXVtDSDJdW0NIMl1bQ0BIXTFbQ0BIXShbT0hdKVtDSDJdbihbY0hdbjIpYyhjMjMpbltjSF1uYzNONFtDSDJdW0NIMl1PW0NIMl1bQ0BIXTRbQ0gyXVtDSF01W0NIMl1bQ0gyXVtDSDJdNQ==

> <s_epik_cmdline>
J2VwaWtfcHl0aG9uJywgJy1waCcsICc3LjAnLCAnLXRuJywgJzgnLCAnLW1hJywgJzIwMCcsICctbWV0YWxfYmluZGluZycsICctaW1hZScsICc8aW5maWxlLm1hZT4nLCAnLW9tYWUnLCAnPG91dGZpbGUubWFlPic=

> <r_lp_tautomer_probability>
1

> <r_epik_Ionization_Penalty>
4.98275e-05

> <r_epik_Ionization_Penalty_Charging>
0

> <r_epik_Ionization_Penalty_Neutral>
4.98275e-05

> <r_epik_State_Penalty>
-0

> <r_epik_Charging_Adjusted_Penalty>
0

> <i_epik_Tot_Q>
0

> <i_epik_Tot_abs_Q>
0

> <r_epik_Metal_State_Penalty>
-0

> <b_epik_Metal_Only>
0

> <s_lp_Force_Field>
OPLS_2005

> <r_lp_Energy>
50.2735

> <b_lp_Chiralities_Consistent>
1

> <s_lp_Variant>
AV-unprocessed.smi:170-8

> <Gold.Version>
5.8.1

> <Gold.Id.Protein>
6NUR|6NUR_protein|mol2

> <Gold.PLP.Fitness>
48.7633

> <Gold.PLP.PLP>
-42.3548

> <Gold.PLP.part.hbond>
-3.8863

> <Gold.PLP.part.metal>
0.0000

> <Gold.PLP.part.buried>
-3.2844

> <Gold.PLP.part.nonpolar>
-36.4480

> <Gold.PLP.part.repulsive>
0.3230

> <Gold.PLP.ligand.clash>
0.0000

> <Gold.PLP.ligand.torsion>
0.9441

> <Gold.PLP.Chemscore.Hbond>
1.6978

> <Gold.PLP.Chemscore.CHOScore>
0.9789

> <Gold.PLP.Chemscore.Metal>
0.0000

> <Gold.Chemscore.Hbonds>
donor molecule, donor type, donor heavy atom, donor atom, acceptor molecule, acceptor atom, score
      L1  H     1    29       P1  7957  0.46
      P1  H  7997  8009       L1    12  0.86
      L1  C    21    50       P1  8028  1.00

> <Gold.PLP.Chemscore.Internal.Correction>
0.2665

> <Gold.Rescore>
     Score         DG    S(hbond)    S(metal)    S(lipo)     H(rot)  DE(clash)    DE(int)     intcor
     13.06     -17.34       1.41        0.00     118.30       2.61       1.57       2.71       ----

> <Gold.Chemscore.Fitness>
13.0631

> <Gold.Chemscore.DG>
-17.3442

> <Gold.Chemscore.ZeroCoef>
-5.4800

> <Gold.Chemscore.Hbond>
1.4119

> <Gold.Chemscore.Metal>
0.0000

> <Gold.Chemscore.Lipo>
118.3034

> <Gold.Chemscore.Internal_Hbond>
0.0000

> <Gold.Chemscore.DEClash>
1.5744

> <Gold.Chemscore.DEInternal>
2.7068

> <Gold.Chemscore.Rot>
2.6144

> <Gold.Chemscore.Internal.Correction>
   9.000000E+99

> <Gold.Chemscore.Hbonds>
donor molecule, donor type, donor heavy atom, donor atom, acceptor molecule, acceptor atom, score
      L1  H     1    29       P1  7957  0.03
      P1  H  7997  8009       L1    12  0.48

> <Gold.Chemscore.Hbond.Weighted>
-4.7156

> <Gold.Chemscore.Metal.Weighted>
-0.0000

> <Gold.Chemscore.Lipo.Weighted>
-13.8415

> <Gold.Chemscore.Internal_Hbond.Weighted>
0.0000

> <Gold.Chemscore.DEClash.Weighted>
1.5744

> <Gold.Chemscore.DEInternal.Weighted>
2.7068

> <Gold.Chemscore.Rot.Weighted>
6.6929

> <Gold.Chemscore.Internal.Correction.Weighted>
   9.000000E+99

> <Gold.Protein.RotatedTorsions>
[ 6907 6896 6895 6894 ] final  175.99 input  -60.11 | X-H torsion
[ 7974 7965 7964 7962 ] final -168.56 input  175.53 | X-H torsion
[ 8008 7997 7996 7995 ] final  153.08 input   59.86 | X-H torsion
[ 10167 10162 10161 10158 ] final  133.67 input  -65.29 | X-H torsion
[ 10718 10713 10712 10709 ] final   71.79 input   66.30 | X-H torsion
[ 10763 10752 10751 10750 ] final  -14.85 input  -60.55 | X-H torsion
[ 11005 11000 10999 10996 ] final  -69.78 input  -57.11 | X-H torsion

> <Gold.Protein.ActiveResidues>
 VAL166  LYS551  ARG553  GLY616  TRP617  ASP618  TYR619  PRO620  LYS621  CYS622 
 ASP623  PHE694  ASN695  SER759  ASP760  ASP761  ALA762  ILE779  LEU786  VAL792 
 PHE793  MET794  SER795  GLU796  ALA797  LYS798  CYS799  TRP800  GLU811  SER814 

> <Gold.Protein.RotatedAtoms>
  151.7273  133.3316  159.3330 H   0  0  0  0  0  0  0  0  0  0  0  0  # atno 6907 bound_to 6896
  150.7627  134.6395  159.6238 H   0  0  0  0  0  0  0  0  0  0  0  0  # atno 6908 bound_to 6896
  152.3614  134.6869  160.0257 H   0  0  0  0  0  0  0  0  0  0  0  0  # atno 6909 bound_to 6896
  144.7201  140.2351  143.6299 H   0  0  0  0  0  0  0  0  0  0  0  0  # atno 7974 bound_to 7965
  156.2599  140.2003  156.6434 H   0  0  0  0  0  0  0  0  0  0  0  0  # atno 8008 bound_to 7997
  154.6592  140.0563  157.0068 H   0  0  0  0  0  0  0  0  0  0  0  0  # atno 8009 bound_to 7997
  155.1302  140.3233  155.4479 H   0  0  0  0  0  0  0  0  0  0  0  0  # atno 8010 bound_to 7997
  139.5287  144.6605  151.5029 H   0  0  0  0  0  0  0  0  0  0  0  0  # atno 10167 bound_to 10162
  157.6469  130.9546  150.0839 H   0  0  0  0  0  0  0  0  0  0  0  0  # atno 10718 bound_to 10713
  153.5345  135.7014  153.5667 H   0  0  0  0  0  0  0  0  0  0  0  0  # atno 10763 bound_to 10752
  153.3659  135.3957  155.1753 H   0  0  0  0  0  0  0  0  0  0  0  0  # atno 10764 bound_to 10752
  154.8681  135.3800  154.4845 H   0  0  0  0  0  0  0  0  0  0  0  0  # atno 10765 bound_to 10752
  141.1561  133.6773  156.6652 H   0  0  0  0  0  0  0  0  0  0  0  0  # atno 11005 bound_to 11000
  145.8373  139.2113  143.1848 LP  0  0  0  0  0  0  0  0  0  0  0  0  # atno 17320 bound_to 7965
  146.0378  140.8195  142.9844 LP  0  0  0  0  0  0  0  0  0  0  0  0  # atno 17321 bound_to 7965
  140.6450  143.8812  150.6729 LP  0  0  0  0  0  0  0  0  0  0  0  0  # atno 17342 bound_to 10162
  140.2159  143.3847  152.1682 LP  0  0  0  0  0  0  0  0  0  0  0  0  # atno 17343 bound_to 10162
  156.1807  130.3650  149.9039 LP  0  0  0  0  0  0  0  0  0  0  0  0  # atno 17370 bound_to 10713
  156.6992  130.8926  151.3597 LP  0  0  0  0  0  0  0  0  0  0  0  0  # atno 17371 bound_to 10713
  140.3217  134.8002  157.4257 LP  0  0  0  0  0  0  0  0  0  0  0  0  # atno 17394 bound_to 11000
  140.1091  134.5369  155.8282 LP  0  0  0  0  0  0  0  0  0  0  0  0  # atno 17395 bound_to 11000

$$$$
