#       Name:                AV-unprocessed.smi:1880
#       Creating user name   scv26
#       Creation time:       Fri Mar 27 09:36:13 2020


#       File generated by GOLD software.
#

@<TRIPOS>MOLECULE
AV-unprocessed.smi:1880
    43    45     1
SMALL
NO_CHARGES


@<TRIPOS>ATOM
      1 ****        -0.3684  -0.2551  -0.9956 O.3            1 S1                 0.0000
      2 ****         0.1197   0.2580   0.2287 C.3            1 S1                 0.0000
      3 ****         1.6542   0.2952   0.1610 C.3            1 S1                 0.0000
      4 ****         2.1600  -1.0036   0.4215 O.3            1 S1                 0.0000
      5 ****         3.5757  -1.0556   0.3850 C.3            1 S1                 0.0000
      6 ****         3.9577  -2.4672   0.6745 C.2            1 S1                 0.0000
      7 ****         4.3250  -3.1278   1.8142 C.2            1 S1                 0.0000
      8 ****         4.5651  -4.4776   1.4356 C.2            1 S1                 0.0000
      9 ****         4.3260  -4.5397   0.0922 C.2            1 S1                 0.0000
     10 ****         3.9541  -3.3215  -0.3876 O.3            1 S1                 0.0000
     11 ****        -0.4794   1.6586   0.4619 C.3            1 S1                 0.0000
     12 ****        -1.9295   1.6384   0.5415 N.pl3          1 S1                 0.0000
     13 ****        -2.6758   1.3353   1.6208 C.2            1 S1                 0.0000
     14 ****        -3.9975   1.3778   1.4797 N.2            1 S1                 0.0000
     15 ****        -4.1249   1.7515   0.1528 C.ar           1 S1                 0.0000
     16 ****        -5.2801   1.9742  -0.6301 C.ar           1 S1                 0.0000
     17 ****        -5.1643   2.3537  -1.9837 C.ar           1 S1                 0.0000
     18 ****        -6.2815   2.5633  -2.7197 F              1 S1                 0.0000
     19 ****        -3.8932   2.5160  -2.5739 C.ar           1 S1                 0.0000
     20 ****        -3.7911   2.8801  -3.8741 F              1 S1                 0.0000
     21 ****        -2.7280   2.3005  -1.8133 C.ar           1 S1                 0.0000
     22 ****        -2.8484   1.9225  -0.4632 C.ar           1 S1                 0.0000
     23 ****        -0.0105  -1.1213  -1.1191 H              1 S1                 0.0000
     24 ****        -0.1945  -0.4012   1.0393 H              1 S1                 0.0000
     25 ****         1.9985   0.6724  -0.8038 H              1 S1                 0.0000
     26 ****         2.0386   0.9706   0.9271 H              1 S1                 0.0000
     27 ****         3.9477  -0.7533  -0.5951 H              1 S1                 0.0000
     28 ****         4.0062  -0.3865   1.1313 H              1 S1                 0.0000
     29 ****         4.4090  -2.6929   2.7990 H              1 S1                 0.0000
     30 ****         4.8729  -5.2988   2.0660 H              1 S1                 0.0000
     31 ****         4.3697  -5.3310  -0.6415 H              1 S1                 0.0000
     32 ****        -0.0967   2.0812   1.3918 H              1 S1                 0.0000
     33 ****        -0.1808   2.3414  -0.3347 H              1 S1                 0.0000
     34 ****        -2.2220   1.0675   2.5639 H              1 S1                 0.0000
     35 ****        -6.2582   1.8525  -0.1890 H              1 S1                 0.0000
     36 ****        -1.7537   2.4214  -2.2628 H              1 S1                 0.0000
     37 ****        -0.0838   0.3386  -1.7483 LP             1 S1                 0.0000
     38 ****        -1.3669  -0.3028  -0.9679 LP             1 S1                 0.0000
     39 ****         1.7987  -1.6319  -0.2675 LP             1 S1                 0.0000
     40 ****         1.8524  -1.2909   1.3286 LP             1 S1                 0.0000
     41 ****         4.6032  -3.0113  -1.0822 LP             1 S1                 0.0000
     42 ****         3.0384  -3.3725  -0.7863 LP             1 S1                 0.0000
     43 ****        -4.7113   1.1895   2.1543 LP             1 S1                 0.0000
@<TRIPOS>BOND
    1    1    2 1     
    2    1   23 1     
    3    2    3 1     
    4    2   11 1     
    5    2   24 1     
    6    3    4 1     
    7    3   25 1     
    8    3   26 1     
    9    4    5 1     
   10    5    6 1     
   11    5   27 1     
   12    5   28 1     
   13    6   10 1     
   14    6    7 2     
   15    7    8 1     
   16    7   29 1     
   17    8    9 2     
   18    8   30 1     
   19    9   10 1     
   20    9   31 1     
   21   11   12 1     
   22   11   32 1     
   23   11   33 1     
   24   12   22 1     
   25   12   13 1     
   26   13   14 2     
   27   13   34 1     
   28   14   15 1     
   29   15   22 ar    
   30   15   16 ar    
   31   16   17 ar    
   32   16   35 1     
   33   17   18 1     
   34   17   19 ar    
   35   19   20 1     
   36   19   21 ar    
   37   21   22 ar    
   38   21   36 1     
   39    1   37 1     
   40    1   38 1     
   41    4   39 1     
   42    4   40 1     
   43   10   41 1     
   44   10   42 1     
   45   14   43 1     
@<TRIPOS>SUBSTRUCTURE
      1 S1             1
@<TRIPOS>SET
LONE_PAIRS      STATIC     ATOMS    <user>   **** ""
7 37 38 39 40 41 42 43
DONOR_HYDROGENS      STATIC     ATOMS    <user>   **** ""
1 23
ATOM$BLUE        STATIC     ATOMS    COLORGROUP SYSTEM
7 37 38 39 40 41 42 43
ATOM$RED        STATIC     ATOMS    COLORGROUP SYSTEM
1 23
