AV-unprocessed.smi:65|AV-procd|sdf|614|dock5
  -GOLD-   2262016503D 1   1.00000     0.00000
 Structure written by MMmdl.
 25 26  0  0  0  0  0  0  0  0  1 V2000
  142.7318  132.5998  148.0992 N   0  0  0  0  0  0  0  0  0  0  0  0
  143.8705  132.6961  148.8610 C   0  0  0  0  0  0  0  0  0  0  0  0
  144.9079  131.9471  148.4821 N   0  0  0  0  0  0  0  0  0  0  0  0
  146.0270  132.0383  149.2329 C   0  0  0  0  0  0  0  0  0  0  0  0
  146.0988  132.8818  150.3602 C   0  0  0  0  0  0  0  0  0  0  0  0
  144.9427  133.6331  150.6599 C   0  0  0  0  0  0  0  0  0  0  0  0
  144.9375  134.4773  151.7809 N   0  0  0  0  0  0  0  0  0  0  0  0
  143.6087  134.6958  152.3464 C   0  0  0  0  0  0  0  0  0  0  0  0
  143.4081  136.2116  152.4175 C   0  0  0  0  0  0  0  0  0  0  0  0
  144.8361  136.7311  152.5324 C   0  0  2  0  0  0  0  0  0  0  0  0
  144.9600  138.0744  152.1166 O   0  0  0  0  0  0  0  0  0  0  0  0
  145.6038  135.7683  151.6289 C   0  0  0  0  0  0  0  0  0  0  0  0
  143.8228  133.5280  149.9035 N   0  0  0  0  0  0  0  0  0  0  0  0
  141.9123  133.1402  148.3348 H   0  0  0  0  0  0  0  0  0  0  0  0
  142.7026  131.9839  147.2998 H   0  0  0  0  0  0  0  0  0  0  0  0
  146.8700  131.4333  148.9342 H   0  0  0  0  0  0  0  0  0  0  0  0
  146.9945  132.9481  150.9603 H   0  0  0  0  0  0  0  0  0  0  0  0
  142.8156  134.2175  151.7692 H   0  0  0  0  0  0  0  0  0  0  0  0
  143.5914  134.2649  153.3479 H   0  0  0  0  0  0  0  0  0  0  0  0
  142.9536  136.5615  151.4890 H   0  0  0  0  0  0  0  0  0  0  0  0
  142.7691  136.5200  153.2454 H   0  0  0  0  0  0  0  0  0  0  0  0
  145.1834  136.6323  153.5621 H   0  0  0  0  0  0  0  0  0  0  0  0
  144.6692  138.1395  151.2198 H   0  0  0  0  0  0  0  0  0  0  0  0
  146.6523  135.7008  151.9198 H   0  0  0  0  0  0  0  0  0  0  0  0
  145.5696  136.1147  150.5952 H   0  0  0  0  0  0  0  0  0  0  0  0
  1  2  1  0  0  0  0
  1 14  1  0  0  0  0
  1 15  1  0  0  0  0
  2 13  1  0  0  0  0
  2  3  2  0  0  0  0
  3  4  1  0  0  0  0
  4  5  2  0  0  0  0
  4 16  1  0  0  0  0
  5  6  1  0  0  0  0
  5 17  1  0  0  0  0
  6  7  1  0  0  0  0
  6 13  2  0  0  0  0
  7 12  1  0  0  0  0
  7  8  1  0  0  0  0
  8  9  1  0  0  0  0
  8 18  1  0  0  0  0
  8 19  1  0  0  0  0
  9 10  1  0  0  0  0
  9 20  1  0  0  0  0
  9 21  1  0  0  0  0
 10 11  1  0  0  0  0
 10 12  1  0  0  0  0
 10 22  1  0  0  0  0
 11 23  1  0  0  0  0
 12 24  1  0  0  0  0
 12 25  1  0  0  0  0
M  END
> <s_m_source_file>
AV-unprocessed.smi

> <i_m_source_file_index>
65

> <i_lp_mmshare_version>
43012

> <i_f3d_flags>
0

> <s_epik_input>
W05IMl1jMW5bY0hdW2NIXWMobjEpTjJbQ0gyXVtDSDJdW0NAQEhdKFtPSF0pW0NIMl0y

> <s_epik_cmdline>
J2VwaWtfcHl0aG9uJywgJy1waCcsICc3LjAnLCAnLXRuJywgJzgnLCAnLW1hJywgJzIwMCcsICctbWV0YWxfYmluZGluZycsICctaW1hZScsICc8aW5maWxlLm1hZT4nLCAnLW9tYWUnLCAnPG91dGZpbGUubWFlPic=

> <r_lp_tautomer_probability>
1

> <r_epik_Ionization_Penalty>
0.99295

> <r_epik_Ionization_Penalty_Charging>
0

> <r_epik_Ionization_Penalty_Neutral>
0.99295

> <r_epik_State_Penalty>
0.750885

> <r_epik_Charging_Adjusted_Penalty>
0.750885

> <i_epik_Tot_Q>
0

> <i_epik_Tot_abs_Q>
0

> <r_epik_Metal_State_Penalty>
0.338511

> <b_epik_Metal_Only>
0

> <s_lp_Force_Field>
OPLS_2005

> <r_lp_Energy>
21.5088

> <b_lp_Chiralities_Consistent>
1

> <s_lp_Variant>
AV-unprocessed.smi:65-4

> <Gold.Version>
5.8.1

> <Gold.Id.Protein>
6NUR|6NUR_protein|mol2

> <Gold.PLP.Fitness>
35.1744

> <Gold.PLP.PLP>
-27.1807

> <Gold.PLP.part.hbond>
-6.1323

> <Gold.PLP.part.metal>
0.0000

> <Gold.PLP.part.buried>
-5.5780

> <Gold.PLP.part.nonpolar>
-17.5544

> <Gold.PLP.part.repulsive>
1.7907

> <Gold.PLP.ligand.clash>
0.0000

> <Gold.PLP.ligand.torsion>
0.6134

> <Gold.PLP.Chemscore.Hbond>
2.0520

> <Gold.PLP.Chemscore.CHOScore>
0.9995

> <Gold.PLP.Chemscore.Metal>
0.0000

> <Gold.Chemscore.Hbonds>
donor molecule, donor type, donor heavy atom, donor atom, acceptor molecule, acceptor atom, score
      L1  H     1    14       P1 10186  1.00
      L1  H     1    15       P1 10195  0.04
      L1  H    11    23       P1 10171  1.00
      L1  C     4    16       P1 10747  1.00

> <Gold.PLP.Chemscore.Internal.Correction>
0.0659

> <Gold.Rescore>
     Score         DG    S(hbond)    S(metal)    S(lipo)     H(rot)  DE(clash)    DE(int)     intcor
     12.91     -13.76       2.28        0.00      39.58       1.55       0.13       0.72       ----

> <Gold.Chemscore.Fitness>
12.9141

> <Gold.Chemscore.DG>
-13.7595

> <Gold.Chemscore.ZeroCoef>
-5.4800

> <Gold.Chemscore.Hbond>
2.2802

> <Gold.Chemscore.Metal>
0.0000

> <Gold.Chemscore.Lipo>
39.5791

> <Gold.Chemscore.Internal_Hbond>
0.0000

> <Gold.Chemscore.DEClash>
0.1296

> <Gold.Chemscore.DEInternal>
0.7157

> <Gold.Chemscore.Rot>
1.5496

> <Gold.Chemscore.Internal.Correction>
   9.000000E+99

> <Gold.Chemscore.Hbonds>
donor molecule, donor type, donor heavy atom, donor atom, acceptor molecule, acceptor atom, score
      L1  H     1    14       P1 10186  0.94
      L1  H     1    15       P1 10195  0.05
      L1  H    11    23       P1 10171  1.00

> <Gold.Chemscore.Hbond.Weighted>
-7.6157

> <Gold.Chemscore.Metal.Weighted>
-0.0000

> <Gold.Chemscore.Lipo.Weighted>
-4.6308

> <Gold.Chemscore.Internal_Hbond.Weighted>
0.0000

> <Gold.Chemscore.DEClash.Weighted>
0.1296

> <Gold.Chemscore.DEInternal.Weighted>
0.7157

> <Gold.Chemscore.Rot.Weighted>
3.9670

> <Gold.Chemscore.Internal.Correction.Weighted>
   9.000000E+99

> <Gold.Protein.RotatedTorsions>
[ 6907 6896 6895 6894 ] final  113.31 input  -60.11 | X-H torsion
[ 7974 7965 7964 7962 ] final  -20.31 input  175.53 | X-H torsion
[ 8008 7997 7996 7995 ] final  -45.81 input   59.86 | X-H torsion
[ 10167 10162 10161 10158 ] final -125.71 input  -65.29 | X-H torsion
[ 10718 10713 10712 10709 ] final    5.65 input   66.30 | X-H torsion
[ 10763 10752 10751 10750 ] final   65.32 input  -60.55 | X-H torsion
[ 11005 11000 10999 10996 ] final -105.96 input  -57.11 | X-H torsion

> <Gold.Protein.ActiveResidues>
 VAL166  LYS551  ARG553  GLY616  TRP617  ASP618  TYR619  PRO620  LYS621  CYS622 
 ASP623  PHE694  ASN695  SER759  ASP760  ASP761  ALA762  ILE779  LEU786  VAL792 
 PHE793  MET794  SER795  GLU796  ALA797  LYS798  CYS799  TRP800  GLU811  SER814 

> <Gold.Protein.RotatedAtoms>
  152.4868  133.8393  159.7143 H   0  0  0  0  0  0  0  0  0  0  0  0  # atno 6907 bound_to 6896
  150.8961  133.7170  159.2898 H   0  0  0  0  0  0  0  0  0  0  0  0  # atno 6908 bound_to 6896
  151.4627  135.1043  159.9781 H   0  0  0  0  0  0  0  0  0  0  0  0  # atno 6909 bound_to 6896
  146.1795  140.4184  142.8500 H   0  0  0  0  0  0  0  0  0  0  0  0  # atno 7974 bound_to 7965
  154.4003  140.1387  156.3908 H   0  0  0  0  0  0  0  0  0  0  0  0  # atno 8008 bound_to 7997
  155.7916  140.3478  155.5332 H   0  0  0  0  0  0  0  0  0  0  0  0  # atno 8009 bound_to 7997
  155.8573  140.0951  157.1626 H   0  0  0  0  0  0  0  0  0  0  0  0  # atno 8010 bound_to 7997
  139.9792  143.5760  152.2384 H   0  0  0  0  0  0  0  0  0  0  0  0  # atno 10167 bound_to 10162
  156.9105  130.5754  149.5647 H   0  0  0  0  0  0  0  0  0  0  0  0  # atno 10718 bound_to 10713
  153.0092  135.5361  154.6649 H   0  0  0  0  0  0  0  0  0  0  0  0  # atno 10763 bound_to 10752
  154.5848  135.2853  155.0698 H   0  0  0  0  0  0  0  0  0  0  0  0  # atno 10764 bound_to 10752
  154.1813  135.6516  153.5087 H   0  0  0  0  0  0  0  0  0  0  0  0  # atno 10765 bound_to 10752
  141.1028  133.8853  157.1798 H   0  0  0  0  0  0  0  0  0  0  0  0  # atno 11005 bound_to 11000
  144.8291  140.6677  143.6303 LP  0  0  0  0  0  0  0  0  0  0  0  0  # atno 17320 bound_to 7965
  145.4117  139.1579  143.4122 LP  0  0  0  0  0  0  0  0  0  0  0  0  # atno 17321 bound_to 7965
  139.6422  144.7655  151.2316 LP  0  0  0  0  0  0  0  0  0  0  0  0  # atno 17342 bound_to 10162
  140.7495  143.6298  150.8434 LP  0  0  0  0  0  0  0  0  0  0  0  0  # atno 17343 bound_to 10162
  156.0538  130.5603  150.9047 LP  0  0  0  0  0  0  0  0  0  0  0  0  # atno 17370 bound_to 10713
  157.5970  131.0942  150.9024 LP  0  0  0  0  0  0  0  0  0  0  0  0  # atno 17371 bound_to 10713
  139.9886  135.0073  156.9920 LP  0  0  0  0  0  0  0  0  0  0  0  0  # atno 17394 bound_to 11000
  140.4979  134.1126  155.7245 LP  0  0  0  0  0  0  0  0  0  0  0  0  # atno 17395 bound_to 11000

$$$$
