AV-unprocessed.smi:196|AV-procd|sdf|1534|dock6
  -GOLD-   2262019383D 1   1.00000     0.00000
 Structure written by MMmdl.
 47 50  0  0  0  0  0  0  0  0  1 V2000
  146.7256  129.9342  151.6335 C   0  0  0  0  0  0  0  0  0  0  0  0
  145.8119  131.0549  152.1581 C   0  0  2  0  0  0  0  0  0  0  0  0
  144.9306  131.4053  151.0895 O   0  0  0  0  0  0  0  0  0  0  0  0
  144.8896  132.8149  150.9262 C   0  0  0  0  0  0  0  0  0  0  0  0
  146.2724  133.2615  151.3717 C   0  0  0  0  0  0  0  0  0  0  0  0
  146.5247  132.3663  152.5802 C   0  0  2  0  0  0  0  0  0  0  0  0
  147.9240  132.2086  152.7442 O   0  0  0  0  0  0  0  0  0  0  0  0
  145.9374  132.9158  153.9078 C   0  0  0  0  0  0  0  0  0  0  0  0
  146.4545  134.2195  154.2943 N   0  0  0  0  0  0  0  0  0  0  0  0
  147.2900  134.4976  155.3527 C   0  0  0  0  0  0  0  0  0  0  0  0
  147.6140  135.7544  155.4904 N   0  0  0  0  0  0  0  0  0  0  0  0
  146.9432  136.3927  154.4552 C   0  0  0  0  0  0  0  0  0  0  0  0
  146.8486  137.7421  154.0208 C   0  0  0  0  0  0  0  0  0  0  0  0
  147.5279  138.7464  154.6283 N   0  0  0  0  0  0  0  0  0  0  0  0
  146.7287  139.7650  155.3059 C   0  0  0  0  0  0  0  0  0  0  0  0
  146.8458  141.0117  154.4390 C   0  0  1  0  0  0  0  0  0  0  0  0
  146.6071  142.1343  155.1164 F   0  0  0  0  0  0  0  0  0  0  0  0
  148.2831  140.9188  153.9465 C   0  0  0  0  0  0  0  0  0  0  0  0
  148.5137  139.4057  153.7548 C   0  0  1  0  0  0  0  0  0  0  0  0
  149.9735  139.0200  154.0541 C   0  0  0  0  0  0  0  0  0  0  0  0
  150.3755  137.7710  153.7988 N   0  0  0  0  0  0  0  0  0  0  0  0
  150.7417  139.8611  154.5153 O   0  0  0  0  0  0  0  0  0  0  0  0
  146.0738  138.0029  152.9339 N   0  0  0  0  0  0  0  0  0  0  0  0
  145.4247  137.0099  152.3187 C   0  0  0  0  0  0  0  0  0  0  0  0
  145.4189  135.7082  152.6135 N   0  0  0  0  0  0  0  0  0  0  0  0
  146.2013  135.4429  153.6989 C   0  0  0  0  0  0  0  0  0  0  0  0
  146.1483  140.9680  153.6011 H   0  0  0  0  0  0  0  0  0  0  0  0
  148.3123  139.1574  152.7098 H   0  0  0  0  0  0  0  0  0  0  0  0
  147.4049  129.5803  152.4094 H   0  0  0  0  0  0  0  0  0  0  0  0
  147.3247  130.2728  150.7876 H   0  0  0  0  0  0  0  0  0  0  0  0
  146.1370  129.0796  151.2997 H   0  0  0  0  0  0  0  0  0  0  0  0
  145.2171  130.6603  152.9831 H   0  0  0  0  0  0  0  0  0  0  0  0
  144.6677  133.0928  149.8957 H   0  0  0  0  0  0  0  0  0  0  0  0
  144.1158  133.2361  151.5692 H   0  0  0  0  0  0  0  0  0  0  0  0
  146.9862  133.0371  150.5771 H   0  0  0  0  0  0  0  0  0  0  0  0
  146.3358  134.3302  151.5718 H   0  0  0  0  0  0  0  0  0  0  0  0
  148.2393  131.6225  152.0738 H   0  0  0  0  0  0  0  0  0  0  0  0
  144.8514  132.9901  153.8406 H   0  0  0  0  0  0  0  0  0  0  0  0
  146.1374  132.2175  154.7218 H   0  0  0  0  0  0  0  0  0  0  0  0
  147.6570  133.7329  156.0221 H   0  0  0  0  0  0  0  0  0  0  0  0
  145.6893  139.4799  155.4773 H   0  0  0  0  0  0  0  0  0  0  0  0
  147.1757  139.9408  156.2852 H   0  0  0  0  0  0  0  0  0  0  0  0
  148.4443  141.4872  153.0299 H   0  0  0  0  0  0  0  0  0  0  0  0
  148.9531  141.3232  154.7081 H   0  0  0  0  0  0  0  0  0  0  0  0
  151.3280  137.4994  153.9960 H   0  0  0  0  0  0  0  0  0  0  0  0
  149.7233  137.1020  153.4164 H   0  0  0  0  0  0  0  0  0  0  0  0
  144.8274  137.2994  151.4667 H   0  0  0  0  0  0  0  0  0  0  0  0
  1  2  1  0  0  0  0
  1 29  1  0  0  0  0
  1 30  1  0  0  0  0
  1 31  1  0  0  0  0
  2  6  1  0  0  0  0
  2  3  1  0  0  0  0
  2 32  1  0  0  0  0
  3  4  1  0  0  0  0
  4  5  1  0  0  0  0
  4 33  1  0  0  0  0
  4 34  1  0  0  0  0
  5  6  1  0  0  0  0
  5 35  1  0  0  0  0
  5 36  1  0  0  0  0
  6  7  1  0  0  0  0
  6  8  1  0  0  0  0
  7 37  1  0  0  0  0
  8  9  1  0  0  0  0
  8 38  1  0  0  0  0
  8 39  1  0  0  0  0
  9 26  1  0  0  0  0
  9 10  1  0  0  0  0
 10 11  2  0  0  0  0
 10 40  1  0  0  0  0
 11 12  1  0  0  0  0
 12 26  2  0  0  0  0
 12 13  1  0  0  0  0
 13 14  1  0  0  0  0
 13 23  2  0  0  0  0
 14 19  1  0  0  0  0
 14 15  1  0  0  0  0
 15 16  1  0  0  0  0
 15 41  1  0  0  0  0
 15 42  1  0  0  0  0
 16 27  1  0  0  0  0
 16 17  1  0  0  0  0
 16 18  1  0  0  0  0
 18 19  1  0  0  0  0
 18 43  1  0  0  0  0
 18 44  1  0  0  0  0
 19 28  1  0  0  0  0
 19 20  1  0  0  0  0
 20 21  1  0  0  0  0
 20 22  2  0  0  0  0
 21 45  1  0  0  0  0
 21 46  1  0  0  0  0
 23 24  1  0  0  0  0
 24 25  2  0  0  0  0
 24 47  1  0  0  0  0
 25 26  1  0  0  0  0
M  END
> <s_m_source_file>
AV-unprocessed.smi

> <i_m_source_file_index>
196

> <i_lp_mmshare_version>
43012

> <i_f3d_flags>
0

> <s_epik_input>
W0NIMl0xW0NIMl1PW0NAQEhdKFtDSDNdKVtDQEBdMShbT0hdKVtDSDJdbihbY0hdbjIpYyhjMjMpbltjSF1uYzNONFtDSDJdW0NASF0oRilbQ0gyXVtDQEhdNEMoPU8pW05IMl0=

> <s_epik_cmdline>
J2VwaWtfcHl0aG9uJywgJy1waCcsICc3LjAnLCAnLXRuJywgJzgnLCAnLW1hJywgJzIwMCcsICctbWV0YWxfYmluZGluZycsICctaW1hZScsICc8aW5maWxlLm1hZT4nLCAnLW9tYWUnLCAnPG91dGZpbGUubWFlPic=

> <r_lp_tautomer_probability>
1

> <r_epik_Ionization_Penalty>
0.000857933

> <r_epik_Ionization_Penalty_Charging>
0

> <r_epik_Ionization_Penalty_Neutral>
0.000857933

> <r_epik_State_Penalty>
0.000462053

> <r_epik_Charging_Adjusted_Penalty>
0.000462053

> <i_epik_Tot_Q>
0

> <i_epik_Tot_abs_Q>
0

> <r_epik_Metal_State_Penalty>
-0

> <b_epik_Metal_Only>
0

> <s_lp_Force_Field>
OPLS_2005

> <r_lp_Energy>
47.3735

> <b_lp_Chiralities_Consistent>
1

> <s_lp_Variant>
AV-unprocessed.smi:196-7

> <Gold.Version>
5.8.1

> <Gold.Id.Protein>
6NUR|6NUR_protein|mol2

> <Gold.PLP.Fitness>
41.0117

> <Gold.PLP.PLP>
-29.4401

> <Gold.PLP.part.hbond>
-4.0000

> <Gold.PLP.part.metal>
0.0000

> <Gold.PLP.part.buried>
-0.7762

> <Gold.PLP.part.nonpolar>
-25.1708

> <Gold.PLP.part.repulsive>
0.8102

> <Gold.PLP.ligand.clash>
0.0000

> <Gold.PLP.ligand.torsion>
0.2594

> <Gold.PLP.Chemscore.Hbond>
2.9920

> <Gold.PLP.Chemscore.CHOScore>
1.0000

> <Gold.PLP.Chemscore.Metal>
0.0000

> <Gold.Chemscore.Hbonds>
donor molecule, donor type, donor heavy atom, donor atom, acceptor molecule, acceptor atom, score
      L1  H     7    37       P1 10747  0.88
      L1  H    21    46       P1  7948  0.94
      P1  H  7989  7998       L1    22  1.00
      L1  C    24    47       P1 10171  1.00

> <Gold.PLP.Chemscore.Internal.Correction>
0.1143

> <Gold.Rescore>
     Score         DG    S(hbond)    S(metal)    S(lipo)     H(rot)  DE(clash)    DE(int)     intcor
     11.06     -13.93       2.72        0.00      61.12       3.04       1.50       1.36       ----

> <Gold.Chemscore.Fitness>
11.0577

> <Gold.Chemscore.DG>
-13.9253

> <Gold.Chemscore.ZeroCoef>
-5.4800

> <Gold.Chemscore.Hbond>
2.7186

> <Gold.Chemscore.Metal>
0.0000

> <Gold.Chemscore.Lipo>
61.1177

> <Gold.Chemscore.Internal_Hbond>
0.0000

> <Gold.Chemscore.DEClash>
1.5033

> <Gold.Chemscore.DEInternal>
1.3643

> <Gold.Chemscore.Rot>
3.0413

> <Gold.Chemscore.Internal.Correction>
   9.000000E+99

> <Gold.Chemscore.Hbonds>
donor molecule, donor type, donor heavy atom, donor atom, acceptor molecule, acceptor atom, score
      L1  H     7    37       P1 10747  0.85
      L1  H    21    46       P1  7948  0.55
      P1  H  7989  7998       L1    22  0.98

> <Gold.Chemscore.Hbond.Weighted>
-9.0801

> <Gold.Chemscore.Metal.Weighted>
-0.0000

> <Gold.Chemscore.Lipo.Weighted>
-7.1508

> <Gold.Chemscore.Internal_Hbond.Weighted>
0.0000

> <Gold.Chemscore.DEClash.Weighted>
1.5033

> <Gold.Chemscore.DEInternal.Weighted>
1.3643

> <Gold.Chemscore.Rot.Weighted>
7.7856

> <Gold.Chemscore.Internal.Correction.Weighted>
   9.000000E+99

> <Gold.Protein.RotatedTorsions>
[ 6907 6896 6895 6894 ] final   -1.22 input  -60.11 | X-H torsion
[ 7974 7965 7964 7962 ] final  -66.15 input  175.53 | X-H torsion
[ 8008 7997 7996 7995 ] final -103.99 input   59.86 | X-H torsion
[ 10167 10162 10161 10158 ] final  139.81 input  -65.29 | X-H torsion
[ 10718 10713 10712 10709 ] final  152.86 input   66.30 | X-H torsion
[ 10763 10752 10751 10750 ] final  157.29 input  -60.55 | X-H torsion
[ 11005 11000 10999 10996 ] final  109.31 input  -57.11 | X-H torsion

> <Gold.Protein.ActiveResidues>
 VAL166  LYS551  ARG553  GLY616  TRP617  ASP618  TYR619  PRO620  LYS621  CYS622 
 ASP623  PHE694  ASN695  SER759  ASP760  ASP761  ALA762  ILE779  LEU786  VAL792 
 PHE793  MET794  SER795  GLU796  ALA797  LYS798  CYS799  TRP800  GLU811  SER814 

> <Gold.Protein.RotatedAtoms>
  151.5497  135.1067  159.9946 H   0  0  0  0  0  0  0  0  0  0  0  0  # atno 6907 bound_to 6896
  152.4497  133.7601  159.6752 H   0  0  0  0  0  0  0  0  0  0  0  0  # atno 6908 bound_to 6896
  150.8422  133.7851  159.3080 H   0  0  0  0  0  0  0  0  0  0  0  0  # atno 6909 bound_to 6896
  145.7453  140.8934  143.0508 H   0  0  0  0  0  0  0  0  0  0  0  0  # atno 7974 bound_to 7965
  154.8789  140.0420  157.1770 H   0  0  0  0  0  0  0  0  0  0  0  0  # atno 8008 bound_to 7997
  154.8660  140.2951  155.5489 H   0  0  0  0  0  0  0  0  0  0  0  0  # atno 8009 bound_to 7997
  156.2999  140.2438  156.3642 H   0  0  0  0  0  0  0  0  0  0  0  0  # atno 8010 bound_to 7997
  139.5067  144.6272  151.5907 H   0  0  0  0  0  0  0  0  0  0  0  0  # atno 10167 bound_to 10162
  157.2523  131.0781  151.1721 H   0  0  0  0  0  0  0  0  0  0  0  0  # atno 10718 bound_to 10713
  154.1980  135.2791  155.3000 H   0  0  0  0  0  0  0  0  0  0  0  0  # atno 10763 bound_to 10752
  154.5877  135.5569  153.7251 H   0  0  0  0  0  0  0  0  0  0  0  0  # atno 10764 bound_to 10752
  153.0095  135.6360  154.2118 H   0  0  0  0  0  0  0  0  0  0  0  0  # atno 10765 bound_to 10752
  139.8859  134.9454  156.6106 H   0  0  0  0  0  0  0  0  0  0  0  0  # atno 11005 bound_to 11000
  144.6861  139.9517  143.7478 LP  0  0  0  0  0  0  0  0  0  0  0  0  # atno 17320 bound_to 7965
  146.0409  139.3420  143.0698 LP  0  0  0  0  0  0  0  0  0  0  0  0  # atno 17321 bound_to 7965
  140.5993  143.9639  150.6375 LP  0  0  0  0  0  0  0  0  0  0  0  0  # atno 17342 bound_to 10162
  140.2845  143.3366  152.1120 LP  0  0  0  0  0  0  0  0  0  0  0  0  # atno 17343 bound_to 10162
  157.3264  130.6963  149.6299 LP  0  0  0  0  0  0  0  0  0  0  0  0  # atno 17370 bound_to 10713
  155.9666  130.4320  150.4945 LP  0  0  0  0  0  0  0  0  0  0  0  0  # atno 17371 bound_to 10713
  140.7814  133.8656  155.8571 LP  0  0  0  0  0  0  0  0  0  0  0  0  # atno 17394 bound_to 11000
  140.9757  134.1473  157.4538 LP  0  0  0  0  0  0  0  0  0  0  0  0  # atno 17395 bound_to 11000

$$$$
