AV-unprocessed.smi:3340|AV-procd|sdf|12882|dock3
  -GOLD-   2272019283D 1   1.00000     0.00000
 Structure written by MMmdl.
 41 42  0  0  0  0  0  0  0  0  1 V2000
  151.5327  141.9987  158.3168 C   0  0  0  0  0  0  0  0  0  0  0  0
  152.7309  141.2374  158.8883 C   0  0  0  0  0  0  0  0  0  0  0  0
  153.0670  140.1909  158.3332 O   0  0  0  0  0  0  0  0  0  0  0  0
  153.3761  141.7315  159.9726 N   0  0  0  0  0  0  0  0  0  0  0  0
  154.5049  141.0377  160.6117 C   0  0  0  0  0  0  0  0  0  0  0  0
  154.1077  140.6498  162.0501 C   0  0  0  0  0  0  0  0  0  0  0  0
  153.7395  141.8727  162.7894 N   0  0  0  0  0  0  0  0  0  0  0  0
  154.4157  142.4232  163.8296 C   0  0  0  0  0  0  0  0  0  0  0  0
  154.1624  143.5416  164.2781 O   0  0  0  0  0  0  0  0  0  0  0  0
  155.3760  141.6378  164.3519 N   0  0  0  0  0  0  0  0  0  0  0  0
  156.2541  141.9280  165.4893 C   0  0  1  0  0  0  0  0  0  0  0  0
  157.3965  142.8795  165.0932 C   0  0  0  0  0  0  0  0  0  0  0  0
  155.4803  142.4245  166.7315 C   0  0  0  0  0  0  0  0  0  0  0  0
  156.3213  143.1774  167.6437 N   0  0  0  0  0  0  0  0  0  0  0  0
  156.1333  144.4855  168.0708 C   0  0  0  0  0  0  0  0  0  0  0  0
  157.1720  144.7724  168.9272 C   0  0  0  0  0  0  0  0  0  0  0  0
  158.0072  143.6630  169.0394 N   0  0  0  0  0  0  0  0  0  0  0  0
  157.4413  142.7598  168.2493 C   0  0  0  0  0  0  0  0  0  0  0  0
  152.6005  142.5503  162.1511 C   0  0  0  0  0  0  0  0  0  0  0  0
  152.9945  142.9447  160.7135 C   0  0  0  0  0  0  0  0  0  0  0  0
  150.7389  142.0846  159.0594 H   0  0  0  0  0  0  0  0  0  0  0  0
  151.1225  141.4766  157.4518 H   0  0  0  0  0  0  0  0  0  0  0  0
  151.8276  142.9973  157.9930 H   0  0  0  0  0  0  0  0  0  0  0  0
  154.8154  140.1446  160.0680 H   0  0  0  0  0  0  0  0  0  0  0  0
  155.3730  141.6984  160.6241 H   0  0  0  0  0  0  0  0  0  0  0  0
  153.2509  139.9746  162.0316 H   0  0  0  0  0  0  0  0  0  0  0  0
  154.9163  140.0787  162.5055 H   0  0  0  0  0  0  0  0  0  0  0  0
  155.5043  140.7345  163.9198 H   0  0  0  0  0  0  0  0  0  0  0  0
  156.7152  140.9743  165.7490 H   0  0  0  0  0  0  0  0  0  0  0  0
  158.1165  142.9811  165.9055 H   0  0  0  0  0  0  0  0  0  0  0  0
  157.0302  143.8782  164.8557 H   0  0  0  0  0  0  0  0  0  0  0  0
  157.9363  142.5055  164.2226 H   0  0  0  0  0  0  0  0  0  0  0  0
  154.6586  143.0717  166.4226 H   0  0  0  0  0  0  0  0  0  0  0  0
  155.0260  141.5957  167.2755 H   0  0  0  0  0  0  0  0  0  0  0  0
  155.2970  145.0849  167.7417 H   0  0  0  0  0  0  0  0  0  0  0  0
  157.3805  145.6843  169.4673 H   0  0  0  0  0  0  0  0  0  0  0  0
  157.8483  141.7689  168.1113 H   0  0  0  0  0  0  0  0  0  0  0  0
  151.7418  141.8774  162.1377 H   0  0  0  0  0  0  0  0  0  0  0  0
  152.2743  143.4366  162.6966 H   0  0  0  0  0  0  0  0  0  0  0  0
  153.8421  143.6316  160.7318 H   0  0  0  0  0  0  0  0  0  0  0  0
  152.1772  143.4993  160.2555 H   0  0  0  0  0  0  0  0  0  0  0  0
  1  2  1  0  0  0  0
  1 21  1  0  0  0  0
  1 22  1  0  0  0  0
  1 23  1  0  0  0  0
  2  3  2  0  0  0  0
  2  4  1  0  0  0  0
  4 20  1  0  0  0  0
  4  5  1  0  0  0  0
  5  6  1  0  0  0  0
  5 24  1  0  0  0  0
  5 25  1  0  0  0  0
  6  7  1  0  0  0  0
  6 26  1  0  0  0  0
  6 27  1  0  0  0  0
  7  8  1  0  0  0  0
  7 19  1  0  0  0  0
  8  9  2  0  0  0  0
  8 10  1  0  0  0  0
 10 11  1  0  0  0  0
 10 28  1  0  0  0  0
 11 12  1  0  0  0  0
 11 13  1  0  0  0  0
 11 29  1  0  0  0  0
 12 30  1  0  0  0  0
 12 31  1  0  0  0  0
 12 32  1  0  0  0  0
 13 14  1  0  0  0  0
 13 33  1  0  0  0  0
 13 34  1  0  0  0  0
 14 18  1  0  0  0  0
 14 15  1  0  0  0  0
 15 16  2  0  0  0  0
 15 35  1  0  0  0  0
 16 17  1  0  0  0  0
 16 36  1  0  0  0  0
 17 18  2  0  0  0  0
 18 37  1  0  0  0  0
 19 20  1  0  0  0  0
 19 38  1  0  0  0  0
 19 39  1  0  0  0  0
 20 40  1  0  0  0  0
 20 41  1  0  0  0  0
M  END
> <s_m_source_file>
AV-unprocessed.smi

> <i_m_source_file_index>
3340

> <i_lp_mmshare_version>
43012

> <i_f3d_flags>
0

> <s_epik_input>
W0NIM11DKD1PKU4xW0NIMl1bQ0gyXU4oW0NIMl1bQ0gyXTEpQyg9TylbTkhdW0NASF0oW0NIM10pW0NIMl1uMltjSF1bY0hdbltjSF0y

> <s_epik_cmdline>
J2VwaWtfcHl0aG9uJywgJy1waCcsICc3LjAnLCAnLXRuJywgJzgnLCAnLW1hJywgJzIwMCcsICctbWV0YWxfYmluZGluZycsICctaW1hZScsICc8aW5maWxlLm1hZT4nLCAnLW9tYWUnLCAnPG91dGZpbGUubWFlPic=

> <r_lp_tautomer_probability>
1

> <r_epik_Ionization_Penalty>
0.622948

> <r_epik_Ionization_Penalty_Charging>
0.622904

> <r_epik_Ionization_Penalty_Neutral>
4.39259e-05

> <r_epik_State_Penalty>
0.639086

> <r_epik_Charging_Adjusted_Penalty>
1.26199

> <i_epik_Tot_Q>
0

> <i_epik_Tot_abs_Q>
0

> <r_epik_Metal_State_Penalty>
0.307185

> <b_epik_Metal_Only>
0

> <s_lp_Force_Field>
OPLS_2005

> <r_lp_Energy>
50.7734

> <b_lp_Chiralities_Consistent>
1

> <s_lp_Variant>
AV-unprocessed.smi:3340-4

> <Gold.Version>
5.8.1

> <Gold.Id.Protein>
6NUR|6NUR_protein|mol2

> <Gold.PLP.Fitness>
43.0109

> <Gold.PLP.PLP>
-41.4335

> <Gold.PLP.part.hbond>
-1.8761

> <Gold.PLP.part.metal>
0.0000

> <Gold.PLP.part.buried>
-1.8945

> <Gold.PLP.part.nonpolar>
-37.2129

> <Gold.PLP.part.repulsive>
0.2455

> <Gold.PLP.ligand.clash>
0.0000

> <Gold.PLP.ligand.torsion>
0.4961

> <Gold.PLP.Chemscore.Hbond>
0.8320

> <Gold.PLP.Chemscore.CHOScore>
0.0000

> <Gold.PLP.Chemscore.Metal>
0.0000

> <Gold.Chemscore.Hbonds>
donor molecule, donor type, donor heavy atom, donor atom, acceptor molecule, acceptor atom, score
      P1  H  7997  8008       L1     3  0.58

> <Gold.PLP.Chemscore.Internal.Correction>
0.0736

> <Gold.Rescore>
     Score         DG    S(hbond)    S(metal)    S(lipo)     H(rot)  DE(clash)    DE(int)     intcor
     13.26     -13.67       0.78        0.00      83.75       1.65       0.07       0.34       ----

> <Gold.Chemscore.Fitness>
13.2612

> <Gold.Chemscore.DG>
-13.6732

> <Gold.Chemscore.ZeroCoef>
-5.4800

> <Gold.Chemscore.Hbond>
0.7819

> <Gold.Chemscore.Metal>
0.0000

> <Gold.Chemscore.Lipo>
83.7453

> <Gold.Chemscore.Internal_Hbond>
0.0000

> <Gold.Chemscore.DEClash>
0.0707

> <Gold.Chemscore.DEInternal>
0.3413

> <Gold.Chemscore.Rot>
1.6471

> <Gold.Chemscore.Internal.Correction>
   9.000000E+99

> <Gold.Chemscore.Hbonds>
donor molecule, donor type, donor heavy atom, donor atom, acceptor molecule, acceptor atom, score
      P1  H  7997  8008       L1     3  0.57

> <Gold.Chemscore.Hbond.Weighted>
-2.6116

> <Gold.Chemscore.Metal.Weighted>
-0.0000

> <Gold.Chemscore.Lipo.Weighted>
-9.7982

> <Gold.Chemscore.Internal_Hbond.Weighted>
0.0000

> <Gold.Chemscore.DEClash.Weighted>
0.0707

> <Gold.Chemscore.DEInternal.Weighted>
0.3413

> <Gold.Chemscore.Rot.Weighted>
4.2166

> <Gold.Chemscore.Internal.Correction.Weighted>
   9.000000E+99

> <Gold.Protein.RotatedTorsions>
[ 6907 6896 6895 6894 ] final  151.03 input  -60.11 | X-H torsion
[ 7974 7965 7964 7962 ] final  160.45 input  175.53 | X-H torsion
[ 8008 7997 7996 7995 ] final -106.32 input   59.86 | X-H torsion
[ 10167 10162 10161 10158 ] final  150.32 input  -65.29 | X-H torsion
[ 10718 10713 10712 10709 ] final -168.39 input   66.30 | X-H torsion
[ 10763 10752 10751 10750 ] final  -89.43 input  -60.55 | X-H torsion
[ 11005 11000 10999 10996 ] final  -99.46 input  -57.11 | X-H torsion

> <Gold.Protein.ActiveResidues>
 VAL166  LYS551  ARG553  GLY616  TRP617  ASP618  TYR619  PRO620  LYS621  CYS622 
 ASP623  PHE694  ASN695  SER759  ASP760  ASP761  ALA762  ILE779  LEU786  VAL792 
 PHE793  MET794  SER795  GLU796  ALA797  LYS798  CYS799  TRP800  GLU811  SER814 

> <Gold.Protein.RotatedAtoms>
  152.1062  133.4276  159.4609 H   0  0  0  0  0  0  0  0  0  0  0  0  # atno 6907 bound_to 6896
  150.6865  134.2702  159.4594 H   0  0  0  0  0  0  0  0  0  0  0  0  # atno 6908 bound_to 6896
  152.0567  134.9619  160.0625 H   0  0  0  0  0  0  0  0  0  0  0  0  # atno 6909 bound_to 6896
  144.7736  139.7759  143.6287 H   0  0  0  0  0  0  0  0  0  0  0  0  # atno 7974 bound_to 7965
  154.9128  140.0409  157.1955 H   0  0  0  0  0  0  0  0  0  0  0  0  # atno 8008 bound_to 7997
  154.8331  140.2902  155.5688 H   0  0  0  0  0  0  0  0  0  0  0  0  # atno 8009 bound_to 7997
  156.2988  140.2497  156.3260 H   0  0  0  0  0  0  0  0  0  0  0  0  # atno 8010 bound_to 7997
  139.4851  144.5532  151.7364 H   0  0  0  0  0  0  0  0  0  0  0  0  # atno 10167 bound_to 10162
  156.6962  130.9178  151.3074 H   0  0  0  0  0  0  0  0  0  0  0  0  # atno 10718 bound_to 10713
  154.6552  135.5341  153.7949 H   0  0  0  0  0  0  0  0  0  0  0  0  # atno 10763 bound_to 10752
  153.0409  135.6492  154.0957 H   0  0  0  0  0  0  0  0  0  0  0  0  # atno 10764 bound_to 10752
  154.0870  135.2943  155.3259 H   0  0  0  0  0  0  0  0  0  0  0  0  # atno 10765 bound_to 10752
  141.1308  133.8323  157.0974 H   0  0  0  0  0  0  0  0  0  0  0  0  # atno 11005 bound_to 11000
  146.1900  139.5136  142.9811 LP  0  0  0  0  0  0  0  0  0  0  0  0  # atno 17320 bound_to 7965
  145.6251  141.0315  143.1894 LP  0  0  0  0  0  0  0  0  0  0  0  0  # atno 17321 bound_to 7965
  140.5089  144.1055  150.5990 LP  0  0  0  0  0  0  0  0  0  0  0  0  # atno 17342 bound_to 10162
  140.3974  143.2721  151.9988 LP  0  0  0  0  0  0  0  0  0  0  0  0  # atno 17343 bound_to 10162
  157.6990  130.9313  150.0730 LP  0  0  0  0  0  0  0  0  0  0  0  0  # atno 17370 bound_to 10713
  156.1762  130.3648  149.9098 LP  0  0  0  0  0  0  0  0  0  0  0  0  # atno 17371 bound_to 10713
  140.0354  134.9880  157.0861 LP  0  0  0  0  0  0  0  0  0  0  0  0  # atno 17394 bound_to 11000
  140.4218  134.1872  155.7165 LP  0  0  0  0  0  0  0  0  0  0  0  0  # atno 17395 bound_to 11000

$$$$
