AV-unprocessed.smi:2774|AV-procd|sdf|10687|dock6
  -GOLD-   2272015133D 1   1.00000     0.00000
 Structure written by MMmdl.
 34 35  0  0  0  0  0  0  0  0  1 V2000
  150.2792  140.0951  153.8579 O   0  0  0  0  0  0  0  0  0  0  0  0
  149.6864  140.4318  155.0971 C   0  0  1  0  0  0  0  0  0  0  0  0
  150.5857  141.4425  155.8356 C   0  0  0  0  0  0  0  0  0  0  0  0
  149.8574  142.1676  156.8798 N   0  0  0  0  0  0  0  0  0  0  0  0
  150.6195  142.4845  158.0903 C   0  0  1  0  0  0  0  0  0  0  0  0
  151.5752  141.3341  158.4862 C   0  0  0  0  0  0  0  0  0  0  0  0
  152.3606  141.6254  159.7758 C   0  0  0  0  0  0  0  0  0  0  0  0
  153.2452  142.8733  159.6600 C   0  0  0  0  0  0  0  0  0  0  0  0
  152.2435  144.3521  159.3603 S   0  0  0  0  0  0  0  0  0  0  0  0
  151.3965  143.7938  157.8575 C   0  0  0  0  0  0  0  0  0  0  0  0
  148.2335  140.8787  154.9836 C   0  0  0  0  0  0  0  0  0  0  0  0
  147.8615  142.0019  154.2116 C   0  0  0  0  0  0  0  0  0  0  0  0
  146.5007  142.3629  154.1577 C   0  0  0  0  0  0  0  0  0  0  0  0
  145.5276  141.6875  154.8056 N   0  0  0  0  0  0  0  0  0  0  0  0
  145.8882  140.6158  155.5430 C   0  0  0  0  0  0  0  0  0  0  0  0
  147.2201  140.1721  155.6648 C   0  0  0  0  0  0  0  0  0  0  0  0
  149.6635  140.2950  153.1696 H   0  0  0  0  0  0  0  0  0  0  0  0
  149.6898  139.5072  155.6759 H   0  0  0  0  0  0  0  0  0  0  0  0
  151.4199  140.9061  156.2890 H   0  0  0  0  0  0  0  0  0  0  0  0
  151.0180  142.1283  155.1079 H   0  0  0  0  0  0  0  0  0  0  0  0
  149.4676  143.0188  156.4870 H   0  0  0  0  0  0  0  0  0  0  0  0
  149.9190  142.6519  158.9098 H   0  0  0  0  0  0  0  0  0  0  0  0
  151.0180  140.4117  158.6436 H   0  0  0  0  0  0  0  0  0  0  0  0
  152.2725  141.1340  157.6712 H   0  0  0  0  0  0  0  0  0  0  0  0
  151.6679  141.7420  160.6100 H   0  0  0  0  0  0  0  0  0  0  0  0
  152.9856  140.7650  160.0165 H   0  0  0  0  0  0  0  0  0  0  0  0
  153.8170  143.0179  160.5766 H   0  0  0  0  0  0  0  0  0  0  0  0
  153.9639  142.7578  158.8479 H   0  0  0  0  0  0  0  0  0  0  0  0
  152.1330  143.6692  157.0626 H   0  0  0  0  0  0  0  0  0  0  0  0
  150.7174  144.5863  157.5405 H   0  0  0  0  0  0  0  0  0  0  0  0
  148.5986  142.5833  153.6778 H   0  0  0  0  0  0  0  0  0  0  0  0
  146.1859  143.2187  153.5790 H   0  0  0  0  0  0  0  0  0  0  0  0
  145.0910  140.0951  156.0528 H   0  0  0  0  0  0  0  0  0  0  0  0
  147.4557  139.3095  156.2710 H   0  0  0  0  0  0  0  0  0  0  0  0
  1  2  1  0  0  0  0
  1 17  1  0  0  0  0
  2  3  1  0  0  0  0
  2 11  1  0  0  0  0
  2 18  1  0  0  0  0
  3  4  1  0  0  0  0
  3 19  1  0  0  0  0
  3 20  1  0  0  0  0
  4  5  1  0  0  0  0
  4 21  1  0  0  0  0
  5 10  1  0  0  0  0
  5  6  1  0  0  0  0
  5 22  1  0  0  0  0
  6  7  1  0  0  0  0
  6 23  1  0  0  0  0
  6 24  1  0  0  0  0
  7  8  1  0  0  0  0
  7 25  1  0  0  0  0
  7 26  1  0  0  0  0
  8  9  1  0  0  0  0
  8 27  1  0  0  0  0
  8 28  1  0  0  0  0
  9 10  1  0  0  0  0
 10 29  1  0  0  0  0
 10 30  1  0  0  0  0
 11 16  1  0  0  0  0
 11 12  2  0  0  0  0
 12 13  1  0  0  0  0
 12 31  1  0  0  0  0
 13 14  2  0  0  0  0
 13 32  1  0  0  0  0
 14 15  1  0  0  0  0
 15 16  2  0  0  0  0
 15 33  1  0  0  0  0
 16 34  1  0  0  0  0
M  END
> <s_m_source_file>
AV-unprocessed.smi

> <i_m_source_file_index>
2774

> <i_lp_mmshare_version>
43012

> <i_f3d_flags>
0

> <s_epik_input>
W2NIXTFbY0hdbltjSF1bY0hdYzFbQ0BIXShbT0hdKVtDSDJdW05IXVtDQEBIXTJbQ0gyXVtDSDJdW0NIMl1TW0NIMl0y

> <s_epik_cmdline>
J2VwaWtfcHl0aG9uJywgJy1waCcsICc3LjAnLCAnLXRuJywgJzgnLCAnLW1hJywgJzIwMCcsICctbWV0YWxfYmluZGluZycsICctaW1hZScsICc8aW5maWxlLm1hZT4nLCAnLW9tYWUnLCAnPG91dGZpbGUubWFlPic=

> <r_epik_Ionization_Penalty>
2.08116

> <r_epik_Ionization_Penalty_Charging>
0

> <r_epik_Ionization_Penalty_Neutral>
2.08116

> <r_epik_State_Penalty>
2.1944

> <r_epik_Charging_Adjusted_Penalty>
2.1944

> <i_epik_Tot_Q>
0

> <i_epik_Tot_abs_Q>
0

> <r_epik_Metal_State_Penalty>
2.1769

> <b_epik_Metal_Only>
0

> <s_lp_Force_Field>
OPLS_2005

> <r_lp_Energy>
17.4731

> <b_lp_Chiralities_Consistent>
1

> <s_lp_Variant>
AV-unprocessed.smi:2774-8

> <Gold.Version>
5.8.1

> <Gold.Id.Protein>
6NUR|6NUR_protein|mol2

> <Gold.PLP.Fitness>
44.1787

> <Gold.PLP.PLP>
-37.6989

> <Gold.PLP.part.hbond>
-3.0000

> <Gold.PLP.part.metal>
0.0000

> <Gold.PLP.part.buried>
-3.7083

> <Gold.PLP.part.nonpolar>
-30.5008

> <Gold.PLP.part.repulsive>
0.1781

> <Gold.PLP.ligand.clash>
0.0000

> <Gold.PLP.ligand.torsion>
0.7733

> <Gold.PLP.Chemscore.Hbond>
2.6545

> <Gold.PLP.Chemscore.CHOScore>
0.0000

> <Gold.PLP.Chemscore.Metal>
0.0000

> <Gold.Chemscore.Hbonds>
donor molecule, donor type, donor heavy atom, donor atom, acceptor molecule, acceptor atom, score
      L1  H     1    17       P1  7957  0.70
      L1  H     4    21       P1  8028  1.00
      P1  H  7989  7998       L1     1  0.90

> <Gold.PLP.Chemscore.Internal.Correction>
0.0630

> <Gold.Rescore>
     Score         DG    S(hbond)    S(metal)    S(lipo)     H(rot)  DE(clash)    DE(int)     intcor
     18.88     -19.99       2.29        0.00      99.99       1.89       0.04       1.07       ----

> <Gold.Chemscore.Fitness>
18.8806

> <Gold.Chemscore.DG>
-19.9927

> <Gold.Chemscore.ZeroCoef>
-5.4800

> <Gold.Chemscore.Hbond>
2.2932

> <Gold.Chemscore.Metal>
0.0000

> <Gold.Chemscore.Lipo>
99.9894

> <Gold.Chemscore.Internal_Hbond>
0.0000

> <Gold.Chemscore.DEClash>
0.0408

> <Gold.Chemscore.DEInternal>
1.0712

> <Gold.Chemscore.Rot>
1.8928

> <Gold.Chemscore.Internal.Correction>
   9.000000E+99

> <Gold.Chemscore.Hbonds>
donor molecule, donor type, donor heavy atom, donor atom, acceptor molecule, acceptor atom, score
      L1  H     1    17       P1  7957  0.65
      L1  H     4    21       P1  8028  0.98
      P1  H  7989  7998       L1     1  0.41

> <Gold.Chemscore.Hbond.Weighted>
-7.6594

> <Gold.Chemscore.Metal.Weighted>
-0.0000

> <Gold.Chemscore.Lipo.Weighted>
-11.6988

> <Gold.Chemscore.Internal_Hbond.Weighted>
0.0000

> <Gold.Chemscore.DEClash.Weighted>
0.0408

> <Gold.Chemscore.DEInternal.Weighted>
1.0712

> <Gold.Chemscore.Rot.Weighted>
4.8455

> <Gold.Chemscore.Internal.Correction.Weighted>
   9.000000E+99

> <Gold.Protein.RotatedTorsions>
[ 6907 6896 6895 6894 ] final  -51.33 input  -60.11 | X-H torsion
[ 7974 7965 7964 7962 ] final  -58.03 input  175.53 | X-H torsion
[ 8008 7997 7996 7995 ] final -150.56 input   59.86 | X-H torsion
[ 10167 10162 10161 10158 ] final   83.13 input  -65.29 | X-H torsion
[ 10718 10713 10712 10709 ] final   20.21 input   66.30 | X-H torsion
[ 10763 10752 10751 10750 ] final -158.51 input  -60.55 | X-H torsion
[ 11005 11000 10999 10996 ] final   95.71 input  -57.11 | X-H torsion

> <Gold.Protein.ActiveResidues>
 VAL166  LYS551  ARG553  GLY616  TRP617  ASP618  TYR619  PRO620  LYS621  CYS622 
 ASP623  PHE694  ASN695  SER759  ASP760  ASP761  ALA762  ILE779  LEU786  VAL792 
 PHE793  MET794  SER795  GLU796  ALA797  LYS798  CYS799  TRP800  GLU811  SER814 

> <Gold.Protein.RotatedAtoms>
  150.8621  134.7976  159.7090 H   0  0  0  0  0  0  0  0  0  0  0  0  # atno 6907 bound_to 6896
  152.4655  134.5082  159.9755 H   0  0  0  0  0  0  0  0  0  0  0  0  # atno 6908 bound_to 6896
  151.5185  133.3433  159.2933 H   0  0  0  0  0  0  0  0  0  0  0  0  # atno 6909 bound_to 6896
  145.8441  140.8397  143.0019 H   0  0  0  0  0  0  0  0  0  0  0  0  # atno 7974 bound_to 7965
  155.6254  140.0686  157.2665 H   0  0  0  0  0  0  0  0  0  0  0  0  # atno 8008 bound_to 7997
  154.4219  140.1777  156.1465 H   0  0  0  0  0  0  0  0  0  0  0  0  # atno 8009 bound_to 7997
  155.9976  140.3339  155.6817 H   0  0  0  0  0  0  0  0  0  0  0  0  # atno 8010 bound_to 7997
  139.9216  144.6209  150.8434 H   0  0  0  0  0  0  0  0  0  0  0  0  # atno 10167 bound_to 10162
  157.1213  130.6551  149.5924 H   0  0  0  0  0  0  0  0  0  0  0  0  # atno 10718 bound_to 10713
  154.7550  135.3102  154.8486 H   0  0  0  0  0  0  0  0  0  0  0  0  # atno 10763 bound_to 10752
  153.9262  135.6790  153.4750 H   0  0  0  0  0  0  0  0  0  0  0  0  # atno 10764 bound_to 10752
  153.1147  135.4850  154.9025 H   0  0  0  0  0  0  0  0  0  0  0  0  # atno 10765 bound_to 10752
  139.8787  134.8913  156.4051 H   0  0  0  0  0  0  0  0  0  0  0  0  # atno 11005 bound_to 11000
  144.6732  140.0856  143.7467 LP  0  0  0  0  0  0  0  0  0  0  0  0  # atno 17320 bound_to 7965
  145.9432  139.2683  143.1256 LP  0  0  0  0  0  0  0  0  0  0  0  0  # atno 17321 bound_to 7965
  140.7661  143.3293  151.2446 LP  0  0  0  0  0  0  0  0  0  0  0  0  # atno 17342 bound_to 10162
  139.6857  143.9778  152.2832 LP  0  0  0  0  0  0  0  0  0  0  0  0  # atno 17343 bound_to 10162
  155.9828  130.4843  150.6899 LP  0  0  0  0  0  0  0  0  0  0  0  0  # atno 17370 bound_to 10713
  157.4474  131.0868  151.0881 LP  0  0  0  0  0  0  0  0  0  0  0  0  # atno 17371 bound_to 10713
  140.9239  133.7625  155.9941 LP  0  0  0  0  0  0  0  0  0  0  0  0  # atno 17394 bound_to 11000
  140.8408  134.3069  157.5314 LP  0  0  0  0  0  0  0  0  0  0  0  0  # atno 17395 bound_to 11000

$$$$
