AV-unprocessed.smi:1177|AV-procd|sdf|4955|dock9
  -GOLD-   22720 3543D 1   1.00000     0.00000
 Structure written by MMmdl.
 31 32  0  0  0  0  0  0  0  0  2 V2000
  146.4572  142.0806  159.2659 O   0  0  0  0  0  0  0  0  0  0  0  0
  146.8819  142.9277  158.4792 C   0  0  0  0  0  0  0  0  0  0  0  0
  147.9347  142.7358  157.6719 N   0  0  0  0  0  0  0  0  0  0  0  0
  148.7214  141.5097  157.6096 C   0  0  0  0  0  0  0  0  0  0  0  0
  150.0100  141.7049  156.7927 C   0  0  0  0  0  0  0  0  0  0  0  0
  151.0497  142.5108  157.5458 C   0  0  0  0  0  0  0  0  0  0  0  0
  151.8321  141.9515  158.5795 C   0  0  0  0  0  0  0  0  0  0  0  0
  152.7792  142.7611  159.2409 C   0  0  0  0  0  0  0  0  0  0  0  0
  152.9219  144.1107  158.8571 C   0  0  0  0  0  0  0  0  0  0  0  0
  152.1131  144.6178  157.8197 C   0  0  0  0  0  0  0  0  0  0  0  0
  151.2180  143.8103  157.2094 N   0  3  0  0  0  0  0  0  0  0  0  0
  146.3558  144.1504  158.3288 N   0  0  0  0  0  0  0  0  0  0  0  0
  145.2336  144.6612  159.0475 C   0  0  0  0  0  0  0  0  0  0  0  0
  144.3610  145.6841  158.3528 C   0  0  0  0  0  0  0  0  0  0  0  0
  145.2713  146.1141  159.4699 C   0  0  0  0  0  0  0  0  0  0  0  0
  148.2099  143.4887  157.0578 H   0  0  0  0  0  0  0  0  0  0  0  0
  148.9533  141.1677  158.6198 H   0  0  0  0  0  0  0  0  0  0  0  0
  148.1059  140.7341  157.1530 H   0  0  0  0  0  0  0  0  0  0  0  0
  150.4324  140.7352  156.5256 H   0  0  0  0  0  0  0  0  0  0  0  0
  149.7917  142.2132  155.8523 H   0  0  0  0  0  0  0  0  0  0  0  0
  151.7095  140.9166  158.8643 H   0  0  0  0  0  0  0  0  0  0  0  0
  153.3879  142.3519  160.0339 H   0  0  0  0  0  0  0  0  0  0  0  0
  153.6412  144.7474  159.3515 H   0  0  0  0  0  0  0  0  0  0  0  0
  152.1543  145.6365  157.4625 H   0  0  0  0  0  0  0  0  0  0  0  0
  146.7801  144.7698  157.6539 H   0  0  0  0  0  0  0  0  0  0  0  0
  144.7213  143.9796  159.7254 H   0  0  0  0  0  0  0  0  0  0  0  0
  144.6316  145.9832  157.3418 H   0  0  0  0  0  0  0  0  0  0  0  0
  143.2930  145.6541  158.5586 H   0  0  0  0  0  0  0  0  0  0  0  0
  144.8114  146.3710  160.4221 H   0  0  0  0  0  0  0  0  0  0  0  0
  146.1489  146.7004  159.2040 H   0  0  0  0  0  0  0  0  0  0  0  0
  150.6425  144.1981  156.4610 H   0  0  0  0  0  0  0  0  0  0  0  0
  1  2  2  0  0  0  0
  2  3  1  0  0  0  0
  2 12  1  0  0  0  0
  3  4  1  0  0  0  0
  3 16  1  0  0  0  0
  4  5  1  0  0  0  0
  4 17  1  0  0  0  0
  4 18  1  0  0  0  0
  5  6  1  0  0  0  0
  5 19  1  0  0  0  0
  5 20  1  0  0  0  0
  6 11  1  0  0  0  0
  6  7  2  0  0  0  0
  7  8  1  0  0  0  0
  7 21  1  0  0  0  0
  8  9  2  0  0  0  0
  8 22  1  0  0  0  0
  9 10  1  0  0  0  0
  9 23  1  0  0  0  0
 10 11  2  0  0  0  0
 10 24  1  0  0  0  0
 11 31  1  0  0  0  0
 12 13  1  0  0  0  0
 12 25  1  0  0  0  0
 13 15  1  0  0  0  0
 13 14  1  0  0  0  0
 13 26  1  0  0  0  0
 14 15  1  0  0  0  0
 14 27  1  0  0  0  0
 14 28  1  0  0  0  0
 15 29  1  0  0  0  0
 15 30  1  0  0  0  0
M  CHG  1  11   1
M  END
> <s_m_source_file>
AV-unprocessed.smi

> <i_m_source_file_index>
1177

> <i_lp_mmshare_version>
43012

> <i_f3d_flags>
0

> <s_epik_input>
W0NIMl0xW0NIMl1bQ0hdMVtOSF1DKD1PKVtOSF1bQ0gyXVtDSDJdYzJbY0hdW2NIXVtjSF1bY0hdbjI=

> <s_epik_cmdline>
J2VwaWtfcHl0aG9uJywgJy1waCcsICc3LjAnLCAnLXRuJywgJzgnLCAnLW1hJywgJzIwMCcsICctbWV0YWxfYmluZGluZycsICctaW1hZScsICc8aW5maWxlLm1hZT4nLCAnLW9tYWUnLCAnPG91dGZpbGUubWFlPic=

> <r_epik_Ionization_Penalty>
1.56288

> <r_epik_Ionization_Penalty_Charging>
1.56282

> <r_epik_Ionization_Penalty_Neutral>
5.89877e-05

> <r_epik_State_Penalty>
1.65797

> <r_epik_Charging_Adjusted_Penalty>
3.22079

> <i_epik_Tot_Q>
1

> <i_epik_Tot_abs_Q>
1

> <r_epik_Metal_State_Penalty>
1.69932

> <b_epik_Metal_Only>
0

> <s_lp_Force_Field>
OPLS_2005

> <r_lp_Energy>
17.5296

> <b_lp_Chiralities_Consistent>
1

> <s_lp_Variant>
AV-unprocessed.smi:1177-2

> <Gold.Version>
5.8.1

> <Gold.Id.Protein>
6NUR|6NUR_protein|mol2

> <Gold.PLP.Fitness>
42.4581

> <Gold.PLP.PLP>
-30.0350

> <Gold.PLP.part.hbond>
-4.3947

> <Gold.PLP.part.metal>
0.0000

> <Gold.PLP.part.buried>
-3.5419

> <Gold.PLP.part.nonpolar>
-22.2716

> <Gold.PLP.part.repulsive>
0.0914

> <Gold.PLP.ligand.clash>
0.0000

> <Gold.PLP.ligand.torsion>
0.6719

> <Gold.PLP.Chemscore.Hbond>
4.5760

> <Gold.PLP.Chemscore.CHOScore>
0.0000

> <Gold.PLP.Chemscore.Metal>
0.0000

> <Gold.Chemscore.Hbonds>
donor molecule, donor type, donor heavy atom, donor atom, acceptor molecule, acceptor atom, score
      L1  H     3    16       P1  8028  0.55
      L1  H    11    31       P1  8028  2.00
      L1  H    12    25       P1  8029  0.95
      P1  H  6934  6946       L1     1  0.98

> <Gold.PLP.Chemscore.Internal.Correction>
0.0389

> <Gold.Rescore>
     Score         DG    S(hbond)    S(metal)    S(lipo)     H(rot)  DE(clash)    DE(int)     intcor
     19.20     -19.89       2.86        0.00      78.89       1.70       0.04       0.65       ----

> <Gold.Chemscore.Fitness>
19.2013

> <Gold.Chemscore.DG>
-19.8934

> <Gold.Chemscore.ZeroCoef>
-5.4800

> <Gold.Chemscore.Hbond>
2.8563

> <Gold.Chemscore.Metal>
0.0000

> <Gold.Chemscore.Lipo>
78.8911

> <Gold.Chemscore.Internal_Hbond>
0.0000

> <Gold.Chemscore.DEClash>
0.0419

> <Gold.Chemscore.DEInternal>
0.6502

> <Gold.Chemscore.Rot>
1.7019

> <Gold.Chemscore.Internal.Correction>
   9.000000E+99

> <Gold.Chemscore.Hbonds>
donor molecule, donor type, donor heavy atom, donor atom, acceptor molecule, acceptor atom, score
      L1  H     3    16       P1  8028  0.03
      L1  H    11    31       P1  8028  0.95
      L1  H    12    25       P1  8029  0.21
      P1  H  6934  6946       L1     1  0.93

> <Gold.Chemscore.Hbond.Weighted>
-9.5399

> <Gold.Chemscore.Metal.Weighted>
-0.0000

> <Gold.Chemscore.Lipo.Weighted>
-9.2303

> <Gold.Chemscore.Internal_Hbond.Weighted>
0.0000

> <Gold.Chemscore.DEClash.Weighted>
0.0419

> <Gold.Chemscore.DEInternal.Weighted>
0.6502

> <Gold.Chemscore.Rot.Weighted>
4.3568

> <Gold.Chemscore.Internal.Correction.Weighted>
   9.000000E+99

> <Gold.Protein.RotatedTorsions>
[ 6907 6896 6895 6894 ] final  -22.95 input  -60.11 | X-H torsion
[ 7974 7965 7964 7962 ] final  104.99 input  175.53 | X-H torsion
[ 8008 7997 7996 7995 ] final -135.48 input   59.86 | X-H torsion
[ 10167 10162 10161 10158 ] final -148.35 input  -65.29 | X-H torsion
[ 10718 10713 10712 10709 ] final   87.92 input   66.30 | X-H torsion
[ 10763 10752 10751 10750 ] final  129.64 input  -60.55 | X-H torsion
[ 11005 11000 10999 10996 ] final -167.76 input  -57.11 | X-H torsion

> <Gold.Protein.ActiveResidues>
 VAL166  LYS551  ARG553  GLY616  TRP617  ASP618  TYR619  PRO620  LYS621  CYS622 
 ASP623  PHE694  ASN695  SER759  ASP760  ASP761  ALA762  ILE779  LEU786  VAL792 
 PHE793  MET794  SER795  GLU796  ALA797  LYS798  CYS799  TRP800  GLU811  SER814 

> <Gold.Protein.RotatedAtoms>
  151.2111  135.0481  159.8911 H   0  0  0  0  0  0  0  0  0  0  0  0  # atno 6907 bound_to 6896
  152.5424  134.0744  159.8218 H   0  0  0  0  0  0  0  0  0  0  0  0  # atno 6908 bound_to 6896
  151.0898  133.5277  159.2647 H   0  0  0  0  0  0  0  0  0  0  0  0  # atno 6909 bound_to 6896
  145.3255  139.2501  143.3689 H   0  0  0  0  0  0  0  0  0  0  0  0  # atno 7974 bound_to 7965
  155.3793  140.0493  157.3044 H   0  0  0  0  0  0  0  0  0  0  0  0  # atno 8008 bound_to 7997
  154.5090  140.2185  155.9155 H   0  0  0  0  0  0  0  0  0  0  0  0  # atno 8009 bound_to 7997
  156.1560  140.3126  155.8733 H   0  0  0  0  0  0  0  0  0  0  0  0  # atno 8010 bound_to 7997
  139.7539  143.8476  152.2593 H   0  0  0  0  0  0  0  0  0  0  0  0  # atno 10167 bound_to 10162
  157.6944  131.0274  150.3196 H   0  0  0  0  0  0  0  0  0  0  0  0  # atno 10718 bound_to 10713
  153.7450  135.3218  155.3311 H   0  0  0  0  0  0  0  0  0  0  0  0  # atno 10763 bound_to 10752
  154.8282  135.4554  154.0988 H   0  0  0  0  0  0  0  0  0  0  0  0  # atno 10764 bound_to 10752
  153.2174  135.6944  153.8122 H   0  0  0  0  0  0  0  0  0  0  0  0  # atno 10765 bound_to 10752
  140.5496  134.5442  157.5119 H   0  0  0  0  0  0  0  0  0  0  0  0  # atno 11005 bound_to 11000
  146.3066  140.3821  142.8685 LP  0  0  0  0  0  0  0  0  0  0  0  0  # atno 17320 bound_to 7965
  144.8905  140.7518  143.5929 LP  0  0  0  0  0  0  0  0  0  0  0  0  # atno 17321 bound_to 7965
  139.8463  144.7186  150.9269 LP  0  0  0  0  0  0  0  0  0  0  0  0  # atno 17342 bound_to 10162
  140.7801  143.3939  151.1263 LP  0  0  0  0  0  0  0  0  0  0  0  0  # atno 17343 bound_to 10162
  156.3686  130.3859  149.7194 LP  0  0  0  0  0  0  0  0  0  0  0  0  # atno 17370 bound_to 10713
  156.4616  130.7954  151.2974 LP  0  0  0  0  0  0  0  0  0  0  0  0  # atno 17371 bound_to 10713
  139.9462  134.7698  156.0557 LP  0  0  0  0  0  0  0  0  0  0  0  0  # atno 17394 bound_to 11000
  141.1179  133.6622  156.3141 LP  0  0  0  0  0  0  0  0  0  0  0  0  # atno 17395 bound_to 11000

$$$$
