AV-unprocessed.smi:3259|AV-procd|sdf|12474|dock2
  -GOLD-   2272018373D 1   1.00000     0.00000
 Structure written by MMmdl.
 39 40  0  0  0  0  0  0  0  0  1 V2000
  149.8825  131.6675  157.8378 C   0  0  0  0  0  0  0  0  0  0  0  0
  149.9043  133.0691  157.5966 O   0  0  0  0  0  0  0  0  0  0  0  0
  150.5205  133.5191  156.3821 C   0  0  1  0  0  0  0  0  0  0  0  0
  152.0356  133.6658  156.5720 C   0  0  0  0  0  0  0  0  0  0  0  0
  149.9820  132.7162  155.1822 C   0  0  0  0  0  0  0  0  0  0  0  0
  148.7917  133.6733  155.1721 C   0  0  2  0  0  0  0  0  0  0  0  0
  148.3429  133.9973  153.8225 N   0  0  0  0  0  0  0  0  0  0  0  0
  147.3924  133.3245  153.1563 C   0  0  0  0  0  0  0  0  0  0  0  0
  146.7832  132.3662  153.6306 O   0  0  0  0  0  0  0  0  0  0  0  0
  147.0734  133.8117  151.7419 C   0  0  0  0  0  0  0  0  0  0  0  0
  145.8837  133.1659  151.2158 N   0  0  0  0  0  0  0  0  0  0  0  0
  145.7291  131.8589  150.8016 C   0  0  0  0  0  0  0  0  0  0  0  0
  144.4346  131.7116  150.3930 C   0  0  0  0  0  0  0  0  0  0  0  0
  143.8671  133.0003  150.5973 C   0  0  0  0  0  0  0  0  0  0  0  0
  144.7365  133.8685  151.0886 N   0  0  0  0  0  0  0  0  0  0  0  0
  149.7046  134.7367  155.8355 C   0  0  0  0  0  0  0  0  0  0  0  0
  149.0366  135.6379  156.8801 C   0  0  0  0  0  0  0  0  0  0  0  0
  150.4609  135.6866  154.8875 C   0  0  0  0  0  0  0  0  0  0  0  0
  149.2561  131.4672  158.7067 H   0  0  0  0  0  0  0  0  0  0  0  0
  150.8767  131.2828  158.0632 H   0  0  0  0  0  0  0  0  0  0  0  0
  149.4715  131.1069  156.9989 H   0  0  0  0  0  0  0  0  0  0  0  0
  152.5126  134.1121  155.7001 H   0  0  0  0  0  0  0  0  0  0  0  0
  152.5234  132.7030  156.7226 H   0  0  0  0  0  0  0  0  0  0  0  0
  152.2667  134.2971  157.4302 H   0  0  0  0  0  0  0  0  0  0  0  0
  150.6173  132.7982  154.2983 H   0  0  0  0  0  0  0  0  0  0  0  0
  149.7175  131.6774  155.3764 H   0  0  0  0  0  0  0  0  0  0  0  0
  147.9929  133.3269  155.8323 H   0  0  0  0  0  0  0  0  0  0  0  0
  148.7911  134.7760  153.3624 H   0  0  0  0  0  0  0  0  0  0  0  0
  146.9270  134.8929  151.7404 H   0  0  0  0  0  0  0  0  0  0  0  0
  147.9133  133.6016  151.0781 H   0  0  0  0  0  0  0  0  0  0  0  0
  146.5435  131.1504  150.8335 H   0  0  0  0  0  0  0  0  0  0  0  0
  143.9645  130.8190  150.0080 H   0  0  0  0  0  0  0  0  0  0  0  0
  142.8565  133.3286  150.4045 H   0  0  0  0  0  0  0  0  0  0  0  0
  148.4268  136.4114  156.4119 H   0  0  0  0  0  0  0  0  0  0  0  0
  149.7761  136.1353  157.5084 H   0  0  0  0  0  0  0  0  0  0  0  0
  148.3741  135.0774  157.5400 H   0  0  0  0  0  0  0  0  0  0  0  0
  149.7878  136.4028  154.4147 H   0  0  0  0  0  0  0  0  0  0  0  0
  150.9683  135.1509  154.0854 H   0  0  0  0  0  0  0  0  0  0  0  0
  151.2191  136.2619  155.4198 H   0  0  0  0  0  0  0  0  0  0  0  0
  1  2  1  0  0  0  0
  1 19  1  0  0  0  0
  1 20  1  0  0  0  0
  1 21  1  0  0  0  0
  2  3  1  0  0  0  0
  3 16  1  0  0  0  0
  3  4  1  0  0  0  0
  3  5  1  0  0  0  0
  4 22  1  0  0  0  0
  4 23  1  0  0  0  0
  4 24  1  0  0  0  0
  5  6  1  0  0  0  0
  5 25  1  0  0  0  0
  5 26  1  0  0  0  0
  6  7  1  0  0  0  0
  6 16  1  0  0  0  0
  6 27  1  0  0  0  0
  7  8  1  0  0  0  0
  7 28  1  0  0  0  0
  8  9  2  0  0  0  0
  8 10  1  0  0  0  0
 10 11  1  0  0  0  0
 10 29  1  0  0  0  0
 10 30  1  0  0  0  0
 11 15  1  0  0  0  0
 11 12  1  0  0  0  0
 12 13  2  0  0  0  0
 12 31  1  0  0  0  0
 13 14  1  0  0  0  0
 13 32  1  0  0  0  0
 14 15  2  0  0  0  0
 14 33  1  0  0  0  0
 16 17  1  0  0  0  0
 16 18  1  0  0  0  0
 17 34  1  0  0  0  0
 17 35  1  0  0  0  0
 17 36  1  0  0  0  0
 18 37  1  0  0  0  0
 18 38  1  0  0  0  0
 18 39  1  0  0  0  0
M  END
> <s_m_source_file>
AV-unprocessed.smi

> <i_m_source_file_index>
3259

> <i_lp_mmshare_version>
43012

> <i_f3d_flags>
0

> <s_epik_input>
W0NIM11PW0NAQF0xKFtDSDNdKVtDSDJdW0NASF0oQzEoW0NIM10pW0NIM10pW05IXUMoPU8pW0NIMl1uMltjSF1bY0hdW2NIXW4y

> <s_epik_cmdline>
J2VwaWtfcHl0aG9uJywgJy1waCcsICc3LjAnLCAnLXRuJywgJzgnLCAnLW1hJywgJzIwMCcsICctbWV0YWxfYmluZGluZycsICctaW1hZScsICc8aW5maWxlLm1hZT4nLCAnLW9tYWUnLCAnPG91dGZpbGUubWFlPic=

> <r_lp_tautomer_probability>
1

> <r_epik_Ionization_Penalty>
1.78399e-05

> <r_epik_Ionization_Penalty_Charging>
0

> <r_epik_Ionization_Penalty_Neutral>
1.78399e-05

> <r_epik_State_Penalty>
-0

> <r_epik_Charging_Adjusted_Penalty>
0

> <i_epik_Tot_Q>
0

> <i_epik_Tot_abs_Q>
0

> <r_epik_Metal_State_Penalty>
-0

> <b_epik_Metal_Only>
0

> <s_lp_Force_Field>
OPLS_2005

> <r_lp_Energy>
23.5096

> <b_lp_Chiralities_Consistent>
1

> <s_lp_Variant>
AV-unprocessed.smi:3259-3

> <Gold.Version>
5.8.1

> <Gold.Id.Protein>
6NUR|6NUR_protein|mol2

> <Gold.PLP.Fitness>
34.7538

> <Gold.PLP.PLP>
-24.3951

> <Gold.PLP.part.hbond>
-2.0000

> <Gold.PLP.part.metal>
0.0000

> <Gold.PLP.part.buried>
-2.3302

> <Gold.PLP.part.nonpolar>
-19.5184

> <Gold.PLP.part.repulsive>
0.2248

> <Gold.PLP.ligand.clash>
0.0000

> <Gold.PLP.ligand.torsion>
0.8801

> <Gold.PLP.Chemscore.Hbond>
1.9100

> <Gold.PLP.Chemscore.CHOScore>
2.0000

> <Gold.PLP.Chemscore.Metal>
0.0000

> <Gold.Chemscore.Hbonds>
donor molecule, donor type, donor heavy atom, donor atom, acceptor molecule, acceptor atom, score
      L1  H     7    28       P1  7948  0.93
      P1  H  6896  6908       L1     2  0.85
      L1  C    12    31       P1 10747  1.00
      L1  C    14    33       P1 10186  1.00

> <Gold.PLP.Chemscore.Internal.Correction>
0.3889

> <Gold.Rescore>
     Score         DG    S(hbond)    S(metal)    S(lipo)     H(rot)  DE(clash)    DE(int)     intcor
      9.26     -12.35       0.82        0.00      70.27       1.60       1.71       1.37       ----

> <Gold.Chemscore.Fitness>
9.2606

> <Gold.Chemscore.DG>
-12.3452

> <Gold.Chemscore.ZeroCoef>
-5.4800

> <Gold.Chemscore.Hbond>
0.8174

> <Gold.Chemscore.Metal>
0.0000

> <Gold.Chemscore.Lipo>
70.2671

> <Gold.Chemscore.Internal_Hbond>
0.0000

> <Gold.Chemscore.DEClash>
1.7125

> <Gold.Chemscore.DEInternal>
1.3721

> <Gold.Chemscore.Rot>
1.5962

> <Gold.Chemscore.Internal.Correction>
   9.000000E+99

> <Gold.Chemscore.Hbonds>
donor molecule, donor type, donor heavy atom, donor atom, acceptor molecule, acceptor atom, score
      L1  H     7    28       P1  7948  0.30
      P1  H  6896  6908       L1     2  0.11

> <Gold.Chemscore.Hbond.Weighted>
-2.7301

> <Gold.Chemscore.Metal.Weighted>
-0.0000

> <Gold.Chemscore.Lipo.Weighted>
-8.2212

> <Gold.Chemscore.Internal_Hbond.Weighted>
0.0000

> <Gold.Chemscore.DEClash.Weighted>
1.7125

> <Gold.Chemscore.DEInternal.Weighted>
1.3721

> <Gold.Chemscore.Rot.Weighted>
4.0862

> <Gold.Chemscore.Internal.Correction.Weighted>
   9.000000E+99

> <Gold.Protein.RotatedTorsions>
[ 6907 6896 6895 6894 ] final  101.61 input  -60.11 | X-H torsion
[ 7974 7965 7964 7962 ] final -178.97 input  175.53 | X-H torsion
[ 8008 7997 7996 7995 ] final -109.98 input   59.86 | X-H torsion
[ 10167 10162 10161 10158 ] final -102.85 input  -65.29 | X-H torsion
[ 10718 10713 10712 10709 ] final -118.02 input   66.30 | X-H torsion
[ 10763 10752 10751 10750 ] final  -31.75 input  -60.55 | X-H torsion
[ 11005 11000 10999 10996 ] final  -37.13 input  -57.11 | X-H torsion

> <Gold.Protein.ActiveResidues>
 VAL166  LYS551  ARG553  GLY616  TRP617  ASP618  TYR619  PRO620  LYS621  CYS622 
 ASP623  PHE694  ASN695  SER759  ASP760  ASP761  ALA762  ILE779  LEU786  VAL792 
 PHE793  MET794  SER795  GLU796  ALA797  LYS798  CYS799  TRP800  GLU811  SER814 

> <Gold.Protein.RotatedAtoms>
  152.5345  134.0100  159.7933 H   0  0  0  0  0  0  0  0  0  0  0  0  # atno 6907 bound_to 6896
  151.0304  133.5788  159.2668 H   0  0  0  0  0  0  0  0  0  0  0  0  # atno 6908 bound_to 6896
  151.2794  135.0716  159.9217 H   0  0  0  0  0  0  0  0  0  0  0  0  # atno 6909 bound_to 6896
  144.7134  140.0789  143.6426 H   0  0  0  0  0  0  0  0  0  0  0  0  # atno 7974 bound_to 7965
  154.9675  140.0398  157.2219 H   0  0  0  0  0  0  0  0  0  0  0  0  # atno 8008 bound_to 7997
  154.7832  140.2822  155.6026 H   0  0  0  0  0  0  0  0  0  0  0  0  # atno 8009 bound_to 7997
  156.2939  140.2587  156.2662 H   0  0  0  0  0  0  0  0  0  0  0  0  # atno 8010 bound_to 7997
  140.2262  143.3639  152.0926 H   0  0  0  0  0  0  0  0  0  0  0  0  # atno 10167 bound_to 10162
  156.1076  130.6222  150.9238 H   0  0  0  0  0  0  0  0  0  0  0  0  # atno 10718 bound_to 10713
  153.8024  135.6889  153.4853 H   0  0  0  0  0  0  0  0  0  0  0  0  # atno 10763 bound_to 10752
  153.1680  135.4554  154.9862 H   0  0  0  0  0  0  0  0  0  0  0  0  # atno 10764 bound_to 10752
  154.8001  135.3334  154.7511 H   0  0  0  0  0  0  0  0  0  0  0  0  # atno 10765 bound_to 10752
  140.9929  133.6995  156.1881 H   0  0  0  0  0  0  0  0  0  0  0  0  # atno 11005 bound_to 11000
  145.9719  139.2876  143.1093 LP  0  0  0  0  0  0  0  0  0  0  0  0  # atno 17320 bound_to 7965
  145.9107  140.9182  143.0455 LP  0  0  0  0  0  0  0  0  0  0  0  0  # atno 17321 bound_to 7965
  139.5126  144.6919  151.5735 LP  0  0  0  0  0  0  0  0  0  0  0  0  # atno 17342 bound_to 10162
  140.6218  143.9243  150.6533 LP  0  0  0  0  0  0  0  0  0  0  0  0  # atno 17343 bound_to 10162
  157.6254  131.0926  150.8544 LP  0  0  0  0  0  0  0  0  0  0  0  0  # atno 17370 bound_to 10713
  156.8660  130.5129  149.5300 LP  0  0  0  0  0  0  0  0  0  0  0  0  # atno 17371 bound_to 10713
  140.7012  134.4562  157.5586 LP  0  0  0  0  0  0  0  0  0  0  0  0  # atno 17394 bound_to 11000
  139.9000  134.8577  156.1935 LP  0  0  0  0  0  0  0  0  0  0  0  0  # atno 17395 bound_to 11000

$$$$
