#       Name:                AV-unprocessed.smi:148
#       Creating user name   scv26
#       Creation time:       Thu Mar 26 18:39:58 2020


#       File generated by GOLD software.
#

@<TRIPOS>MOLECULE
AV-unprocessed.smi:148
    73    77     1
SMALL
NO_CHARGES


@<TRIPOS>ATOM
      1 ****        -3.6151  -1.0140   2.4239 O.3            1 S1                 0.0000
      2 ****        -2.3111  -1.5316   2.2615 C.3            1 S1                 0.0000
      3 ****        -1.3936  -1.1317   3.4415 C.3            1 S1                 0.0000
      4 ****         0.0892  -1.4808   3.1509 C.3            1 S1                 0.0000
      5 ****         0.6220  -0.7444   2.0187 N.pl3          1 S1                 0.0000
      6 ****         1.0374   0.5683   2.0163 C.2            1 S1                 0.0000
      7 ****         1.4630   1.0157   0.8663 N.2            1 S1                 0.0000
      8 ****         1.3318  -0.0735   0.0146 C.ar           1 S1                 0.0000
      9 ****         1.5793  -0.2796  -1.3671 C.ar           1 S1                 0.0000
     10 ****         2.0372   0.7114  -2.1660 N.3            1 S1                 0.0000
     11 ****         3.4707   0.5367  -2.4008 C.3            1 S1                 0.0000
     12 ****         4.0735   1.7512  -3.1168 C.3            1 S1                 0.0000
     13 ****         3.3170   2.0236  -4.4197 C.3            1 S1                 0.0000
     14 ****         1.8238   2.2194  -4.1265 C.3            1 S1                 0.0000
     15 ****         1.2191   1.0160  -3.3555 C.3            1 S1                 0.0000
     16 ****        -0.2945   1.2027  -3.0141 C.3            1 S1                 0.0000
     17 ****        -0.6330   2.3219  -2.0094 C.3            1 S1                 0.0000
     18 ****        -2.0480   2.8091  -2.3624 C.3            1 S1                 0.0000
     19 ****        -2.5224   1.9402  -3.5314 C.3            1 S1                 0.0000
     20 ****        -1.2327   1.4669  -4.2008 C.3            1 S1                 0.0000
     21 ****        -1.4508   0.3080  -4.9786 O.3            1 S1                 0.0000
     22 ****         1.3349  -1.5140  -1.8824 N.ar           1 S1                 0.0000
     23 ****         0.8600  -2.4825  -1.0931 C.ar           1 S1                 0.0000
     24 ****         0.5640  -2.4301   0.2078 N.ar           1 S1                 0.0000
     25 ****         0.8186  -1.1934   0.7248 C.ar           1 S1                 0.0000
     26 ****        -1.9063  -1.7045   4.7917 C.3            1 S1                 0.0000
     27 ****        -1.2309  -1.1522   6.0481 C.3            1 S1                 0.0000
     28 ****        -0.9452  -2.3925   6.8970 C.3            1 S1                 0.0000
     29 ****        -1.8122  -3.3869   6.3747 O.3            1 S1                 0.0000
     30 ****        -1.8133  -3.2249   4.9667 C.3            1 S1                 0.0000
     31 ****        -4.1387  -1.2815   1.6840 H              1 S1                 0.0000
     32 ****        -2.3612  -2.6157   2.1575 H              1 S1                 0.0000
     33 ****        -1.9321  -1.1406   1.3179 H              1 S1                 0.0000
     34 ****        -1.4497  -0.0453   3.5288 H              1 S1                 0.0000
     35 ****         0.7247  -1.2638   4.0084 H              1 S1                 0.0000
     36 ****         0.2036  -2.5454   2.9485 H              1 S1                 0.0000
     37 ****         1.0055   1.1901   2.8993 H              1 S1                 0.0000
     38 ****         3.9867   0.3830  -1.4517 H              1 S1                 0.0000
     39 ****         3.6336  -0.3604  -3.0001 H              1 S1                 0.0000
     40 ****         4.0218   2.6263  -2.4677 H              1 S1                 0.0000
     41 ****         5.1295   1.5770  -3.3249 H              1 S1                 0.0000
     42 ****         3.7227   2.9070  -4.9135 H              1 S1                 0.0000
     43 ****         3.4527   1.1887  -5.1083 H              1 S1                 0.0000
     44 ****         1.7001   3.1410  -3.5589 H              1 S1                 0.0000
     45 ****         1.3101   2.3689  -5.0748 H              1 S1                 0.0000
     46 ****         1.2951   0.1511  -4.0163 H              1 S1                 0.0000
     47 ****        -0.6603   0.2775  -2.5657 H              1 S1                 0.0000
     48 ****        -0.5888   1.9511  -0.9854 H              1 S1                 0.0000
     49 ****         0.0644   3.1558  -2.0727 H              1 S1                 0.0000
     50 ****        -2.7279   2.7428  -1.5124 H              1 S1                 0.0000
     51 ****        -2.0097   3.8553  -2.6684 H              1 S1                 0.0000
     52 ****        -3.0771   1.0852  -3.1413 H              1 S1                 0.0000
     53 ****        -3.1802   2.4773  -4.2153 H              1 S1                 0.0000
     54 ****        -0.8596   2.2677  -4.8374 H              1 S1                 0.0000
     55 ****        -0.6253   0.0352  -5.3488 H              1 S1                 0.0000
     56 ****         0.6880  -3.4344  -1.5736 H              1 S1                 0.0000
     57 ****        -2.9610  -1.4454   4.8920 H              1 S1                 0.0000
     58 ****        -0.3186  -0.5901   5.8517 H              1 S1                 0.0000
     59 ****        -1.9134  -0.4809   6.5704 H              1 S1                 0.0000
     60 ****         0.0892  -2.7149   6.7691 H              1 S1                 0.0000
     61 ****        -1.1216  -2.2252   7.9596 H              1 S1                 0.0000
     62 ****        -2.6487  -3.7517   4.5050 H              1 S1                 0.0000
     63 ****        -0.8874  -3.6380   4.5673 H              1 S1                 0.0000
     64 ****        -3.5785  -0.0157   2.4678 LP             1 S1                 0.0000
     65 ****        -4.0166  -1.3703   3.2676 LP             1 S1                 0.0000
     66 ****         1.8043   1.9302   0.6490 LP             1 S1                 0.0000
     67 ****         1.9218   1.5696  -1.6660 LP             1 S1                 0.0000
     68 ****        -2.0987   0.5115  -5.7126 LP             1 S1                 0.0000
     69 ****        -1.8190  -0.4211  -4.4016 LP             1 S1                 0.0000
     70 ****         1.5101  -1.6968  -2.8498 LP             1 S1                 0.0000
     71 ****         0.2022  -3.1987   0.7354 LP             1 S1                 0.0000
     72 ****        -2.7361  -3.2638   6.7368 LP             1 S1                 0.0000
     73 ****        -1.4779  -4.2978   6.6168 LP             1 S1                 0.0000
@<TRIPOS>BOND
    1    1    2 1     
    2    1   31 1     
    3    2    3 1     
    4    2   32 1     
    5    2   33 1     
    6    3    4 1     
    7    3   26 1     
    8    3   34 1     
    9    4    5 1     
   10    4   35 1     
   11    4   36 1     
   12    5   25 1     
   13    5    6 1     
   14    6    7 2     
   15    6   37 1     
   16    7    8 1     
   17    8   25 ar    
   18    8    9 ar    
   19    9   10 1     
   20    9   22 ar    
   21   10   15 1     
   22   10   11 1     
   23   11   12 1     
   24   11   38 1     
   25   11   39 1     
   26   12   13 1     
   27   12   40 1     
   28   12   41 1     
   29   13   14 1     
   30   13   42 1     
   31   13   43 1     
   32   14   15 1     
   33   14   44 1     
   34   14   45 1     
   35   15   16 1     
   36   15   46 1     
   37   16   20 1     
   38   16   17 1     
   39   16   47 1     
   40   17   18 1     
   41   17   48 1     
   42   17   49 1     
   43   18   19 1     
   44   18   50 1     
   45   18   51 1     
   46   19   20 1     
   47   19   52 1     
   48   19   53 1     
   49   20   21 1     
   50   20   54 1     
   51   21   55 1     
   52   22   23 ar    
   53   23   24 ar    
   54   23   56 1     
   55   24   25 ar    
   56   26   30 1     
   57   26   27 1     
   58   26   57 1     
   59   27   28 1     
   60   27   58 1     
   61   27   59 1     
   62   28   29 1     
   63   28   60 1     
   64   28   61 1     
   65   29   30 1     
   66   30   62 1     
   67   30   63 1     
   68    1   64 1     
   69    1   65 1     
   70    7   66 1     
   71   10   67 1     
   72   21   68 1     
   73   21   69 1     
   74   22   70 1     
   75   24   71 1     
   76   29   72 1     
   77   29   73 1     
@<TRIPOS>SUBSTRUCTURE
      1 S1             1
@<TRIPOS>SET
LONE_PAIRS      STATIC     ATOMS    <user>   **** ""
10 64 65 66 67 68 69 70 71 72 73
DONOR_HYDROGENS      STATIC     ATOMS    <user>   **** ""
2 31 55
ATOM$BLUE        STATIC     ATOMS    COLORGROUP SYSTEM
10 64 65 66 67 68 69 70 71 72 73
ATOM$RED        STATIC     ATOMS    COLORGROUP SYSTEM
2 31 55
