#       Name:                AV-unprocessed.smi:694
#       Creating user name   scv26
#       Creation time:       Fri Mar 27 00:36:04 2020


#       File generated by GOLD software.
#

@<TRIPOS>MOLECULE
AV-unprocessed.smi:694
    47    48     1
SMALL
NO_CHARGES


@<TRIPOS>ATOM
      1 ****        -6.4492   0.5061   0.4892 C.3            1 S1                 0.0000
      2 ****        -5.7004  -0.6497   0.9727 N.pl3          1 S1                 0.0000
      3 ****        -6.3982  -1.8956   1.2632 C.3            1 S1                 0.0000
      4 ****        -4.2902  -0.5892   1.0531 C.ar           1 S1                 0.0000
      5 ****        -3.5250  -1.7022   1.4807 C.ar           1 S1                 0.0000
      6 ****        -2.1229  -1.5912   1.5375 C.ar           1 S1                 0.0000
      7 ****        -1.5087  -0.3809   1.1632 C.ar           1 S1                 0.0000
      8 ****        -0.0913  -0.3030   1.2433 N.am           1 S1                 0.0000
      9 ****         0.7371   0.5987   0.6885 C.2            1 S1                 0.0000
     10 ****         0.3939   1.5475  -0.0157 O.2            1 S1                 0.0000
     11 ****         2.0155   0.3262   0.9854 N.am           1 S1                 0.0000
     12 ****         3.1653   1.1010   0.5301 C.3            1 S1                 0.0000
     13 ****         3.5276   0.8012  -0.9388 C.3            1 S1                 0.0000
     14 ****         3.8707  -0.6721  -1.2132 C.3            1 S1                 0.0000
     15 ****         4.8651  -0.6761  -2.3855 C.3            1 S1                 0.0000
     16 ****         5.1772   0.7930  -2.6937 C.3            1 S1                 0.0000
     17 ****         4.7628   1.5582  -1.4364 C.3            1 S1                 0.0000
     18 ****         4.4822   2.9117  -1.7276 O.3            1 S1                 0.0000
     19 ****        -2.3522   0.6821   0.7631 C.ar           1 S1                 0.0000
     20 ****        -3.6968   0.5795   0.7081 N.ar           1 S1                 0.0000
     21 ****        -6.1569   0.7509  -0.5325 H              1 S1                 0.0000
     22 ****        -6.2640   1.3756   1.1209 H              1 S1                 0.0000
     23 ****        -7.5224   0.3156   0.4931 H              1 S1                 0.0000
     24 ****        -6.2282  -2.1977   2.2968 H              1 S1                 0.0000
     25 ****        -6.0527  -2.6923   0.6040 H              1 S1                 0.0000
     26 ****        -7.4737  -1.7903   1.1211 H              1 S1                 0.0000
     27 ****        -3.9832  -2.6369   1.7659 H              1 S1                 0.0000
     28 ****        -1.5278  -2.4320   1.8629 H              1 S1                 0.0000
     29 ****         0.3524  -1.0583   1.7450 H              1 S1                 0.0000
     30 ****         2.2088  -0.4761   1.5668 H              1 S1                 0.0000
     31 ****         2.9667   2.1659   0.6620 H              1 S1                 0.0000
     32 ****         4.0087   0.8642   1.1792 H              1 S1                 0.0000
     33 ****         2.6859   1.0707  -1.5799 H              1 S1                 0.0000
     34 ****         4.3443  -1.1213  -0.3391 H              1 S1                 0.0000
     35 ****         2.9771  -1.2574  -1.4329 H              1 S1                 0.0000
     36 ****         5.7739  -1.2076  -2.1009 H              1 S1                 0.0000
     37 ****         4.4545  -1.1798  -3.2612 H              1 S1                 0.0000
     38 ****         6.2230   0.9549  -2.9566 H              1 S1                 0.0000
     39 ****         4.5715   1.1150  -3.5424 H              1 S1                 0.0000
     40 ****         5.5611   1.5042  -0.6946 H              1 S1                 0.0000
     41 ****         4.1864   3.3349  -0.9362 H              1 S1                 0.0000
     42 ****        -1.9679   1.6526   0.4932 H              1 S1                 0.0000
     43 ****        -0.5743   1.6964  -0.2169 LP             1 S1                 0.0000
     44 ****         1.0831   2.1697  -0.3869 LP             1 S1                 0.0000
     45 ****         3.7680   2.9652  -2.4256 LP             1 S1                 0.0000
     46 ****         5.3095   3.3630  -2.0621 LP             1 S1                 0.0000
     47 ****        -4.2505   1.3591   0.4153 LP             1 S1                 0.0000
@<TRIPOS>BOND
    1    1    2 1     
    2    1   21 1     
    3    1   22 1     
    4    1   23 1     
    5    2    3 1     
    6    2    4 1     
    7    3   24 1     
    8    3   25 1     
    9    3   26 1     
   10    4   20 ar    
   11    4    5 ar    
   12    5    6 ar    
   13    5   27 1     
   14    6    7 ar    
   15    6   28 1     
   16    7    8 1     
   17    7   19 ar    
   18    8    9 am    
   19    8   29 1     
   20    9   10 2     
   21    9   11 am    
   22   11   12 1     
   23   11   30 1     
   24   12   13 1     
   25   12   31 1     
   26   12   32 1     
   27   13   17 1     
   28   13   14 1     
   29   13   33 1     
   30   14   15 1     
   31   14   34 1     
   32   14   35 1     
   33   15   16 1     
   34   15   36 1     
   35   15   37 1     
   36   16   17 1     
   37   16   38 1     
   38   16   39 1     
   39   17   18 1     
   40   17   40 1     
   41   18   41 1     
   42   19   20 ar    
   43   19   42 1     
   44   10   43 1     
   45   10   44 1     
   46   18   45 1     
   47   18   46 1     
   48   20   47 1     
@<TRIPOS>SUBSTRUCTURE
      1 S1             1
@<TRIPOS>SET
LONE_PAIRS      STATIC     ATOMS    <user>   **** ""
5 43 44 45 46 47
DONOR_HYDROGENS      STATIC     ATOMS    <user>   **** ""
3 29 30 41
ATOM$BLUE        STATIC     ATOMS    COLORGROUP SYSTEM
5 43 44 45 46 47
ATOM$RED        STATIC     ATOMS    COLORGROUP SYSTEM
3 29 30 41
