#       Name:                AV-unprocessed.smi:3172
#       Creating user name   scv26
#       Creation time:       Fri Mar 27 17:55:27 2020


#       File generated by GOLD software.
#

@<TRIPOS>MOLECULE
AV-unprocessed.smi:3172
    44    45     1
SMALL
NO_CHARGES


@<TRIPOS>ATOM
      1 ****        -2.7215   3.4179  -1.2281 C.3            1 S1                 0.0000
      2 ****        -2.6415   2.0396  -0.6489 C.2            1 S1                 0.0000
      3 ****        -2.9253   1.8034   0.6936 N.2            1 S1                 0.0000
      4 ****        -2.7520   0.4970   0.8286 C.2            1 S1                 0.0000
      5 ****        -2.3707  -0.1333  -0.2912 N.pl3          1 S1                 0.0000
      6 ****        -2.0798  -1.5521  -0.4253 C.3            1 S1                 0.0000
      7 ****        -0.5649  -1.8291  -0.4523 C.3            1 S1                 0.0000
      8 ****        -0.2698  -3.3158  -0.6951 C.3            1 S1                 0.0000
      9 ****         0.0597  -1.3855   0.8158 N.4            1 S1                 1.0000
     10 ****         1.4098  -0.7947   0.6917 C.3            1 S1                 0.0000
     11 ****         2.1333  -0.8565   2.0501 C.3            1 S1                 0.0000
     12 ****         3.5285  -0.2153   1.9750 C.3            1 S1                 0.0000
     13 ****         3.4466   1.2350   1.4743 C.3            1 S1                 0.0000
     14 ****         2.7219   1.3136   0.1221 C.3            1 S1                 0.0000
     15 ****         1.3298   0.6662   0.1960 C.3            1 S1                 0.0000
     16 ****        -2.3060   0.8558  -1.2716 C.2            1 S1                 0.0000
     17 ****        -1.9273   0.5949  -2.6946 C.3            1 S1                 0.0000
     18 ****        -3.6644   3.5673  -1.7543 H              1 S1                 0.0000
     19 ****        -1.9142   3.5955  -1.9387 H              1 S1                 0.0000
     20 ****        -2.6496   4.1821  -0.4537 H              1 S1                 0.0000
     21 ****        -2.8928  -0.0123   1.7709 H              1 S1                 0.0000
     22 ****        -2.5526  -2.0879   0.3995 H              1 S1                 0.0000
     23 ****        -2.5517  -1.9155  -1.3385 H              1 S1                 0.0000
     24 ****        -0.1380  -1.2679  -1.2830 H              1 S1                 0.0000
     25 ****        -0.7050  -3.6523  -1.6365 H              1 S1                 0.0000
     26 ****        -0.6801  -3.9377   0.1012 H              1 S1                 0.0000
     27 ****         0.8031  -3.5039  -0.7455 H              1 S1                 0.0000
     28 ****        -0.5355  -0.6878   1.2393 H              1 S1                 0.0000
     29 ****         1.9831  -1.3884  -0.0223 H              1 S1                 0.0000
     30 ****         1.5410  -0.3442   2.8098 H              1 S1                 0.0000
     31 ****         2.2262  -1.8928   2.3775 H              1 S1                 0.0000
     32 ****         4.0040  -0.2428   2.9560 H              1 S1                 0.0000
     33 ****         4.1643  -0.7978   1.3069 H              1 S1                 0.0000
     34 ****         2.9194   1.8461   2.2080 H              1 S1                 0.0000
     35 ****         4.4485   1.6556   1.3846 H              1 S1                 0.0000
     36 ****         2.6312   2.3547  -0.1897 H              1 S1                 0.0000
     37 ****         3.3177   0.8131  -0.6421 H              1 S1                 0.0000
     38 ****         0.8612   0.7182  -0.7866 H              1 S1                 0.0000
     39 ****         0.6953   1.2484   0.8661 H              1 S1                 0.0000
     40 ****        -2.2279   1.4231  -3.3362 H              1 S1                 0.0000
     41 ****        -2.4095  -0.3051  -3.0753 H              1 S1                 0.0000
     42 ****        -0.8491   0.4727  -2.7935 H              1 S1                 0.0000
     43 ****         0.1054  -2.1827   1.4343 H              1 S1                 0.0000
     44 ****        -3.1966   2.4652   1.3925 LP             1 S1                 0.0000
@<TRIPOS>BOND
    1    1    2 1     
    2    1   18 1     
    3    1   19 1     
    4    1   20 1     
    5    2   16 2     
    6    2    3 1     
    7    3    4 2     
    8    4    5 1     
    9    4   21 1     
   10    5    6 1     
   11    5   16 1     
   12    6    7 1     
   13    6   22 1     
   14    6   23 1     
   15    7    8 1     
   16    7    9 1     
   17    7   24 1     
   18    8   25 1     
   19    8   26 1     
   20    8   27 1     
   21    9   10 1     
   22    9   28 1     
   23    9   43 1     
   24   10   15 1     
   25   10   11 1     
   26   10   29 1     
   27   11   12 1     
   28   11   30 1     
   29   11   31 1     
   30   12   13 1     
   31   12   32 1     
   32   12   33 1     
   33   13   14 1     
   34   13   34 1     
   35   13   35 1     
   36   14   15 1     
   37   14   36 1     
   38   14   37 1     
   39   15   38 1     
   40   15   39 1     
   41   16   17 1     
   42   17   40 1     
   43   17   41 1     
   44   17   42 1     
   45    3   44 1     
@<TRIPOS>SUBSTRUCTURE
      1 S1             1
@<TRIPOS>SET
LONE_PAIRS      STATIC     ATOMS    <user>   **** ""
1 44
DONOR_HYDROGENS      STATIC     ATOMS    <user>   **** ""
2 28 43
ATOM$BLUE        STATIC     ATOMS    COLORGROUP SYSTEM
1 44
ATOM$RED        STATIC     ATOMS    COLORGROUP SYSTEM
2 28 43
