AV-unprocessed.smi:2646|AV-procd|sdf|10281|dock2
  -GOLD-   2272014293D 1   1.00000     0.00000
 Structure written by MMmdl.
 43 44  0  0  0  0  0  0  0  0  1 V2000
  144.0924  135.7738  153.9626 C   0  0  0  0  0  0  0  0  0  0  0  0
  144.7789  135.8722  152.5762 C   0  0  1  0  0  0  0  0  0  0  0  0
  143.8151  136.6074  151.5986 C   0  0  0  0  0  0  0  0  0  0  0  0
  143.2845  137.7935  152.1554 O   0  0  0  0  0  0  0  0  0  0  0  0
  146.0298  136.6384  152.6920 N   0  0  0  0  0  0  0  0  0  0  0  0
  146.2171  137.8873  153.1496 C   0  0  0  0  0  0  0  0  0  0  0  0
  145.3142  138.6152  153.5598 O   0  0  0  0  0  0  0  0  0  0  0  0
  147.5138  138.2324  153.0751 N   0  0  0  0  0  0  0  0  0  0  0  0
  148.1258  139.4538  153.4649 C   0  0  0  0  0  0  0  0  0  0  0  0
  147.3581  140.6337  153.3841 C   0  0  0  0  0  0  0  0  0  0  0  0
  147.9456  141.8605  153.7467 C   0  0  0  0  0  0  0  0  0  0  0  0
  149.2887  141.8607  154.1697 C   0  0  0  0  0  0  0  0  0  0  0  0
  150.0429  140.7436  154.2376 N   0  0  0  0  0  0  0  0  0  0  0  0
  149.4728  139.5697  153.8899 C   0  0  0  0  0  0  0  0  0  0  0  0
  145.1551  134.4405  152.0526 C   0  0  0  0  0  0  0  0  0  0  0  0
  146.2148  134.4536  150.9168 C   0  0  0  0  0  0  0  0  0  0  0  0
  146.6012  133.0368  150.4629 C   0  0  0  0  0  0  0  0  0  0  0  0
  145.3705  132.2391  150.0149 C   0  0  0  0  0  0  0  0  0  0  0  0
  144.3201  132.1953  151.1312 C   0  0  0  0  0  0  0  0  0  0  0  0
  143.9283  133.6094  151.5879 C   0  0  0  0  0  0  0  0  0  0  0  0
  143.2792  135.0473  153.9501 H   0  0  0  0  0  0  0  0  0  0  0  0
  143.6602  136.7256  154.2714 H   0  0  0  0  0  0  0  0  0  0  0  0
  144.7883  135.4776  154.7471 H   0  0  0  0  0  0  0  0  0  0  0  0
  144.3251  136.8820  150.6753 H   0  0  0  0  0  0  0  0  0  0  0  0
  142.9869  135.9644  151.3007 H   0  0  0  0  0  0  0  0  0  0  0  0
  143.6926  138.5320  151.7298 H   0  0  0  0  0  0  0  0  0  0  0  0
  146.8559  136.1490  152.3805 H   0  0  0  0  0  0  0  0  0  0  0  0
  148.1269  137.5620  152.6350 H   0  0  0  0  0  0  0  0  0  0  0  0
  146.3303  140.6019  153.0530 H   0  0  0  0  0  0  0  0  0  0  0  0
  147.3804  142.7797  153.7018 H   0  0  0  0  0  0  0  0  0  0  0  0
  149.7715  142.7836  154.4555 H   0  0  0  0  0  0  0  0  0  0  0  0
  150.1327  138.7177  153.9385 H   0  0  0  0  0  0  0  0  0  0  0  0
  145.6069  133.8975  152.8841 H   0  0  0  0  0  0  0  0  0  0  0  0
  145.8438  135.0120  150.0567 H   0  0  0  0  0  0  0  0  0  0  0  0
  147.1236  134.9582  151.2414 H   0  0  0  0  0  0  0  0  0  0  0  0
  147.3230  133.0927  149.6475 H   0  0  0  0  0  0  0  0  0  0  0  0
  147.0990  132.5140  151.2807 H   0  0  0  0  0  0  0  0  0  0  0  0
  144.9404  132.6945  149.1217 H   0  0  0  0  0  0  0  0  0  0  0  0
  145.6628  131.2257  149.7380 H   0  0  0  0  0  0  0  0  0  0  0  0
  143.4354  131.6589  150.7870 H   0  0  0  0  0  0  0  0  0  0  0  0
  144.7112  131.6333  151.9804 H   0  0  0  0  0  0  0  0  0  0  0  0
  143.2022  133.5085  152.3931 H   0  0  0  0  0  0  0  0  0  0  0  0
  143.4137  134.1183  150.7722 H   0  0  0  0  0  0  0  0  0  0  0  0
  1  2  1  0  0  0  0
  1 21  1  0  0  0  0
  1 22  1  0  0  0  0
  1 23  1  0  0  0  0
  2  3  1  0  0  0  0
  2  5  1  0  0  0  0
  2 15  1  0  0  0  0
  3  4  1  0  0  0  0
  3 24  1  0  0  0  0
  3 25  1  0  0  0  0
  4 26  1  0  0  0  0
  5  6  1  0  0  0  0
  5 27  1  0  0  0  0
  6  7  2  0  0  0  0
  6  8  1  0  0  0  0
  8  9  1  0  0  0  0
  8 28  1  0  0  0  0
  9 14  1  0  0  0  0
  9 10  2  0  0  0  0
 10 11  1  0  0  0  0
 10 29  1  0  0  0  0
 11 12  2  0  0  0  0
 11 30  1  0  0  0  0
 12 13  1  0  0  0  0
 12 31  1  0  0  0  0
 13 14  2  0  0  0  0
 14 32  1  0  0  0  0
 15 20  1  0  0  0  0
 15 16  1  0  0  0  0
 15 33  1  0  0  0  0
 16 17  1  0  0  0  0
 16 34  1  0  0  0  0
 16 35  1  0  0  0  0
 17 18  1  0  0  0  0
 17 36  1  0  0  0  0
 17 37  1  0  0  0  0
 18 19  1  0  0  0  0
 18 38  1  0  0  0  0
 18 39  1  0  0  0  0
 19 20  1  0  0  0  0
 19 40  1  0  0  0  0
 19 41  1  0  0  0  0
 20 42  1  0  0  0  0
 20 43  1  0  0  0  0
M  END
> <s_m_source_file>
AV-unprocessed.smi

> <i_m_source_file_index>
2646

> <i_lp_mmshare_version>
43012

> <i_f3d_flags>
0

> <s_epik_input>
W0NIMl0xW0NIMl1bQ0gyXVtDSDJdW0NIMl1bQ0hdMVtDQF0oW0NIM10pKFtDSDJdW09IXSlbTkhdQyg9TylbTkhdYzJbY0hdW2NIXVtjSF1uW2NIXTI=

> <s_epik_cmdline>
J2VwaWtfcHl0aG9uJywgJy1waCcsICc3LjAnLCAnLXRuJywgJzgnLCAnLW1hJywgJzIwMCcsICctbWV0YWxfYmluZGluZycsICctaW1hZScsICc8aW5maWxlLm1hZT4nLCAnLW9tYWUnLCAnPG91dGZpbGUubWFlPic=

> <r_epik_Ionization_Penalty>
0.00498697

> <r_epik_Ionization_Penalty_Charging>
0

> <r_epik_Ionization_Penalty_Neutral>
0.00498697

> <r_epik_State_Penalty>
0.00359645

> <r_epik_Charging_Adjusted_Penalty>
0.00359645

> <i_epik_Tot_Q>
0

> <i_epik_Tot_abs_Q>
0

> <r_epik_Metal_State_Penalty>
-0

> <b_epik_Metal_Only>
0

> <s_lp_Force_Field>
OPLS_2005

> <r_lp_Energy>
21.3241

> <b_lp_Chiralities_Consistent>
1

> <s_lp_Variant>
AV-unprocessed.smi:2646-1

> <Gold.Version>
5.8.1

> <Gold.Id.Protein>
6NUR|6NUR_protein|mol2

> <Gold.PLP.Fitness>
45.6609

> <Gold.PLP.PLP>
-33.6798

> <Gold.PLP.part.hbond>
-4.7995

> <Gold.PLP.part.metal>
0.0000

> <Gold.PLP.part.buried>
-2.1685

> <Gold.PLP.part.nonpolar>
-26.2589

> <Gold.PLP.part.repulsive>
0.2610

> <Gold.PLP.ligand.clash>
0.0000

> <Gold.PLP.ligand.torsion>
0.6187

> <Gold.PLP.Chemscore.Hbond>
3.3996

> <Gold.PLP.Chemscore.CHOScore>
0.9745

> <Gold.PLP.Chemscore.Metal>
0.0000

> <Gold.Chemscore.Hbonds>
donor molecule, donor type, donor heavy atom, donor atom, acceptor molecule, acceptor atom, score
      L1  H     4    26       P1 10175  0.50
      L1  H     5    27       P1  7948  0.70
      L1  H     8    28       P1  7948  1.00
      P1  H  7989  7998       L1    13  0.69
      L1  C    12    31       P1  8028  1.00

> <Gold.PLP.Chemscore.Internal.Correction>
0.0961

> <Gold.Rescore>
     Score         DG    S(hbond)    S(metal)    S(lipo)     H(rot)  DE(clash)    DE(int)     intcor
     14.31     -19.98       2.84        0.00      86.16       1.98       1.36       4.31       ----

> <Gold.Chemscore.Fitness>
14.3073

> <Gold.Chemscore.DG>
-19.9808

> <Gold.Chemscore.ZeroCoef>
-5.4800

> <Gold.Chemscore.Hbond>
2.8406

> <Gold.Chemscore.Metal>
0.0000

> <Gold.Chemscore.Lipo>
86.1640

> <Gold.Chemscore.Internal_Hbond>
0.0000

> <Gold.Chemscore.DEClash>
1.3599

> <Gold.Chemscore.DEInternal>
4.3136

> <Gold.Chemscore.Rot>
1.9798

> <Gold.Chemscore.Internal.Correction>
   9.000000E+99

> <Gold.Chemscore.Hbonds>
donor molecule, donor type, donor heavy atom, donor atom, acceptor molecule, acceptor atom, score
      L1  H     4    26       P1 10175  0.46
      L1  H     5    27       P1  7948  0.66
      L1  H     8    28       P1  7948  1.00
      P1  H  7989  7998       L1    13  0.45

> <Gold.Chemscore.Hbond.Weighted>
-9.4877

> <Gold.Chemscore.Metal.Weighted>
-0.0000

> <Gold.Chemscore.Lipo.Weighted>
-10.0812

> <Gold.Chemscore.Internal_Hbond.Weighted>
0.0000

> <Gold.Chemscore.DEClash.Weighted>
1.3599

> <Gold.Chemscore.DEInternal.Weighted>
4.3136

> <Gold.Chemscore.Rot.Weighted>
5.0682

> <Gold.Chemscore.Internal.Correction.Weighted>
   9.000000E+99

> <Gold.Protein.RotatedTorsions>
[ 6907 6896 6895 6894 ] final   92.74 input  -60.11 | X-H torsion
[ 7974 7965 7964 7962 ] final  121.97 input  175.53 | X-H torsion
[ 8008 7997 7996 7995 ] final  100.62 input   59.86 | X-H torsion
[ 10167 10162 10161 10158 ] final  122.01 input  -65.29 | X-H torsion
[ 10718 10713 10712 10709 ] final  154.85 input   66.30 | X-H torsion
[ 10763 10752 10751 10750 ] final -118.11 input  -60.55 | X-H torsion
[ 11005 11000 10999 10996 ] final   59.87 input  -57.11 | X-H torsion

> <Gold.Protein.ActiveResidues>
 VAL166  LYS551  ARG553  GLY616  TRP617  ASP618  TYR619  PRO620  LYS621  CYS622 
 ASP623  PHE694  ASN695  SER759  ASP760  ASP761  ALA762  ILE779  LEU786  VAL792 
 PHE793  MET794  SER795  GLU796  ALA797  LYS798  CYS799  TRP800  GLU811  SER814 

> <Gold.Protein.RotatedAtoms>
  152.5453  134.1455  159.8496 H   0  0  0  0  0  0  0  0  0  0  0  0  # atno 6907 bound_to 6896
  151.1487  133.4915  159.2603 H   0  0  0  0  0  0  0  0  0  0  0  0  # atno 6908 bound_to 6896
  151.1496  135.0231  159.8717 H   0  0  0  0  0  0  0  0  0  0  0  0  # atno 6909 bound_to 6896
  145.1130  139.3440  143.4753 H   0  0  0  0  0  0  0  0  0  0  0  0  # atno 7974 bound_to 7965
  156.1221  140.3210  155.8223 H   0  0  0  0  0  0  0  0  0  0  0  0  # atno 8008 bound_to 7997
  155.4486  140.0530  157.3020 H   0  0  0  0  0  0  0  0  0  0  0  0  # atno 8009 bound_to 7997
  154.4835  140.2063  155.9722 H   0  0  0  0  0  0  0  0  0  0  0  0  # atno 8010 bound_to 7997
  139.5884  144.7016  151.3350 H   0  0  0  0  0  0  0  0  0  0  0  0  # atno 10167 bound_to 10162
  157.2262  131.0729  151.1881 H   0  0  0  0  0  0  0  0  0  0  0  0  # atno 10718 bound_to 10713
  154.8577  135.4285  154.2087 H   0  0  0  0  0  0  0  0  0  0  0  0  # atno 10763 bound_to 10752
  153.3117  135.6976  153.7115 H   0  0  0  0  0  0  0  0  0  0  0  0  # atno 10764 bound_to 10752
  153.6205  135.3503  155.2983 H   0  0  0  0  0  0  0  0  0  0  0  0  # atno 10765 bound_to 10752
  140.0272  134.6065  155.9556 H   0  0  0  0  0  0  0  0  0  0  0  0  # atno 11005 bound_to 11000
  146.3525  140.1057  142.8606 LP  0  0  0  0  0  0  0  0  0  0  0  0  # atno 17320 bound_to 7965
  145.0825  140.9231  143.4817 LP  0  0  0  0  0  0  0  0  0  0  0  0  # atno 17321 bound_to 7965
  140.7152  143.7285  150.7641 LP  0  0  0  0  0  0  0  0  0  0  0  0  # atno 17342 bound_to 10162
  140.0835  143.4946  152.2517 LP  0  0  0  0  0  0  0  0  0  0  0  0  # atno 17343 bound_to 10162
  157.3525  130.7089  149.6450 LP  0  0  0  0  0  0  0  0  0  0  0  0  # atno 17370 bound_to 10713
  155.9678  130.4248  150.4626 LP  0  0  0  0  0  0  0  0  0  0  0  0  # atno 17371 bound_to 10713
  141.1810  133.6546  156.5019 LP  0  0  0  0  0  0  0  0  0  0  0  0  # atno 17394 bound_to 11000
  140.4286  134.7122  157.4929 LP  0  0  0  0  0  0  0  0  0  0  0  0  # atno 17395 bound_to 11000

$$$$
