AV-unprocessed.smi:1214|AV-procd|sdf|5093|dock2
  -GOLD-   22720 4143D 1   1.00000     0.00000
 Structure written by MMmdl.
 33 34  0  0  0  0  0  0  0  0  1 V2000
  148.0673  145.3608  160.5776 C   0  0  0  0  0  0  0  0  0  0  0  0
  146.9734  144.3127  160.7055 C   0  0  0  0  0  0  0  0  0  0  0  0
  146.0870  144.3743  161.8019 C   0  0  0  0  0  0  0  0  0  0  0  0
  145.0759  143.4061  161.9218 C   0  0  0  0  0  0  0  0  0  0  0  0
  144.9942  142.4103  160.9343 C   0  0  0  0  0  0  0  0  0  0  0  0
  145.8372  142.3447  159.8835 N   0  0  0  0  0  0  0  0  0  0  0  0
  146.8177  143.2744  159.7475 C   0  0  0  0  0  0  0  0  0  0  0  0
  147.7633  143.2676  158.6760 N   0  0  0  0  0  0  0  0  0  0  0  0
  148.5060  142.2745  158.1419 C   0  0  0  0  0  0  0  0  0  0  0  0
  148.4484  141.1293  158.5866 O   0  0  0  0  0  0  0  0  0  0  0  0
  149.3102  142.6167  157.1222 N   0  0  0  0  0  0  0  0  0  0  0  0
  150.2030  141.7118  156.4079 C   0  0  1  0  0  0  0  0  0  0  0  0
  151.2679  141.0974  157.3382 C   0  0  0  0  0  0  0  0  0  0  0  0
  151.9056  139.8950  156.6308 C   0  0  0  0  0  0  0  0  0  0  0  0
  150.6114  139.2016  155.5332 S   0  0  0  0  0  0  0  0  0  0  0  0
  151.1020  139.2233  154.1470 O   0  0  0  0  0  0  0  0  0  0  0  0
  150.0689  137.9691  156.1248 O   0  0  0  0  0  0  0  0  0  0  0  0
  149.4090  140.5622  155.7737 C   0  0  0  0  0  0  0  0  0  0  0  0
  148.0279  146.0789  161.3971 H   0  0  0  0  0  0  0  0  0  0  0  0
  147.9595  145.9125  159.6435 H   0  0  0  0  0  0  0  0  0  0  0  0
  149.0510  144.8907  160.5918 H   0  0  0  0  0  0  0  0  0  0  0  0
  146.1788  145.1532  162.5449 H   0  0  0  0  0  0  0  0  0  0  0  0
  144.3824  143.4258  162.7496 H   0  0  0  0  0  0  0  0  0  0  0  0
  144.2337  141.6453  160.9883 H   0  0  0  0  0  0  0  0  0  0  0  0
  147.9237  144.1738  158.2609 H   0  0  0  0  0  0  0  0  0  0  0  0
  149.2933  143.5796  156.8163 H   0  0  0  0  0  0  0  0  0  0  0  0
  150.7116  142.2510  155.6065 H   0  0  0  0  0  0  0  0  0  0  0  0
  152.0194  141.8290  157.6365 H   0  0  0  0  0  0  0  0  0  0  0  0
  150.7850  140.7477  158.2520 H   0  0  0  0  0  0  0  0  0  0  0  0
  152.7400  140.2132  156.0057 H   0  0  0  0  0  0  0  0  0  0  0  0
  152.2605  139.1330  157.3246 H   0  0  0  0  0  0  0  0  0  0  0  0
  148.6299  140.2007  156.4457 H   0  0  0  0  0  0  0  0  0  0  0  0
  148.9511  140.8327  154.8222 H   0  0  0  0  0  0  0  0  0  0  0  0
  1  2  1  0  0  0  0
  1 19  1  0  0  0  0
  1 20  1  0  0  0  0
  1 21  1  0  0  0  0
  2  7  1  0  0  0  0
  2  3  2  0  0  0  0
  3  4  1  0  0  0  0
  3 22  1  0  0  0  0
  4  5  2  0  0  0  0
  4 23  1  0  0  0  0
  5  6  1  0  0  0  0
  5 24  1  0  0  0  0
  6  7  2  0  0  0  0
  7  8  1  0  0  0  0
  8  9  1  0  0  0  0
  8 25  1  0  0  0  0
  9 10  2  0  0  0  0
  9 11  1  0  0  0  0
 11 12  1  0  0  0  0
 11 26  1  0  0  0  0
 12 18  1  0  0  0  0
 12 13  1  0  0  0  0
 12 27  1  0  0  0  0
 13 14  1  0  0  0  0
 13 28  1  0  0  0  0
 13 29  1  0  0  0  0
 14 15  1  0  0  0  0
 14 30  1  0  0  0  0
 14 31  1  0  0  0  0
 15 16  2  0  0  0  0
 15 17  2  0  0  0  0
 15 18  1  0  0  0  0
 18 32  1  0  0  0  0
 18 33  1  0  0  0  0
M  END
> <s_m_source_file>
AV-unprocessed.smi

> <i_m_source_file_index>
1214

> <i_lp_mmshare_version>
43012

> <i_f3d_flags>
0

> <s_epik_input>
W0NIM11jMVtjSF1bY0hdW2NIXW5jMVtOSF1DKD1PKVtOSF1bQ0BASF0oW0NIMl0yKVtDSDJdW0NIMl1TMig9Tyk9Tw==

> <s_epik_cmdline>
J2VwaWtfcHl0aG9uJywgJy1waCcsICc3LjAnLCAnLXRuJywgJzgnLCAnLW1hJywgJzIwMCcsICctbWV0YWxfYmluZGluZycsICctaW1hZScsICc8aW5maWxlLm1hZT4nLCAnLW9tYWUnLCAnPG91dGZpbGUubWFlPic=

> <r_lp_tautomer_probability>
1

> <r_epik_Ionization_Penalty>
4.18367e-05

> <r_epik_Ionization_Penalty_Charging>
0

> <r_epik_Ionization_Penalty_Neutral>
4.18367e-05

> <r_epik_State_Penalty>
-0

> <r_epik_Charging_Adjusted_Penalty>
0

> <i_epik_Tot_Q>
0

> <i_epik_Tot_abs_Q>
0

> <r_epik_Metal_State_Penalty>
-0

> <b_epik_Metal_Only>
0

> <s_lp_Force_Field>
OPLS_2005

> <r_lp_Energy>
8.88594

> <b_lp_Chiralities_Consistent>
1

> <s_lp_Variant>
AV-unprocessed.smi:1214-2

> <Gold.Version>
5.8.1

> <Gold.Id.Protein>
6NUR|6NUR_protein|mol2

> <Gold.PLP.Fitness>
38.0315

> <Gold.PLP.PLP>
-28.0326

> <Gold.PLP.part.hbond>
-5.2153

> <Gold.PLP.part.metal>
0.0000

> <Gold.PLP.part.buried>
-2.5397

> <Gold.PLP.part.nonpolar>
-22.2918

> <Gold.PLP.part.repulsive>
0.3468

> <Gold.PLP.ligand.clash>
0.0000

> <Gold.PLP.ligand.torsion>
0.4010

> <Gold.PLP.Chemscore.Hbond>
3.6000

> <Gold.PLP.Chemscore.CHOScore>
0.0000

> <Gold.PLP.Chemscore.Metal>
0.0000

> <Gold.Chemscore.Hbonds>
donor molecule, donor type, donor heavy atom, donor atom, acceptor molecule, acceptor atom, score
      L1  H     8    25       P1  8029  1.00
      L1  H    11    26       P1  8028  1.00
      P1  H  6934  6946       L1     6  0.65
      P1  H  7989  7998       L1    16  1.00

> <Gold.PLP.Chemscore.Internal.Correction>
0.0010

> <Gold.Rescore>
     Score         DG    S(hbond)    S(metal)    S(lipo)     H(rot)  DE(clash)    DE(int)     intcor
     14.84     -16.83       2.34        0.00      52.21       1.00       0.47       1.53       ----

> <Gold.Chemscore.Fitness>
14.8372

> <Gold.Chemscore.DG>
-16.8328

> <Gold.Chemscore.ZeroCoef>
-5.4800

> <Gold.Chemscore.Hbond>
2.3367

> <Gold.Chemscore.Metal>
0.0000

> <Gold.Chemscore.Lipo>
52.2079

> <Gold.Chemscore.Internal_Hbond>
0.0000

> <Gold.Chemscore.DEClash>
0.4700

> <Gold.Chemscore.DEInternal>
1.5257

> <Gold.Chemscore.Rot>
1.0000

> <Gold.Chemscore.Internal.Correction>
   9.000000E+99

> <Gold.Chemscore.Hbonds>
donor molecule, donor type, donor heavy atom, donor atom, acceptor molecule, acceptor atom, score
      L1  H     8    25       P1  8029  0.42
      L1  H    11    26       P1  8028  0.87
      P1  H  6934  6946       L1     6  0.01
      P1  H  7989  7998       L1    16  0.94

> <Gold.Chemscore.Hbond.Weighted>
-7.8045

> <Gold.Chemscore.Metal.Weighted>
-0.0000

> <Gold.Chemscore.Lipo.Weighted>
-6.1083

> <Gold.Chemscore.Internal_Hbond.Weighted>
0.0000

> <Gold.Chemscore.DEClash.Weighted>
0.4700

> <Gold.Chemscore.DEInternal.Weighted>
1.5257

> <Gold.Chemscore.Rot.Weighted>
2.5600

> <Gold.Chemscore.Internal.Correction.Weighted>
   9.000000E+99

> <Gold.Protein.RotatedTorsions>
[ 6907 6896 6895 6894 ] final  -71.58 input  -60.11 | X-H torsion
[ 7974 7965 7964 7962 ] final   69.91 input  175.53 | X-H torsion
[ 8008 7997 7996 7995 ] final   23.12 input   59.86 | X-H torsion
[ 10167 10162 10161 10158 ] final -179.16 input  -65.29 | X-H torsion
[ 10718 10713 10712 10709 ] final   71.26 input   66.30 | X-H torsion
[ 10763 10752 10751 10750 ] final  -18.06 input  -60.55 | X-H torsion
[ 11005 11000 10999 10996 ] final  -99.37 input  -57.11 | X-H torsion

> <Gold.Protein.ActiveResidues>
 VAL166  LYS551  ARG553  GLY616  TRP617  ASP618  TYR619  PRO620  LYS621  CYS622 
 ASP623  PHE694  ASN695  SER759  ASP760  ASP761  ALA762  ILE779  LEU786  VAL792 
 PHE793  MET794  SER795  GLU796  ALA797  LYS798  CYS799  TRP800  GLU811  SER814 

> <Gold.Protein.RotatedAtoms>
  150.7206  134.5287  159.5689 H   0  0  0  0  0  0  0  0  0  0  0  0  # atno 6907 bound_to 6896
  152.2825  134.7809  160.0403 H   0  0  0  0  0  0  0  0  0  0  0  0  # atno 6908 bound_to 6896
  151.8451  133.3395  159.3692 H   0  0  0  0  0  0  0  0  0  0  0  0  # atno 6909 bound_to 6896
  145.7846  139.2904  143.1245 H   0  0  0  0  0  0  0  0  0  0  0  0  # atno 7974 bound_to 7965
  154.9762  140.3096  155.4966 H   0  0  0  0  0  0  0  0  0  0  0  0  # atno 8008 bound_to 7997
  156.2959  140.2275  156.4797 H   0  0  0  0  0  0  0  0  0  0  0  0  # atno 8009 bound_to 7997
  154.7831  140.0444  157.1131 H   0  0  0  0  0  0  0  0  0  0  0  0  # atno 8010 bound_to 7997
  139.5399  144.2392  152.0873 H   0  0  0  0  0  0  0  0  0  0  0  0  # atno 10167 bound_to 10162
  157.6443  130.9519  150.0765 H   0  0  0  0  0  0  0  0  0  0  0  0  # atno 10718 bound_to 10713
  153.5835  135.7004  153.5453 H   0  0  0  0  0  0  0  0  0  0  0  0  # atno 10763 bound_to 10752
  153.3240  135.4066  155.1440 H   0  0  0  0  0  0  0  0  0  0  0  0  # atno 10764 bound_to 10752
  154.8613  135.3702  154.5363 H   0  0  0  0  0  0  0  0  0  0  0  0  # atno 10765 bound_to 10752
  141.1311  133.8316  157.0962 H   0  0  0  0  0  0  0  0  0  0  0  0  # atno 11005 bound_to 11000
  146.0039  140.8496  143.0005 LP  0  0  0  0  0  0  0  0  0  0  0  0  # atno 17320 bound_to 7965
  144.6791  140.2392  143.7346 LP  0  0  0  0  0  0  0  0  0  0  0  0  # atno 17321 bound_to 7965
  140.1869  144.4790  150.6499 LP  0  0  0  0  0  0  0  0  0  0  0  0  # atno 17342 bound_to 10162
  140.6624  143.2256  151.5824 LP  0  0  0  0  0  0  0  0  0  0  0  0  # atno 17343 bound_to 10162
  156.1754  130.3648  149.9108 LP  0  0  0  0  0  0  0  0  0  0  0  0  # atno 17370 bound_to 10713
  156.7073  130.8956  151.3606 LP  0  0  0  0  0  0  0  0  0  0  0  0  # atno 17371 bound_to 10713
  140.0361  134.9877  157.0874 LP  0  0  0  0  0  0  0  0  0  0  0  0  # atno 17394 bound_to 11000
  140.4208  134.1883  155.7164 LP  0  0  0  0  0  0  0  0  0  0  0  0  # atno 17395 bound_to 11000

$$$$
