AV-unprocessed.smi:1952|AV-procd|sdf|7891|dock7
  -GOLD-   2272010 43D 1   1.00000     0.00000
 Structure written by MMmdl.
 39 40  0  0  0  0  0  0  0  0  3 V2000
  146.8810  141.7564  153.9846 C   0  0  0  0  0  0  0  0  0  0  0  0
  147.9940  140.7738  154.1174 C   0  0  0  0  0  0  0  0  0  0  0  0
  148.0202  139.4122  154.2282 C   0  0  0  0  0  0  0  0  0  0  0  0
  149.4077  139.1232  154.3168 C   0  0  0  0  0  0  0  0  0  0  0  0
  149.8611  137.7853  154.4574 N   0  0  0  0  0  0  0  0  0  0  0  0
  151.1193  137.3137  154.4015 C   0  0  0  0  0  0  0  0  0  0  0  0
  152.0601  138.0712  154.1359 O   0  0  0  0  0  0  0  0  0  0  0  0
  151.1859  135.9810  154.6758 N   0  5  0  0  0  0  0  0  0  0  0  0
  150.1706  135.2118  155.4073 C   0  0  2  0  0  0  0  0  0  0  0  0
  150.8318  134.5611  156.6303 C   0  0  0  0  0  0  0  0  0  0  0  0
  149.5348  134.1473  154.4791 C   0  0  0  0  0  0  0  0  0  0  0  0
  148.2949  134.6415  153.8228 N   0  3  0  0  0  0  0  0  0  0  0  0
  147.5766  133.6042  153.0473 C   0  0  0  0  0  0  0  0  0  0  0  0
  146.3953  134.2371  152.2931 C   0  0  0  0  0  0  0  0  0  0  0  0
  145.5305  134.8890  153.2160 O   0  0  0  0  0  0  0  0  0  0  0  0
  146.1906  135.9369  153.9171 C   0  0  0  0  0  0  0  0  0  0  0  0
  147.3601  135.3562  154.7278 C   0  0  0  0  0  0  0  0  0  0  0  0
  150.1607  140.2121  154.2692 N   0  0  0  0  0  0  0  0  0  0  0  0
  149.2590  141.2748  154.1384 O   0  0  0  0  0  0  0  0  0  0  0  0
  146.1045  141.5624  154.7246 H   0  0  0  0  0  0  0  0  0  0  0  0
  146.4286  141.6938  152.9949 H   0  0  0  0  0  0  0  0  0  0  0  0
  147.2370  142.7766  154.1296 H   0  0  0  0  0  0  0  0  0  0  0  0
  147.1804  138.7336  154.2435 H   0  0  0  0  0  0  0  0  0  0  0  0
  149.1451  137.1002  154.6478 H   0  0  0  0  0  0  0  0  0  0  0  0
  149.3718  135.8545  155.7801 H   0  0  0  0  0  0  0  0  0  0  0  0
  150.1064  133.9872  157.2074 H   0  0  0  0  0  0  0  0  0  0  0  0
  151.2565  135.3137  157.2956 H   0  0  0  0  0  0  0  0  0  0  0  0
  151.6343  133.8826  156.3383 H   0  0  0  0  0  0  0  0  0  0  0  0
  150.2696  133.8641  153.7232 H   0  0  0  0  0  0  0  0  0  0  0  0
  149.3154  133.2341  155.0341 H   0  0  0  0  0  0  0  0  0  0  0  0
  148.2572  133.1400  152.3324 H   0  0  0  0  0  0  0  0  0  0  0  0
  147.2246  132.8195  153.7186 H   0  0  0  0  0  0  0  0  0  0  0  0
  146.7490  134.9474  151.5438 H   0  0  0  0  0  0  0  0  0  0  0  0
  145.8326  133.4684  151.7630 H   0  0  0  0  0  0  0  0  0  0  0  0
  146.5422  136.6958  153.2161 H   0  0  0  0  0  0  0  0  0  0  0  0
  145.4766  136.4232  154.5819 H   0  0  0  0  0  0  0  0  0  0  0  0
  146.9871  134.6697  155.4894 H   0  0  0  0  0  0  0  0  0  0  0  0
  147.8794  136.1617  155.2478 H   0  0  0  0  0  0  0  0  0  0  0  0
  148.6155  135.3189  153.1437 H   0  0  0  0  0  0  0  0  0  0  0  0
  1  2  1  0  0  0  0
  1 20  1  0  0  0  0
  1 21  1  0  0  0  0
  1 22  1  0  0  0  0
  2 19  1  0  0  0  0
  2  3  2  0  0  0  0
  3  4  1  0  0  0  0
  3 23  1  0  0  0  0
  4  5  1  0  0  0  0
  4 18  2  0  0  0  0
  5  6  1  0  0  0  0
  5 24  1  0  0  0  0
  6  7  2  0  0  0  0
  6  8  1  0  0  0  0
  8  9  1  0  0  0  0
  9 10  1  0  0  0  0
  9 11  1  0  0  0  0
  9 25  1  0  0  0  0
 10 26  1  0  0  0  0
 10 27  1  0  0  0  0
 10 28  1  0  0  0  0
 11 12  1  0  0  0  0
 11 29  1  0  0  0  0
 11 30  1  0  0  0  0
 12 17  1  0  0  0  0
 12 13  1  0  0  0  0
 12 39  1  0  0  0  0
 13 14  1  0  0  0  0
 13 31  1  0  0  0  0
 13 32  1  0  0  0  0
 14 15  1  0  0  0  0
 14 33  1  0  0  0  0
 14 34  1  0  0  0  0
 15 16  1  0  0  0  0
 16 17  1  0  0  0  0
 16 35  1  0  0  0  0
 16 36  1  0  0  0  0
 17 37  1  0  0  0  0
 17 38  1  0  0  0  0
 18 19  1  0  0  0  0
M  CHG  1   8  -1
M  CHG  1  12   1
M  END
> <s_m_source_file>
AV-unprocessed.smi

> <i_m_source_file_index>
1952

> <i_lp_mmshare_version>
43012

> <i_f3d_flags>
0

> <s_epik_input>
W0NIM11jMVtjSF1jKG5vMSlbTkhdQyg9TylbTkhdW0NASF0oW0NIM10pW0NIMl1OMltDSDJdW0NIMl1PW0NIMl1bQ0gyXTI=

> <s_epik_cmdline>
J2VwaWtfcHl0aG9uJywgJy1waCcsICc3LjAnLCAnLXRuJywgJzgnLCAnLW1hJywgJzIwMCcsICctbWV0YWxfYmluZGluZycsICctaW1hZScsICc8aW5maWxlLm1hZT4nLCAnLW9tYWUnLCAnPG91dGZpbGUubWFlPic=

> <r_epik_Ionization_Penalty>
6.76648

> <r_epik_Ionization_Penalty_Charging>
6.76648

> <r_epik_Ionization_Penalty_Neutral>
5.6208e-06

> <r_epik_State_Penalty>
7.45901

> <r_epik_Charging_Adjusted_Penalty>
14.2255

> <i_epik_Tot_Q>
0

> <i_epik_Tot_abs_Q>
2

> <r_epik_Metal_State_Penalty>
3.38802

> <b_epik_Metal_Only>
1

> <s_lp_Force_Field>
OPLS_2005

> <r_lp_Energy>
9.23167

> <b_lp_Chiralities_Consistent>
1

> <s_lp_Variant>
AV-unprocessed.smi:1952-9

> <Gold.Version>
5.8.1

> <Gold.Id.Protein>
6NUR|6NUR_protein|mol2

> <Gold.PLP.Fitness>
43.3243

> <Gold.PLP.PLP>
-27.1283

> <Gold.PLP.part.hbond>
-5.8352

> <Gold.PLP.part.metal>
0.0000

> <Gold.PLP.part.buried>
-1.3139

> <Gold.PLP.part.nonpolar>
-20.6993

> <Gold.PLP.part.repulsive>
1.7536

> <Gold.PLP.ligand.clash>
0.0000

> <Gold.PLP.ligand.torsion>
0.6416

> <Gold.PLP.Chemscore.Hbond>
5.7556

> <Gold.PLP.Chemscore.CHOScore>
0.0000

> <Gold.PLP.Chemscore.Metal>
0.0000

> <Gold.Chemscore.Hbonds>
donor molecule, donor type, donor heavy atom, donor atom, acceptor molecule, acceptor atom, score
      L1  H    12    39       P1  7948  2.00
      P1  H  7989  7998       L1    18  0.99
      P1  H  8011  8017       L1    19  0.43
      P1  H 10752 10765       L1     8  2.00

> <Gold.PLP.Chemscore.Internal.Correction>
0.2123

> <Gold.Rescore>
     Score         DG    S(hbond)    S(metal)    S(lipo)     H(rot)  DE(clash)    DE(int)     intcor
     12.94     -15.25       2.45        0.00      48.06       1.58       0.19       2.11       ----

> <Gold.Chemscore.Fitness>
12.9407

> <Gold.Chemscore.DG>
-15.2473

> <Gold.Chemscore.ZeroCoef>
-5.4800

> <Gold.Chemscore.Hbond>
2.4517

> <Gold.Chemscore.Metal>
0.0000

> <Gold.Chemscore.Lipo>
48.0593

> <Gold.Chemscore.Internal_Hbond>
0.0000

> <Gold.Chemscore.DEClash>
0.1919

> <Gold.Chemscore.DEInternal>
2.1147

> <Gold.Chemscore.Rot>
1.5798

> <Gold.Chemscore.Internal.Correction>
   9.000000E+99

> <Gold.Chemscore.Hbonds>
donor molecule, donor type, donor heavy atom, donor atom, acceptor molecule, acceptor atom, score
      L1  H    12    39       P1  7948  0.86
      P1  H  7989  7998       L1    18  0.28
      P1  H  8011  8017       L1    19  0.25
      P1  H 10752 10765       L1     8  0.45

> <Gold.Chemscore.Hbond.Weighted>
-8.1885

> <Gold.Chemscore.Metal.Weighted>
-0.0000

> <Gold.Chemscore.Lipo.Weighted>
-5.6229

> <Gold.Chemscore.Internal_Hbond.Weighted>
0.0000

> <Gold.Chemscore.DEClash.Weighted>
0.1919

> <Gold.Chemscore.DEInternal.Weighted>
2.1147

> <Gold.Chemscore.Rot.Weighted>
4.0442

> <Gold.Chemscore.Internal.Correction.Weighted>
   9.000000E+99

> <Gold.Protein.RotatedTorsions>
[ 6907 6896 6895 6894 ] final -128.46 input  -60.11 | X-H torsion
[ 7974 7965 7964 7962 ] final -103.13 input  175.53 | X-H torsion
[ 8008 7997 7996 7995 ] final  -30.76 input   59.86 | X-H torsion
[ 10167 10162 10161 10158 ] final   67.97 input  -65.29 | X-H torsion
[ 10718 10713 10712 10709 ] final   89.79 input   66.30 | X-H torsion
[ 10763 10752 10751 10750 ] final  177.34 input  -60.55 | X-H torsion
[ 11005 11000 10999 10996 ] final    7.10 input  -57.11 | X-H torsion

> <Gold.Protein.ActiveResidues>
 VAL166  LYS551  ARG553  GLY616  TRP617  ASP618  TYR619  PRO620  LYS621  CYS622 
 ASP623  PHE694  ASN695  SER759  ASP760  ASP761  ALA762  ILE779  LEU786  VAL792 
 PHE793  MET794  SER795  GLU796  ALA797  LYS798  CYS799  TRP800  GLU811  SER814 

> <Gold.Protein.RotatedAtoms>
  150.9182  133.6913  159.2838 H   0  0  0  0  0  0  0  0  0  0  0  0  # atno 6907 bound_to 6896
  151.4377  135.1015  159.9670 H   0  0  0  0  0  0  0  0  0  0  0  0  # atno 6908 bound_to 6896
  152.4966  133.8597  159.7299 H   0  0  0  0  0  0  0  0  0  0  0  0  # atno 6909 bound_to 6896
  145.2598  140.9265  143.3047 H   0  0  0  0  0  0  0  0  0  0  0  0  # atno 7974 bound_to 7965
  154.4238  140.1783  156.1458 H   0  0  0  0  0  0  0  0  0  0  0  0  # atno 8008 bound_to 7997
  155.9955  140.3365  155.6770 H   0  0  0  0  0  0  0  0  0  0  0  0  # atno 8009 bound_to 7997
  155.6314  140.0670  157.2638 H   0  0  0  0  0  0  0  0  0  0  0  0  # atno 8010 bound_to 7997
  140.0837  144.5048  150.7144 H   0  0  0  0  0  0  0  0  0  0  0  0  # atno 10167 bound_to 10162
  157.6957  131.0346  150.3479 H   0  0  0  0  0  0  0  0  0  0  0  0  # atno 10718 bound_to 10713
  154.4932  135.2780  155.1480 H   0  0  0  0  0  0  0  0  0  0  0  0  # atno 10763 bound_to 10752
  154.3144  135.6222  153.5483 H   0  0  0  0  0  0  0  0  0  0  0  0  # atno 10764 bound_to 10752
  152.9891  135.5727  154.5358 H   0  0  0  0  0  0  0  0  0  0  0  0  # atno 10765 bound_to 10752
  140.5520  134.0274  155.7940 H   0  0  0  0  0  0  0  0  0  0  0  0  # atno 11005 bound_to 11000
  144.9428  139.4169  143.6440 LP  0  0  0  0  0  0  0  0  0  0  0  0  # atno 17320 bound_to 7965
  146.3278  139.8397  142.8893 LP  0  0  0  0  0  0  0  0  0  0  0  0  # atno 17321 bound_to 7965
  140.7064  143.2471  151.4713 LP  0  0  0  0  0  0  0  0  0  0  0  0  # atno 17342 bound_to 10162
  139.5764  144.1809  152.1909 LP  0  0  0  0  0  0  0  0  0  0  0  0  # atno 17343 bound_to 10162
  156.3931  130.3901  149.7015 LP  0  0  0  0  0  0  0  0  0  0  0  0  # atno 17370 bound_to 10713
  156.4358  130.7837  151.2857 LP  0  0  0  0  0  0  0  0  0  0  0  0  # atno 17371 bound_to 10713
  141.1166  133.9531  157.2811 LP  0  0  0  0  0  0  0  0  0  0  0  0  # atno 17394 bound_to 11000
  139.9450  135.0185  156.8825 LP  0  0  0  0  0  0  0  0  0  0  0  0  # atno 17395 bound_to 11000

$$$$
