AV-unprocessed.smi:3261|AV-procd|sdf|12481|dock5
  -GOLD-   2272018383D 1   1.00000     0.00000
 Structure written by MMmdl.
 31 32  0  0  0  0  0  0  0  0  2 V2000
  152.9748  139.6639  159.6848 O   0  0  0  0  0  0  0  0  0  0  0  0
  153.5997  140.4997  160.3335 C   0  0  0  0  0  0  0  0  0  0  0  0
  153.5072  141.8333  160.1598 N   0  0  0  0  0  0  0  0  0  0  0  0
  152.6724  142.5655  159.2717 C   0  0  0  0  0  0  0  0  0  0  0  0
  151.7611  141.8292  158.4823 C   0  0  0  0  0  0  0  0  0  0  0  0
  150.9219  142.5053  157.5732 C   0  0  0  0  0  0  0  0  0  0  0  0
  151.0007  143.8480  157.4570 N   0  3  0  0  0  0  0  0  0  0  0  0
  151.8638  144.5938  158.1794 C   0  0  0  0  0  0  0  0  0  0  0  0
  152.7278  143.9733  159.1048 C   0  0  0  0  0  0  0  0  0  0  0  0
  154.4774  140.1254  161.2822 N   0  0  0  0  0  0  0  0  0  0  0  0
  154.8189  138.7709  161.7204 C   0  0  1  0  0  0  0  0  0  0  0  0
  153.6623  138.1402  162.5180 C   0  0  0  0  0  0  0  0  0  0  0  0
  153.9139  136.6320  162.6416 C   0  0  0  0  0  0  0  0  0  0  0  0
  154.8413  136.1442  161.1371 S   0  0  0  0  0  0  0  0  0  0  0  0
  156.1262  135.5531  161.5402 O   0  0  0  0  0  0  0  0  0  0  0  0
  153.9438  135.4444  160.2060 O   0  0  0  0  0  0  0  0  0  0  0  0
  155.1236  137.8487  160.5291 C   0  0  0  0  0  0  0  0  0  0  0  0
  154.1454  142.3905  160.7087 H   0  0  0  0  0  0  0  0  0  0  0  0
  151.6997  140.7541  158.5728 H   0  0  0  0  0  0  0  0  0  0  0  0
  150.1971  142.0157  156.9390 H   0  0  0  0  0  0  0  0  0  0  0  0
  151.8425  145.6577  157.9930 H   0  0  0  0  0  0  0  0  0  0  0  0
  153.4210  144.5904  159.6549 H   0  0  0  0  0  0  0  0  0  0  0  0
  154.9812  140.8709  161.7413 H   0  0  0  0  0  0  0  0  0  0  0  0
  155.6889  138.7962  162.3789 H   0  0  0  0  0  0  0  0  0  0  0  0
  153.5431  138.6054  163.4970 H   0  0  0  0  0  0  0  0  0  0  0  0
  152.7268  138.2937  161.9780 H   0  0  0  0  0  0  0  0  0  0  0  0
  154.5394  136.4132  163.5074 H   0  0  0  0  0  0  0  0  0  0  0  0
  152.9939  136.0529  162.7224 H   0  0  0  0  0  0  0  0  0  0  0  0
  154.4297  138.0255  159.7062 H   0  0  0  0  0  0  0  0  0  0  0  0
  156.1419  137.9478  160.1531 H   0  0  0  0  0  0  0  0  0  0  0  0
  150.3862  144.3183  156.7921 H   0  0  0  0  0  0  0  0  0  0  0  0
  1  2  2  0  0  0  0
  2  3  1  0  0  0  0
  2 10  1  0  0  0  0
  3  4  1  0  0  0  0
  3 18  1  0  0  0  0
  4  9  1  0  0  0  0
  4  5  2  0  0  0  0
  5  6  1  0  0  0  0
  5 19  1  0  0  0  0
  6  7  2  0  0  0  0
  6 20  1  0  0  0  0
  7  8  1  0  0  0  0
  7 31  1  0  0  0  0
  8  9  2  0  0  0  0
  8 21  1  0  0  0  0
  9 22  1  0  0  0  0
 10 11  1  0  0  0  0
 10 23  1  0  0  0  0
 11 17  1  0  0  0  0
 11 12  1  0  0  0  0
 11 24  1  0  0  0  0
 12 13  1  0  0  0  0
 12 25  1  0  0  0  0
 12 26  1  0  0  0  0
 13 14  1  0  0  0  0
 13 27  1  0  0  0  0
 13 28  1  0  0  0  0
 14 15  2  0  0  0  0
 14 16  2  0  0  0  0
 14 17  1  0  0  0  0
 17 29  1  0  0  0  0
 17 30  1  0  0  0  0
M  CHG  1   7   1
M  END
> <s_m_source_file>
AV-unprocessed.smi

> <i_m_source_file_index>
3261

> <i_lp_mmshare_version>
43012

> <i_f3d_flags>
0

> <s_epik_input>
Tz1TMSg9TylbQ0gyXVtDSDJdW0NASF0oW0NIMl0xKVtOSF1DKD1PKVtOSF1jMltjSF1bY0hdbltjSF1bY0hdMg==

> <s_epik_cmdline>
J2VwaWtfcHl0aG9uJywgJy1waCcsICc3LjAnLCAnLXRuJywgJzgnLCAnLW1hJywgJzIwMCcsICctbWV0YWxfYmluZGluZycsICctaW1hZScsICc8aW5maWxlLm1hZT4nLCAnLW9tYWUnLCAnPG91dGZpbGUubWFlPic=

> <r_epik_Ionization_Penalty>
1.10375

> <r_epik_Ionization_Penalty_Charging>
1.10372

> <r_epik_Ionization_Penalty_Neutral>
2.06752e-05

> <r_epik_State_Penalty>
1.16109

> <r_epik_Charging_Adjusted_Penalty>
2.26482

> <i_epik_Tot_Q>
1

> <i_epik_Tot_abs_Q>
1

> <r_epik_Metal_State_Penalty>
1.24883

> <b_epik_Metal_Only>
0

> <s_lp_Force_Field>
OPLS_2005

> <r_lp_Energy>
25.5271

> <b_lp_Chiralities_Consistent>
1

> <s_lp_Variant>
AV-unprocessed.smi:3261-4

> <Gold.Version>
5.8.1

> <Gold.Id.Protein>
6NUR|6NUR_protein|mol2

> <Gold.PLP.Fitness>
39.4493

> <Gold.PLP.PLP>
-30.6886

> <Gold.PLP.part.hbond>
-2.0000

> <Gold.PLP.part.metal>
0.0000

> <Gold.PLP.part.buried>
-5.1134

> <Gold.PLP.part.nonpolar>
-24.1661

> <Gold.PLP.part.repulsive>
0.0752

> <Gold.PLP.ligand.clash>
0.0000

> <Gold.PLP.ligand.torsion>
0.1199

> <Gold.PLP.Chemscore.Hbond>
3.0000

> <Gold.PLP.Chemscore.CHOScore>
0.0000

> <Gold.PLP.Chemscore.Metal>
0.0000

> <Gold.Chemscore.Hbonds>
donor molecule, donor type, donor heavy atom, donor atom, acceptor molecule, acceptor atom, score
      L1  H     7    31       P1  8028  2.00
      P1  H  6896  6909       L1    16  1.00

> <Gold.PLP.Chemscore.Internal.Correction>
0.0005

> <Gold.Rescore>
     Score         DG    S(hbond)    S(metal)    S(lipo)     H(rot)  DE(clash)    DE(int)     intcor
     17.68     -19.13       1.98        0.00      81.97       1.00       0.01       1.44       ----

> <Gold.Chemscore.Fitness>
17.6752

> <Gold.Chemscore.DG>
-19.1346

> <Gold.Chemscore.ZeroCoef>
-5.4800

> <Gold.Chemscore.Hbond>
1.9834

> <Gold.Chemscore.Metal>
0.0000

> <Gold.Chemscore.Lipo>
81.9667

> <Gold.Chemscore.Internal_Hbond>
0.0000

> <Gold.Chemscore.DEClash>
0.0149

> <Gold.Chemscore.DEInternal>
1.4446

> <Gold.Chemscore.Rot>
1.0000

> <Gold.Chemscore.Internal.Correction>
   9.000000E+99

> <Gold.Chemscore.Hbonds>
donor molecule, donor type, donor heavy atom, donor atom, acceptor molecule, acceptor atom, score
      L1  H     7    31       P1  8028  0.97
      P1  H  6896  6909       L1    16  1.00

> <Gold.Chemscore.Hbond.Weighted>
-6.6245

> <Gold.Chemscore.Metal.Weighted>
-0.0000

> <Gold.Chemscore.Lipo.Weighted>
-9.5901

> <Gold.Chemscore.Internal_Hbond.Weighted>
0.0000

> <Gold.Chemscore.DEClash.Weighted>
0.0149

> <Gold.Chemscore.DEInternal.Weighted>
1.4446

> <Gold.Chemscore.Rot.Weighted>
2.5600

> <Gold.Chemscore.Internal.Correction.Weighted>
   9.000000E+99

> <Gold.Protein.RotatedTorsions>
[ 6907 6896 6895 6894 ] final  177.72 input  -60.11 | X-H torsion
[ 7974 7965 7964 7962 ] final  -97.77 input  175.53 | X-H torsion
[ 8008 7997 7996 7995 ] final -121.43 input   59.86 | X-H torsion
[ 10167 10162 10161 10158 ] final -162.12 input  -65.29 | X-H torsion
[ 10718 10713 10712 10709 ] final -137.54 input   66.30 | X-H torsion
[ 10763 10752 10751 10750 ] final  108.19 input  -60.55 | X-H torsion
[ 11005 11000 10999 10996 ] final -107.66 input  -57.11 | X-H torsion

> <Gold.Protein.ActiveResidues>
 VAL166  LYS551  ARG553  GLY616  TRP617  ASP618  TYR619  PRO620  LYS621  CYS622 
 ASP623  PHE694  ASN695  SER759  ASP760  ASP761  ALA762  ILE779  LEU786  VAL792 
 PHE793  MET794  SER795  GLU796  ALA797  LYS798  CYS799  TRP800  GLU811  SER814 

> <Gold.Protein.RotatedAtoms>
  151.6994  133.3311  159.3262 H   0  0  0  0  0  0  0  0  0  0  0  0  # atno 6907 bound_to 6896
  150.7743  134.6629  159.6359 H   0  0  0  0  0  0  0  0  0  0  0  0  # atno 6908 bound_to 6896
  152.3779  134.6639  160.0205 H   0  0  0  0  0  0  0  0  0  0  0  0  # atno 6909 bound_to 6896
  145.3293  140.9438  143.2671 H   0  0  0  0  0  0  0  0  0  0  0  0  # atno 7974 bound_to 7965
  155.1478  140.0403  157.2814 H   0  0  0  0  0  0  0  0  0  0  0  0  # atno 8008 bound_to 7997
  154.6426  140.2550  155.7278 H   0  0  0  0  0  0  0  0  0  0  0  0  # atno 8009 bound_to 7997
  156.2540  140.2852  156.0826 H   0  0  0  0  0  0  0  0  0  0  0  0  # atno 8010 bound_to 7997
  139.6415  144.0251  152.2095 H   0  0  0  0  0  0  0  0  0  0  0  0  # atno 10167 bound_to 10162
  156.2893  130.7366  151.1387 H   0  0  0  0  0  0  0  0  0  0  0  0  # atno 10718 bound_to 10713
  153.4172  135.3820  155.2088 H   0  0  0  0  0  0  0  0  0  0  0  0  # atno 10763 bound_to 10752
  154.8742  135.3808  154.4428 H   0  0  0  0  0  0  0  0  0  0  0  0  # atno 10764 bound_to 10752
  153.4944  135.7088  153.5929 H   0  0  0  0  0  0  0  0  0  0  0  0  # atno 10765 bound_to 10752
  141.0942  133.9001  157.2003 H   0  0  0  0  0  0  0  0  0  0  0  0  # atno 11005 bound_to 11000
  144.8877  139.4817  143.6693 LP  0  0  0  0  0  0  0  0  0  0  0  0  # atno 17320 bound_to 7965
  146.3052  139.7556  142.9062 LP  0  0  0  0  0  0  0  0  0  0  0  0  # atno 17321 bound_to 7965
  139.9942  144.6340  150.7787 LP  0  0  0  0  0  0  0  0  0  0  0  0  # atno 17342 bound_to 10162
  140.7493  143.2936  151.3263 LP  0  0  0  0  0  0  0  0  0  0  0  0  # atno 17343 bound_to 10162
  157.7338  131.0588  150.5559 LP  0  0  0  0  0  0  0  0  0  0  0  0  # atno 17370 bound_to 10713
  156.5674  130.4271  149.6035 LP  0  0  0  0  0  0  0  0  0  0  0  0  # atno 17371 bound_to 10713
  139.9775  135.0109  156.9667 LP  0  0  0  0  0  0  0  0  0  0  0  0  # atno 17394 bound_to 11000
  140.5180  134.0936  155.7285 LP  0  0  0  0  0  0  0  0  0  0  0  0  # atno 17395 bound_to 11000

$$$$
