AV-unprocessed.smi:620|AV-procd|sdf|3087|dock1
  -GOLD-   22720 0 13D 1   1.00000     0.00000
 Structure written by MMmdl.
 33 35  0  0  0  0  0  0  0  0  1 V2000
  144.1583  143.8324  162.3811 C   0  0  0  0  0  0  0  0  0  0  0  0
  145.1400  143.5381  161.2988 C   0  0  0  0  0  0  0  0  0  0  0  0
  145.2267  142.3425  160.7017 N   0  0  0  0  0  0  0  0  0  0  0  0
  146.2092  142.3112  159.7208 N   0  0  0  0  0  0  0  0  0  0  0  0
  146.8380  143.4844  159.6069 C   0  0  0  0  0  0  0  0  0  0  0  0
  147.8645  143.5999  158.6366 N   0  0  0  0  0  0  0  0  0  0  0  0
  148.9460  142.8192  158.4820 C   0  0  0  0  0  0  0  0  0  0  0  0
  149.2131  141.8312  159.1655 O   0  0  0  0  0  0  0  0  0  0  0  0
  149.7145  143.2524  157.4721 N   0  0  0  0  0  0  0  0  0  0  0  0
  150.9678  142.6458  157.0352 C   0  0  0  0  0  0  0  0  0  0  0  0
  150.8415  141.1479  156.8061 C   0  0  0  0  0  0  0  0  0  0  0  0
  151.8431  140.3919  155.9650 C   0  0  0  0  0  0  0  0  0  0  0  0
  150.4313  140.5886  155.4636 C   0  0  0  0  0  0  0  0  0  0  0  0
  152.0942  142.9372  158.0101 C   0  0  0  0  0  0  0  0  0  0  0  0
  151.8418  142.9930  159.4976 C   0  0  0  0  0  0  0  0  0  0  0  0
  152.1844  144.2564  158.7403 C   0  0  0  0  0  0  0  0  0  0  0  0
  146.2735  144.7445  160.7045 S   0  0  0  0  0  0  0  0  0  0  0  0
  143.5665  142.9471  162.6171 H   0  0  0  0  0  0  0  0  0  0  0  0
  143.4842  144.6281  162.0644 H   0  0  0  0  0  0  0  0  0  0  0  0
  144.6812  144.1538  163.2821 H   0  0  0  0  0  0  0  0  0  0  0  0
  147.7670  144.3702  157.9919 H   0  0  0  0  0  0  0  0  0  0  0  0
  149.4112  144.0709  156.9651 H   0  0  0  0  0  0  0  0  0  0  0  0
  151.2492  143.1014  156.0834 H   0  0  0  0  0  0  0  0  0  0  0  0
  150.4671  140.6097  157.6754 H   0  0  0  0  0  0  0  0  0  0  0  0
  152.6289  140.9591  155.4704 H   0  0  0  0  0  0  0  0  0  0  0  0
  152.1262  139.3953  156.2971 H   0  0  0  0  0  0  0  0  0  0  0  0
  149.7701  139.7246  155.4617 H   0  0  0  0  0  0  0  0  0  0  0  0
  150.2882  141.2862  154.6409 H   0  0  0  0  0  0  0  0  0  0  0  0
  153.0465  142.5018  157.7122 H   0  0  0  0  0  0  0  0  0  0  0  0
  150.8162  142.8759  159.8425 H   0  0  0  0  0  0  0  0  0  0  0  0
  152.6043  142.5760  160.1523 H   0  0  0  0  0  0  0  0  0  0  0  0
  153.1754  144.6802  158.8894 H   0  0  0  0  0  0  0  0  0  0  0  0
  151.3854  144.9800  158.5914 H   0  0  0  0  0  0  0  0  0  0  0  0
  1  2  1  0  0  0  0
  1 18  1  0  0  0  0
  1 19  1  0  0  0  0
  1 20  1  0  0  0  0
  2 17  1  0  0  0  0
  2  3  2  0  0  0  0
  3  4  1  0  0  0  0
  4  5  2  0  0  0  0
  5  6  1  0  0  0  0
  5 17  1  0  0  0  0
  6  7  1  0  0  0  0
  6 21  1  0  0  0  0
  7  8  2  0  0  0  0
  7  9  1  0  0  0  0
  9 10  1  0  0  0  0
  9 22  1  0  0  0  0
 10 11  1  0  0  0  0
 10 14  1  0  0  0  0
 10 23  1  0  0  0  0
 11 13  1  0  0  0  0
 11 12  1  0  0  0  0
 11 24  1  0  0  0  0
 12 13  1  0  0  0  0
 12 25  1  0  0  0  0
 12 26  1  0  0  0  0
 13 27  1  0  0  0  0
 13 28  1  0  0  0  0
 14 16  1  0  0  0  0
 14 15  1  0  0  0  0
 14 29  1  0  0  0  0
 15 16  1  0  0  0  0
 15 30  1  0  0  0  0
 15 31  1  0  0  0  0
 16 32  1  0  0  0  0
 16 33  1  0  0  0  0
M  END
> <s_m_source_file>
AV-unprocessed.smi

> <i_m_source_file_index>
620

> <i_lp_mmshare_version>
43012

> <i_f3d_flags>
0

> <s_epik_input>
W0NIM11jMW5uYyhzMSlbTkhdQyg9TylbTkhdW0NIXShbQ0hdMltDSDJdW0NIMl0yKVtDSF0zW0NIMl1bQ0gyXTM=

> <s_epik_cmdline>
J2VwaWtfcHl0aG9uJywgJy1waCcsICc3LjAnLCAnLXRuJywgJzgnLCAnLW1hJywgJzIwMCcsICctbWV0YWxfYmluZGluZycsICctaW1hZScsICc8aW5maWxlLm1hZT4nLCAnLW9tYWUnLCAnPG91dGZpbGUubWFlPic=

> <r_lp_tautomer_probability>
1

> <r_epik_Ionization_Penalty>
0.000349386

> <r_epik_Ionization_Penalty_Charging>
0

> <r_epik_Ionization_Penalty_Neutral>
0.000349386

> <r_epik_State_Penalty>
-0

> <r_epik_Charging_Adjusted_Penalty>
0

> <i_epik_Tot_Q>
0

> <i_epik_Tot_abs_Q>
0

> <r_epik_Metal_State_Penalty>
0.178889

> <b_epik_Metal_Only>
0

> <s_lp_Force_Field>
OPLS_2005

> <r_lp_Energy>
21.1743

> <b_lp_Chiralities_Consistent>
1

> <s_lp_Variant>
AV-unprocessed.smi:620-1

> <Gold.Version>
5.8.1

> <Gold.Id.Protein>
6NUR|6NUR_protein|mol2

> <Gold.PLP.Fitness>
38.9211

> <Gold.PLP.PLP>
-33.4093

> <Gold.PLP.part.hbond>
-5.8088

> <Gold.PLP.part.metal>
0.0000

> <Gold.PLP.part.buried>
-0.8038

> <Gold.PLP.part.nonpolar>
-27.1424

> <Gold.PLP.part.repulsive>
0.1606

> <Gold.PLP.ligand.clash>
0.0000

> <Gold.PLP.ligand.torsion>
1.6807

> <Gold.PLP.Chemscore.Hbond>
2.2500

> <Gold.PLP.Chemscore.CHOScore>
0.0000

> <Gold.PLP.Chemscore.Metal>
0.0000

> <Gold.Chemscore.Hbonds>
donor molecule, donor type, donor heavy atom, donor atom, acceptor molecule, acceptor atom, score
      L1  H     6    21       P1  8029  1.00
      L1  H     9    22       P1  8028  0.99
      P1  H  6934  6946       L1     4  0.25

> <Gold.PLP.Chemscore.Internal.Correction>
2.1232

> <Gold.Rescore>
     Score         DG    S(hbond)    S(metal)    S(lipo)     H(rot)  DE(clash)    DE(int)     intcor
      8.95     -15.46       1.16        0.00      83.82       1.44       1.61       4.89       ----

> <Gold.Chemscore.Fitness>
8.9538

> <Gold.Chemscore.DG>
-15.4611

> <Gold.Chemscore.ZeroCoef>
-5.4800

> <Gold.Chemscore.Hbond>
1.1559

> <Gold.Chemscore.Metal>
0.0000

> <Gold.Chemscore.Lipo>
83.8174

> <Gold.Chemscore.Internal_Hbond>
0.0000

> <Gold.Chemscore.DEClash>
1.6129

> <Gold.Chemscore.DEInternal>
4.8944

> <Gold.Chemscore.Rot>
1.4400

> <Gold.Chemscore.Internal.Correction>
   9.000000E+99

> <Gold.Chemscore.Hbonds>
donor molecule, donor type, donor heavy atom, donor atom, acceptor molecule, acceptor atom, score
      L1  H     6    21       P1  8029  0.30
      L1  H     9    22       P1  8028  0.49

> <Gold.Chemscore.Hbond.Weighted>
-3.8608

> <Gold.Chemscore.Metal.Weighted>
-0.0000

> <Gold.Chemscore.Lipo.Weighted>
-9.8066

> <Gold.Chemscore.Internal_Hbond.Weighted>
0.0000

> <Gold.Chemscore.DEClash.Weighted>
1.6129

> <Gold.Chemscore.DEInternal.Weighted>
4.8944

> <Gold.Chemscore.Rot.Weighted>
3.6864

> <Gold.Chemscore.Internal.Correction.Weighted>
   9.000000E+99

> <Gold.Protein.RotatedTorsions>
[ 6907 6896 6895 6894 ] final   63.03 input  -60.11 | X-H torsion
[ 7974 7965 7964 7962 ] final -131.11 input  175.53 | X-H torsion
[ 8008 7997 7996 7995 ] final   -1.85 input   59.86 | X-H torsion
[ 10167 10162 10161 10158 ] final  175.62 input  -65.29 | X-H torsion
[ 10718 10713 10712 10709 ] final   73.58 input   66.30 | X-H torsion
[ 10763 10752 10751 10750 ] final  -12.63 input  -60.55 | X-H torsion
[ 11005 11000 10999 10996 ] final   56.78 input  -57.11 | X-H torsion

> <Gold.Protein.ActiveResidues>
 VAL166  LYS551  ARG553  GLY616  TRP617  ASP618  TYR619  PRO620  LYS621  CYS622 
 ASP623  PHE694  ASN695  SER759  ASP760  ASP761  ALA762  ILE779  LEU786  VAL792 
 PHE793  MET794  SER795  GLU796  ALA797  LYS798  CYS799  TRP800  GLU811  SER814 

> <Gold.Protein.RotatedAtoms>
  152.4220  134.5938  159.9981 H   0  0  0  0  0  0  0  0  0  0  0  0  # atno 6907 bound_to 6896
  151.6085  133.3344  159.3070 H   0  0  0  0  0  0  0  0  0  0  0  0  # atno 6908 bound_to 6896
  150.8108  134.7300  159.6752 H   0  0  0  0  0  0  0  0  0  0  0  0  # atno 6909 bound_to 6896
  144.9411  140.7239  143.4846 H   0  0  0  0  0  0  0  0  0  0  0  0  # atno 7974 bound_to 7965
  154.6422  140.2549  155.7308 H   0  0  0  0  0  0  0  0  0  0  0  0  # atno 8008 bound_to 7997
  156.2534  140.2885  156.0741 H   0  0  0  0  0  0  0  0  0  0  0  0  # atno 8009 bound_to 7997
  155.1578  140.0383  157.2826 H   0  0  0  0  0  0  0  0  0  0  0  0  # atno 8010 bound_to 7997
  139.5184  144.3010  152.0378 H   0  0  0  0  0  0  0  0  0  0  0  0  # atno 10167 bound_to 10162
  157.6554  130.9635  150.1090 H   0  0  0  0  0  0  0  0  0  0  0  0  # atno 10718 bound_to 10713
  153.5013  135.7017  153.5830 H   0  0  0  0  0  0  0  0  0  0  0  0  # atno 10763 bound_to 10752
  153.3960  135.3884  155.1956 H   0  0  0  0  0  0  0  0  0  0  0  0  # atno 10764 bound_to 10752
  154.8710  135.3870  154.4484 H   0  0  0  0  0  0  0  0  0  0  0  0  # atno 10765 bound_to 10752
  140.0503  134.5747  155.9272 H   0  0  0  0  0  0  0  0  0  0  0  0  # atno 11005 bound_to 11000
  145.2990  139.1857  143.4699 LP  0  0  0  0  0  0  0  0  0  0  0  0  # atno 17320 bound_to 7965
  146.3286  140.2979  142.8619 LP  0  0  0  0  0  0  0  0  0  0  0  0  # atno 17321 bound_to 7965
  140.2458  144.4221  150.6241 LP  0  0  0  0  0  0  0  0  0  0  0  0  # atno 17342 bound_to 10162
  140.6259  143.2181  151.6597 LP  0  0  0  0  0  0  0  0  0  0  0  0  # atno 17343 bound_to 10162
  156.1991  130.3659  149.8810 LP  0  0  0  0  0  0  0  0  0  0  0  0  # atno 17370 bound_to 10713
  156.6719  130.8823  151.3563 LP  0  0  0  0  0  0  0  0  0  0  0  0  # atno 17371 bound_to 10713
  141.1927  133.6576  156.5514 LP  0  0  0  0  0  0  0  0  0  0  0  0  # atno 17394 bound_to 11000
  140.3928  134.7425  157.4732 LP  0  0  0  0  0  0  0  0  0  0  0  0  # atno 17395 bound_to 11000

$$$$
