AV-unprocessed.smi:662|AV-procd|sdf|3243|dock4
  -GOLD-   22720 0193D 1   1.00000     0.00000
 Structure written by MMmdl.
 34 35  0  0  0  0  0  0  0  0  2 V2000
  151.0748  140.7665  155.3243 O   0  0  0  0  0  0  0  0  0  0  0  0
  150.0307  141.4172  155.3529 C   0  0  0  0  0  0  0  0  0  0  0  0
  149.6994  142.2077  156.3890 N   0  0  0  0  0  0  0  0  0  0  0  0
  150.5147  142.4027  157.5830 C   0  0  0  0  0  0  0  0  0  0  0  0
  151.0261  141.0667  158.1451 C   0  0  0  0  0  0  0  0  0  0  0  0
  152.2083  141.2420  159.0374 C   0  0  0  0  0  0  0  0  0  0  0  0
  153.0381  140.2474  159.3613 N   0  0  0  0  0  0  0  0  0  0  0  0
  154.0508  140.6501  160.2389 C   0  0  0  0  0  0  0  0  0  0  0  0
  155.0782  139.6560  160.6983 C   0  0  0  0  0  0  0  0  0  0  0  0
  156.3017  139.9892  160.2869 F   0  0  0  0  0  0  0  0  0  0  0  0
  155.1098  139.5778  162.0283 F   0  0  0  0  0  0  0  0  0  0  0  0
  154.8138  138.4383  160.2257 F   0  0  0  0  0  0  0  0  0  0  0  0
  153.9628  141.9764  160.5865 C   0  0  0  0  0  0  0  0  0  0  0  0
  152.6065  142.7628  159.8265 S   0  0  0  0  0  0  0  0  0  0  0  0
  149.0569  141.3204  154.1655 C   0  0  2  0  0  0  0  0  0  0  0  0
  147.7055  141.9699  154.4923 C   0  0  0  0  0  0  0  0  0  0  0  0
  146.7493  141.2874  153.5263 C   0  0  0  0  0  0  0  0  0  0  0  0
  147.3054  139.8676  153.4079 C   0  0  0  0  0  0  0  0  0  0  0  0
  148.7400  139.9321  153.7583 N   0  3  0  0  0  0  0  0  0  0  0  0
  148.8213  142.7039  156.3571 H   0  0  0  0  0  0  0  0  0  0  0  0
  151.3584  143.0406  157.3177 H   0  0  0  0  0  0  0  0  0  0  0  0
  149.9451  142.9432  158.3414 H   0  0  0  0  0  0  0  0  0  0  0  0
  150.2392  140.5634  158.7085 H   0  0  0  0  0  0  0  0  0  0  0  0
  151.3030  140.3973  157.3300 H   0  0  0  0  0  0  0  0  0  0  0  0
  154.6105  142.5357  161.2453 H   0  0  0  0  0  0  0  0  0  0  0  0
  149.5022  141.8219  153.3051 H   0  0  0  0  0  0  0  0  0  0  0  0
  147.4034  141.7512  155.5183 H   0  0  0  0  0  0  0  0  0  0  0  0
  147.7175  143.0536  154.3705 H   0  0  0  0  0  0  0  0  0  0  0  0
  145.7123  141.3112  153.8628 H   0  0  0  0  0  0  0  0  0  0  0  0
  146.7978  141.7835  152.5559 H   0  0  0  0  0  0  0  0  0  0  0  0
  146.8095  139.2038  154.1168 H   0  0  0  0  0  0  0  0  0  0  0  0
  147.1619  139.4566  152.4081 H   0  0  0  0  0  0  0  0  0  0  0  0
  149.3172  139.6629  152.9742 H   0  0  0  0  0  0  0  0  0  0  0  0
  148.9058  139.3143  154.5394 H   0  0  0  0  0  0  0  0  0  0  0  0
  1  2  2  0  0  0  0
  2  3  1  0  0  0  0
  2 15  1  0  0  0  0
  3  4  1  0  0  0  0
  3 20  1  0  0  0  0
  4  5  1  0  0  0  0
  4 21  1  0  0  0  0
  4 22  1  0  0  0  0
  5  6  1  0  0  0  0
  5 23  1  0  0  0  0
  5 24  1  0  0  0  0
  6 14  1  0  0  0  0
  6  7  2  0  0  0  0
  7  8  1  0  0  0  0
  8  9  1  0  0  0  0
  8 13  2  0  0  0  0
  9 10  1  0  0  0  0
  9 11  1  0  0  0  0
  9 12  1  0  0  0  0
 13 14  1  0  0  0  0
 13 25  1  0  0  0  0
 15 19  1  0  0  0  0
 15 16  1  0  0  0  0
 15 26  1  0  0  0  0
 16 17  1  0  0  0  0
 16 27  1  0  0  0  0
 16 28  1  0  0  0  0
 17 18  1  0  0  0  0
 17 29  1  0  0  0  0
 17 30  1  0  0  0  0
 18 19  1  0  0  0  0
 18 31  1  0  0  0  0
 18 32  1  0  0  0  0
 19 33  1  0  0  0  0
 19 34  1  0  0  0  0
M  CHG  1  19   1
M  END
> <s_m_source_file>
AV-unprocessed.smi

> <i_m_source_file_index>
662

> <i_lp_mmshare_version>
43012

> <i_f3d_flags>
0

> <s_epik_input>
W05IXTFbQ0gyXVtDSDJdW0NIMl1bQ0BIXTFDKD1PKVtOSF1bQ0gyXVtDSDJdYzJuYyhDKEYpKEYpRilbY0hdczI=

> <s_epik_cmdline>
J2VwaWtfcHl0aG9uJywgJy1waCcsICc3LjAnLCAnLXRuJywgJzgnLCAnLW1hJywgJzIwMCcsICctbWV0YWxfYmluZGluZycsICctaW1hZScsICc8aW5maWxlLm1hZT4nLCAnLW9tYWUnLCAnPG91dGZpbGUubWFlPic=

> <r_epik_Ionization_Penalty>
0.0382401

> <r_epik_Ionization_Penalty_Charging>
0.0382382

> <r_epik_Ionization_Penalty_Neutral>
1.85239e-06

> <r_epik_State_Penalty>
0.0320549

> <r_epik_Charging_Adjusted_Penalty>
0.0702931

> <i_epik_Tot_Q>
1

> <i_epik_Tot_abs_Q>
1

> <r_epik_Metal_State_Penalty>
0.0320549

> <b_epik_Metal_Only>
0

> <s_lp_Force_Field>
OPLS_2005

> <r_lp_Energy>
7.29414

> <b_lp_Chiralities_Consistent>
1

> <s_lp_Variant>
AV-unprocessed.smi:662-1

> <Gold.Version>
5.8.1

> <Gold.Id.Protein>
6NUR|6NUR_protein|mol2

> <Gold.PLP.Fitness>
44.0615

> <Gold.PLP.PLP>
-39.4727

> <Gold.PLP.part.hbond>
-3.0000

> <Gold.PLP.part.metal>
0.0000

> <Gold.PLP.part.buried>
-2.1929

> <Gold.PLP.part.nonpolar>
-32.9392

> <Gold.PLP.part.repulsive>
0.2174

> <Gold.PLP.ligand.clash>
0.0000

> <Gold.PLP.ligand.torsion>
0.6947

> <Gold.PLP.Chemscore.Hbond>
1.9853

> <Gold.PLP.Chemscore.CHOScore>
0.0000

> <Gold.PLP.Chemscore.Metal>
0.0000

> <Gold.Chemscore.Hbonds>
donor molecule, donor type, donor heavy atom, donor atom, acceptor molecule, acceptor atom, score
      L1  H     3    20       P1  8028  0.26
      L1  H    19    33       P1  7957  0.85
      P1  H  7989  7998       L1     1  0.80

> <Gold.PLP.Chemscore.Internal.Correction>
0.0221

> <Gold.Rescore>
     Score         DG    S(hbond)    S(metal)    S(lipo)     H(rot)  DE(clash)    DE(int)     intcor
     14.40     -16.62       1.86        0.00      85.30       1.97       0.08       2.14       ----

> <Gold.Chemscore.Fitness>
14.3957

> <Gold.Chemscore.DG>
-16.6179

> <Gold.Chemscore.ZeroCoef>
-5.4800

> <Gold.Chemscore.Hbond>
1.8565

> <Gold.Chemscore.Metal>
0.0000

> <Gold.Chemscore.Lipo>
85.2954

> <Gold.Chemscore.Internal_Hbond>
0.0000

> <Gold.Chemscore.DEClash>
0.0811

> <Gold.Chemscore.DEInternal>
2.1411

> <Gold.Chemscore.Rot>
1.9697

> <Gold.Chemscore.Internal.Correction>
   9.000000E+99

> <Gold.Chemscore.Hbonds>
donor molecule, donor type, donor heavy atom, donor atom, acceptor molecule, acceptor atom, score
      L1  H     3    20       P1  8028  0.25
      L1  H    19    33       P1  7957  0.83
      P1  H  7989  7998       L1     1  0.36

> <Gold.Chemscore.Hbond.Weighted>
-6.2008

> <Gold.Chemscore.Metal.Weighted>
-0.0000

> <Gold.Chemscore.Lipo.Weighted>
-9.9796

> <Gold.Chemscore.Internal_Hbond.Weighted>
0.0000

> <Gold.Chemscore.DEClash.Weighted>
0.0811

> <Gold.Chemscore.DEInternal.Weighted>
2.1411

> <Gold.Chemscore.Rot.Weighted>
5.0424

> <Gold.Chemscore.Internal.Correction.Weighted>
   9.000000E+99

> <Gold.Protein.RotatedTorsions>
[ 6907 6896 6895 6894 ] final -123.14 input  -60.11 | X-H torsion
[ 7974 7965 7964 7962 ] final -138.05 input  175.53 | X-H torsion
[ 8008 7997 7996 7995 ] final   65.67 input   59.86 | X-H torsion
[ 10167 10162 10161 10158 ] final  164.32 input  -65.29 | X-H torsion
[ 10718 10713 10712 10709 ] final -155.47 input   66.30 | X-H torsion
[ 10763 10752 10751 10750 ] final    9.84 input  -60.55 | X-H torsion
[ 11005 11000 10999 10996 ] final -137.52 input  -57.11 | X-H torsion

> <Gold.Protein.ActiveResidues>
 VAL166  LYS551  ARG553  GLY616  TRP617  ASP618  TYR619  PRO620  LYS621  CYS622 
 ASP623  PHE694  ASN695  SER759  ASP760  ASP761  ALA762  ILE779  LEU786  VAL792 
 PHE793  MET794  SER795  GLU796  ALA797  LYS798  CYS799  TRP800  GLU811  SER814 

> <Gold.Protein.RotatedAtoms>
  150.8643  133.7598  159.2981 H   0  0  0  0  0  0  0  0  0  0  0  0  # atno 6907 bound_to 6896
  151.5230  135.1066  159.9893 H   0  0  0  0  0  0  0  0  0  0  0  0  # atno 6908 bound_to 6896
  152.4649  133.7857  159.6930 H   0  0  0  0  0  0  0  0  0  0  0  0  # atno 6909 bound_to 6896
  144.8790  140.6480  143.5218 H   0  0  0  0  0  0  0  0  0  0  0  0  # atno 7974 bound_to 7965
  155.6653  140.3497  155.4798 H   0  0  0  0  0  0  0  0  0  0  0  0  # atno 8008 bound_to 7997
  155.9734  140.1160  157.0815 H   0  0  0  0  0  0  0  0  0  0  0  0  # atno 8009 bound_to 7997
  154.4172  140.1152  156.5323 H   0  0  0  0  0  0  0  0  0  0  0  0  # atno 8010 bound_to 7997
  139.4887  144.4247  151.9144 H   0  0  0  0  0  0  0  0  0  0  0  0  # atno 10167 bound_to 10162
  156.5133  130.8445  151.2655 H   0  0  0  0  0  0  0  0  0  0  0  0  # atno 10718 bound_to 10713
  153.2097  135.6867  153.8129 H   0  0  0  0  0  0  0  0  0  0  0  0  # atno 10763 bound_to 10752
  153.7366  135.3244  155.3297 H   0  0  0  0  0  0  0  0  0  0  0  0  # atno 10764 bound_to 10752
  154.8215  135.4648  154.0899 H   0  0  0  0  0  0  0  0  0  0  0  0  # atno 10765 bound_to 10752
  140.8703  134.2059  157.4655 H   0  0  0  0  0  0  0  0  0  0  0  0  # atno 11005 bound_to 11000
  145.3988  139.1601  143.4189 LP  0  0  0  0  0  0  0  0  0  0  0  0  # atno 17320 bound_to 7965
  146.2982  140.4083  142.8714 LP  0  0  0  0  0  0  0  0  0  0  0  0  # atno 17321 bound_to 7965
  140.3692  144.2876  150.5922 LP  0  0  0  0  0  0  0  0  0  0  0  0  # atno 17342 bound_to 10162
  140.5334  143.2238  151.8202 LP  0  0  0  0  0  0  0  0  0  0  0  0  # atno 17343 bound_to 10162
  157.7447  130.9942  150.2699 LP  0  0  0  0  0  0  0  0  0  0  0  0  # atno 17370 bound_to 10713
  156.3219  130.3787  149.7567 LP  0  0  0  0  0  0  0  0  0  0  0  0  # atno 17371 bound_to 10713
  139.8712  134.9771  156.4946 LP  0  0  0  0  0  0  0  0  0  0  0  0  # atno 17394 bound_to 11000
  140.8581  133.8081  155.9236 LP  0  0  0  0  0  0  0  0  0  0  0  0  # atno 17395 bound_to 11000

$$$$
