AV-unprocessed.smi:3263|AV-procd|sdf|12486|dock8
  -GOLD-   2272018383D 1   1.00000     0.00000
 Structure written by MMmdl.
 41 43  0  0  0  0  0  0  0  0  1 V2000
  154.1369  141.4375  161.3972 O   0  0  0  0  0  0  0  0  0  0  0  0
  153.6955  140.9666  160.3492 C   0  0  0  0  0  0  0  0  0  0  0  0
  152.8270  141.8249  159.4256 C   0  0  0  0  0  0  0  0  0  0  0  0
  152.8399  143.3219  159.8091 C   0  0  2  0  0  0  0  0  0  0  0  0
  151.8759  143.6858  160.9589 C   0  0  0  0  0  0  0  0  0  0  0  0
  151.1019  144.8914  160.3922 C   0  0  2  0  0  0  0  0  0  0  0  0
  150.1067  144.3976  159.3260 C   0  0  0  0  0  0  0  0  0  0  0  0
  151.0278  144.0320  158.1478 C   0  0  0  0  0  0  0  0  0  0  0  0
  152.4338  144.3331  158.7066 C   0  0  1  0  0  0  0  0  0  0  0  0
  152.1598  145.5816  159.5385 C   0  0  0  0  0  0  0  0  0  0  0  0
  153.9444  139.7132  159.9406 N   0  0  0  0  0  0  0  0  0  0  0  0
  154.8025  138.7618  160.6361 C   0  0  0  0  0  0  0  0  0  0  0  0
  154.2424  137.3321  160.5460 C   0  0  0  0  0  0  0  0  0  0  0  0
  154.2855  136.6117  161.8800 C   0  0  0  0  0  0  0  0  0  0  0  0
  153.6802  137.1749  163.0239 C   0  0  0  0  0  0  0  0  0  0  0  0
  153.7538  136.4667  164.2390 C   0  0  0  0  0  0  0  0  0  0  0  0
  154.4261  135.2295  164.2635 C   0  0  0  0  0  0  0  0  0  0  0  0
  154.9978  134.7536  163.0668 C   0  0  0  0  0  0  0  0  0  0  0  0
  154.9330  135.4247  161.8966 N   0  0  0  0  0  0  0  0  0  0  0  0
  153.1403  141.6914  158.3894 H   0  0  0  0  0  0  0  0  0  0  0  0
  151.8054  141.4479  159.4778 H   0  0  0  0  0  0  0  0  0  0  0  0
  153.8521  143.5738  160.1320 H   0  0  0  0  0  0  0  0  0  0  0  0
  151.2085  142.8675  161.2318 H   0  0  0  0  0  0  0  0  0  0  0  0
  152.4360  143.9655  161.8520 H   0  0  0  0  0  0  0  0  0  0  0  0
  150.6455  145.5179  161.1590 H   0  0  0  0  0  0  0  0  0  0  0  0
  149.5161  143.5486  159.6719 H   0  0  0  0  0  0  0  0  0  0  0  0
  149.4159  145.1915  159.0391 H   0  0  0  0  0  0  0  0  0  0  0  0
  150.9038  143.0011  157.8186 H   0  0  0  0  0  0  0  0  0  0  0  0
  150.8157  144.6717  157.2902 H   0  0  0  0  0  0  0  0  0  0  0  0
  153.1911  144.4651  157.9329 H   0  0  0  0  0  0  0  0  0  0  0  0
  151.7681  146.4157  158.9535 H   0  0  0  0  0  0  0  0  0  0  0  0
  153.0243  145.9222  160.1113 H   0  0  0  0  0  0  0  0  0  0  0  0
  153.5362  139.4079  159.0689 H   0  0  0  0  0  0  0  0  0  0  0  0
  155.8155  138.8059  160.2321 H   0  0  0  0  0  0  0  0  0  0  0  0
  154.8705  139.0677  161.6805 H   0  0  0  0  0  0  0  0  0  0  0  0
  153.2130  137.3591  160.1860 H   0  0  0  0  0  0  0  0  0  0  0  0
  154.8060  136.7489  159.8160 H   0  0  0  0  0  0  0  0  0  0  0  0
  153.1715  138.1266  162.9738 H   0  0  0  0  0  0  0  0  0  0  0  0
  153.3033  136.8654  165.1360 H   0  0  0  0  0  0  0  0  0  0  0  0
  154.5022  134.6589  165.1773 H   0  0  0  0  0  0  0  0  0  0  0  0
  155.5218  133.8093  163.0490 H   0  0  0  0  0  0  0  0  0  0  0  0
  1  2  2  0  0  0  0
  2  3  1  0  0  0  0
  2 11  1  0  0  0  0
  3  4  1  0  0  0  0
  3 20  1  0  0  0  0
  3 21  1  0  0  0  0
  4  9  1  0  0  0  0
  4  5  1  0  0  0  0
  4 22  1  0  0  0  0
  5  6  1  0  0  0  0
  5 23  1  0  0  0  0
  5 24  1  0  0  0  0
  6 10  1  0  0  0  0
  6  7  1  0  0  0  0
  6 25  1  0  0  0  0
  7  8  1  0  0  0  0
  7 26  1  0  0  0  0
  7 27  1  0  0  0  0
  8  9  1  0  0  0  0
  8 28  1  0  0  0  0
  8 29  1  0  0  0  0
  9 10  1  0  0  0  0
  9 30  1  0  0  0  0
 10 31  1  0  0  0  0
 10 32  1  0  0  0  0
 11 12  1  0  0  0  0
 11 33  1  0  0  0  0
 12 13  1  0  0  0  0
 12 34  1  0  0  0  0
 12 35  1  0  0  0  0
 13 14  1  0  0  0  0
 13 36  1  0  0  0  0
 13 37  1  0  0  0  0
 14 19  1  0  0  0  0
 14 15  2  0  0  0  0
 15 16  1  0  0  0  0
 15 38  1  0  0  0  0
 16 17  2  0  0  0  0
 16 39  1  0  0  0  0
 17 18  1  0  0  0  0
 17 40  1  0  0  0  0
 18 19  2  0  0  0  0
 18 41  1  0  0  0  0
M  END
> <s_m_source_file>
AV-unprocessed.smi

> <i_m_source_file_index>
3263

> <i_lp_mmshare_version>
43012

> <i_f3d_flags>
0

> <s_epik_input>
W0NIMl0xW0NIMl1bQ0BASF0oW0NIMl0yKVtDQEBIXShbQ0gyXVtDQEhdMTIpW0NIMl1DKD1PKVtOSF1bQ0gyXVtDSDJdYzNbY0hdW2NIXVtjSF1bY0hdbjM=

> <s_epik_cmdline>
J2VwaWtfcHl0aG9uJywgJy1waCcsICc3LjAnLCAnLXRuJywgJzgnLCAnLW1hJywgJzIwMCcsICctbWV0YWxfYmluZGluZycsICctaW1hZScsICc8aW5maWxlLm1hZT4nLCAnLW9tYWUnLCAnPG91dGZpbGUubWFlPic=

> <r_epik_Ionization_Penalty>
0.0273541

> <r_epik_Ionization_Penalty_Charging>
0

> <r_epik_Ionization_Penalty_Neutral>
0.0273541

> <r_epik_State_Penalty>
0.0223838

> <r_epik_Charging_Adjusted_Penalty>
0.0223838

> <i_epik_Tot_Q>
0

> <i_epik_Tot_abs_Q>
0

> <r_epik_Metal_State_Penalty>
0.0213927

> <b_epik_Metal_Only>
0

> <s_lp_Force_Field>
OPLS_2005

> <r_lp_Energy>
46.2802

> <b_lp_Chiralities_Consistent>
1

> <s_lp_Variant>
AV-unprocessed.smi:3263-1

> <Gold.Version>
5.8.1

> <Gold.Id.Protein>
6NUR|6NUR_protein|mol2

> <Gold.PLP.Fitness>
47.5052

> <Gold.PLP.PLP>
-49.1635

> <Gold.PLP.part.hbond>
-0.5884

> <Gold.PLP.part.metal>
0.0000

> <Gold.PLP.part.buried>
-6.2165

> <Gold.PLP.part.nonpolar>
-42.3481

> <Gold.PLP.part.repulsive>
0.0643

> <Gold.PLP.ligand.clash>
0.0000

> <Gold.PLP.ligand.torsion>
0.8465

> <Gold.PLP.Chemscore.Hbond>
0.0000

> <Gold.PLP.Chemscore.CHOScore>
0.0000

> <Gold.PLP.Chemscore.Metal>
0.0000

> <Gold.PLP.Chemscore.Internal.Correction>
0.0346

> <Gold.Rescore>
     Score         DG    S(hbond)    S(metal)    S(lipo)     H(rot)  DE(clash)    DE(int)     intcor
     17.83     -18.75       0.00        0.00     145.26       1.46       0.15       0.77       ----

> <Gold.Chemscore.Fitness>
17.8301

> <Gold.Chemscore.DG>
-18.7491

> <Gold.Chemscore.ZeroCoef>
-5.4800

> <Gold.Chemscore.Hbond>
0.0000

> <Gold.Chemscore.Metal>
0.0000

> <Gold.Chemscore.Lipo>
145.2575

> <Gold.Chemscore.Internal_Hbond>
0.0000

> <Gold.Chemscore.DEClash>
0.1497

> <Gold.Chemscore.DEInternal>
0.7693

> <Gold.Chemscore.Rot>
1.4555

> <Gold.Chemscore.Internal.Correction>
   9.000000E+99

> <Gold.Chemscore.Hbond.Weighted>
-0.0000

> <Gold.Chemscore.Metal.Weighted>
-0.0000

> <Gold.Chemscore.Lipo.Weighted>
-16.9951

> <Gold.Chemscore.Internal_Hbond.Weighted>
0.0000

> <Gold.Chemscore.DEClash.Weighted>
0.1497

> <Gold.Chemscore.DEInternal.Weighted>
0.7693

> <Gold.Chemscore.Rot.Weighted>
3.7260

> <Gold.Chemscore.Internal.Correction.Weighted>
   9.000000E+99

> <Gold.Protein.RotatedTorsions>
[ 6907 6896 6895 6894 ] final  -29.99 input  -60.11 | X-H torsion
[ 7974 7965 7964 7962 ] final   88.81 input  175.53 | X-H torsion
[ 8008 7997 7996 7995 ] final -135.59 input   59.86 | X-H torsion
[ 10167 10162 10161 10158 ] final   97.89 input  -65.29 | X-H torsion
[ 10718 10713 10712 10709 ] final  -28.76 input   66.30 | X-H torsion
[ 10763 10752 10751 10750 ] final  -76.13 input  -60.55 | X-H torsion
[ 11005 11000 10999 10996 ] final -151.68 input  -57.11 | X-H torsion

> <Gold.Protein.ActiveResidues>
 VAL166  LYS551  ARG553  GLY616  TRP617  ASP618  TYR619  PRO620  LYS621  CYS622 
 ASP623  PHE694  ASN695  SER759  ASP760  ASP761  ALA762  ILE779  LEU786  VAL792 
 PHE793  MET794  SER795  GLU796  ALA797  LYS798  CYS799  TRP800  GLU811  SER814 

> <Gold.Protein.RotatedAtoms>
  151.1116  135.0030  159.8496 H   0  0  0  0  0  0  0  0  0  0  0  0  # atno 6907 bound_to 6896
  152.5443  134.1829  159.8653 H   0  0  0  0  0  0  0  0  0  0  0  0  # atno 6908 bound_to 6896
  151.1879  133.4640  159.2628 H   0  0  0  0  0  0  0  0  0  0  0  0  # atno 6909 bound_to 6896
  145.5407  139.2288  143.2567 H   0  0  0  0  0  0  0  0  0  0  0  0  # atno 7974 bound_to 7965
  155.3812  140.0494  157.3043 H   0  0  0  0  0  0  0  0  0  0  0  0  # atno 8008 bound_to 7997
  154.5082  140.2182  155.9171 H   0  0  0  0  0  0  0  0  0  0  0  0  # atno 8009 bound_to 7997
  156.1551  140.3128  155.8717 H   0  0  0  0  0  0  0  0  0  0  0  0  # atno 8010 bound_to 7997
  139.7759  144.6906  151.0090 H   0  0  0  0  0  0  0  0  0  0  0  0  # atno 10167 bound_to 10162
  156.4211  130.4426  149.7183 H   0  0  0  0  0  0  0  0  0  0  0  0  # atno 10718 bound_to 10713
  154.4958  135.5808  153.6493 H   0  0  0  0  0  0  0  0  0  0  0  0  # atno 10763 bound_to 10752
  152.9870  135.6124  154.3066 H   0  0  0  0  0  0  0  0  0  0  0  0  # atno 10764 bound_to 10752
  154.2970  135.2847  155.2608 H   0  0  0  0  0  0  0  0  0  0  0  0  # atno 10765 bound_to 10752
  140.7270  134.3663  157.5173 H   0  0  0  0  0  0  0  0  0  0  0  0  # atno 11005 bound_to 11000
  146.1983  140.6227  142.9114 LP  0  0  0  0  0  0  0  0  0  0  0  0  # atno 17320 bound_to 7965
  144.7578  140.5350  143.6756 LP  0  0  0  0  0  0  0  0  0  0  0  0  # atno 17321 bound_to 7965
  140.7816  143.4537  151.0377 LP  0  0  0  0  0  0  0  0  0  0  0  0  # atno 17342 bound_to 10162
  139.8219  143.7808  152.3177 LP  0  0  0  0  0  0  0  0  0  0  0  0  # atno 17343 bound_to 10162
  156.4124  130.7728  151.2742 LP  0  0  0  0  0  0  0  0  0  0  0  0  # atno 17370 bound_to 10713
  157.7508  131.0207  150.3721 LP  0  0  0  0  0  0  0  0  0  0  0  0  # atno 17371 bound_to 10713
  139.8835  134.8993  156.2764 LP  0  0  0  0  0  0  0  0  0  0  0  0  # atno 17394 bound_to 11000
  140.9954  133.7183  156.0878 LP  0  0  0  0  0  0  0  0  0  0  0  0  # atno 17395 bound_to 11000

$$$$
