AV-unprocessed.smi:1824|AV-procd|sdf|7407|dock4
  -GOLD-   22720 9 83D 1   1.00000     0.00000
 Structure written by MMmdl.
 45 47  0  0  0  0  0  0  0  0  2 V2000
  147.8608  136.1442  157.6940 C   0  0  0  0  0  0  0  0  0  0  0  0
  149.3163  135.7208  157.9558 C   0  0  2  0  0  0  0  0  0  0  0  0
  150.3498  136.6233  157.2518 C   0  0  0  0  0  0  0  0  0  0  0  0
  150.4157  136.3898  155.8098 N   0  0  0  0  0  0  0  0  0  0  0  0
  151.4200  137.2229  155.1459 C   0  0  0  0  0  0  0  0  0  0  0  0
  150.9485  138.6326  154.7362 C   0  0  2  0  0  0  0  0  0  0  0  0
  152.0832  139.4711  154.6416 O   0  0  0  0  0  0  0  0  0  0  0  0
  149.9600  139.2163  155.7645 C   0  0  0  0  0  0  0  0  0  0  0  0
  150.2644  140.6088  156.1254 N   0  0  0  0  0  0  0  0  0  0  0  0
  149.8045  141.7668  155.5788 C   0  0  0  0  0  0  0  0  0  0  0  0
  150.3757  142.7989  156.2593 N   0  3  0  0  0  0  0  0  0  0  0  0
  151.2153  142.2936  157.2543 C   0  0  0  0  0  0  0  0  0  0  0  0
  152.0082  142.9442  158.1942 C   0  0  0  0  0  0  0  0  0  0  0  0
  152.7530  142.1282  159.0709 C   0  0  0  0  0  0  0  0  0  0  0  0
  153.5420  142.7102  160.0047 F   0  0  0  0  0  0  0  0  0  0  0  0
  152.6929  140.7207  158.9925 C   0  0  0  0  0  0  0  0  0  0  0  0
  153.4263  139.9744  159.8519 F   0  0  0  0  0  0  0  0  0  0  0  0
  151.8839  140.0728  158.0360 C   0  0  0  0  0  0  0  0  0  0  0  0
  151.1497  140.8866  157.1739 C   0  0  0  0  0  0  0  0  0  0  0  0
  150.6777  134.9753  155.5745 C   0  0  0  0  0  0  0  0  0  0  0  0
  149.6088  134.0750  156.2190 C   0  0  1  0  0  0  0  0  0  0  0  0
  149.9267  132.5863  156.0433 C   0  0  0  0  0  0  0  0  0  0  0  0
  149.5389  134.3513  157.6165 O   0  0  0  0  0  0  0  0  0  0  0  0
  147.6786  137.1534  158.0637 H   0  0  0  0  0  0  0  0  0  0  0  0
  147.1648  135.4759  158.2013 H   0  0  0  0  0  0  0  0  0  0  0  0
  147.6162  136.1382  156.6322 H   0  0  0  0  0  0  0  0  0  0  0  0
  149.4810  135.7998  159.0306 H   0  0  0  0  0  0  0  0  0  0  0  0
  150.1058  137.6630  157.4646 H   0  0  0  0  0  0  0  0  0  0  0  0
  151.3315  136.4416  157.6920 H   0  0  0  0  0  0  0  0  0  0  0  0
  152.2933  137.3104  155.7941 H   0  0  0  0  0  0  0  0  0  0  0  0
  151.7720  136.7143  154.2469 H   0  0  0  0  0  0  0  0  0  0  0  0
  150.4561  138.6105  153.7649 H   0  0  0  0  0  0  0  0  0  0  0  0
  152.8068  139.0388  155.0702 H   0  0  0  0  0  0  0  0  0  0  0  0
  148.9508  139.2088  155.3507 H   0  0  0  0  0  0  0  0  0  0  0  0
  149.9216  138.6087  156.6691 H   0  0  0  0  0  0  0  0  0  0  0  0
  149.1110  141.8515  154.7544 H   0  0  0  0  0  0  0  0  0  0  0  0
  152.0585  144.0212  158.2568 H   0  0  0  0  0  0  0  0  0  0  0  0
  151.8513  138.9950  157.9814 H   0  0  0  0  0  0  0  0  0  0  0  0
  150.7079  134.7800  154.5020 H   0  0  0  0  0  0  0  0  0  0  0  0
  151.6618  134.7124  155.9664 H   0  0  0  0  0  0  0  0  0  0  0  0
  148.6396  134.2747  155.7610 H   0  0  0  0  0  0  0  0  0  0  0  0
  149.9821  132.3187  154.9879 H   0  0  0  0  0  0  0  0  0  0  0  0
  149.1563  131.9668  156.5031 H   0  0  0  0  0  0  0  0  0  0  0  0
  150.8802  132.3295  156.5052 H   0  0  0  0  0  0  0  0  0  0  0  0
  150.2039  143.7754  156.0562 H   0  0  0  0  0  0  0  0  0  0  0  0
  1  2  1  0  0  0  0
  1 24  1  0  0  0  0
  1 25  1  0  0  0  0
  1 26  1  0  0  0  0
  2 23  1  0  0  0  0
  2  3  1  0  0  0  0
  2 27  1  0  0  0  0
  3  4  1  0  0  0  0
  3 28  1  0  0  0  0
  3 29  1  0  0  0  0
  4  5  1  0  0  0  0
  4 20  1  0  0  0  0
  5  6  1  0  0  0  0
  5 30  1  0  0  0  0
  5 31  1  0  0  0  0
  6  7  1  0  0  0  0
  6  8  1  0  0  0  0
  6 32  1  0  0  0  0
  7 33  1  0  0  0  0
  8  9  1  0  0  0  0
  8 34  1  0  0  0  0
  8 35  1  0  0  0  0
  9 19  1  0  0  0  0
  9 10  1  0  0  0  0
 10 11  2  0  0  0  0
 10 36  1  0  0  0  0
 11 12  1  0  0  0  0
 11 45  1  0  0  0  0
 12 19  2  0  0  0  0
 12 13  1  0  0  0  0
 13 14  2  0  0  0  0
 13 37  1  0  0  0  0
 14 15  1  0  0  0  0
 14 16  1  0  0  0  0
 16 17  1  0  0  0  0
 16 18  2  0  0  0  0
 18 19  1  0  0  0  0
 18 38  1  0  0  0  0
 20 21  1  0  0  0  0
 20 39  1  0  0  0  0
 20 40  1  0  0  0  0
 21 22  1  0  0  0  0
 21 23  1  0  0  0  0
 21 41  1  0  0  0  0
 22 42  1  0  0  0  0
 22 43  1  0  0  0  0
 22 44  1  0  0  0  0
M  CHG  1  11   1
M  END
> <s_m_source_file>
AV-unprocessed.smi

> <i_m_source_file_index>
1824

> <i_lp_mmshare_version>
43012

> <i_f3d_flags>
0

> <s_epik_input>
W0NIM11bQ0BASF0xW0NIMl1OKFtDSDJdW0NASF0oTzEpW0NIM10pW0NIMl1bQ0BIXShbT0hdKVtDSDJdbihbY0hdbjIpYyhjMjMpW2NIXWMoRiljKEYpW2NIXTM=

> <s_epik_cmdline>
J2VwaWtfcHl0aG9uJywgJy1waCcsICc3LjAnLCAnLXRuJywgJzgnLCAnLW1hJywgJzIwMCcsICctbWV0YWxfYmluZGluZycsICctaW1hZScsICc8aW5maWxlLm1hZT4nLCAnLW9tYWUnLCAnPG91dGZpbGUubWFlPic=

> <r_epik_Ionization_Penalty>
2.58709

> <r_epik_Ionization_Penalty_Charging>
2.37273

> <r_epik_Ionization_Penalty_Neutral>
0.214359

> <r_epik_State_Penalty>
2.71799

> <r_epik_Charging_Adjusted_Penalty>
5.09071

> <i_epik_Tot_Q>
1

> <i_epik_Tot_abs_Q>
1

> <r_epik_Metal_State_Penalty>
6.80217

> <b_epik_Metal_Only>
0

> <s_lp_Force_Field>
OPLS_2005

> <r_lp_Energy>
35.5782

> <b_lp_Chiralities_Consistent>
1

> <s_lp_Variant>
AV-unprocessed.smi:1824-15

> <Gold.Version>
5.8.1

> <Gold.Id.Protein>
6NUR|6NUR_protein|mol2

> <Gold.PLP.Fitness>
44.4466

> <Gold.PLP.PLP>
-36.9684

> <Gold.PLP.part.hbond>
-2.5943

> <Gold.PLP.part.metal>
0.0000

> <Gold.PLP.part.buried>
-4.7750

> <Gold.PLP.part.nonpolar>
-31.4085

> <Gold.PLP.part.repulsive>
0.1829

> <Gold.PLP.ligand.clash>
0.0000

> <Gold.PLP.ligand.torsion>
1.5987

> <Gold.PLP.Chemscore.Hbond>
3.5520

> <Gold.PLP.Chemscore.CHOScore>
0.0000

> <Gold.PLP.Chemscore.Metal>
0.0000

> <Gold.Chemscore.Hbonds>
donor molecule, donor type, donor heavy atom, donor atom, acceptor molecule, acceptor atom, score
      L1  H    11    45       P1  8028  1.50
      P1  H  6896  6907       L1    23  0.67
      P1  H  7989  7998       L1     7  0.86

> <Gold.PLP.Chemscore.Internal.Correction>
0.0197

> <Gold.Rescore>
     Score         DG    S(hbond)    S(metal)    S(lipo)     H(rot)  DE(clash)    DE(int)     intcor
     14.03     -15.85       1.89        0.00      85.44       2.32       0.13       1.68       ----

> <Gold.Chemscore.Fitness>
14.0346

> <Gold.Chemscore.DG>
-15.8492

> <Gold.Chemscore.ZeroCoef>
-5.4800

> <Gold.Chemscore.Hbond>
1.8905

> <Gold.Chemscore.Metal>
0.0000

> <Gold.Chemscore.Lipo>
85.4414

> <Gold.Chemscore.Internal_Hbond>
0.0000

> <Gold.Chemscore.DEClash>
0.1296

> <Gold.Chemscore.DEInternal>
1.6849

> <Gold.Chemscore.Rot>
2.3210

> <Gold.Chemscore.Internal.Correction>
   9.000000E+99

> <Gold.Chemscore.Hbonds>
donor molecule, donor type, donor heavy atom, donor atom, acceptor molecule, acceptor atom, score
      L1  H    11    45       P1  8028  0.76
      P1  H  6896  6907       L1    23  0.11
      P1  H  7989  7998       L1     7  0.55

> <Gold.Chemscore.Hbond.Weighted>
-6.3142

> <Gold.Chemscore.Metal.Weighted>
-0.0000

> <Gold.Chemscore.Lipo.Weighted>
-9.9966

> <Gold.Chemscore.Internal_Hbond.Weighted>
0.0000

> <Gold.Chemscore.DEClash.Weighted>
0.1296

> <Gold.Chemscore.DEInternal.Weighted>
1.6849

> <Gold.Chemscore.Rot.Weighted>
5.9416

> <Gold.Chemscore.Internal.Correction.Weighted>
   9.000000E+99

> <Gold.Protein.RotatedTorsions>
[ 6907 6896 6895 6894 ] final -116.72 input  -60.11 | X-H torsion
[ 7974 7965 7964 7962 ] final -105.61 input  175.53 | X-H torsion
[ 8008 7997 7996 7995 ] final  121.03 input   59.86 | X-H torsion
[ 10167 10162 10161 10158 ] final  -72.88 input  -65.29 | X-H torsion
[ 10718 10713 10712 10709 ] final -104.75 input   66.30 | X-H torsion
[ 10763 10752 10751 10750 ] final   69.64 input  -60.55 | X-H torsion
[ 11005 11000 10999 10996 ] final -155.49 input  -57.11 | X-H torsion

> <Gold.Protein.ActiveResidues>
 VAL166  LYS551  ARG553  GLY616  TRP617  ASP618  TYR619  PRO620  LYS621  CYS622 
 ASP623  PHE694  ASN695  SER759  ASP760  ASP761  ALA762  ILE779  LEU786  VAL792 
 PHE793  MET794  SER795  GLU796  ALA797  LYS798  CYS799  TRP800  GLU811  SER814 

> <Gold.Protein.RotatedAtoms>
  150.8078  133.8477  159.3196 H   0  0  0  0  0  0  0  0  0  0  0  0  # atno 6907 bound_to 6896
  151.6271  135.1025  160.0123 H   0  0  0  0  0  0  0  0  0  0  0  0  # atno 6908 bound_to 6896
  152.4169  133.7013  159.6482 H   0  0  0  0  0  0  0  0  0  0  0  0  # atno 6909 bound_to 6896
  145.2282  140.9160  143.3220 H   0  0  0  0  0  0  0  0  0  0  0  0  # atno 7974 bound_to 7965
  156.2668  140.2817  156.1243 H   0  0  0  0  0  0  0  0  0  0  0  0  # atno 8008 bound_to 7997
  155.1122  140.0391  157.2745 H   0  0  0  0  0  0  0  0  0  0  0  0  # atno 8009 bound_to 7997
  154.6734  140.2593  155.6990 H   0  0  0  0  0  0  0  0  0  0  0  0  # atno 8010 bound_to 7997
  140.5156  143.2338  151.7518 H   0  0  0  0  0  0  0  0  0  0  0  0  # atno 10167 bound_to 10162
  156.0317  130.5530  150.7440 H   0  0  0  0  0  0  0  0  0  0  0  0  # atno 10718 bound_to 10713
  153.0298  135.5203  154.7319 H   0  0  0  0  0  0  0  0  0  0  0  0  # atno 10763 bound_to 10752
  154.6344  135.2904  155.0180 H   0  0  0  0  0  0  0  0  0  0  0  0  # atno 10764 bound_to 10752
  154.1120  135.6620  153.4939 H   0  0  0  0  0  0  0  0  0  0  0  0  # atno 10765 bound_to 10752
  140.6858  134.4095  157.5223 H   0  0  0  0  0  0  0  0  0  0  0  0  # atno 11005 bound_to 11000
  144.9701  139.3889  143.6313 LP  0  0  0  0  0  0  0  0  0  0  0  0  # atno 17320 bound_to 7965
  146.3359  139.8794  142.8827 LP  0  0  0  0  0  0  0  0  0  0  0  0  # atno 17321 bound_to 7965
  139.4908  144.4328  151.9853 LP  0  0  0  0  0  0  0  0  0  0  0  0  # atno 17342 bound_to 10162
  140.3422  144.3189  150.5965 LP  0  0  0  0  0  0  0  0  0  0  0  0  # atno 17343 bound_to 10162
  157.5002  131.0918  151.0324 LP  0  0  0  0  0  0  0  0  0  0  0  0  # atno 17370 bound_to 10713
  157.0707  130.5863  149.5402 LP  0  0  0  0  0  0  0  0  0  0  0  0  # atno 17371 bound_to 10713
  139.8938  134.8722  156.2207 LP  0  0  0  0  0  0  0  0  0  0  0  0  # atno 17394 bound_to 11000
  141.0281  133.7004  156.1382 LP  0  0  0  0  0  0  0  0  0  0  0  0  # atno 17395 bound_to 11000

$$$$
