AV-unprocessed.smi:787|AV-procd|sdf|3730|dock8
  -GOLD-   22720 1163D 1   1.00000     0.00000
 Structure written by MMmdl.
 46 48  0  0  0  0  0  0  0  0  1 V2000
  147.4013  134.3632  154.8163 C   0  0  0  0  0  0  0  0  0  0  0  0
  148.6900  134.5800  154.1787 N   0  0  0  0  0  0  0  0  0  0  0  0
  149.8606  134.0394  154.7291 C   0  0  0  0  0  0  0  0  0  0  0  0
  150.1316  132.7226  154.5754 N   0  0  0  0  0  0  0  0  0  0  0  0
  151.2624  132.2484  155.1144 C   0  0  0  0  0  0  0  0  0  0  0  0
  152.2065  132.9012  155.8095 N   0  0  0  0  0  0  0  0  0  0  0  0
  151.9476  134.2066  155.9669 C   0  0  0  0  0  0  0  0  0  0  0  0
  152.7467  135.1170  156.6369 N   0  0  0  0  0  0  0  0  0  0  0  0
  152.0486  136.2413  156.4996 C   0  0  0  0  0  0  0  0  0  0  0  0
  150.8866  136.1738  155.8208 N   0  0  0  0  0  0  0  0  0  0  0  0
  149.9809  137.2799  155.5597 C   0  0  0  0  0  0  0  0  0  0  0  0
  150.4538  138.1724  154.3931 C   0  0  1  0  0  0  0  0  0  0  0  0
  149.5929  138.0114  153.2830 O   0  0  0  0  0  0  0  0  0  0  0  0
  150.4711  139.6709  154.7596 C   0  0  0  0  0  0  0  0  0  0  0  0
  151.6460  140.1303  155.5032 N   0  0  0  0  0  0  0  0  0  0  0  0
  152.8241  139.3720  155.0927 C   0  0  0  0  0  0  0  0  0  0  0  0
  151.4525  140.0575  156.9543 C   0  0  0  0  0  0  0  0  0  0  0  0
  151.6435  141.3875  157.6631 C   0  0  0  0  0  0  0  0  0  0  0  0
  152.5648  141.4956  158.7266 C   0  0  0  0  0  0  0  0  0  0  0  0
  152.7444  142.7278  159.3849 C   0  0  0  0  0  0  0  0  0  0  0  0
  152.0060  143.8565  158.9806 C   0  0  0  0  0  0  0  0  0  0  0  0
  151.0875  143.7530  157.9177 C   0  0  0  0  0  0  0  0  0  0  0  0
  150.9065  142.5208  157.2595 C   0  0  0  0  0  0  0  0  0  0  0  0
  150.7771  134.8359  155.4450 C   0  0  0  0  0  0  0  0  0  0  0  0
  146.6128  134.8358  154.2310 H   0  0  0  0  0  0  0  0  0  0  0  0
  147.3885  134.7943  155.8179 H   0  0  0  0  0  0  0  0  0  0  0  0
  147.1802  133.2979  154.8895 H   0  0  0  0  0  0  0  0  0  0  0  0
  148.7340  135.1186  153.3259 H   0  0  0  0  0  0  0  0  0  0  0  0
  151.4383  131.1928  154.9699 H   0  0  0  0  0  0  0  0  0  0  0  0
  152.4034  137.1724  156.9172 H   0  0  0  0  0  0  0  0  0  0  0  0
  148.9814  136.8902  155.3713 H   0  0  0  0  0  0  0  0  0  0  0  0
  149.9046  137.8705  156.4738 H   0  0  0  0  0  0  0  0  0  0  0  0
  151.4410  137.8488  154.0651 H   0  0  0  0  0  0  0  0  0  0  0  0
  149.7635  138.7052  152.6645 H   0  0  0  0  0  0  0  0  0  0  0  0
  150.3632  140.2665  153.8516 H   0  0  0  0  0  0  0  0  0  0  0  0
  149.5785  139.8732  155.3540 H   0  0  0  0  0  0  0  0  0  0  0  0
  153.7263  139.7491  155.5748 H   0  0  0  0  0  0  0  0  0  0  0  0
  152.9794  139.4491  154.0160 H   0  0  0  0  0  0  0  0  0  0  0  0
  152.7200  138.3157  155.3450 H   0  0  0  0  0  0  0  0  0  0  0  0
  150.4384  139.7376  157.1882 H   0  0  0  0  0  0  0  0  0  0  0  0
  152.1178  139.3078  157.3853 H   0  0  0  0  0  0  0  0  0  0  0  0
  153.1338  140.6325  159.0400 H   0  0  0  0  0  0  0  0  0  0  0  0
  153.4489  142.8072  160.1999 H   0  0  0  0  0  0  0  0  0  0  0  0
  152.1444  144.8014  159.4851 H   0  0  0  0  0  0  0  0  0  0  0  0
  150.5217  144.6188  157.6071 H   0  0  0  0  0  0  0  0  0  0  0  0
  150.1993  142.4488  156.4461 H   0  0  0  0  0  0  0  0  0  0  0  0
  1  2  1  0  0  0  0
  1 25  1  0  0  0  0
  1 26  1  0  0  0  0
  1 27  1  0  0  0  0
  2  3  1  0  0  0  0
  2 28  1  0  0  0  0
  3 24  1  0  0  0  0
  3  4  2  0  0  0  0
  4  5  1  0  0  0  0
  5  6  2  0  0  0  0
  5 29  1  0  0  0  0
  6  7  1  0  0  0  0
  7 24  2  0  0  0  0
  7  8  1  0  0  0  0
  8  9  2  0  0  0  0
  9 10  1  0  0  0  0
  9 30  1  0  0  0  0
 10 11  1  0  0  0  0
 10 24  1  0  0  0  0
 11 12  1  0  0  0  0
 11 31  1  0  0  0  0
 11 32  1  0  0  0  0
 12 13  1  0  0  0  0
 12 14  1  0  0  0  0
 12 33  1  0  0  0  0
 13 34  1  0  0  0  0
 14 15  1  0  0  0  0
 14 35  1  0  0  0  0
 14 36  1  0  0  0  0
 15 16  1  0  0  0  0
 15 17  1  0  0  0  0
 16 37  1  0  0  0  0
 16 38  1  0  0  0  0
 16 39  1  0  0  0  0
 17 18  1  0  0  0  0
 17 40  1  0  0  0  0
 17 41  1  0  0  0  0
 18 23  1  0  0  0  0
 18 19  2  0  0  0  0
 19 20  1  0  0  0  0
 19 42  1  0  0  0  0
 20 21  2  0  0  0  0
 20 43  1  0  0  0  0
 21 22  1  0  0  0  0
 21 44  1  0  0  0  0
 22 23  2  0  0  0  0
 22 45  1  0  0  0  0
 23 46  1  0  0  0  0
M  END
> <s_m_source_file>
AV-unprocessed.smi

> <i_m_source_file_index>
787

> <i_lp_mmshare_version>
43012

> <i_f3d_flags>
0

> <s_epik_input>
bjFbY0hdbmMoW05IXVtDSDNdKWMoYzEyKW4oW2NIXW4yKVtDSDJdW0NASF0oW09IXSlbQ0gyXU4oW0NIM10pW0NIMl1jM1tjSF1bY0hdW2NIXVtjSF1bY0hdMw==

> <s_epik_cmdline>
J2VwaWtfcHl0aG9uJywgJy1waCcsICc3LjAnLCAnLXRuJywgJzgnLCAnLW1hJywgJzIwMCcsICctbWV0YWxfYmluZGluZycsICctaW1hZScsICc8aW5maWxlLm1hZT4nLCAnLW9tYWUnLCAnPG91dGZpbGUubWFlPic=

> <r_lp_tautomer_probability>
0.999987

> <r_epik_Ionization_Penalty>
1.52367

> <r_epik_Ionization_Penalty_Charging>
0

> <r_epik_Ionization_Penalty_Neutral>
1.52367

> <r_epik_State_Penalty>
1.60995

> <r_epik_Charging_Adjusted_Penalty>
1.60995

> <i_epik_Tot_Q>
0

> <i_epik_Tot_abs_Q>
0

> <r_epik_Metal_State_Penalty>
1.60969

> <b_epik_Metal_Only>
0

> <s_lp_Force_Field>
OPLS_2005

> <r_lp_Energy>
19.785

> <b_lp_Chiralities_Consistent>
1

> <s_lp_Variant>
AV-unprocessed.smi:787-6

> <Gold.Version>
5.8.1

> <Gold.Id.Protein>
6NUR|6NUR_protein|mol2

> <Gold.PLP.Fitness>
46.6232

> <Gold.PLP.PLP>
-43.5947

> <Gold.PLP.part.hbond>
-5.0000

> <Gold.PLP.part.metal>
0.0000

> <Gold.PLP.part.buried>
-2.6994

> <Gold.PLP.part.nonpolar>
-35.2675

> <Gold.PLP.part.repulsive>
0.0917

> <Gold.PLP.ligand.clash>
0.1043

> <Gold.PLP.ligand.torsion>
3.0332

> <Gold.PLP.Chemscore.Hbond>
2.9200

> <Gold.PLP.Chemscore.CHOScore>
0.0000

> <Gold.PLP.Chemscore.Metal>
0.0000

> <Gold.Chemscore.Hbonds>
donor molecule, donor type, donor heavy atom, donor atom, acceptor molecule, acceptor atom, score
      L1  H     2    28       P1  7948  1.00
      L1  H    13    34       P1  7957  1.00
      P1  H 10752 10763       L1     8  0.19

> <Gold.PLP.Chemscore.Internal.Correction>
0.4393

> <Gold.Rescore>
     Score         DG    S(hbond)    S(metal)    S(lipo)     H(rot)  DE(clash)    DE(int)     intcor
     12.74     -16.21       1.98        0.00     103.21       3.11       0.23       3.24       ----

> <Gold.Chemscore.Fitness>
12.7363

> <Gold.Chemscore.DG>
-16.2092

> <Gold.Chemscore.ZeroCoef>
-5.4800

> <Gold.Chemscore.Hbond>
1.9788

> <Gold.Chemscore.Metal>
0.0000

> <Gold.Chemscore.Lipo>
103.2069

> <Gold.Chemscore.Internal_Hbond>
0.0000

> <Gold.Chemscore.DEClash>
0.2327

> <Gold.Chemscore.DEInternal>
3.2401

> <Gold.Chemscore.Rot>
3.1075

> <Gold.Chemscore.Internal.Correction>
   9.000000E+99

> <Gold.Chemscore.Hbonds>
donor molecule, donor type, donor heavy atom, donor atom, acceptor molecule, acceptor atom, score
      L1  H     2    28       P1  7948  0.65
      L1  H    13    34       P1  7957  0.63

> <Gold.Chemscore.Hbond.Weighted>
-6.6091

> <Gold.Chemscore.Metal.Weighted>
-0.0000

> <Gold.Chemscore.Lipo.Weighted>
-12.0752

> <Gold.Chemscore.Internal_Hbond.Weighted>
0.0000

> <Gold.Chemscore.DEClash.Weighted>
0.2327

> <Gold.Chemscore.DEInternal.Weighted>
3.2401

> <Gold.Chemscore.Rot.Weighted>
7.9551

> <Gold.Chemscore.Internal.Correction.Weighted>
   9.000000E+99

> <Gold.Protein.RotatedTorsions>
[ 6907 6896 6895 6894 ] final -175.04 input  -60.11 | X-H torsion
[ 7974 7965 7964 7962 ] final  -41.31 input  175.53 | X-H torsion
[ 8008 7997 7996 7995 ] final -112.18 input   59.86 | X-H torsion
[ 10167 10162 10161 10158 ] final   14.58 input  -65.29 | X-H torsion
[ 10718 10713 10712 10709 ] final -134.37 input   66.30 | X-H torsion
[ 10763 10752 10751 10750 ] final  113.69 input  -60.55 | X-H torsion
[ 11005 11000 10999 10996 ] final   61.15 input  -57.11 | X-H torsion

> <Gold.Protein.ActiveResidues>
 VAL166  LYS551  ARG553  GLY616  TRP617  ASP618  TYR619  PRO620  LYS621  CYS622 
 ASP623  PHE694  ASN695  SER759  ASP760  ASP761  ALA762  ILE779  LEU786  VAL792 
 PHE793  MET794  SER795  GLU796  ALA797  LYS798  CYS799  TRP800  GLU811  SER814 

> <Gold.Protein.RotatedAtoms>
  151.5821  133.3376  159.3010 H   0  0  0  0  0  0  0  0  0  0  0  0  # atno 6907 bound_to 6896
  150.8307  134.7562  159.6863 H   0  0  0  0  0  0  0  0  0  0  0  0  # atno 6908 bound_to 6896
  152.4391  134.5633  159.9952 H   0  0  0  0  0  0  0  0  0  0  0  0  # atno 6909 bound_to 6896
  146.0223  140.6834  142.9172 H   0  0  0  0  0  0  0  0  0  0  0  0  # atno 7974 bound_to 7965
  155.0013  140.0394  157.2361 H   0  0  0  0  0  0  0  0  0  0  0  0  # atno 8008 bound_to 7997
  154.7541  140.2772  155.6245 H   0  0  0  0  0  0  0  0  0  0  0  0  # atno 8009 bound_to 7997
  156.2891  140.2641  156.2303 H   0  0  0  0  0  0  0  0  0  0  0  0  # atno 8010 bound_to 7997
  140.5926  143.8765  150.6888 H   0  0  0  0  0  0  0  0  0  0  0  0  # atno 10167 bound_to 10162
  156.2548  130.7174  151.1087 H   0  0  0  0  0  0  0  0  0  0  0  0  # atno 10718 bound_to 10713
  153.4962  135.3648  155.2517 H   0  0  0  0  0  0  0  0  0  0  0  0  # atno 10763 bound_to 10752
  154.8750  135.3989  154.3532 H   0  0  0  0  0  0  0  0  0  0  0  0  # atno 10764 bound_to 10752
  153.4160  135.7079  153.6393 H   0  0  0  0  0  0  0  0  0  0  0  0  # atno 10765 bound_to 10752
  140.0181  134.6194  155.9679 H   0  0  0  0  0  0  0  0  0  0  0  0  # atno 11005 bound_to 11000
  144.6995  140.3588  143.7168 LP  0  0  0  0  0  0  0  0  0  0  0  0  # atno 17320 bound_to 7965
  145.7173  139.1700  143.2504 LP  0  0  0  0  0  0  0  0  0  0  0  0  # atno 17321 bound_to 7965
  140.2292  143.3749  152.1580 LP  0  0  0  0  0  0  0  0  0  0  0  0  # atno 17342 bound_to 10162
  139.5237  144.7075  151.5310 LP  0  0  0  0  0  0  0  0  0  0  0  0  # atno 17343 bound_to 10162
  157.7228  131.0670  150.6062 LP  0  0  0  0  0  0  0  0  0  0  0  0  # atno 17370 bound_to 10713
  156.6145  130.4389  149.5846 LP  0  0  0  0  0  0  0  0  0  0  0  0  # atno 17371 bound_to 10713
  141.1756  133.6540  156.4817 LP  0  0  0  0  0  0  0  0  0  0  0  0  # atno 17394 bound_to 11000
  140.4435  134.6994  157.5003 LP  0  0  0  0  0  0  0  0  0  0  0  0  # atno 17395 bound_to 11000

$$$$
