#       Name:                AV-unprocessed.smi:942
#       Creating user name   scv26
#       Creation time:       Fri Mar 27 02:13:35 2020


#       File generated by GOLD software.
#

@<TRIPOS>MOLECULE
AV-unprocessed.smi:942
    45    47     1
SMALL
NO_CHARGES


@<TRIPOS>ATOM
      1 ****        -0.0792   1.3527   1.6972 O.2            1 S1                 0.0000
      2 ****        -0.4914   0.5159   0.8936 C.2            1 S1                 0.0000
      3 ****         0.3193  -0.2620   0.1604 N.am           1 S1                 0.0000
      4 ****         1.7786  -0.2243   0.1886 C.3            1 S1                 0.0000
      5 ****         2.3431  -1.0032   1.3954 C.3            1 S1                 0.0000
      6 ****         3.0482  -2.2342   0.8217 C.3            1 S1                 0.0000
      7 ****         3.5112  -1.7924  -0.5629 C.3            1 S1                 0.0000
      8 ****         2.3616  -0.9123  -1.0658 C.3            1 S1                 0.0000
      9 ****         2.7636   0.0233  -2.1045 N.pl3          1 S1                 0.0000
     10 ****         3.7344   1.0157  -2.0277 C.2            1 S1                 0.0000
     11 ****         3.7540   1.6453  -3.2515 C.2            1 S1                 0.0000
     12 ****         2.8083   1.0640  -4.0922 N.2            1 S1                 0.0000
     13 ****         2.2619   0.1140  -3.3443 C.2            1 S1                 0.0000
     14 ****        -1.9982   0.3149   0.6850 C.3            1 S1                 0.0000
     15 ****        -2.6750   1.6200   0.2146 C.3            1 S1                 0.0000
     16 ****        -4.1851   1.4201   0.0046 C.3            1 S1                 0.0000
     17 ****        -4.8594   0.8837   1.2776 C.3            1 S1                 0.0000
     18 ****        -4.1830  -0.4074   1.7655 C.3            1 S1                 0.0000
     19 ****        -2.6731  -0.2025   1.9728 C.3            1 S1                 0.0000
     20 ****        -0.1067  -0.9254  -0.4705 H              1 S1                 0.0000
     21 ****         2.1131   0.8133   0.2497 H              1 S1                 0.0000
     22 ****         3.0730  -0.3790   1.9123 H              1 S1                 0.0000
     23 ****         1.5847  -1.2783   2.1297 H              1 S1                 0.0000
     24 ****         3.8702  -2.5782   1.4502 H              1 S1                 0.0000
     25 ****         2.3352  -3.0543   0.7256 H              1 S1                 0.0000
     26 ****         4.4322  -1.2158  -0.4672 H              1 S1                 0.0000
     27 ****         3.7133  -2.6347  -1.2253 H              1 S1                 0.0000
     28 ****         1.6095  -1.5812  -1.4894 H              1 S1                 0.0000
     29 ****         4.3145   1.1883  -1.1331 H              1 S1                 0.0000
     30 ****         4.3698   2.4662  -3.5883 H              1 S1                 0.0000
     31 ****         1.4767  -0.5321  -3.7090 H              1 S1                 0.0000
     32 ****        -2.1366  -0.4366  -0.0946 H              1 S1                 0.0000
     33 ****        -2.5173   2.4126   0.9480 H              1 S1                 0.0000
     34 ****        -2.2206   1.9653  -0.7149 H              1 S1                 0.0000
     35 ****        -4.6471   2.3622  -0.2918 H              1 S1                 0.0000
     36 ****        -4.3500   0.7228  -0.8178 H              1 S1                 0.0000
     37 ****        -4.8113   1.6399   2.0622 H              1 S1                 0.0000
     38 ****        -5.9175   0.7005   1.0890 H              1 S1                 0.0000
     39 ****        -4.6448  -0.7403   2.6955 H              1 S1                 0.0000
     40 ****        -4.3466  -1.2031   1.0376 H              1 S1                 0.0000
     41 ****        -2.2175  -1.1436   2.2838 H              1 S1                 0.0000
     42 ****        -2.5152   0.5022   2.7912 H              1 S1                 0.0000
     43 ****         0.9042   1.4780   1.8283 LP             1 S1                 0.0000
     44 ****        -0.7278   1.9069   2.2188 LP             1 S1                 0.0000
     45 ****         2.5917   1.3058  -5.0380 LP             1 S1                 0.0000
@<TRIPOS>BOND
    1    1    2 2     
    2    2    3 am    
    3    2   14 1     
    4    3    4 1     
    5    3   20 1     
    6    4    8 1     
    7    4    5 1     
    8    4   21 1     
    9    5    6 1     
   10    5   22 1     
   11    5   23 1     
   12    6    7 1     
   13    6   24 1     
   14    6   25 1     
   15    7    8 1     
   16    7   26 1     
   17    7   27 1     
   18    8    9 1     
   19    8   28 1     
   20    9   13 1     
   21    9   10 1     
   22   10   11 2     
   23   10   29 1     
   24   11   12 1     
   25   11   30 1     
   26   12   13 2     
   27   13   31 1     
   28   14   19 1     
   29   14   15 1     
   30   14   32 1     
   31   15   16 1     
   32   15   33 1     
   33   15   34 1     
   34   16   17 1     
   35   16   35 1     
   36   16   36 1     
   37   17   18 1     
   38   17   37 1     
   39   17   38 1     
   40   18   19 1     
   41   18   39 1     
   42   18   40 1     
   43   19   41 1     
   44   19   42 1     
   45    1   43 1     
   46    1   44 1     
   47   12   45 1     
@<TRIPOS>SUBSTRUCTURE
      1 S1             1
@<TRIPOS>SET
LONE_PAIRS      STATIC     ATOMS    <user>   **** ""
3 43 44 45
DONOR_HYDROGENS      STATIC     ATOMS    <user>   **** ""
1 20
ATOM$BLUE        STATIC     ATOMS    COLORGROUP SYSTEM
3 43 44 45
ATOM$RED        STATIC     ATOMS    COLORGROUP SYSTEM
1 20
