AV-unprocessed.smi:3184|AV-procd|sdf|12163|dock3
  -GOLD-   2272017593D 1   1.00000     0.00000
 Structure written by MMmdl.
 34 35  0  0  0  0  0  0  0  0  1 V2000
  152.1802  138.7753  155.9499 C   0  0  0  0  0  0  0  0  0  0  0  0
  150.9510  139.6910  155.8591 C   0  0  2  0  0  0  0  0  0  0  0  0
  150.5444  139.9556  154.3973 C   0  0  0  0  0  0  0  0  0  0  0  0
  149.1467  140.3283  154.2778 N   0  0  0  0  0  0  0  0  0  0  0  0
  148.1324  139.5942  153.6773 C   0  0  0  0  0  0  0  0  0  0  0  0
  146.9795  140.3341  153.8122 C   0  0  0  0  0  0  0  0  0  0  0  0
  147.2596  141.5205  154.4864 N   0  0  0  0  0  0  0  0  0  0  0  0
  148.5619  141.4470  154.7278 C   0  0  0  0  0  0  0  0  0  0  0  0
  151.2275  140.9568  156.5343 N   0  0  0  0  0  0  0  0  0  0  0  0
  151.6849  141.0952  157.7903 C   0  0  0  0  0  0  0  0  0  0  0  0
  151.9756  140.1376  158.5083 O   0  0  0  0  0  0  0  0  0  0  0  0
  151.8039  142.3793  158.1917 N   0  0  0  0  0  0  0  0  0  0  0  0
  151.4107  143.5709  157.4331 C   0  0  0  0  0  0  0  0  0  0  0  0
  151.5237  144.7421  158.4094 C   0  0  0  0  0  0  0  0  0  0  0  0
  152.5433  144.2739  159.4378 C   0  0  0  0  0  0  0  0  0  0  0  0
  152.3461  142.7591  159.4947 C   0  0  0  0  0  0  0  0  0  0  0  0
  151.9921  137.8176  155.4637 H   0  0  0  0  0  0  0  0  0  0  0  0
  152.4413  138.5695  156.9885 H   0  0  0  0  0  0  0  0  0  0  0  0
  153.0493  139.2272  155.4704 H   0  0  0  0  0  0  0  0  0  0  0  0
  150.1181  139.1860  156.3521 H   0  0  0  0  0  0  0  0  0  0  0  0
  151.1596  140.7446  153.9618 H   0  0  0  0  0  0  0  0  0  0  0  0
  150.7068  139.0621  153.7931 H   0  0  0  0  0  0  0  0  0  0  0  0
  148.3093  138.6316  153.2205 H   0  0  0  0  0  0  0  0  0  0  0  0
  145.9778  140.1054  153.4794 H   0  0  0  0  0  0  0  0  0  0  0  0
  149.1024  142.2227  155.2506 H   0  0  0  0  0  0  0  0  0  0  0  0
  151.0266  141.7997  156.0163 H   0  0  0  0  0  0  0  0  0  0  0  0
  152.0989  143.7036  156.5971 H   0  0  0  0  0  0  0  0  0  0  0  0
  150.3981  143.4923  157.0337 H   0  0  0  0  0  0  0  0  0  0  0  0
  151.8117  145.6735  157.9208 H   0  0  0  0  0  0  0  0  0  0  0  0
  150.5620  144.9048  158.8981 H   0  0  0  0  0  0  0  0  0  0  0  0
  153.5497  144.4982  159.0814 H   0  0  0  0  0  0  0  0  0  0  0  0
  152.4183  144.7541  160.4086 H   0  0  0  0  0  0  0  0  0  0  0  0
  151.6235  142.4960  160.2687 H   0  0  0  0  0  0  0  0  0  0  0  0
  153.2827  142.2453  159.7166 H   0  0  0  0  0  0  0  0  0  0  0  0
  1  2  1  0  0  0  0
  1 17  1  0  0  0  0
  1 18  1  0  0  0  0
  1 19  1  0  0  0  0
  2  3  1  0  0  0  0
  2  9  1  0  0  0  0
  2 20  1  0  0  0  0
  3  4  1  0  0  0  0
  3 21  1  0  0  0  0
  3 22  1  0  0  0  0
  4  8  1  0  0  0  0
  4  5  1  0  0  0  0
  5  6  2  0  0  0  0
  5 23  1  0  0  0  0
  6  7  1  0  0  0  0
  6 24  1  0  0  0  0
  7  8  2  0  0  0  0
  8 25  1  0  0  0  0
  9 10  1  0  0  0  0
  9 26  1  0  0  0  0
 10 11  2  0  0  0  0
 10 12  1  0  0  0  0
 12 16  1  0  0  0  0
 12 13  1  0  0  0  0
 13 14  1  0  0  0  0
 13 27  1  0  0  0  0
 13 28  1  0  0  0  0
 14 15  1  0  0  0  0
 14 29  1  0  0  0  0
 14 30  1  0  0  0  0
 15 16  1  0  0  0  0
 15 31  1  0  0  0  0
 15 32  1  0  0  0  0
 16 33  1  0  0  0  0
 16 34  1  0  0  0  0
M  END
> <s_m_source_file>
AV-unprocessed.smi

> <i_m_source_file_index>
3184

> <i_lp_mmshare_version>
43012

> <i_f3d_flags>
0

> <s_epik_input>
W2NIXTFuW2NIXVtjSF1uMVtDSDJdW0NAQEhdKFtDSDNdKVtOSF1DKD1PKU4yW0NIMl1bQ0gyXVtDSDJdW0NIMl0y

> <s_epik_cmdline>
J2VwaWtfcHl0aG9uJywgJy1waCcsICc3LjAnLCAnLXRuJywgJzgnLCAnLW1hJywgJzIwMCcsICctbWV0YWxfYmluZGluZycsICctaW1hZScsICc8aW5maWxlLm1hZT4nLCAnLW9tYWUnLCAnPG91dGZpbGUubWFlPic=

> <r_lp_tautomer_probability>
1

> <r_epik_Ionization_Penalty>
0.625774

> <r_epik_Ionization_Penalty_Charging>
0.625709

> <r_epik_Ionization_Penalty_Neutral>
6.46152e-05

> <r_epik_State_Penalty>
0.642123

> <r_epik_Charging_Adjusted_Penalty>
1.26783

> <i_epik_Tot_Q>
0

> <i_epik_Tot_abs_Q>
0

> <r_epik_Metal_State_Penalty>
0.307922

> <b_epik_Metal_Only>
0

> <s_lp_Force_Field>
OPLS_2005

> <r_lp_Energy>
35.6501

> <b_lp_Chiralities_Consistent>
1

> <s_lp_Variant>
AV-unprocessed.smi:3184-3

> <Gold.Version>
5.8.1

> <Gold.Id.Protein>
6NUR|6NUR_protein|mol2

> <Gold.PLP.Fitness>
38.4784

> <Gold.PLP.PLP>
-32.0386

> <Gold.PLP.part.hbond>
0.0000

> <Gold.PLP.part.metal>
0.0000

> <Gold.PLP.part.buried>
1.5643

> <Gold.PLP.part.nonpolar>
-34.0413

> <Gold.PLP.part.repulsive>
0.2481

> <Gold.PLP.ligand.clash>
0.0000

> <Gold.PLP.ligand.torsion>
0.3239

> <Gold.PLP.Chemscore.Hbond>
0.0000

> <Gold.PLP.Chemscore.CHOScore>
2.3524

> <Gold.PLP.Chemscore.Metal>
0.0000

> <Gold.Chemscore.Hbonds>
donor molecule, donor type, donor heavy atom, donor atom, acceptor molecule, acceptor atom, score
      L1  C     5    23       P1  7948  0.30
      L1  C     5    23       P1  7957  0.05
      L1  C     6    24       P1 10175  1.00
      L1  C     8    25       P1  8028  0.99

> <Gold.PLP.Chemscore.Internal.Correction>
0.0304

> <Gold.Rescore>
     Score         DG    S(hbond)    S(metal)    S(lipo)     H(rot)  DE(clash)    DE(int)     intcor
      9.23     -10.74       0.00        0.00      80.00       1.60       0.32       1.19       ----

> <Gold.Chemscore.Fitness>
9.2274

> <Gold.Chemscore.DG>
-10.7421

> <Gold.Chemscore.ZeroCoef>
-5.4800

> <Gold.Chemscore.Hbond>
0.0000

> <Gold.Chemscore.Metal>
0.0000

> <Gold.Chemscore.Lipo>
80.0035

> <Gold.Chemscore.Internal_Hbond>
0.0000

> <Gold.Chemscore.DEClash>
0.3207

> <Gold.Chemscore.DEInternal>
1.1939

> <Gold.Chemscore.Rot>
1.6009

> <Gold.Chemscore.Internal.Correction>
   9.000000E+99

> <Gold.Chemscore.Hbond.Weighted>
-0.0000

> <Gold.Chemscore.Metal.Weighted>
-0.0000

> <Gold.Chemscore.Lipo.Weighted>
-9.3604

> <Gold.Chemscore.Internal_Hbond.Weighted>
0.0000

> <Gold.Chemscore.DEClash.Weighted>
0.3207

> <Gold.Chemscore.DEInternal.Weighted>
1.1939

> <Gold.Chemscore.Rot.Weighted>
4.0983

> <Gold.Chemscore.Internal.Correction.Weighted>
   9.000000E+99

> <Gold.Protein.RotatedTorsions>
[ 6907 6896 6895 6894 ] final -111.42 input  -60.11 | X-H torsion
[ 7974 7965 7964 7962 ] final   73.19 input  175.53 | X-H torsion
[ 8008 7997 7996 7995 ] final -121.45 input   59.86 | X-H torsion
[ 10167 10162 10161 10158 ] final  120.18 input  -65.29 | X-H torsion
[ 10718 10713 10712 10709 ] final -122.40 input   66.30 | X-H torsion
[ 10763 10752 10751 10750 ] final  -17.70 input  -60.55 | X-H torsion
[ 11005 11000 10999 10996 ] final  -45.06 input  -57.11 | X-H torsion

> <Gold.Protein.ActiveResidues>
 VAL166  LYS551  ARG553  GLY616  TRP617  ASP618  TYR619  PRO620  LYS621  CYS622 
 ASP623  PHE694  ASN695  SER759  ASP760  ASP761  ALA762  ILE779  LEU786  VAL792 
 PHE793  MET794  SER795  GLU796  ALA797  LYS798  CYS799  TRP800  GLU811  SER814 

> <Gold.Protein.RotatedAtoms>
  150.7689  133.9238  159.3405 H   0  0  0  0  0  0  0  0  0  0  0  0  # atno 6907 bound_to 6896
  151.7130  135.0907  160.0280 H   0  0  0  0  0  0  0  0  0  0  0  0  # atno 6908 bound_to 6896
  152.3698  133.6366  159.6114 H   0  0  0  0  0  0  0  0  0  0  0  0  # atno 6909 bound_to 6896
  145.7440  139.2732  143.1470 H   0  0  0  0  0  0  0  0  0  0  0  0  # atno 7974 bound_to 7965
  155.1482  140.0403  157.2815 H   0  0  0  0  0  0  0  0  0  0  0  0  # atno 8008 bound_to 7997
  154.6423  140.2550  155.7281 H   0  0  0  0  0  0  0  0  0  0  0  0  # atno 8009 bound_to 7997
  156.2538  140.2853  156.0822 H   0  0  0  0  0  0  0  0  0  0  0  0  # atno 8010 bound_to 7997
  139.5998  144.7053  151.3089 H   0  0  0  0  0  0  0  0  0  0  0  0  # atno 10167 bound_to 10162
  156.1416  130.6470  150.9779 H   0  0  0  0  0  0  0  0  0  0  0  0  # atno 10718 bound_to 10713
  153.5780  135.7006  153.5476 H   0  0  0  0  0  0  0  0  0  0  0  0  # atno 10763 bound_to 10752
  153.3286  135.4053  155.1476 H   0  0  0  0  0  0  0  0  0  0  0  0  # atno 10764 bound_to 10752
  154.8622  135.3713  154.5306 H   0  0  0  0  0  0  0  0  0  0  0  0  # atno 10765 bound_to 10752
  141.0491  133.6750  156.2960 H   0  0  0  0  0  0  0  0  0  0  0  0  # atno 11005 bound_to 11000
  146.0421  140.8155  142.9823 LP  0  0  0  0  0  0  0  0  0  0  0  0  # atno 17320 bound_to 7965
  144.6864  140.2925  143.7276 LP  0  0  0  0  0  0  0  0  0  0  0  0  # atno 17321 bound_to 7965
  140.7241  143.7054  150.7812 LP  0  0  0  0  0  0  0  0  0  0  0  0  # atno 17342 bound_to 10162
  140.0628  143.5138  152.2619 LP  0  0  0  0  0  0  0  0  0  0  0  0  # atno 17343 bound_to 10162
  157.6580  131.0886  150.7903 LP  0  0  0  0  0  0  0  0  0  0  0  0  # atno 17370 bound_to 10713
  156.7978  130.4911  149.5374 LP  0  0  0  0  0  0  0  0  0  0  0  0  # atno 17371 bound_to 10713
  140.6090  134.5478  157.5530 LP  0  0  0  0  0  0  0  0  0  0  0  0  # atno 17394 bound_to 11000
  139.9335  134.7918  156.0864 LP  0  0  0  0  0  0  0  0  0  0  0  0  # atno 17395 bound_to 11000

$$$$
