#       Name:                AV-unprocessed.smi:588
#       Creating user name   scv26
#       Creation time:       Thu Mar 26 23:51:09 2020


#       File generated by GOLD software.
#

@<TRIPOS>MOLECULE
AV-unprocessed.smi:588
    58    59     1
SMALL
NO_CHARGES


@<TRIPOS>ATOM
      1 ****        -4.2124  -3.6138  -2.6098 C.3            1 S1                 0.0000
      2 ****        -3.3869  -2.3466  -2.3666 C.3            1 S1                 0.0000
      3 ****        -3.2194  -2.0366  -0.8698 C.3            1 S1                 0.0000
      4 ****        -2.4204  -0.8508  -0.6318 N.am           1 S1                 0.0000
      5 ****        -1.0304  -0.8711  -0.4842 C.2            1 S1                 0.0000
      6 ****        -0.3817  -2.0937  -0.5782 N.pl3          1 S1                 0.0000
      7 ****        -0.3174   0.2709  -0.2508 C.2            1 S1                 0.0000
      8 ****         1.0841   0.2534  -0.1336 N.am           1 S1                 0.0000
      9 ****         1.8477   0.1252  -1.3841 C.3            1 S1                 0.0000
     10 ****         2.3421   1.4887  -1.8927 C.3            1 S1                 0.0000
     11 ****         3.0438   1.2972  -3.1090 O.3            1 S1                 0.0000
     12 ****         3.5322   2.5128  -3.6488 C.3            1 S1                 0.0000
     13 ****         1.7221   0.3584   1.0627 C.2            1 S1                 0.0000
     14 ****         2.9499   0.4375   1.1358 O.2            1 S1                 0.0000
     15 ****         0.9126   0.3477   2.3837 C.3            1 S1                 0.0000
     16 ****         0.8846   1.7471   3.0417 C.3            1 S1                 0.0000
     17 ****         1.4853   1.5958   4.4440 C.3            1 S1                 0.0000
     18 ****         2.3353   0.3314   4.3769 C.3            1 S1                 0.0000
     19 ****         1.5476  -0.5818   3.4392 C.3            1 S1                 0.0000
     20 ****        -0.9928   1.5737  -0.1794 C.2            1 S1                 0.0000
     21 ****        -0.4444   2.6577   0.0152 O.2            1 S1                 0.0000
     22 ****        -2.3721   1.5282  -0.3643 N.am           1 S1                 0.0000
     23 ****        -3.1202   0.3796  -0.5971 C.2            1 S1                 0.0000
     24 ****        -4.3364   0.4759  -0.7649 O.2            1 S1                 0.0000
     25 ****        -2.8709   2.4056  -0.3352 H              1 S1                 0.0000
     26 ****        -4.3166  -3.8106  -3.6769 H              1 S1                 0.0000
     27 ****        -5.2138  -3.5169  -2.1897 H              1 S1                 0.0000
     28 ****        -3.7398  -4.4845  -2.1546 H              1 S1                 0.0000
     29 ****        -2.4062  -2.4624  -2.8295 H              1 S1                 0.0000
     30 ****        -3.8667  -1.5056  -2.8683 H              1 S1                 0.0000
     31 ****        -4.1795  -1.9084  -0.3668 H              1 S1                 0.0000
     32 ****        -2.7346  -2.8579  -0.3428 H              1 S1                 0.0000
     33 ****        -0.8859  -2.9524  -0.7480 H              1 S1                 0.0000
     34 ****         0.6148  -2.1799  -0.4384 H              1 S1                 0.0000
     35 ****         2.6905  -0.5547  -1.2479 H              1 S1                 0.0000
     36 ****         1.2258  -0.3331  -2.1546 H              1 S1                 0.0000
     37 ****         1.4960   2.1580  -2.0560 H              1 S1                 0.0000
     38 ****         2.9966   1.9592  -1.1576 H              1 S1                 0.0000
     39 ****         4.0606   2.3141  -4.5812 H              1 S1                 0.0000
     40 ****         4.2291   2.9969  -2.9636 H              1 S1                 0.0000
     41 ****         2.7167   3.2042  -3.8648 H              1 S1                 0.0000
     42 ****        -0.1062  -0.0037   2.2254 H              1 S1                 0.0000
     43 ****         1.4702   2.4711   2.4721 H              1 S1                 0.0000
     44 ****        -0.1306   2.1418   3.0935 H              1 S1                 0.0000
     45 ****         2.0594   2.4706   4.7505 H              1 S1                 0.0000
     46 ****         0.6839   1.4554   5.1706 H              1 S1                 0.0000
     47 ****         3.3097   0.5607   3.9433 H              1 S1                 0.0000
     48 ****         2.5022  -0.1158   5.3572 H              1 S1                 0.0000
     49 ****         0.7576  -1.0829   4.0003 H              1 S1                 0.0000
     50 ****         2.1751  -1.3659   3.0125 H              1 S1                 0.0000
     51 ****         2.4260   0.8763  -3.7732 LP             1 S1                 0.0000
     52 ****         3.8178   0.6869  -2.9404 LP             1 S1                 0.0000
     53 ****         3.5022   0.4253   0.3023 LP             1 S1                 0.0000
     54 ****         3.3937   0.5139   2.0287 LP             1 S1                 0.0000
     55 ****         0.5467   2.7012   0.1410 LP             1 S1                 0.0000
     56 ****        -0.9898   3.4952   0.0476 LP             1 S1                 0.0000
     57 ****        -4.8838  -0.3432  -0.9367 LP             1 S1                 0.0000
     58 ****        -4.7766   1.3731  -0.7293 LP             1 S1                 0.0000
@<TRIPOS>BOND
    1    1    2 1     
    2    1   26 1     
    3    1   27 1     
    4    1   28 1     
    5    2    3 1     
    6    2   29 1     
    7    2   30 1     
    8    3    4 1     
    9    3   31 1     
   10    3   32 1     
   11    4   23 1     
   12    4    5 1     
   13    5    6 1     
   14    5    7 2     
   15    6   33 1     
   16    6   34 1     
   17    7    8 1     
   18    7   20 1     
   19    8    9 1     
   20    8   13 am    
   21    9   10 1     
   22    9   35 1     
   23    9   36 1     
   24   10   11 1     
   25   10   37 1     
   26   10   38 1     
   27   11   12 1     
   28   12   39 1     
   29   12   40 1     
   30   12   41 1     
   31   13   14 2     
   32   13   15 1     
   33   15   19 1     
   34   15   16 1     
   35   15   42 1     
   36   16   17 1     
   37   16   43 1     
   38   16   44 1     
   39   17   18 1     
   40   17   45 1     
   41   17   46 1     
   42   18   19 1     
   43   18   47 1     
   44   18   48 1     
   45   19   49 1     
   46   19   50 1     
   47   20   21 2     
   48   20   22 1     
   49   22   25 1     
   50   22   23 1     
   51   23   24 2     
   52   11   51 1     
   53   11   52 1     
   54   14   53 1     
   55   14   54 1     
   56   21   55 1     
   57   21   56 1     
   58   24   57 1     
   59   24   58 1     
@<TRIPOS>SUBSTRUCTURE
      1 S1             1
@<TRIPOS>SET
LONE_PAIRS      STATIC     ATOMS    <user>   **** ""
8 51 52 53 54 55 56 57 58
DONOR_HYDROGENS      STATIC     ATOMS    <user>   **** ""
3 33 34 25
ATOM$BLUE        STATIC     ATOMS    COLORGROUP SYSTEM
8 51 52 53 54 55 56 57 58
ATOM$RED        STATIC     ATOMS    COLORGROUP SYSTEM
3 33 34 25
