AV-unprocessed.smi:2669|AV-procd|sdf|10343|dock1
  -GOLD-   2272014363D 1   1.00000     0.00000
 Structure written by MMmdl.
 39 41  0  0  0  0  0  0  0  0  1 V2000
  149.4910  141.7611  154.0922 C   0  0  0  0  0  0  0  0  0  0  0  0
  149.1315  140.5537  153.3655 N   0  0  0  0  0  0  0  0  0  0  0  0
  148.2030  139.6504  153.9011 C   0  0  0  0  0  0  0  0  0  0  0  0
  146.9148  139.6837  153.4871 N   0  0  0  0  0  0  0  0  0  0  0  0
  146.0599  138.8061  154.0277 C   0  0  0  0  0  0  0  0  0  0  0  0
  146.2900  137.8607  154.9518 N   0  0  0  0  0  0  0  0  0  0  0  0
  147.5636  137.8170  155.3659 C   0  0  0  0  0  0  0  0  0  0  0  0
  148.0800  136.9441  156.3080 N   0  0  0  0  0  0  0  0  0  0  0  0
  149.3574  137.3142  156.3471 C   0  0  0  0  0  0  0  0  0  0  0  0
  149.7385  138.3247  155.5414 N   0  0  0  0  0  0  0  0  0  0  0  0
  151.0797  138.8739  155.4315 C   0  0  0  0  0  0  0  0  0  0  0  0
  151.6011  139.4385  156.7680 C   0  0  2  0  0  0  0  0  0  0  0  0
  152.1191  138.3939  157.5678 O   0  0  0  0  0  0  0  0  0  0  0  0
  150.5058  140.1614  157.5656 C   0  0  0  0  0  0  0  0  0  0  0  0
  150.9787  140.4048  158.8839 O   0  0  0  0  0  0  0  0  0  0  0  0
  151.4830  141.6534  159.1769 C   0  0  0  0  0  0  0  0  0  0  0  0
  151.0084  142.7325  158.4028 C   0  0  0  0  0  0  0  0  0  0  0  0
  151.4682  144.0433  158.6338 C   0  0  0  0  0  0  0  0  0  0  0  0
  152.4132  144.2886  159.6473 C   0  0  0  0  0  0  0  0  0  0  0  0
  152.9777  145.8935  159.9343 Cl  0  0  0  0  0  0  0  0  0  0  0  0
  152.8965  143.2211  160.4267 C   0  0  0  0  0  0  0  0  0  0  0  0
  152.4364  141.9101  160.1949 C   0  0  0  0  0  0  0  0  0  0  0  0
  148.5742  138.6946  154.8688 C   0  0  0  0  0  0  0  0  0  0  0  0
  150.2746  142.2976  153.5575 H   0  0  0  0  0  0  0  0  0  0  0  0
  149.8630  141.5187  155.0882 H   0  0  0  0  0  0  0  0  0  0  0  0
  148.6300  142.4228  154.1905 H   0  0  0  0  0  0  0  0  0  0  0  0
  149.6731  140.2898  152.5548 H   0  0  0  0  0  0  0  0  0  0  0  0
  145.0429  138.8682  153.6704 H   0  0  0  0  0  0  0  0  0  0  0  0
  150.0608  136.8197  157.0011 H   0  0  0  0  0  0  0  0  0  0  0  0
  151.7400  138.0793  155.0816 H   0  0  0  0  0  0  0  0  0  0  0  0
  151.0914  139.6376  154.6546 H   0  0  0  0  0  0  0  0  0  0  0  0
  152.4177  140.1353  156.5739 H   0  0  0  0  0  0  0  0  0  0  0  0
  152.3768  137.6814  157.0026 H   0  0  0  0  0  0  0  0  0  0  0  0
  150.2380  141.0964  157.0701 H   0  0  0  0  0  0  0  0  0  0  0  0
  149.6131  139.5353  157.6136 H   0  0  0  0  0  0  0  0  0  0  0  0
  150.2822  142.5535  157.6233 H   0  0  0  0  0  0  0  0  0  0  0  0
  151.0941  144.8588  158.0323 H   0  0  0  0  0  0  0  0  0  0  0  0
  153.6222  143.4057  161.2051 H   0  0  0  0  0  0  0  0  0  0  0  0
  152.8315  141.1184  160.8128 H   0  0  0  0  0  0  0  0  0  0  0  0
  1  2  1  0  0  0  0
  1 24  1  0  0  0  0
  1 25  1  0  0  0  0
  1 26  1  0  0  0  0
  2  3  1  0  0  0  0
  2 27  1  0  0  0  0
  3 23  1  0  0  0  0
  3  4  2  0  0  0  0
  4  5  1  0  0  0  0
  5  6  2  0  0  0  0
  5 28  1  0  0  0  0
  6  7  1  0  0  0  0
  7 23  2  0  0  0  0
  7  8  1  0  0  0  0
  8  9  2  0  0  0  0
  9 10  1  0  0  0  0
  9 29  1  0  0  0  0
 10 11  1  0  0  0  0
 10 23  1  0  0  0  0
 11 12  1  0  0  0  0
 11 30  1  0  0  0  0
 11 31  1  0  0  0  0
 12 13  1  0  0  0  0
 12 14  1  0  0  0  0
 12 32  1  0  0  0  0
 13 33  1  0  0  0  0
 14 15  1  0  0  0  0
 14 34  1  0  0  0  0
 14 35  1  0  0  0  0
 15 16  1  0  0  0  0
 16 22  1  0  0  0  0
 16 17  2  0  0  0  0
 17 18  1  0  0  0  0
 17 36  1  0  0  0  0
 18 19  2  0  0  0  0
 18 37  1  0  0  0  0
 19 20  1  0  0  0  0
 19 21  1  0  0  0  0
 21 22  2  0  0  0  0
 21 38  1  0  0  0  0
 22 39  1  0  0  0  0
M  END
> <s_m_source_file>
AV-unprocessed.smi

> <i_m_source_file_index>
2669

> <i_lp_mmshare_version>
43012

> <i_f3d_flags>
0

> <s_epik_input>
bjFbY0hdbmMoW05IXVtDSDNdKWMoYzEyKW4oW2NIXW4yKVtDSDJdW0NASF0oW09IXSlbQ0gyXU9jM1tjSF1bY0hdYyhDbClbY0hdW2NIXTM=

> <s_epik_cmdline>
J2VwaWtfcHl0aG9uJywgJy1waCcsICc3LjAnLCAnLXRuJywgJzgnLCAnLW1hJywgJzIwMCcsICctbWV0YWxfYmluZGluZycsICctaW1hZScsICc8aW5maWxlLm1hZT4nLCAnLW9tYWUnLCAnPG91dGZpbGUubWFlPic=

> <r_lp_tautomer_probability>
1

> <r_epik_Ionization_Penalty>
0.00733592

> <r_epik_Ionization_Penalty_Charging>
0

> <r_epik_Ionization_Penalty_Neutral>
0.00733592

> <r_epik_State_Penalty>
-0

> <r_epik_Charging_Adjusted_Penalty>
0

> <i_epik_Tot_Q>
0

> <i_epik_Tot_abs_Q>
0

> <r_epik_Metal_State_Penalty>
-0

> <b_epik_Metal_Only>
0

> <s_lp_Force_Field>
OPLS_2005

> <r_lp_Energy>
12.7517

> <b_lp_Chiralities_Consistent>
1

> <s_lp_Variant>
AV-unprocessed.smi:2669-1

> <Gold.Version>
5.8.1

> <Gold.Id.Protein>
6NUR|6NUR_protein|mol2

> <Gold.PLP.Fitness>
44.0608

> <Gold.PLP.PLP>
-41.1193

> <Gold.PLP.part.hbond>
-1.8880

> <Gold.PLP.part.metal>
0.0000

> <Gold.PLP.part.buried>
-4.8332

> <Gold.PLP.part.nonpolar>
-35.2922

> <Gold.PLP.part.repulsive>
0.4235

> <Gold.PLP.ligand.clash>
0.0000

> <Gold.PLP.ligand.torsion>
1.6614

> <Gold.PLP.Chemscore.Hbond>
2.0000

> <Gold.PLP.Chemscore.CHOScore>
0.0000

> <Gold.PLP.Chemscore.Metal>
0.0000

> <Gold.Chemscore.Hbonds>
donor molecule, donor type, donor heavy atom, donor atom, acceptor molecule, acceptor atom, score
      L1  H     2    27       P1  7957  0.64
      L1  C     5    28       P1 10175  1.00

> <Gold.PLP.Chemscore.Internal.Correction>
0.2643

> <Gold.Rescore>
     Score         DG    S(hbond)    S(metal)    S(lipo)     H(rot)  DE(clash)    DE(int)     intcor
     13.32     -14.89       1.51        0.00     102.39       2.97       0.00       1.57       ----

> <Gold.Chemscore.Fitness>
13.3227

> <Gold.Chemscore.DG>
-14.8915

> <Gold.Chemscore.ZeroCoef>
-5.4800

> <Gold.Chemscore.Hbond>
1.5109

> <Gold.Chemscore.Metal>
0.0000

> <Gold.Chemscore.Lipo>
102.3931

> <Gold.Chemscore.Internal_Hbond>
0.0000

> <Gold.Chemscore.DEClash>
0.0008

> <Gold.Chemscore.DEInternal>
1.5679

> <Gold.Chemscore.Rot>
2.9746

> <Gold.Chemscore.Internal.Correction>
   9.000000E+99

> <Gold.Chemscore.Hbonds>
donor molecule, donor type, donor heavy atom, donor atom, acceptor molecule, acceptor atom, score
      L1  H     2    27       P1  7957  0.62

> <Gold.Chemscore.Hbond.Weighted>
-5.0465

> <Gold.Chemscore.Metal.Weighted>
-0.0000

> <Gold.Chemscore.Lipo.Weighted>
-11.9800

> <Gold.Chemscore.Internal_Hbond.Weighted>
0.0000

> <Gold.Chemscore.DEClash.Weighted>
0.0008

> <Gold.Chemscore.DEInternal.Weighted>
1.5679

> <Gold.Chemscore.Rot.Weighted>
7.6150

> <Gold.Chemscore.Internal.Correction.Weighted>
   9.000000E+99

> <Gold.Protein.RotatedTorsions>
[ 6907 6896 6895 6894 ] final   78.66 input  -60.11 | X-H torsion
[ 7974 7965 7964 7962 ] final  176.17 input  175.53 | X-H torsion
[ 8008 7997 7996 7995 ] final -166.19 input   59.86 | X-H torsion
[ 10167 10162 10161 10158 ] final -166.50 input  -65.29 | X-H torsion
[ 10718 10713 10712 10709 ] final    8.67 input   66.30 | X-H torsion
[ 10763 10752 10751 10750 ] final  -21.25 input  -60.55 | X-H torsion
[ 11005 11000 10999 10996 ] final  -69.86 input  -57.11 | X-H torsion

> <Gold.Protein.ActiveResidues>
 VAL166  LYS551  ARG553  GLY616  TRP617  ASP618  TYR619  PRO620  LYS621  CYS622 
 ASP623  PHE694  ASN695  SER759  ASP760  ASP761  ALA762  ILE779  LEU786  VAL792 
 PHE793  MET794  SER795  GLU796  ALA797  LYS798  CYS799  TRP800  GLU811  SER814 

> <Gold.Protein.RotatedAtoms>
  152.5168  134.3631  159.9291 H   0  0  0  0  0  0  0  0  0  0  0  0  # atno 6907 bound_to 6896
  151.3583  133.3893  159.2695 H   0  0  0  0  0  0  0  0  0  0  0  0  # atno 6908 bound_to 6896
  150.9672  134.9070  159.7824 H   0  0  0  0  0  0  0  0  0  0  0  0  # atno 6909 bound_to 6896
  144.7189  140.0057  143.6440 H   0  0  0  0  0  0  0  0  0  0  0  0  # atno 7974 bound_to 7965
  155.8603  140.0977  157.1618 H   0  0  0  0  0  0  0  0  0  0  0  0  # atno 8008 bound_to 7997
  154.3990  140.1366  156.4015 H   0  0  0  0  0  0  0  0  0  0  0  0  # atno 8009 bound_to 7997
  155.7864  140.3457  155.5328 H   0  0  0  0  0  0  0  0  0  0  0  0  # atno 8010 bound_to 7997
  139.6111  144.0813  152.1842 H   0  0  0  0  0  0  0  0  0  0  0  0  # atno 10167 bound_to 10162
  156.9551  130.5911  149.5659 H   0  0  0  0  0  0  0  0  0  0  0  0  # atno 10718 bound_to 10713
  153.6332  135.6988  153.5268 H   0  0  0  0  0  0  0  0  0  0  0  0  # atno 10763 bound_to 10752
  153.2842  135.4176  155.1107 H   0  0  0  0  0  0  0  0  0  0  0  0  # atno 10764 bound_to 10752
  154.8517  135.3609  154.5875 H   0  0  0  0  0  0  0  0  0  0  0  0  # atno 10765 bound_to 10752
  141.1563  133.6775  156.6664 H   0  0  0  0  0  0  0  0  0  0  0  0  # atno 11005 bound_to 11000
  146.0299  139.3326  143.0761 LP  0  0  0  0  0  0  0  0  0  0  0  0  # atno 17320 bound_to 7965
  145.8465  140.9552  143.0772 LP  0  0  0  0  0  0  0  0  0  0  0  0  # atno 17321 bound_to 7965
  140.0432  144.5991  150.7394 LP  0  0  0  0  0  0  0  0  0  0  0  0  # atno 17342 bound_to 10162
  140.7319  143.2700  151.3920 LP  0  0  0  0  0  0  0  0  0  0  0  0  # atno 17343 bound_to 10162
  156.0346  130.5435  150.8621 LP  0  0  0  0  0  0  0  0  0  0  0  0  # atno 17370 bound_to 10713
  157.5696  131.0946  150.9438 LP  0  0  0  0  0  0  0  0  0  0  0  0  # atno 17371 bound_to 10713
  140.3208  134.8009  157.4250 LP  0  0  0  0  0  0  0  0  0  0  0  0  # atno 17394 bound_to 11000
  140.1099  134.5360  155.8276 LP  0  0  0  0  0  0  0  0  0  0  0  0  # atno 17395 bound_to 11000

$$$$
