AV-unprocessed.smi:2253|AV-procd|sdf|9115|dock1
  -GOLD-   2272012323D 1   1.00000     0.00000
 Structure written by MMmdl.
 52 54  0  0  0  0  0  0  0  0  3 V2000
  144.7389  134.7754  150.4994 C   0  0  0  0  0  0  0  0  0  0  0  0
  145.3740  135.8101  151.3443 N   0  3  2  0  0  0  0  0  0  0  0  0
  144.4970  136.2508  152.4543 C   0  0  0  0  0  0  0  0  0  0  0  0
  145.2262  137.2385  153.3821 C   0  0  0  0  0  0  0  0  0  0  0  0
  145.7608  138.4750  152.6150 C   0  0  1  0  0  0  0  0  0  0  0  0
  146.5329  139.4438  153.4628 N   0  3  2  0  0  0  0  0  0  0  0  0
  146.8512  140.7504  152.8153 C   0  0  0  0  0  0  0  0  0  0  0  0
  147.5357  141.7220  153.7923 C   0  0  0  0  0  0  0  0  0  0  0  0
  148.8053  141.1125  154.4004 C   0  0  1  0  0  0  0  0  0  0  0  0
  149.3741  142.0295  155.3839 N   0  0  0  0  0  0  0  0  0  0  0  0
  150.2400  141.6865  156.3489 C   0  0  0  0  0  0  0  0  0  0  0  0
  150.6517  140.5378  156.5090 O   0  0  0  0  0  0  0  0  0  0  0  0
  150.5937  142.7540  157.0853 N   0  0  0  0  0  0  0  0  0  0  0  0
  151.4760  142.8211  158.1988 C   0  0  0  0  0  0  0  0  0  0  0  0
  152.1586  141.7071  158.7451 C   0  0  0  0  0  0  0  0  0  0  0  0
  152.9937  141.9087  159.8625 C   0  0  0  0  0  0  0  0  0  0  0  0
  153.1743  143.1103  160.4502 N   0  0  0  0  0  0  0  0  0  0  0  0
  152.5118  144.1677  159.9353 C   0  0  0  0  0  0  0  0  0  0  0  0
  151.6537  144.0752  158.8211 C   0  0  0  0  0  0  0  0  0  0  0  0
  151.0150  145.1766  158.3572 F   0  0  0  0  0  0  0  0  0  0  0  0
  148.4537  139.7628  155.0449 C   0  0  0  0  0  0  0  0  0  0  0  0
  147.7676  138.8314  154.0333 C   0  0  0  0  0  0  0  0  0  0  0  0
  146.6292  137.9590  151.4424 C   0  0  0  0  0  0  0  0  0  0  0  0
  145.8696  136.9603  150.5527 C   0  0  0  0  0  0  0  0  0  0  0  0
  143.8536  135.1675  149.9971 H   0  0  0  0  0  0  0  0  0  0  0  0
  144.4391  133.9170  151.1013 H   0  0  0  0  0  0  0  0  0  0  0  0
  145.4346  134.4198  149.7387 H   0  0  0  0  0  0  0  0  0  0  0  0
  143.5956  136.7128  152.0480 H   0  0  0  0  0  0  0  0  0  0  0  0
  144.1747  135.3823  153.0304 H   0  0  0  0  0  0  0  0  0  0  0  0
  144.5200  137.5384  154.1565 H   0  0  0  0  0  0  0  0  0  0  0  0
  146.0483  136.7242  153.8828 H   0  0  0  0  0  0  0  0  0  0  0  0
  144.8956  139.0029  152.2097 H   0  0  0  0  0  0  0  0  0  0  0  0
  147.4834  140.5827  151.9419 H   0  0  0  0  0  0  0  0  0  0  0  0
  145.9450  141.2458  152.4699 H   0  0  0  0  0  0  0  0  0  0  0  0
  147.7800  142.6505  153.2744 H   0  0  0  0  0  0  0  0  0  0  0  0
  146.8350  141.9873  154.5857 H   0  0  0  0  0  0  0  0  0  0  0  0
  149.5293  140.9515  153.5990 H   0  0  0  0  0  0  0  0  0  0  0  0
  149.0931  142.9976  155.3219 H   0  0  0  0  0  0  0  0  0  0  0  0
  150.2256  143.6434  156.7806 H   0  0  0  0  0  0  0  0  0  0  0  0
  152.0537  140.7108  158.3455 H   0  0  0  0  0  0  0  0  0  0  0  0
  153.5274  141.0782  160.3004 H   0  0  0  0  0  0  0  0  0  0  0  0
  152.6688  145.1161  160.4277 H   0  0  0  0  0  0  0  0  0  0  0  0
  149.3551  139.2825  155.4277 H   0  0  0  0  0  0  0  0  0  0  0  0
  147.7975  139.9165  155.9030 H   0  0  0  0  0  0  0  0  0  0  0  0
  147.5435  137.8935  154.5376 H   0  0  0  0  0  0  0  0  0  0  0  0
  148.4595  138.5897  153.2248 H   0  0  0  0  0  0  0  0  0  0  0  0
  146.9715  138.7764  150.8100 H   0  0  0  0  0  0  0  0  0  0  0  0
  147.5284  137.4817  151.8350 H   0  0  0  0  0  0  0  0  0  0  0  0
  146.5310  136.6003  149.7634 H   0  0  0  0  0  0  0  0  0  0  0  0
  145.0310  137.4569  150.0615 H   0  0  0  0  0  0  0  0  0  0  0  0
  145.9342  139.6694  154.2446 H   0  0  0  0  0  0  0  0  0  0  0  0
  146.1827  135.3754  151.7661 H   0  0  0  0  0  0  0  0  0  0  0  0
  1  2  1  0  0  0  0
  1 25  1  0  0  0  0
  1 26  1  0  0  0  0
  1 27  1  0  0  0  0
  2 24  1  0  0  0  0
  2  3  1  0  0  0  0
  2 52  1  0  0  0  0
  3  4  1  0  0  0  0
  3 28  1  0  0  0  0
  3 29  1  0  0  0  0
  4  5  1  0  0  0  0
  4 30  1  0  0  0  0
  4 31  1  0  0  0  0
  5  6  1  0  0  0  0
  5 23  1  0  0  0  0
  5 32  1  0  0  0  0
  6 22  1  0  0  0  0
  6  7  1  0  0  0  0
  6 51  1  0  0  0  0
  7  8  1  0  0  0  0
  7 33  1  0  0  0  0
  7 34  1  0  0  0  0
  8  9  1  0  0  0  0
  8 35  1  0  0  0  0
  8 36  1  0  0  0  0
  9 10  1  0  0  0  0
  9 21  1  0  0  0  0
  9 37  1  0  0  0  0
 10 11  1  0  0  0  0
 10 38  1  0  0  0  0
 11 12  2  0  0  0  0
 11 13  1  0  0  0  0
 13 14  1  0  0  0  0
 13 39  1  0  0  0  0
 14 19  1  0  0  0  0
 14 15  2  0  0  0  0
 15 16  1  0  0  0  0
 15 40  1  0  0  0  0
 16 17  2  0  0  0  0
 16 41  1  0  0  0  0
 17 18  1  0  0  0  0
 18 19  2  0  0  0  0
 18 42  1  0  0  0  0
 19 20  1  0  0  0  0
 21 22  1  0  0  0  0
 21 43  1  0  0  0  0
 21 44  1  0  0  0  0
 22 45  1  0  0  0  0
 22 46  1  0  0  0  0
 23 24  1  0  0  0  0
 23 47  1  0  0  0  0
 23 48  1  0  0  0  0
 24 49  1  0  0  0  0
 24 50  1  0  0  0  0
M  CHG  1   2   1
M  CHG  1   6   1
M  END
> <s_m_source_file>
AV-unprocessed.smi

> <i_m_source_file_index>
2253

> <i_lp_mmshare_version>
43012

> <i_f3d_flags>
0

> <s_epik_input>
W0NIM11OMVtDSDJdW0NIMl1bQ0hdKFtDSDJdW0NIMl0xKU4yW0NIMl1bQ0gyXVtDSF0oW0NIMl1bQ0gyXTIpW05IXUMoPU8pW05IXWMzW2NIXVtjSF1uW2NIXWMzRg==

> <s_epik_cmdline>
J2VwaWtfcHl0aG9uJywgJy1waCcsICc3LjAnLCAnLXRuJywgJzgnLCAnLW1hJywgJzIwMCcsICctbWV0YWxfYmluZGluZycsICctaW1hZScsICc8aW5maWxlLm1hZT4nLCAnLW9tYWUnLCAnPG91dGZpbGUubWFlPic=

> <r_epik_Ionization_Penalty>
0.183544

> <r_epik_Ionization_Penalty_Charging>
0.180787

> <r_epik_Ionization_Penalty_Neutral>
0.00275649

> <r_epik_State_Penalty>
0.153592

> <r_epik_Charging_Adjusted_Penalty>
0.334379

> <i_epik_Tot_Q>
2

> <i_epik_Tot_abs_Q>
2

> <r_epik_Metal_State_Penalty>
0.153693

> <b_epik_Metal_Only>
0

> <s_lp_Force_Field>
OPLS_2005

> <r_lp_Energy>
44.9789

> <b_lp_Chiralities_Consistent>
1

> <s_lp_Variant>
AV-unprocessed.smi:2253-1

> <Gold.Version>
5.8.1

> <Gold.Id.Protein>
6NUR|6NUR_protein|mol2

> <Gold.PLP.Fitness>
46.4469

> <Gold.PLP.PLP>
-41.1388

> <Gold.PLP.part.hbond>
-2.4772

> <Gold.PLP.part.metal>
0.0000

> <Gold.PLP.part.buried>
2.3555

> <Gold.PLP.part.nonpolar>
-41.4514

> <Gold.PLP.part.repulsive>
0.2402

> <Gold.PLP.ligand.clash>
0.0000

> <Gold.PLP.ligand.torsion>
0.3251

> <Gold.PLP.Chemscore.Hbond>
1.9750

> <Gold.PLP.Chemscore.CHOScore>
0.0000

> <Gold.PLP.Chemscore.Metal>
0.0000

> <Gold.Chemscore.Hbonds>
donor molecule, donor type, donor heavy atom, donor atom, acceptor molecule, acceptor atom, score
      L1  H    10    38       P1  8028  1.00
      L1  H    13    39       P1  8028  0.98

> <Gold.PLP.Chemscore.Internal.Correction>
0.0332

> <Gold.Rescore>
     Score         DG    S(hbond)    S(metal)    S(lipo)     H(rot)  DE(clash)    DE(int)     intcor
     18.41     -23.75       1.96        0.00     127.64       1.26       2.73       2.61       ----

> <Gold.Chemscore.Fitness>
18.4057

> <Gold.Chemscore.DG>
-23.7480

> <Gold.Chemscore.ZeroCoef>
-5.4800

> <Gold.Chemscore.Hbond>
1.9608

> <Gold.Chemscore.Metal>
0.0000

> <Gold.Chemscore.Lipo>
127.6413

> <Gold.Chemscore.Internal_Hbond>
0.0000

> <Gold.Chemscore.DEClash>
2.7293

> <Gold.Chemscore.DEInternal>
2.6129

> <Gold.Chemscore.Rot>
1.2559

> <Gold.Chemscore.Internal.Correction>
   9.000000E+99

> <Gold.Chemscore.Hbonds>
donor molecule, donor type, donor heavy atom, donor atom, acceptor molecule, acceptor atom, score
      L1  H    10    38       P1  8028  1.00
      L1  H    13    39       P1  8028  0.87

> <Gold.Chemscore.Hbond.Weighted>
-6.5490

> <Gold.Chemscore.Metal.Weighted>
-0.0000

> <Gold.Chemscore.Lipo.Weighted>
-14.9340

> <Gold.Chemscore.Internal_Hbond.Weighted>
0.0000

> <Gold.Chemscore.DEClash.Weighted>
2.7293

> <Gold.Chemscore.DEInternal.Weighted>
2.6129

> <Gold.Chemscore.Rot.Weighted>
3.2151

> <Gold.Chemscore.Internal.Correction.Weighted>
   9.000000E+99

> <Gold.Protein.RotatedTorsions>
[ 6907 6896 6895 6894 ] final   27.91 input  -60.11 | X-H torsion
[ 7974 7965 7964 7962 ] final  111.33 input  175.53 | X-H torsion
[ 8008 7997 7996 7995 ] final   96.85 input   59.86 | X-H torsion
[ 10167 10162 10161 10158 ] final   23.71 input  -65.29 | X-H torsion
[ 10718 10713 10712 10709 ] final  119.50 input   66.30 | X-H torsion
[ 10763 10752 10751 10750 ] final  -70.50 input  -60.55 | X-H torsion
[ 11005 11000 10999 10996 ] final   23.43 input  -57.11 | X-H torsion

> <Gold.Protein.ActiveResidues>
 VAL166  LYS551  ARG553  GLY616  TRP617  ASP618  TYR619  PRO620  LYS621  CYS622 
 ASP623  PHE694  ASN695  SER759  ASP760  ASP761  ALA762  ILE779  LEU786  VAL792 
 PHE793  MET794  SER795  GLU796  ALA797  LYS798  CYS799  TRP800  GLU811  SER814 

> <Gold.Protein.RotatedAtoms>
  152.0092  134.9885  160.0567 H   0  0  0  0  0  0  0  0  0  0  0  0  # atno 6907 bound_to 6896
  152.1445  133.4479  159.4791 H   0  0  0  0  0  0  0  0  0  0  0  0  # atno 6908 bound_to 6896
  150.6868  134.2183  159.4430 H   0  0  0  0  0  0  0  0  0  0  0  0  # atno 6909 bound_to 6896
  145.2436  139.2768  143.4105 H   0  0  0  0  0  0  0  0  0  0  0  0  # atno 7974 bound_to 7965
  156.0840  140.3267  155.7730 H   0  0  0  0  0  0  0  0  0  0  0  0  # atno 8008 bound_to 7997
  155.5106  140.0577  157.2941 H   0  0  0  0  0  0  0  0  0  0  0  0  # atno 8009 bound_to 7997
  154.4598  140.1961  156.0292 H   0  0  0  0  0  0  0  0  0  0  0  0  # atno 8010 bound_to 7997
  140.5247  143.9944  150.6434 H   0  0  0  0  0  0  0  0  0  0  0  0  # atno 10167 bound_to 10162
  157.5957  131.1058  150.7905 H   0  0  0  0  0  0  0  0  0  0  0  0  # atno 10718 bound_to 10713
  154.4185  135.5992  153.5995 H   0  0  0  0  0  0  0  0  0  0  0  0  # atno 10763 bound_to 10752
  152.9793  135.5946  154.3984 H   0  0  0  0  0  0  0  0  0  0  0  0  # atno 10764 bound_to 10752
  154.3806  135.2841  155.2192 H   0  0  0  0  0  0  0  0  0  0  0  0  # atno 10765 bound_to 10752
  140.3697  134.2036  155.7667 H   0  0  0  0  0  0  0  0  0  0  0  0  # atno 11005 bound_to 11000
  146.3322  140.2806  142.8610 LP  0  0  0  0  0  0  0  0  0  0  0  0  # atno 17320 bound_to 7965
  144.9567  140.8233  143.5539 LP  0  0  0  0  0  0  0  0  0  0  0  0  # atno 17321 bound_to 7965
  140.3302  143.3082  152.0695 LP  0  0  0  0  0  0  0  0  0  0  0  0  # atno 17342 bound_to 10162
  139.4934  144.6514  151.6667 LP  0  0  0  0  0  0  0  0  0  0  0  0  # atno 17343 bound_to 10162
  156.8316  130.5017  149.5331 LP  0  0  0  0  0  0  0  0  0  0  0  0  # atno 17370 bound_to 10713
  156.1019  130.5976  150.9909 LP  0  0  0  0  0  0  0  0  0  0  0  0  # atno 17371 bound_to 10713
  141.1958  133.8096  157.0698 LP  0  0  0  0  0  0  0  0  0  0  0  0  # atno 17394 bound_to 11000
  140.0561  134.9780  157.1223 LP  0  0  0  0  0  0  0  0  0  0  0  0  # atno 17395 bound_to 11000

$$$$
