AV-unprocessed.smi:1703|AV-procd|sdf|6853|dock7
  -GOLD-   22720 8 33D 1   1.00000     0.00000
 Structure written by MMmdl.
 48 50  0  0  0  0  0  0  0  0  1 V2000
  156.8714  136.7329  161.2839 C   0  0  0  0  0  0  0  0  0  0  0  0
  155.7614  135.6961  161.0406 C   0  0  2  0  0  0  0  0  0  0  0  0
  154.8946  136.0097  159.8043 C   0  0  0  0  0  0  0  0  0  0  0  0
  153.9694  137.1195  160.0286 N   0  0  0  0  0  0  0  0  0  0  0  0
  153.1228  137.3960  158.8668 C   0  0  0  0  0  0  0  0  0  0  0  0
  153.0851  138.8661  158.4023 C   0  0  2  0  0  0  0  0  0  0  0  0
  154.1902  139.5481  158.9633 O   0  0  0  0  0  0  0  0  0  0  0  0
  151.7821  139.5612  158.8436 C   0  0  0  0  0  0  0  0  0  0  0  0
  151.6582  140.9183  158.3251 N   0  0  0  0  0  0  0  0  0  0  0  0
  151.2949  141.3150  157.0776 C   0  0  0  0  0  0  0  0  0  0  0  0
  150.9671  140.3327  155.9880 C   0  0  0  0  0  0  0  0  0  0  0  0
  150.7138  140.9401  154.7374 O   0  0  0  0  0  0  0  0  0  0  0  0
  151.2725  142.6347  156.8770 N   0  0  0  0  0  0  0  0  0  0  0  0
  151.6478  143.1396  158.1056 C   0  0  0  0  0  0  0  0  0  0  0  0
  151.8088  144.4754  158.5384 C   0  0  0  0  0  0  0  0  0  0  0  0
  152.2102  144.7536  159.8612 C   0  0  0  0  0  0  0  0  0  0  0  0
  152.4570  143.7023  160.7677 C   0  0  0  0  0  0  0  0  0  0  0  0
  152.3018  142.3643  160.3568 C   0  0  0  0  0  0  0  0  0  0  0  0
  151.8984  142.0916  159.0354 C   0  0  0  0  0  0  0  0  0  0  0  0
  153.1586  136.8270  161.2036 C   0  0  0  0  0  0  0  0  0  0  0  0
  154.0217  136.5821  162.4540 C   0  0  1  0  0  0  0  0  0  0  0  0
  153.1753  136.1948  163.6713 C   0  0  0  0  0  0  0  0  0  0  0  0
  154.9375  135.5199  162.1940 O   0  0  0  0  0  0  0  0  0  0  0  0
  157.5579  136.7699  160.4378 H   0  0  0  0  0  0  0  0  0  0  0  0
  157.4530  136.4792  162.1702 H   0  0  0  0  0  0  0  0  0  0  0  0
  156.4720  137.7375  161.4217 H   0  0  0  0  0  0  0  0  0  0  0  0
  156.2546  134.7389  160.8689 H   0  0  0  0  0  0  0  0  0  0  0  0
  155.5534  136.2190  158.9631 H   0  0  0  0  0  0  0  0  0  0  0  0
  154.3282  135.1164  159.5368 H   0  0  0  0  0  0  0  0  0  0  0  0
  153.4467  136.7669  158.0361 H   0  0  0  0  0  0  0  0  0  0  0  0
  152.0993  137.0875  159.0860 H   0  0  0  0  0  0  0  0  0  0  0  0
  153.1601  138.9304  157.3186 H   0  0  0  0  0  0  0  0  0  0  0  0
  153.8927  140.0351  159.7163 H   0  0  0  0  0  0  0  0  0  0  0  0
  150.9124  138.9835  158.5309 H   0  0  0  0  0  0  0  0  0  0  0  0
  151.7313  139.5987  159.9323 H   0  0  0  0  0  0  0  0  0  0  0  0
  151.8008  139.6389  155.8787 H   0  0  0  0  0  0  0  0  0  0  0  0
  150.0885  139.7465  156.2531 H   0  0  0  0  0  0  0  0  0  0  0  0
  149.9560  141.4979  154.8222 H   0  0  0  0  0  0  0  0  0  0  0  0
  151.6237  145.2872  157.8506 H   0  0  0  0  0  0  0  0  0  0  0  0
  152.3303  145.7781  160.1818 H   0  0  0  0  0  0  0  0  0  0  0  0
  152.7661  143.9239  161.7786 H   0  0  0  0  0  0  0  0  0  0  0  0
  152.4928  141.5592  161.0502 H   0  0  0  0  0  0  0  0  0  0  0  0
  152.4787  137.6576  161.3977 H   0  0  0  0  0  0  0  0  0  0  0  0
  152.5345  135.9523  161.0127 H   0  0  0  0  0  0  0  0  0  0  0  0
  154.5771  137.4886  162.6969 H   0  0  0  0  0  0  0  0  0  0  0  0
  152.4642  136.9824  163.9220 H   0  0  0  0  0  0  0  0  0  0  0  0
  153.8051  136.0259  164.5451 H   0  0  0  0  0  0  0  0  0  0  0  0
  152.6112  135.2802  163.4854 H   0  0  0  0  0  0  0  0  0  0  0  0
  1  2  1  0  0  0  0
  1 24  1  0  0  0  0
  1 25  1  0  0  0  0
  1 26  1  0  0  0  0
  2 23  1  0  0  0  0
  2  3  1  0  0  0  0
  2 27  1  0  0  0  0
  3  4  1  0  0  0  0
  3 28  1  0  0  0  0
  3 29  1  0  0  0  0
  4  5  1  0  0  0  0
  4 20  1  0  0  0  0
  5  6  1  0  0  0  0
  5 30  1  0  0  0  0
  5 31  1  0  0  0  0
  6  7  1  0  0  0  0
  6  8  1  0  0  0  0
  6 32  1  0  0  0  0
  7 33  1  0  0  0  0
  8  9  1  0  0  0  0
  8 34  1  0  0  0  0
  8 35  1  0  0  0  0
  9 19  1  0  0  0  0
  9 10  1  0  0  0  0
 10 11  1  0  0  0  0
 10 13  2  0  0  0  0
 11 12  1  0  0  0  0
 11 36  1  0  0  0  0
 11 37  1  0  0  0  0
 12 38  1  0  0  0  0
 13 14  1  0  0  0  0
 14 19  2  0  0  0  0
 14 15  1  0  0  0  0
 15 16  2  0  0  0  0
 15 39  1  0  0  0  0
 16 17  1  0  0  0  0
 16 40  1  0  0  0  0
 17 18  2  0  0  0  0
 17 41  1  0  0  0  0
 18 19  1  0  0  0  0
 18 42  1  0  0  0  0
 20 21  1  0  0  0  0
 20 43  1  0  0  0  0
 20 44  1  0  0  0  0
 21 22  1  0  0  0  0
 21 23  1  0  0  0  0
 21 45  1  0  0  0  0
 22 46  1  0  0  0  0
 22 47  1  0  0  0  0
 22 48  1  0  0  0  0
M  END
> <s_m_source_file>
AV-unprocessed.smi

> <i_m_source_file_index>
1703

> <i_lp_mmshare_version>
43012

> <i_f3d_flags>
0

> <s_epik_input>
W0NIM11bQ0BASF0xW0NIMl1OKFtDSDJdW0NASF0oTzEpW0NIM10pW0NIMl1bQ0BIXShbT0hdKVtDSDJdbihjKG4yKVtDSDJdW09IXSljKGMyMylbY0hdW2NIXVtjSF1bY0hdMw==

> <s_epik_cmdline>
J2VwaWtfcHl0aG9uJywgJy1waCcsICc3LjAnLCAnLXRuJywgJzgnLCAnLW1hJywgJzIwMCcsICctbWV0YWxfYmluZGluZycsICctaW1hZScsICc8aW5maWxlLm1hZT4nLCAnLW9tYWUnLCAnPG91dGZpbGUubWFlPic=

> <r_epik_Ionization_Penalty>
0.307685

> <r_epik_Ionization_Penalty_Charging>
0

> <r_epik_Ionization_Penalty_Neutral>
0.307685

> <r_epik_State_Penalty>
0.277856

> <r_epik_Charging_Adjusted_Penalty>
0.277856

> <i_epik_Tot_Q>
0

> <i_epik_Tot_abs_Q>
0

> <r_epik_Metal_State_Penalty>
0.238959

> <b_epik_Metal_Only>
0

> <s_lp_Force_Field>
OPLS_2005

> <r_lp_Energy>
33.4043

> <b_lp_Chiralities_Consistent>
1

> <s_lp_Variant>
AV-unprocessed.smi:1703-1

> <Gold.Version>
5.8.1

> <Gold.Id.Protein>
6NUR|6NUR_protein|mol2

> <Gold.PLP.Fitness>
47.7956

> <Gold.PLP.PLP>
-44.8864

> <Gold.PLP.part.hbond>
-2.0000

> <Gold.PLP.part.metal>
0.0000

> <Gold.PLP.part.buried>
-5.8396

> <Gold.PLP.part.nonpolar>
-37.1990

> <Gold.PLP.part.repulsive>
0.1007

> <Gold.PLP.ligand.clash>
0.0000

> <Gold.PLP.ligand.torsion>
1.5801

> <Gold.PLP.Chemscore.Hbond>
2.0000

> <Gold.PLP.Chemscore.CHOScore>
0.0000

> <Gold.PLP.Chemscore.Metal>
0.0000

> <Gold.Chemscore.Hbonds>
donor molecule, donor type, donor heavy atom, donor atom, acceptor molecule, acceptor atom, score
      P1  H  7989  7998       L1    12  0.75
      P1  H  7997  8009       L1     7  0.60

> <Gold.PLP.Chemscore.Internal.Correction>
0.0696

> <Gold.Rescore>
     Score         DG    S(hbond)    S(metal)    S(lipo)     H(rot)  DE(clash)    DE(int)     intcor
     16.33     -17.92       1.89        0.00     115.32       2.88       0.12       1.47       ----

> <Gold.Chemscore.Fitness>
16.3278

> <Gold.Chemscore.DG>
-17.9183

> <Gold.Chemscore.ZeroCoef>
-5.4800

> <Gold.Chemscore.Hbond>
1.8900

> <Gold.Chemscore.Metal>
0.0000

> <Gold.Chemscore.Lipo>
115.3233

> <Gold.Chemscore.Internal_Hbond>
0.0000

> <Gold.Chemscore.DEClash>
0.1230

> <Gold.Chemscore.DEInternal>
1.4675

> <Gold.Chemscore.Rot>
2.8778

> <Gold.Chemscore.Internal.Correction>
   9.000000E+99

> <Gold.Chemscore.Hbonds>
donor molecule, donor type, donor heavy atom, donor atom, acceptor molecule, acceptor atom, score
      P1  H  7989  7998       L1    12  0.69
      P1  H  7997  8009       L1     7  0.04

> <Gold.Chemscore.Hbond.Weighted>
-6.3126

> <Gold.Chemscore.Metal.Weighted>
-0.0000

> <Gold.Chemscore.Lipo.Weighted>
-13.4928

> <Gold.Chemscore.Internal_Hbond.Weighted>
0.0000

> <Gold.Chemscore.DEClash.Weighted>
0.1230

> <Gold.Chemscore.DEInternal.Weighted>
1.4675

> <Gold.Chemscore.Rot.Weighted>
7.3671

> <Gold.Chemscore.Internal.Correction.Weighted>
   9.000000E+99

> <Gold.Protein.RotatedTorsions>
[ 6907 6896 6895 6894 ] final -107.52 input  -60.11 | X-H torsion
[ 7974 7965 7964 7962 ] final   47.34 input  175.53 | X-H torsion
[ 8008 7997 7996 7995 ] final  136.39 input   59.86 | X-H torsion
[ 10167 10162 10161 10158 ] final    2.80 input  -65.29 | X-H torsion
[ 10718 10713 10712 10709 ] final  -38.66 input   66.30 | X-H torsion
[ 10763 10752 10751 10750 ] final  170.65 input  -60.55 | X-H torsion
[ 11005 11000 10999 10996 ] final  -69.62 input  -57.11 | X-H torsion

> <Gold.Protein.ActiveResidues>
 VAL166  LYS551  ARG553  GLY616  TRP617  ASP618  TYR619  PRO620  LYS621  CYS622 
 ASP623  PHE694  ASN695  SER759  ASP760  ASP761  ALA762  ILE779  LEU786  VAL792 
 PHE793  MET794  SER795  GLU796  ALA797  LYS798  CYS799  TRP800  GLU811  SER814 

> <Gold.Protein.RotatedAtoms>
  150.7449  133.9814  159.3577 H   0  0  0  0  0  0  0  0  0  0  0  0  # atno 6907 bound_to 6896
  151.7755  135.0773  160.0375 H   0  0  0  0  0  0  0  0  0  0  0  0  # atno 6908 bound_to 6896
  152.3309  133.5921  159.5845 H   0  0  0  0  0  0  0  0  0  0  0  0  # atno 6909 bound_to 6896
  146.0306  139.4759  142.9840 H   0  0  0  0  0  0  0  0  0  0  0  0  # atno 7974 bound_to 7965
  156.3004  140.2446  156.3738 H   0  0  0  0  0  0  0  0  0  0  0  0  # atno 8008 bound_to 7997
  154.8764  140.0414  157.1776 H   0  0  0  0  0  0  0  0  0  0  0  0  # atno 8009 bound_to 7997
  154.8741  140.2939  155.5468 H   0  0  0  0  0  0  0  0  0  0  0  0  # atno 8010 bound_to 7997
  140.6617  143.7285  150.7752 H   0  0  0  0  0  0  0  0  0  0  0  0  # atno 10167 bound_to 10162
  156.3013  130.4240  149.8141 H   0  0  0  0  0  0  0  0  0  0  0  0  # atno 10718 bound_to 10713
  154.4006  135.2755  155.2098 H   0  0  0  0  0  0  0  0  0  0  0  0  # atno 10763 bound_to 10752
  154.4126  135.6019  153.5965 H   0  0  0  0  0  0  0  0  0  0  0  0  # atno 10764 bound_to 10752
  152.9831  135.5953  154.4274 H   0  0  0  0  0  0  0  0  0  0  0  0  # atno 10765 bound_to 10752
  141.1558  133.6769  156.6627 H   0  0  0  0  0  0  0  0  0  0  0  0  # atno 11005 bound_to 11000
  145.7046  141.0125  143.1486 LP  0  0  0  0  0  0  0  0  0  0  0  0  # atno 17320 bound_to 7965
  144.7029  139.8685  143.7439 LP  0  0  0  0  0  0  0  0  0  0  0  0  # atno 17321 bound_to 7965
  140.0955  143.4837  152.2454 LP  0  0  0  0  0  0  0  0  0  0  0  0  # atno 17342 bound_to 10162
  139.5853  144.7528  151.3535 LP  0  0  0  0  0  0  0  0  0  0  0  0  # atno 17343 bound_to 10162
  156.5518  130.8345  151.3302 LP  0  0  0  0  0  0  0  0  0  0  0  0  # atno 17370 bound_to 10713
  157.7368  130.9785  150.2159 LP  0  0  0  0  0  0  0  0  0  0  0  0  # atno 17371 bound_to 10713
  140.3235  134.7988  157.4271 LP  0  0  0  0  0  0  0  0  0  0  0  0  # atno 17394 bound_to 11000
  140.1077  134.5388  155.8295 LP  0  0  0  0  0  0  0  0  0  0  0  0  # atno 17395 bound_to 11000

$$$$
