AV-unprocessed.smi:2302|AV-procd|sdf|9239|dock9
  -GOLD-   2272012453D 1   1.00000     0.00000
 Structure written by MMmdl.
 40 41  0  0  0  0  0  0  0  0  2 V2000
  151.9569  144.9407  161.2576 C   0  0  0  0  0  0  0  0  0  0  0  0
  152.0135  143.8276  160.2325 C   0  0  0  0  0  0  0  0  0  0  0  0
  152.9083  142.7498  160.3810 C   0  0  0  0  0  0  0  0  0  0  0  0
  152.9070  141.7468  159.3953 C   0  0  0  0  0  0  0  0  0  0  0  0
  152.0178  141.8616  158.3094 C   0  0  0  0  0  0  0  0  0  0  0  0
  151.1533  142.9769  158.2343 C   0  0  0  0  0  0  0  0  0  0  0  0
  150.2947  142.9980  157.1035 N   0  0  0  0  0  0  0  0  0  0  0  0
  149.8080  141.9532  156.4113 C   0  0  0  0  0  0  0  0  0  0  0  0
  150.0045  140.7675  156.6779 O   0  0  0  0  0  0  0  0  0  0  0  0
  149.0653  142.3631  155.3729 N   0  0  0  0  0  0  0  0  0  0  0  0
  148.3987  141.4847  154.4152 C   0  0  0  0  0  0  0  0  0  0  0  0
  146.9120  141.8361  154.1973 C   0  0  1  0  0  0  0  0  0  0  0  0
  145.9788  141.3281  155.3186 C   0  0  0  0  0  0  0  0  0  0  0  0
  144.5794  141.7257  155.0432 N   0  3  1  0  0  0  0  0  0  0  0  0
  143.6323  141.2256  156.0624 C   0  0  0  0  0  0  0  0  0  0  0  0
  144.4783  143.1887  154.8404 C   0  0  0  0  0  0  0  0  0  0  0  0
  145.4497  143.6433  153.7388 C   0  0  0  0  0  0  0  0  0  0  0  0
  146.7740  143.2484  154.0742 O   0  0  0  0  0  0  0  0  0  0  0  0
  151.1606  143.9381  159.1913 N   0  0  0  0  0  0  0  0  0  0  0  0
  152.7516  144.8380  161.9970 H   0  0  0  0  0  0  0  0  0  0  0  0
  151.0001  144.9234  161.7800 H   0  0  0  0  0  0  0  0  0  0  0  0
  152.0674  145.9113  160.7731 H   0  0  0  0  0  0  0  0  0  0  0  0
  153.5781  142.6905  161.2263 H   0  0  0  0  0  0  0  0  0  0  0  0
  153.5763  140.9025  159.4702 H   0  0  0  0  0  0  0  0  0  0  0  0
  152.0048  141.0997  157.5438 H   0  0  0  0  0  0  0  0  0  0  0  0
  150.0263  143.9157  156.7810 H   0  0  0  0  0  0  0  0  0  0  0  0
  148.9502  143.3564  155.2349 H   0  0  0  0  0  0  0  0  0  0  0  0
  148.9326  141.4843  153.4635 H   0  0  0  0  0  0  0  0  0  0  0  0
  148.4736  140.4687  154.8035 H   0  0  0  0  0  0  0  0  0  0  0  0
  146.6071  141.3842  153.2516 H   0  0  0  0  0  0  0  0  0  0  0  0
  146.0432  140.2419  155.3924 H   0  0  0  0  0  0  0  0  0  0  0  0
  146.2786  141.7352  156.2857 H   0  0  0  0  0  0  0  0  0  0  0  0
  143.8439  141.6591  157.0407 H   0  0  0  0  0  0  0  0  0  0  0  0
  143.6960  140.1404  156.1479 H   0  0  0  0  0  0  0  0  0  0  0  0
  142.6072  141.4788  155.7901 H   0  0  0  0  0  0  0  0  0  0  0  0
  143.4563  143.4539  154.5665 H   0  0  0  0  0  0  0  0  0  0  0  0
  144.7059  143.7060  155.7739 H   0  0  0  0  0  0  0  0  0  0  0  0
  145.1667  143.2254  152.7715 H   0  0  0  0  0  0  0  0  0  0  0  0
  145.4206  144.7283  153.6373 H   0  0  0  0  0  0  0  0  0  0  0  0
  144.3209  141.2921  154.1682 H   0  0  0  0  0  0  0  0  0  0  0  0
  1  2  1  0  0  0  0
  1 20  1  0  0  0  0
  1 21  1  0  0  0  0
  1 22  1  0  0  0  0
  2 19  1  0  0  0  0
  2  3  2  0  0  0  0
  3  4  1  0  0  0  0
  3 23  1  0  0  0  0
  4  5  2  0  0  0  0
  4 24  1  0  0  0  0
  5  6  1  0  0  0  0
  5 25  1  0  0  0  0
  6  7  1  0  0  0  0
  6 19  2  0  0  0  0
  7  8  1  0  0  0  0
  7 26  1  0  0  0  0
  8  9  2  0  0  0  0
  8 10  1  0  0  0  0
 10 11  1  0  0  0  0
 10 27  1  0  0  0  0
 11 12  1  0  0  0  0
 11 28  1  0  0  0  0
 11 29  1  0  0  0  0
 12 18  1  0  0  0  0
 12 13  1  0  0  0  0
 12 30  1  0  0  0  0
 13 14  1  0  0  0  0
 13 31  1  0  0  0  0
 13 32  1  0  0  0  0
 14 15  1  0  0  0  0
 14 16  1  0  0  0  0
 14 40  1  0  0  0  0
 15 33  1  0  0  0  0
 15 34  1  0  0  0  0
 15 35  1  0  0  0  0
 16 17  1  0  0  0  0
 16 36  1  0  0  0  0
 16 37  1  0  0  0  0
 17 18  1  0  0  0  0
 17 38  1  0  0  0  0
 17 39  1  0  0  0  0
M  CHG  1  14   1
M  END
> <s_m_source_file>
AV-unprocessed.smi

> <i_m_source_file_index>
2302

> <i_lp_mmshare_version>
43012

> <i_f3d_flags>
0

> <s_epik_input>
W0NIM11jMVtjSF1bY0hdW2NIXWMobjEpW05IXUMoPU8pW05IXVtDSDJdW0NAQEhdMltDSDJdTihbQ0gzXSlbQ0gyXVtDSDJdTzI=

> <s_epik_cmdline>
J2VwaWtfcHl0aG9uJywgJy1waCcsICc3LjAnLCAnLXRuJywgJzgnLCAnLW1hJywgJzIwMCcsICctbWV0YWxfYmluZGluZycsICctaW1hZScsICc8aW5maWxlLm1hZT4nLCAnLW9tYWUnLCAnPG91dGZpbGUubWFlPic=

> <r_epik_Ionization_Penalty>
0.204647

> <r_epik_Ionization_Penalty_Charging>
0.204578

> <r_epik_Ionization_Penalty_Neutral>
6.91954e-05

> <r_epik_State_Penalty>
0.194513

> <r_epik_Charging_Adjusted_Penalty>
0.399091

> <i_epik_Tot_Q>
1

> <i_epik_Tot_abs_Q>
1

> <r_epik_Metal_State_Penalty>
0.194515

> <b_epik_Metal_Only>
0

> <s_lp_Force_Field>
OPLS_2005

> <r_lp_Energy>
15.833

> <b_lp_Chiralities_Consistent>
1

> <s_lp_Variant>
AV-unprocessed.smi:2302-4

> <Gold.Version>
5.8.1

> <Gold.Id.Protein>
6NUR|6NUR_protein|mol2

> <Gold.PLP.Fitness>
46.7011

> <Gold.PLP.PLP>
-35.4770

> <Gold.PLP.part.hbond>
-3.9072

> <Gold.PLP.part.metal>
0.0000

> <Gold.PLP.part.buried>
-4.4053

> <Gold.PLP.part.nonpolar>
-29.0915

> <Gold.PLP.part.repulsive>
1.5795

> <Gold.PLP.ligand.clash>
0.0000

> <Gold.PLP.ligand.torsion>
0.3721

> <Gold.PLP.Chemscore.Hbond>
3.9887

> <Gold.PLP.Chemscore.CHOScore>
0.0000

> <Gold.PLP.Chemscore.Metal>
0.0000

> <Gold.Chemscore.Hbonds>
donor molecule, donor type, donor heavy atom, donor atom, acceptor molecule, acceptor atom, score
      L1  H     7    26       P1  8028  0.85
      L1  H    10    27       P1  8028  0.71
      L1  H    14    40       P1 10175  2.00
      P1  H  8022  8030       L1    18  0.04

> <Gold.PLP.Chemscore.Internal.Correction>
0.0022

> <Gold.Rescore>
     Score         DG    S(hbond)    S(metal)    S(lipo)     H(rot)  DE(clash)    DE(int)     intcor
     18.71     -21.48       2.80        0.00      84.64       1.27       1.01       1.77       ----

> <Gold.Chemscore.Fitness>
18.7062

> <Gold.Chemscore.DG>
-21.4775

> <Gold.Chemscore.ZeroCoef>
-5.4800

> <Gold.Chemscore.Hbond>
2.8007

> <Gold.Chemscore.Metal>
0.0000

> <Gold.Chemscore.Lipo>
84.6438

> <Gold.Chemscore.Internal_Hbond>
0.0000

> <Gold.Chemscore.DEClash>
1.0058

> <Gold.Chemscore.DEInternal>
1.7655

> <Gold.Chemscore.Rot>
1.2736

> <Gold.Chemscore.Internal.Correction>
   9.000000E+99

> <Gold.Chemscore.Hbonds>
donor molecule, donor type, donor heavy atom, donor atom, acceptor molecule, acceptor atom, score
      L1  H     7    26       P1  8028  0.83
      L1  H    10    27       P1  8028  0.70
      L1  H    14    40       P1 10175  0.55
      P1  H  8022  8030       L1    18  0.05

> <Gold.Chemscore.Hbond.Weighted>
-9.3545

> <Gold.Chemscore.Metal.Weighted>
-0.0000

> <Gold.Chemscore.Lipo.Weighted>
-9.9033

> <Gold.Chemscore.Internal_Hbond.Weighted>
0.0000

> <Gold.Chemscore.DEClash.Weighted>
1.0058

> <Gold.Chemscore.DEInternal.Weighted>
1.7655

> <Gold.Chemscore.Rot.Weighted>
3.2603

> <Gold.Chemscore.Internal.Correction.Weighted>
   9.000000E+99

> <Gold.Protein.RotatedTorsions>
[ 6907 6896 6895 6894 ] final -124.61 input  -60.11 | X-H torsion
[ 7974 7965 7964 7962 ] final    8.46 input  175.53 | X-H torsion
[ 8008 7997 7996 7995 ] final  162.67 input   59.86 | X-H torsion
[ 10167 10162 10161 10158 ] final   98.66 input  -65.29 | X-H torsion
[ 10718 10713 10712 10709 ] final  134.44 input   66.30 | X-H torsion
[ 10763 10752 10751 10750 ] final  162.74 input  -60.55 | X-H torsion
[ 11005 11000 10999 10996 ] final  146.13 input  -57.11 | X-H torsion

> <Gold.Protein.ActiveResidues>
 VAL166  LYS551  ARG553  GLY616  TRP617  ASP618  TYR619  PRO620  LYS621  CYS622 
 ASP623  PHE694  ASN695  SER759  ASP760  ASP761  ALA762  ILE779  LEU786  VAL792 
 PHE793  MET794  SER795  GLU796  ALA797  LYS798  CYS799  TRP800  GLU811  SER814 

> <Gold.Protein.RotatedAtoms>
  150.8785  133.7405  159.2939 H   0  0  0  0  0  0  0  0  0  0  0  0  # atno 6907 bound_to 6896
  151.4994  135.1059  159.9834 H   0  0  0  0  0  0  0  0  0  0  0  0  # atno 6908 bound_to 6896
  152.4744  133.8057  159.7032 H   0  0  0  0  0  0  0  0  0  0  0  0  # atno 6909 bound_to 6896
  146.2416  139.9930  142.8424 H   0  0  0  0  0  0  0  0  0  0  0  0  # atno 7974 bound_to 7965
  156.2014  140.1744  156.7890 H   0  0  0  0  0  0  0  0  0  0  0  0  # atno 8008 bound_to 7997
  154.5597  140.0702  156.8830 H   0  0  0  0  0  0  0  0  0  0  0  0  # atno 8009 bound_to 7997
  155.2871  140.3353  155.4257 H   0  0  0  0  0  0  0  0  0  0  0  0  # atno 8010 bound_to 7997
  139.7688  144.6929  151.0186 H   0  0  0  0  0  0  0  0  0  0  0  0  # atno 10167 bound_to 10162
  157.4672  131.1077  150.9848 H   0  0  0  0  0  0  0  0  0  0  0  0  # atno 10718 bound_to 10713
  154.2831  135.2763  155.2688 H   0  0  0  0  0  0  0  0  0  0  0  0  # atno 10763 bound_to 10752
  154.5201  135.5759  153.6677 H   0  0  0  0  0  0  0  0  0  0  0  0  # atno 10764 bound_to 10752
  152.9926  135.6202  154.2991 H   0  0  0  0  0  0  0  0  0  0  0  0  # atno 10765 bound_to 10752
  140.0768  134.9120  157.1436 H   0  0  0  0  0  0  0  0  0  0  0  0  # atno 11005 bound_to 11000
  145.1485  140.9610  143.4446 LP  0  0  0  0  0  0  0  0  0  0  0  0  # atno 17320 bound_to 7965
  145.0228  139.3409  143.6064 LP  0  0  0  0  0  0  0  0  0  0  0  0  # atno 17321 bound_to 7965
  140.7812  143.4612  151.0275 LP  0  0  0  0  0  0  0  0  0  0  0  0  # atno 17342 bound_to 10162
  139.8296  143.7708  152.3179 LP  0  0  0  0  0  0  0  0  0  0  0  0  # atno 17343 bound_to 10162
  157.0625  130.5831  149.5388 LP  0  0  0  0  0  0  0  0  0  0  0  0  # atno 17370 bound_to 10713
  156.0056  130.5142  150.7817 LP  0  0  0  0  0  0  0  0  0  0  0  0  # atno 17371 bound_to 10713
  140.3546  134.2561  155.7194 LP  0  0  0  0  0  0  0  0  0  0  0  0  # atno 17394 bound_to 11000
  141.2032  133.7917  157.0350 LP  0  0  0  0  0  0  0  0  0  0  0  0  # atno 17395 bound_to 11000

$$$$
