#       Name:                AV-unprocessed.smi:2907
#       Creating user name   scv26
#       Creation time:       Fri Mar 27 16:05:29 2020


#       File generated by GOLD software.
#

@<TRIPOS>MOLECULE
AV-unprocessed.smi:2907
    50    51     1
SMALL
NO_CHARGES


@<TRIPOS>ATOM
      1 ****        -3.9531   0.4075   2.9021 C.3            1 S1                 0.0000
      2 ****        -4.2363   0.1826   1.4096 C.3            1 S1                 0.0000
      3 ****        -2.9919   0.3096   0.5083 C.3            1 S1                 0.0000
      4 ****        -3.3606   0.1899  -0.9838 C.3            1 S1                 0.0000
      5 ****        -2.1710   0.3819  -1.9369 C.3            1 S1                 0.0000
      6 ****        -2.0034  -0.7116   0.8515 N.am           1 S1                 0.0000
      7 ****        -0.8193  -0.4981   1.4479 C.2            1 S1                 0.0000
      8 ****        -0.4515   0.5991   1.8665 O.2            1 S1                 0.0000
      9 ****         0.1044  -1.7106   1.5692 C.3            1 S1                 0.0000
     10 ****         0.5600  -2.1434   0.2570 N.pl3          1 S1                 0.0000
     11 ****         0.0251  -3.2430  -0.3298 N.2            1 S1                 0.0000
     12 ****         0.5860  -3.3557  -1.4982 N.2            1 S1                 0.0000
     13 ****         1.4974  -2.3412  -1.7171 N.2            1 S1                 0.0000
     14 ****         1.4564  -1.6264  -0.5985 C.2            1 S1                 0.0000
     15 ****         2.2431  -0.3722  -0.3449 C.3            1 S1                 0.0000
     16 ****         1.7313   0.8062  -1.1957 C.3            1 S1                 0.0000
     17 ****         2.5233   2.0917  -0.9084 C.3            1 S1                 0.0000
     18 ****         4.0312   1.8751  -1.1122 C.3            1 S1                 0.0000
     19 ****         4.5456   0.7062  -0.2566 C.3            1 S1                 0.0000
     20 ****         3.7579  -0.5833  -0.5412 C.3            1 S1                 0.0000
     21 ****        -4.8765   0.3690   3.4800 H              1 S1                 0.0000
     22 ****        -3.4945   1.3818   3.0725 H              1 S1                 0.0000
     23 ****        -3.2838  -0.3538   3.3030 H              1 S1                 0.0000
     24 ****        -4.6929  -0.7987   1.2736 H              1 S1                 0.0000
     25 ****        -4.9834   0.9094   1.0890 H              1 S1                 0.0000
     26 ****        -2.5689   1.3043   0.6595 H              1 S1                 0.0000
     27 ****        -3.8173  -0.7822  -1.1742 H              1 S1                 0.0000
     28 ****        -4.1209   0.9334  -1.2255 H              1 S1                 0.0000
     29 ****        -2.4975   0.3355  -2.9758 H              1 S1                 0.0000
     30 ****        -1.4134  -0.3900  -1.7979 H              1 S1                 0.0000
     31 ****        -1.6963   1.3510  -1.7816 H              1 S1                 0.0000
     32 ****        -2.2107  -1.6536   0.5517 H              1 S1                 0.0000
     33 ****         0.9703  -1.4737   2.1883 H              1 S1                 0.0000
     34 ****        -0.4248  -2.5281   2.0615 H              1 S1                 0.0000
     35 ****         2.1030  -0.0966   0.7001 H              1 S1                 0.0000
     36 ****         1.8073   0.5603  -2.2558 H              1 S1                 0.0000
     37 ****         0.6743   0.9799  -0.9925 H              1 S1                 0.0000
     38 ****         2.1714   2.8966  -1.5542 H              1 S1                 0.0000
     39 ****         2.3355   2.4135   0.1167 H              1 S1                 0.0000
     40 ****         4.2323   1.6742  -2.1652 H              1 S1                 0.0000
     41 ****         4.5748   2.7864  -0.8617 H              1 S1                 0.0000
     42 ****         5.6064   0.5433  -0.4493 H              1 S1                 0.0000
     43 ****         4.4590   0.9616   0.8003 H              1 S1                 0.0000
     44 ****         4.1116  -1.3808   0.1134 H              1 S1                 0.0000
     45 ****         3.9591  -0.9092  -1.5626 H              1 S1                 0.0000
     46 ****        -1.0477   1.3963   1.7709 LP             1 S1                 0.0000
     47 ****         0.4436   0.6936   2.3022 LP             1 S1                 0.0000
     48 ****        -0.6670  -3.8501   0.0604 LP             1 S1                 0.0000
     49 ****         0.3834  -4.0832  -2.1536 LP             1 S1                 0.0000
     50 ****         2.0582  -2.1818  -2.5296 LP             1 S1                 0.0000
@<TRIPOS>BOND
    1    1    2 1     
    2    1   21 1     
    3    1   22 1     
    4    1   23 1     
    5    2    3 1     
    6    2   24 1     
    7    2   25 1     
    8    3    4 1     
    9    3    6 1     
   10    3   26 1     
   11    4    5 1     
   12    4   27 1     
   13    4   28 1     
   14    5   29 1     
   15    5   30 1     
   16    5   31 1     
   17    6    7 am    
   18    6   32 1     
   19    7    8 2     
   20    7    9 1     
   21    9   10 1     
   22    9   33 1     
   23    9   34 1     
   24   10   14 1     
   25   10   11 1     
   26   11   12 2     
   27   12   13 1     
   28   13   14 2     
   29   14   15 1     
   30   15   20 1     
   31   15   16 1     
   32   15   35 1     
   33   16   17 1     
   34   16   36 1     
   35   16   37 1     
   36   17   18 1     
   37   17   38 1     
   38   17   39 1     
   39   18   19 1     
   40   18   40 1     
   41   18   41 1     
   42   19   20 1     
   43   19   42 1     
   44   19   43 1     
   45   20   44 1     
   46   20   45 1     
   47    8   46 1     
   48    8   47 1     
   49   11   48 1     
   50   12   49 1     
   51   13   50 1     
@<TRIPOS>SUBSTRUCTURE
      1 S1             1
@<TRIPOS>SET
LONE_PAIRS      STATIC     ATOMS    <user>   **** ""
5 46 47 48 49 50
DONOR_HYDROGENS      STATIC     ATOMS    <user>   **** ""
1 32
ATOM$BLUE        STATIC     ATOMS    COLORGROUP SYSTEM
5 46 47 48 49 50
ATOM$RED        STATIC     ATOMS    COLORGROUP SYSTEM
1 32
