AV-unprocessed.smi:1100|AV-procd|sdf|4762|dock10
  -GOLD-   22720 3303D 1   1.00000     0.00000
 Structure written by MMmdl.
 44 45  0  0  0  0  0  0  0  0  2 V2000
  146.1706  141.8889  154.9818 C   0  0  0  0  0  0  0  0  0  0  0  0
  146.9010  141.3439  153.7294 C   0  0  1  0  0  0  0  0  0  0  0  0
  148.4045  141.1129  154.0488 C   0  0  0  0  0  0  0  0  0  0  0  0
  148.9147  141.9931  155.0968 N   0  0  0  0  0  0  0  0  0  0  0  0
  149.6224  141.5896  156.1617 C   0  0  0  0  0  0  0  0  0  0  0  0
  149.9012  140.4095  156.3720 O   0  0  0  0  0  0  0  0  0  0  0  0
  149.9695  142.6366  156.9336 N   0  0  0  0  0  0  0  0  0  0  0  0
  150.7601  142.6639  158.0926 C   0  0  0  0  0  0  0  0  0  0  0  0
  151.3692  141.4221  158.5200 C   0  0  0  0  0  0  0  0  0  0  0  0
  152.1317  141.3632  159.6291 C   0  0  0  0  0  0  0  0  0  0  0  0
  152.3789  142.5489  160.4527 C   0  0  0  0  0  0  0  0  0  0  0  0
  153.0783  142.5114  161.4656 O   0  0  0  0  0  0  0  0  0  0  0  0
  151.7820  143.6984  160.0240 N   0  0  0  0  0  0  0  0  0  0  0  0
  151.9617  144.9373  160.7854 C   0  0  0  0  0  0  0  0  0  0  0  0
  150.9865  143.7512  158.8629 C   0  0  0  0  0  0  0  0  0  0  0  0
  146.2735  140.0973  153.1779 N   0  3  0  0  0  0  0  0  0  0  0  0
  147.0607  139.4162  152.1118 C   0  0  0  0  0  0  0  0  0  0  0  0
  146.3379  138.1599  151.5958 C   0  0  0  0  0  0  0  0  0  0  0  0
  146.0755  137.2753  152.6741 O   0  0  0  0  0  0  0  0  0  0  0  0
  145.2266  137.8750  153.6403 C   0  0  0  0  0  0  0  0  0  0  0  0
  145.9200  139.1109  154.2366 C   0  0  0  0  0  0  0  0  0  0  0  0
  146.6688  142.7649  155.3962 H   0  0  0  0  0  0  0  0  0  0  0  0
  146.1211  141.1384  155.7713 H   0  0  0  0  0  0  0  0  0  0  0  0
  145.1558  142.2151  154.7548 H   0  0  0  0  0  0  0  0  0  0  0  0
  146.8190  142.1118  152.9583 H   0  0  0  0  0  0  0  0  0  0  0  0
  148.5566  140.0836  154.3751 H   0  0  0  0  0  0  0  0  0  0  0  0
  149.0381  141.2507  153.1739 H   0  0  0  0  0  0  0  0  0  0  0  0
  148.7236  142.9795  154.9983 H   0  0  0  0  0  0  0  0  0  0  0  0
  149.6245  143.5390  156.6406 H   0  0  0  0  0  0  0  0  0  0  0  0
  151.2128  140.5228  157.9422 H   0  0  0  0  0  0  0  0  0  0  0  0
  152.5713  140.4204  159.9197 H   0  0  0  0  0  0  0  0  0  0  0  0
  151.3959  145.7737  160.3738 H   0  0  0  0  0  0  0  0  0  0  0  0
  153.0127  145.2292  160.7961 H   0  0  0  0  0  0  0  0  0  0  0  0
  151.6346  144.8054  161.8179 H   0  0  0  0  0  0  0  0  0  0  0  0
  150.5801  144.7301  158.6662 H   0  0  0  0  0  0  0  0  0  0  0  0
  147.2116  140.0742  151.2569 H   0  0  0  0  0  0  0  0  0  0  0  0
  148.0454  139.1497  152.4991 H   0  0  0  0  0  0  0  0  0  0  0  0
  145.4076  138.4254  151.0910 H   0  0  0  0  0  0  0  0  0  0  0  0
  146.9601  137.6453  150.8631 H   0  0  0  0  0  0  0  0  0  0  0  0
  144.2683  138.1416  153.1912 H   0  0  0  0  0  0  0  0  0  0  0  0
  145.0180  137.1472  154.4247 H   0  0  0  0  0  0  0  0  0  0  0  0
  146.8237  138.8060  154.7672 H   0  0  0  0  0  0  0  0  0  0  0  0
  145.2515  139.5439  154.9776 H   0  0  0  0  0  0  0  0  0  0  0  0
  145.4082  140.3839  152.7427 H   0  0  0  0  0  0  0  0  0  0  0  0
  1  2  1  0  0  0  0
  1 22  1  0  0  0  0
  1 23  1  0  0  0  0
  1 24  1  0  0  0  0
  2  3  1  0  0  0  0
  2 16  1  0  0  0  0
  2 25  1  0  0  0  0
  3  4  1  0  0  0  0
  3 26  1  0  0  0  0
  3 27  1  0  0  0  0
  4  5  1  0  0  0  0
  4 28  1  0  0  0  0
  5  6  2  0  0  0  0
  5  7  1  0  0  0  0
  7  8  1  0  0  0  0
  7 29  1  0  0  0  0
  8 15  2  0  0  0  0
  8  9  1  0  0  0  0
  9 10  2  0  0  0  0
  9 30  1  0  0  0  0
 10 11  1  0  0  0  0
 10 31  1  0  0  0  0
 11 12  2  0  0  0  0
 11 13  1  0  0  0  0
 13 14  1  0  0  0  0
 13 15  1  0  0  0  0
 14 32  1  0  0  0  0
 14 33  1  0  0  0  0
 14 34  1  0  0  0  0
 15 35  1  0  0  0  0
 16 21  1  0  0  0  0
 16 17  1  0  0  0  0
 16 44  1  0  0  0  0
 17 18  1  0  0  0  0
 17 36  1  0  0  0  0
 17 37  1  0  0  0  0
 18 19  1  0  0  0  0
 18 38  1  0  0  0  0
 18 39  1  0  0  0  0
 19 20  1  0  0  0  0
 20 21  1  0  0  0  0
 20 40  1  0  0  0  0
 20 41  1  0  0  0  0
 21 42  1  0  0  0  0
 21 43  1  0  0  0  0
M  CHG  1  16   1
M  END
> <s_m_source_file>
AV-unprocessed.smi

> <i_m_source_file_index>
1100

> <i_lp_mmshare_version>
43012

> <i_f3d_flags>
0

> <s_epik_input>
W0NIMl0xW0NIMl1PW0NIMl1bQ0gyXU4xW0NASF0oW0NIM10pW0NIMl1bTkhdQyg9TylbTkhdYzJbY0hdW2NIXWMoPU8pbihbQ0gzXSlbY0hdMg==

> <s_epik_cmdline>
J2VwaWtfcHl0aG9uJywgJy1waCcsICc3LjAnLCAnLXRuJywgJzgnLCAnLW1hJywgJzIwMCcsICctbWV0YWxfYmluZGluZycsICctaW1hZScsICc8aW5maWxlLm1hZT4nLCAnLW9tYWUnLCAnPG91dGZpbGUubWFlPic=

> <r_lp_tautomer_probability>
1

> <r_epik_Ionization_Penalty>
0.602556

> <r_epik_Ionization_Penalty_Charging>
0.602536

> <r_epik_Ionization_Penalty_Neutral>
1.99507e-05

> <r_epik_State_Penalty>
0.617039

> <r_epik_Charging_Adjusted_Penalty>
1.21958

> <i_epik_Tot_Q>
1

> <i_epik_Tot_abs_Q>
1

> <r_epik_Metal_State_Penalty>
0.619464

> <b_epik_Metal_Only>
0

> <s_lp_Force_Field>
OPLS_2005

> <r_lp_Energy>
33.6123

> <b_lp_Chiralities_Consistent>
1

> <s_lp_Variant>
AV-unprocessed.smi:1100-4

> <Gold.Version>
5.8.1

> <Gold.Id.Protein>
6NUR|6NUR_protein|mol2

> <Gold.PLP.Fitness>
50.0479

> <Gold.PLP.PLP>
-39.3322

> <Gold.PLP.part.hbond>
-3.0000

> <Gold.PLP.part.metal>
0.0000

> <Gold.PLP.part.buried>
-2.6990

> <Gold.PLP.part.nonpolar>
-34.9511

> <Gold.PLP.part.repulsive>
0.4513

> <Gold.PLP.ligand.clash>
0.0557

> <Gold.PLP.ligand.torsion>
0.6346

> <Gold.PLP.Chemscore.Hbond>
4.0000

> <Gold.PLP.Chemscore.CHOScore>
0.0000

> <Gold.PLP.Chemscore.Metal>
0.0000

> <Gold.Chemscore.Hbonds>
donor molecule, donor type, donor heavy atom, donor atom, acceptor molecule, acceptor atom, score
      L1  H     4    28       P1  8028  1.00
      L1  H     7    29       P1  8028  1.00
      L1  H    16    44       P1 10175  2.00

> <Gold.PLP.Chemscore.Internal.Correction>
0.0407

> <Gold.Rescore>
     Score         DG    S(hbond)    S(metal)    S(lipo)     H(rot)  DE(clash)    DE(int)     intcor
     19.01     -21.13       2.93        0.00      83.76       1.54       0.07       2.06       ----

> <Gold.Chemscore.Fitness>
19.0052

> <Gold.Chemscore.DG>
-21.1347

> <Gold.Chemscore.ZeroCoef>
-5.4800

> <Gold.Chemscore.Hbond>
2.9331

> <Gold.Chemscore.Metal>
0.0000

> <Gold.Chemscore.Lipo>
83.7624

> <Gold.Chemscore.Internal_Hbond>
0.0000

> <Gold.Chemscore.DEClash>
0.0663

> <Gold.Chemscore.DEInternal>
2.0631

> <Gold.Chemscore.Rot>
1.5398

> <Gold.Chemscore.Internal.Correction>
   9.000000E+99

> <Gold.Chemscore.Hbonds>
donor molecule, donor type, donor heavy atom, donor atom, acceptor molecule, acceptor atom, score
      L1  H     4    28       P1  8028  0.95
      L1  H     7    29       P1  8028  0.99
      L1  H    16    44       P1 10175  0.82

> <Gold.Chemscore.Hbond.Weighted>
-9.7964

> <Gold.Chemscore.Metal.Weighted>
-0.0000

> <Gold.Chemscore.Lipo.Weighted>
-9.8002

> <Gold.Chemscore.Internal_Hbond.Weighted>
0.0000

> <Gold.Chemscore.DEClash.Weighted>
0.0663

> <Gold.Chemscore.DEInternal.Weighted>
2.0631

> <Gold.Chemscore.Rot.Weighted>
3.9420

> <Gold.Chemscore.Internal.Correction.Weighted>
   9.000000E+99

> <Gold.Protein.RotatedTorsions>
[ 6907 6896 6895 6894 ] final -101.82 input  -60.11 | X-H torsion
[ 7974 7965 7964 7962 ] final   37.06 input  175.53 | X-H torsion
[ 8008 7997 7996 7995 ] final   48.11 input   59.86 | X-H torsion
[ 10167 10162 10161 10158 ] final   71.95 input  -65.29 | X-H torsion
[ 10718 10713 10712 10709 ] final  -76.74 input   66.30 | X-H torsion
[ 10763 10752 10751 10750 ] final  -62.73 input  -60.55 | X-H torsion
[ 11005 11000 10999 10996 ] final   16.44 input  -57.11 | X-H torsion

> <Gold.Protein.ActiveResidues>
 VAL166  LYS551  ARG553  GLY616  TRP617  ASP618  TYR619  PRO620  LYS621  CYS622 
 ASP623  PHE694  ASN695  SER759  ASP760  ASP761  ALA762  ILE779  LEU786  VAL792 
 PHE793  MET794  SER795  GLU796  ALA797  LYS798  CYS799  TRP800  GLU811  SER814 

> <Gold.Protein.RotatedAtoms>
  150.7170  134.0676  159.3852 H   0  0  0  0  0  0  0  0  0  0  0  0  # atno 6907 bound_to 6896
  151.8657  135.0505  160.0483 H   0  0  0  0  0  0  0  0  0  0  0  0  # atno 6908 bound_to 6896
  152.2682  133.5323  159.5459 H   0  0  0  0  0  0  0  0  0  0  0  0  # atno 6909 bound_to 6896
  146.1166  139.5941  142.9317 H   0  0  0  0  0  0  0  0  0  0  0  0  # atno 7974 bound_to 7965
  155.3802  140.3428  155.4246 H   0  0  0  0  0  0  0  0  0  0  0  0  # atno 8008 bound_to 7997
  156.1615  140.1602  156.8638 H   0  0  0  0  0  0  0  0  0  0  0  0  # atno 8009 bound_to 7997
  154.5144  140.0782  156.8034 H   0  0  0  0  0  0  0  0  0  0  0  0  # atno 8010 bound_to 7997
  140.0405  144.5393  150.7438 H   0  0  0  0  0  0  0  0  0  0  0  0  # atno 10167 bound_to 10162
  156.0165  130.4473  150.3240 H   0  0  0  0  0  0  0  0  0  0  0  0  # atno 10718 bound_to 10713
  154.3043  135.6228  153.5438 H   0  0  0  0  0  0  0  0  0  0  0  0  # atno 10763 bound_to 10752
  152.9837  135.5686  154.5249 H   0  0  0  0  0  0  0  0  0  0  0  0  # atno 10764 bound_to 10752
  154.4885  135.2866  155.1491 H   0  0  0  0  0  0  0  0  0  0  0  0  # atno 10765 bound_to 10752
  140.4471  134.1262  155.7697 H   0  0  0  0  0  0  0  0  0  0  0  0  # atno 11005 bound_to 11000
  145.5555  141.0409  143.2255 LP  0  0  0  0  0  0  0  0  0  0  0  0  # atno 17320 bound_to 7965
  144.7558  139.7078  143.7254 LP  0  0  0  0  0  0  0  0  0  0  0  0  # atno 17321 bound_to 7965
  140.7262  143.2639  151.4112 LP  0  0  0  0  0  0  0  0  0  0  0  0  # atno 17342 bound_to 10162
  139.6017  144.1282  152.2205 LP  0  0  0  0  0  0  0  0  0  0  0  0  # atno 17343 bound_to 10162
  157.1340  131.0279  151.2957 LP  0  0  0  0  0  0  0  0  0  0  0  0  # atno 17370 bound_to 10713
  157.4527  130.7608  149.7166 LP  0  0  0  0  0  0  0  0  0  0  0  0  # atno 17371 bound_to 10713
  141.1680  133.8664  157.1655 LP  0  0  0  0  0  0  0  0  0  0  0  0  # atno 17394 bound_to 11000
  140.0031  135.0019  157.0234 LP  0  0  0  0  0  0  0  0  0  0  0  0  # atno 17395 bound_to 11000

$$$$
