#       Name:                AV-unprocessed.smi:1792
#       Creating user name   scv26
#       Creation time:       Fri Mar 27 08:46:34 2020


#       File generated by GOLD software.
#

@<TRIPOS>MOLECULE
AV-unprocessed.smi:1792
    48    49     1
SMALL
NO_CHARGES


@<TRIPOS>ATOM
      1 ****        -1.5957  -1.6906   2.9031 C.3            1 S1                 0.0000
      2 ****        -1.1907  -0.8766   1.6505 C.3            1 S1                 0.0000
      3 ****        -1.7808   0.5473   1.8169 C.3            1 S1                 0.0000
      4 ****         0.3559  -0.7109   1.6862 C.3            1 S1                 0.0000
      5 ****         0.8575  -0.0109   0.5048 N.am           1 S1                 0.0000
      6 ****         1.7383   0.9988   0.5049 C.2            1 S1                 0.0000
      7 ****         2.2684   1.4425   1.5238 O.2            1 S1                 0.0000
      8 ****         1.9507   1.4511  -0.7433 N.am           1 S1                 0.0000
      9 ****         2.7903   2.5176  -1.1612 C.ar           1 S1                 0.0000
     10 ****         2.7758   2.7808  -2.5496 C.ar           1 S1                 0.0000
     11 ****         3.5705   3.8224  -3.0660 C.ar           1 S1                 0.0000
     12 ****         4.3623   4.5739  -2.1795 C.ar           1 S1                 0.0000
     13 ****         4.3206   4.2452  -0.8120 C.ar           1 S1                 0.0000
     14 ****         3.5586   3.2480  -0.3148 N.ar           1 S1                 0.0000
     15 ****        -1.6485  -1.4999   0.3764 N.3            1 S1                 0.0000
     16 ****        -3.1049  -1.5833   0.2173 C.3            1 S1                 0.0000
     17 ****        -3.5070  -2.1260  -1.1648 C.3            1 S1                 0.0000
     18 ****        -2.9052  -3.3974  -1.3759 O.3            1 S1                 0.0000
     19 ****        -1.4866  -3.3459  -1.2917 C.3            1 S1                 0.0000
     20 ****        -1.0693  -2.8180   0.0911 C.3            1 S1                 0.0000
     21 ****        -1.2480  -1.2029   3.8147 H              1 S1                 0.0000
     22 ****        -1.1656  -2.6919   2.9005 H              1 S1                 0.0000
     23 ****        -2.6764  -1.7939   2.9965 H              1 S1                 0.0000
     24 ****        -1.3169   1.0786   2.6490 H              1 S1                 0.0000
     25 ****        -2.8501   0.5301   2.0269 H              1 S1                 0.0000
     26 ****        -1.6298   1.1531   0.9226 H              1 S1                 0.0000
     27 ****         0.6468  -0.1855   2.5978 H              1 S1                 0.0000
     28 ****         0.8582  -1.6758   1.7511 H              1 S1                 0.0000
     29 ****         0.4743  -0.3048  -0.3818 H              1 S1                 0.0000
     30 ****         1.4406   0.9870  -1.4800 H              1 S1                 0.0000
     31 ****         2.1612   2.1937  -3.2166 H              1 S1                 0.0000
     32 ****         3.5713   4.0404  -4.1236 H              1 S1                 0.0000
     33 ****         4.9853   5.3799  -2.5379 H              1 S1                 0.0000
     34 ****         4.9141   4.7967  -0.0980 H              1 S1                 0.0000
     35 ****        -3.5322  -2.2284   0.9851 H              1 S1                 0.0000
     36 ****        -3.5658  -0.6041   0.3336 H              1 S1                 0.0000
     37 ****        -4.5902  -2.2301  -1.2296 H              1 S1                 0.0000
     38 ****        -3.2037  -1.4362  -1.9539 H              1 S1                 0.0000
     39 ****        -1.0837  -4.3458  -1.4527 H              1 S1                 0.0000
     40 ****        -1.0898  -2.7092  -2.0840 H              1 S1                 0.0000
     41 ****         0.0182  -2.7799   0.1151 H              1 S1                 0.0000
     42 ****        -1.3778  -3.5381   0.8489 H              1 S1                 0.0000
     43 ****         2.0480   1.0464   2.4152 LP             1 S1                 0.0000
     44 ****         2.9193   2.1989   1.4600 LP             1 S1                 0.0000
     45 ****         3.5605   3.0501   0.6654 LP             1 S1                 0.0000
     46 ****        -1.2953  -0.8478  -0.2944 LP             1 S1                 0.0000
     47 ****        -3.1613  -3.7271  -2.2846 LP             1 S1                 0.0000
     48 ****        -3.2453  -4.0329  -0.6827 LP             1 S1                 0.0000
@<TRIPOS>BOND
    1    1    2 1     
    2    1   21 1     
    3    1   22 1     
    4    1   23 1     
    5    2    3 1     
    6    2    4 1     
    7    2   15 1     
    8    3   24 1     
    9    3   25 1     
   10    3   26 1     
   11    4    5 1     
   12    4   27 1     
   13    4   28 1     
   14    5    6 am    
   15    5   29 1     
   16    6    7 2     
   17    6    8 am    
   18    8    9 1     
   19    8   30 1     
   20    9   14 ar    
   21    9   10 ar    
   22   10   11 ar    
   23   10   31 1     
   24   11   12 ar    
   25   11   32 1     
   26   12   13 ar    
   27   12   33 1     
   28   13   14 ar    
   29   13   34 1     
   30   15   20 1     
   31   15   16 1     
   32   16   17 1     
   33   16   35 1     
   34   16   36 1     
   35   17   18 1     
   36   17   37 1     
   37   17   38 1     
   38   18   19 1     
   39   19   20 1     
   40   19   39 1     
   41   19   40 1     
   42   20   41 1     
   43   20   42 1     
   44    7   43 1     
   45    7   44 1     
   46   14   45 1     
   47   15   46 1     
   48   18   47 1     
   49   18   48 1     
@<TRIPOS>SUBSTRUCTURE
      1 S1             1
@<TRIPOS>SET
LONE_PAIRS      STATIC     ATOMS    <user>   **** ""
6 43 44 45 46 47 48
DONOR_HYDROGENS      STATIC     ATOMS    <user>   **** ""
2 29 30
ATOM$BLUE        STATIC     ATOMS    COLORGROUP SYSTEM
6 43 44 45 46 47 48
ATOM$RED        STATIC     ATOMS    COLORGROUP SYSTEM
2 29 30
