#       Name:                AV-unprocessed.smi:2887
#       Creating user name   scv26
#       Creation time:       Fri Mar 27 15:56:50 2020


#       File generated by GOLD software.
#

@<TRIPOS>MOLECULE
AV-unprocessed.smi:2887
    44    45     1
SMALL
NO_CHARGES


@<TRIPOS>ATOM
      1 ****        -1.3700   2.8864   0.2136 O.2            1 S1                 0.0000
      2 ****        -0.7180   2.0182   0.7922 C.2            1 S1                 0.0000
      3 ****         0.7663   2.2803   1.0938 C.3            1 S1                 0.0000
      4 ****         1.5021   1.1121   1.5751 N.pl3          1 S1                 0.0000
      5 ****         1.6292   0.8411   2.9335 C.2            1 S1                 0.0000
      6 ****         2.2307  -0.2564   3.4290 C.2            1 S1                 0.0000
      7 ****         2.7971  -1.2557   2.5005 C.2            1 S1                 0.0000
      8 ****         3.3307  -2.2769   2.9309 O.2            1 S1                 0.0000
      9 ****         2.6747  -0.9679   1.0409 C.2            1 S1                 0.0000
     10 ****         3.1851  -1.8148  -0.0187 N.pl3          1 S1                 1.0000
     11 ****         2.6754  -1.7510  -1.1337 O.2            1 S1                 0.0000
     12 ****         4.1178  -2.5722   0.2282 O.2            1 S1                -1.0000
     13 ****         2.0419   0.1800   0.6889 C.2            1 S1                 0.0000
     14 ****        -1.2380   0.8340   1.1594 N.am           1 S1                 0.0000
     15 ****        -2.5894   0.3613   0.8730 C.3            1 S1                 0.0000
     16 ****        -2.5595  -0.8978  -0.0114 C.3            1 S1                 0.0000
     17 ****        -1.7868  -0.7089  -1.3047 C.2            1 S1                 0.0000
     18 ****        -0.6598  -1.3278  -1.6531 C.2            1 S1                 0.0000
     19 ****        -0.1556  -0.8972  -3.0028 C.3            1 S1                 0.0000
     20 ****        -1.1922   0.1471  -3.4739 C.3            1 S1                 0.0000
     21 ****        -2.2608   0.2535  -2.3627 C.3            1 S1                 0.0000
     22 ****         1.2437   2.6592   0.1888 H              1 S1                 0.0000
     23 ****         0.8325   3.0855   1.8269 H              1 S1                 0.0000
     24 ****         1.2005   1.5922   3.5810 H              1 S1                 0.0000
     25 ****         2.3058  -0.4249   4.4933 H              1 S1                 0.0000
     26 ****         1.9155   0.4636  -0.3465 H              1 S1                 0.0000
     27 ****        -0.6278   0.1866   1.6371 H              1 S1                 0.0000
     28 ****        -3.0801   0.1336   1.8194 H              1 S1                 0.0000
     29 ****        -3.1934   1.1348   0.3963 H              1 S1                 0.0000
     30 ****        -2.1086  -1.7202   0.5460 H              1 S1                 0.0000
     31 ****        -3.5764  -1.2088  -0.2521 H              1 S1                 0.0000
     32 ****        -0.1377  -2.0578  -1.0521 H              1 S1                 0.0000
     33 ****         0.8410  -0.4643  -2.9134 H              1 S1                 0.0000
     34 ****        -0.1061  -1.7524  -3.6774 H              1 S1                 0.0000
     35 ****        -0.7139   1.1133  -3.6390 H              1 S1                 0.0000
     36 ****        -1.6449  -0.1553  -4.4189 H              1 S1                 0.0000
     37 ****        -3.2478  -0.0378  -2.7231 H              1 S1                 0.0000
     38 ****        -2.3216   1.2663  -1.9639 H              1 S1                 0.0000
     39 ****        -0.9332   3.7457  -0.0525 LP             1 S1                 0.0000
     40 ****        -2.3369   2.7328   0.0094 LP             1 S1                 0.0000
     41 ****         3.3836  -2.4360   3.9167 LP             1 S1                 0.0000
     42 ****         3.7115  -2.9482   2.2950 LP             1 S1                 0.0000
     43 ****         1.9177  -1.1203  -1.3018 LP             1 S1                 0.0000
     44 ****         3.0178  -2.3297  -1.8739 LP             1 S1                 0.0000
@<TRIPOS>BOND
    1    1    2 2     
    2    2    3 1     
    3    2   14 am    
    4    3    4 1     
    5    3   22 1     
    6    3   23 1     
    7    4   13 1     
    8    4    5 1     
    9    5    6 2     
   10    5   24 1     
   11    6    7 1     
   12    6   25 1     
   13    7    8 2     
   14    7    9 1     
   15    9   10 1     
   16    9   13 2     
   17   10   11 2     
   18   10   12 1     
   19   13   26 1     
   20   14   15 1     
   21   14   27 1     
   22   15   16 1     
   23   15   28 1     
   24   15   29 1     
   25   16   17 1     
   26   16   30 1     
   27   16   31 1     
   28   17   21 1     
   29   17   18 2     
   30   18   19 1     
   31   18   32 1     
   32   19   20 1     
   33   19   33 1     
   34   19   34 1     
   35   20   21 1     
   36   20   35 1     
   37   20   36 1     
   38   21   37 1     
   39   21   38 1     
   40    1   39 1     
   41    1   40 1     
   42    8   41 1     
   43    8   42 1     
   44   11   43 1     
   45   11   44 1     
@<TRIPOS>SUBSTRUCTURE
      1 S1             1
@<TRIPOS>SET
LONE_PAIRS      STATIC     ATOMS    <user>   **** ""
7 39 40 41 42 43 44 12
DONOR_HYDROGENS      STATIC     ATOMS    <user>   **** ""
1 27
ATOM$BLUE        STATIC     ATOMS    COLORGROUP SYSTEM
7 39 40 41 42 43 44 12
ATOM$RED        STATIC     ATOMS    COLORGROUP SYSTEM
1 27
