AV-unprocessed.smi:842|AV-procd|sdf|3920|dock3
  -GOLD-   22720 1383D 1   1.00000     0.00000
 Structure written by MMmdl.
 43 44  0  0  0  0  0  0  0  0  2 V2000
  144.9329  135.6019  150.9851 C   0  0  0  0  0  0  0  0  0  0  0  0
  146.1094  136.5894  150.9742 C   0  0  0  0  0  0  0  0  0  0  0  0
  145.9625  137.7420  151.9886 C   0  0  1  0  0  0  0  0  0  0  0  0
  145.0282  137.3738  153.1584 C   0  0  0  0  0  0  0  0  0  0  0  0
  143.6821  137.6299  152.8176 O   0  0  0  0  0  0  0  0  0  0  0  0
  147.2773  138.1224  152.5025 N   0  0  0  0  0  0  0  0  0  0  0  0
  147.5112  139.0839  153.4070 C   0  0  0  0  0  0  0  0  0  0  0  0
  146.6219  139.7538  153.9312 O   0  0  0  0  0  0  0  0  0  0  0  0
  148.8280  139.2171  153.6421 N   0  0  0  0  0  0  0  0  0  0  0  0
  149.4888  140.1279  154.5110 C   0  0  0  0  0  0  0  0  0  0  0  0
  150.7404  139.7424  155.0357 C   0  0  0  0  0  0  0  0  0  0  0  0
  151.4331  140.6071  155.9077 C   0  0  0  0  0  0  0  0  0  0  0  0
  150.8615  141.8525  156.2588 C   0  0  0  0  0  0  0  0  0  0  0  0
  151.4983  142.7699  157.1157 N   0  0  0  0  0  0  0  0  0  0  0  0
  151.2654  144.2013  157.0123 C   0  0  0  0  0  0  0  0  0  0  0  0
  152.0275  144.7998  158.1936 C   0  0  0  0  0  0  0  0  0  0  0  0
  151.9225  143.7110  159.2624 C   0  0  0  0  0  0  0  0  0  0  0  0
  151.9021  142.4011  158.4650 C   0  0  0  0  0  0  0  0  0  0  0  0
  149.6542  142.1784  155.7391 N   0  3  0  0  0  0  0  0  0  0  0  0
  148.9577  141.3812  154.9003 C   0  0  0  0  0  0  0  0  0  0  0  0
  145.1088  134.7845  150.2855 H   0  0  0  0  0  0  0  0  0  0  0  0
  143.9988  136.0842  150.6970 H   0  0  0  0  0  0  0  0  0  0  0  0
  144.7952  135.1668  151.9752 H   0  0  0  0  0  0  0  0  0  0  0  0
  147.0242  136.0356  151.1874 H   0  0  0  0  0  0  0  0  0  0  0  0
  146.2299  136.9946  149.9688 H   0  0  0  0  0  0  0  0  0  0  0  0
  145.5381  138.6002  151.4630 H   0  0  0  0  0  0  0  0  0  0  0  0
  145.1434  136.3266  153.4401 H   0  0  0  0  0  0  0  0  0  0  0  0
  145.2608  137.9712  154.0408 H   0  0  0  0  0  0  0  0  0  0  0  0
  143.6425  137.8574  151.9012 H   0  0  0  0  0  0  0  0  0  0  0  0
  148.0690  137.6239  152.1233 H   0  0  0  0  0  0  0  0  0  0  0  0
  149.4346  138.6296  153.0890 H   0  0  0  0  0  0  0  0  0  0  0  0
  151.1762  138.7909  154.7673 H   0  0  0  0  0  0  0  0  0  0  0  0
  152.3973  140.3067  156.2906 H   0  0  0  0  0  0  0  0  0  0  0  0
  151.6182  144.6016  156.0613 H   0  0  0  0  0  0  0  0  0  0  0  0
  150.1971  144.4041  157.1003 H   0  0  0  0  0  0  0  0  0  0  0  0
  153.0734  144.9482  157.9214 H   0  0  0  0  0  0  0  0  0  0  0  0
  151.6235  145.7591  158.5178 H   0  0  0  0  0  0  0  0  0  0  0  0
  152.7338  143.7499  159.9898 H   0  0  0  0  0  0  0  0  0  0  0  0
  150.9824  143.8236  159.8045 H   0  0  0  0  0  0  0  0  0  0  0  0
  151.2204  141.6799  158.9175 H   0  0  0  0  0  0  0  0  0  0  0  0
  152.8971  141.9567  158.4262 H   0  0  0  0  0  0  0  0  0  0  0  0
  148.0051  141.7811  154.5879 H   0  0  0  0  0  0  0  0  0  0  0  0
  149.2445  143.0767  155.9960 H   0  0  0  0  0  0  0  0  0  0  0  0
  1  2  1  0  0  0  0
  1 21  1  0  0  0  0
  1 22  1  0  0  0  0
  1 23  1  0  0  0  0
  2  3  1  0  0  0  0
  2 24  1  0  0  0  0
  2 25  1  0  0  0  0
  3  4  1  0  0  0  0
  3  6  1  0  0  0  0
  3 26  1  0  0  0  0
  4  5  1  0  0  0  0
  4 27  1  0  0  0  0
  4 28  1  0  0  0  0
  5 29  1  0  0  0  0
  6  7  1  0  0  0  0
  6 30  1  0  0  0  0
  7  8  2  0  0  0  0
  7  9  1  0  0  0  0
  9 10  1  0  0  0  0
  9 31  1  0  0  0  0
 10 20  1  0  0  0  0
 10 11  2  0  0  0  0
 11 12  1  0  0  0  0
 11 32  1  0  0  0  0
 12 13  2  0  0  0  0
 12 33  1  0  0  0  0
 13 14  1  0  0  0  0
 13 19  1  0  0  0  0
 14 18  1  0  0  0  0
 14 15  1  0  0  0  0
 15 16  1  0  0  0  0
 15 34  1  0  0  0  0
 15 35  1  0  0  0  0
 16 17  1  0  0  0  0
 16 36  1  0  0  0  0
 16 37  1  0  0  0  0
 17 18  1  0  0  0  0
 17 38  1  0  0  0  0
 17 39  1  0  0  0  0
 18 40  1  0  0  0  0
 18 41  1  0  0  0  0
 19 20  2  0  0  0  0
 19 43  1  0  0  0  0
 20 42  1  0  0  0  0
M  CHG  1  19   1
M  END
> <s_m_source_file>
AV-unprocessed.smi

> <i_m_source_file_index>
842

> <i_lp_mmshare_version>
43012

> <i_f3d_flags>
0

> <s_epik_input>
W0NIM11bQ0gyXVtDQEhdKFtDSDJdW09IXSlbTkhdQyg9TylbTkhdYzFbY0hdW2NIXWMobltjSF0xKU4yW0NIMl1bQ0gyXVtDSDJdW0NIMl0y

> <s_epik_cmdline>
J2VwaWtfcHl0aG9uJywgJy1waCcsICc3LjAnLCAnLXRuJywgJzgnLCAnLW1hJywgJzIwMCcsICctbWV0YWxfYmluZGluZycsICctaW1hZScsICc8aW5maWxlLm1hZT4nLCAnLW9tYWUnLCAnPG91dGZpbGUubWFlPic=

> <r_lp_tautomer_probability>
0.999994

> <r_epik_Ionization_Penalty>
1.10848

> <r_epik_Ionization_Penalty_Charging>
1.10846

> <r_epik_Ionization_Penalty_Neutral>
2.01032e-05

> <r_epik_State_Penalty>
1.16624

> <r_epik_Charging_Adjusted_Penalty>
2.2747

> <i_epik_Tot_Q>
1

> <i_epik_Tot_abs_Q>
1

> <r_epik_Metal_State_Penalty>
1.25257

> <b_epik_Metal_Only>
0

> <s_lp_Force_Field>
OPLS_2005

> <r_lp_Energy>
34.6979

> <b_lp_Chiralities_Consistent>
1

> <s_lp_Variant>
AV-unprocessed.smi:842-4

> <Gold.Version>
5.8.1

> <Gold.Id.Protein>
6NUR|6NUR_protein|mol2

> <Gold.PLP.Fitness>
52.0024

> <Gold.PLP.PLP>
-43.0183

> <Gold.PLP.part.hbond>
-5.3792

> <Gold.PLP.part.metal>
0.0000

> <Gold.PLP.part.buried>
1.3146

> <Gold.PLP.part.nonpolar>
-39.5595

> <Gold.PLP.part.repulsive>
0.4501

> <Gold.PLP.ligand.clash>
0.0000

> <Gold.PLP.ligand.torsion>
1.6376

> <Gold.PLP.Chemscore.Hbond>
4.0000

> <Gold.PLP.Chemscore.CHOScore>
0.0000

> <Gold.PLP.Chemscore.Metal>
0.0000

> <Gold.Chemscore.Hbonds>
donor molecule, donor type, donor heavy atom, donor atom, acceptor molecule, acceptor atom, score
      L1  H     5    29       P1 10171  0.55
      L1  H     6    30       P1  7948  1.00
      L1  H    19    43       P1  8028  2.00

> <Gold.PLP.Chemscore.Internal.Correction>
0.2593

> <Gold.Rescore>
     Score         DG    S(hbond)    S(metal)    S(lipo)     H(rot)  DE(clash)    DE(int)     intcor
     17.79     -22.10       2.92        0.00     102.93       2.02       1.69       2.61       ----

> <Gold.Chemscore.Fitness>
17.7943

> <Gold.Chemscore.DG>
-22.0987

> <Gold.Chemscore.ZeroCoef>
-5.4800

> <Gold.Chemscore.Hbond>
2.9205

> <Gold.Chemscore.Metal>
0.0000

> <Gold.Chemscore.Lipo>
102.9327

> <Gold.Chemscore.Internal_Hbond>
0.0000

> <Gold.Chemscore.DEClash>
1.6933

> <Gold.Chemscore.DEInternal>
2.6112

> <Gold.Chemscore.Rot>
2.0230

> <Gold.Chemscore.Internal.Correction>
   9.000000E+99

> <Gold.Chemscore.Hbonds>
donor molecule, donor type, donor heavy atom, donor atom, acceptor molecule, acceptor atom, score
      L1  H     5    29       P1 10171  0.52
      L1  H     6    30       P1  7948  0.97
      L1  H     9    31       P1  7957  0.01
      L1  H    19    43       P1  8028  0.95

> <Gold.Chemscore.Hbond.Weighted>
-9.7545

> <Gold.Chemscore.Metal.Weighted>
-0.0000

> <Gold.Chemscore.Lipo.Weighted>
-12.0431

> <Gold.Chemscore.Internal_Hbond.Weighted>
0.0000

> <Gold.Chemscore.DEClash.Weighted>
1.6933

> <Gold.Chemscore.DEInternal.Weighted>
2.6112

> <Gold.Chemscore.Rot.Weighted>
5.1790

> <Gold.Chemscore.Internal.Correction.Weighted>
   9.000000E+99

> <Gold.Protein.RotatedTorsions>
[ 6907 6896 6895 6894 ] final  114.40 input  -60.11 | X-H torsion
[ 7974 7965 7964 7962 ] final  133.96 input  175.53 | X-H torsion
[ 8008 7997 7996 7995 ] final -161.87 input   59.86 | X-H torsion
[ 10167 10162 10161 10158 ] final   -2.65 input  -65.29 | X-H torsion
[ 10718 10713 10712 10709 ] final  118.37 input   66.30 | X-H torsion
[ 10763 10752 10751 10750 ] final   16.00 input  -60.55 | X-H torsion
[ 11005 11000 10999 10996 ] final  -53.36 input  -57.11 | X-H torsion

> <Gold.Protein.ActiveResidues>
 VAL166  LYS551  ARG553  GLY616  TRP617  ASP618  TYR619  PRO620  LYS621  CYS622 
 ASP623  PHE694  ASN695  SER759  ASP760  ASP761  ALA762  ILE779  LEU786  VAL792 
 PHE793  MET794  SER795  GLU796  ALA797  LYS798  CYS799  TRP800  GLU811  SER814 

> <Gold.Protein.RotatedAtoms>
  152.4805  133.8242  159.7069 H   0  0  0  0  0  0  0  0  0  0  0  0  # atno 6907 bound_to 6896
  150.8851  133.7309  159.2927 H   0  0  0  0  0  0  0  0  0  0  0  0  # atno 6908 bound_to 6896
  151.4801  135.1055  159.9827 H   0  0  0  0  0  0  0  0  0  0  0  0  # atno 6909 bound_to 6896
  144.9812  139.4502  143.5385 H   0  0  0  0  0  0  0  0  0  0  0  0  # atno 7974 bound_to 7965
  155.7986  140.0888  157.1970 H   0  0  0  0  0  0  0  0  0  0  0  0  # atno 8008 bound_to 7997
  154.3982  140.1476  156.3306 H   0  0  0  0  0  0  0  0  0  0  0  0  # atno 8009 bound_to 7997
  155.8486  140.3435  155.5681 H   0  0  0  0  0  0  0  0  0  0  0  0  # atno 8010 bound_to 7997
  140.6859  143.6632  150.8248 H   0  0  0  0  0  0  0  0  0  0  0  0  # atno 10167 bound_to 10162
  157.6034  131.1047  150.7747 H   0  0  0  0  0  0  0  0  0  0  0  0  # atno 10718 bound_to 10713
  153.1472  135.6771  153.8937 H   0  0  0  0  0  0  0  0  0  0  0  0  # atno 10763 bound_to 10752
  153.8375  135.3109  155.3425 H   0  0  0  0  0  0  0  0  0  0  0  0  # atno 10764 bound_to 10752
  154.7834  135.4876  153.9979 H   0  0  0  0  0  0  0  0  0  0  0  0  # atno 10765 bound_to 10752
  141.0972  133.6623  156.4160 H   0  0  0  0  0  0  0  0  0  0  0  0  # atno 11005 bound_to 11000
  146.3408  139.9086  142.8783 LP  0  0  0  0  0  0  0  0  0  0  0  0  # atno 17320 bound_to 7965
  145.2418  141.0012  143.3931 LP  0  0  0  0  0  0  0  0  0  0  0  0  # atno 17321 bound_to 7965
  140.0339  143.5415  152.2748 LP  0  0  0  0  0  0  0  0  0  0  0  0  # atno 17342 bound_to 10162
  139.6218  144.7630  151.2724 LP  0  0  0  0  0  0  0  0  0  0  0  0  # atno 17343 bound_to 10162
  156.8141  130.4962  149.5352 LP  0  0  0  0  0  0  0  0  0  0  0  0  # atno 17370 bound_to 10713
  156.1114  130.6043  151.0053 LP  0  0  0  0  0  0  0  0  0  0  0  0  # atno 17371 bound_to 10713
  140.5111  134.6394  157.5285 LP  0  0  0  0  0  0  0  0  0  0  0  0  # atno 17394 bound_to 11000
  139.9812  134.7134  155.9856 LP  0  0  0  0  0  0  0  0  0  0  0  0  # atno 17395 bound_to 11000

$$$$
