#       Name:                AV-unprocessed.smi:81
#       Creating user name   scv26
#       Creation time:       Thu Mar 26 17:15:55 2020


#       File generated by GOLD software.
#

@<TRIPOS>MOLECULE
AV-unprocessed.smi:81
    72    75     1
SMALL
NO_CHARGES


@<TRIPOS>ATOM
      1 ****        -2.8238  -2.2068  -1.4624 C.3            1 S1                 0.0000
      2 ****        -2.5907  -2.4385   0.0398 C.3            1 S1                 0.0000
      3 ****        -3.3688  -3.6711   0.5207 C.3            1 S1                 0.0000
      4 ****        -2.9739  -1.1987   0.8795 C.3            1 S1                 0.0000
      5 ****        -2.1706  -0.0080   0.5866 N.3            1 S1                 0.0000
      6 ****        -0.8389  -0.1577   0.7966 C.ar           1 S1                 0.0000
      7 ****        -0.3836  -0.5869   2.0033 N.ar           1 S1                 0.0000
      8 ****         0.9276  -0.7507   2.2035 C.ar           1 S1                 0.0000
      9 ****         1.9334  -0.5508   1.3492 N.ar           1 S1                 0.0000
     10 ****         1.4771  -0.1321   0.1340 C.ar           1 S1                 0.0000
     11 ****         0.1185   0.0912  -0.2223 C.ar           1 S1                 0.0000
     12 ****         0.0335   0.5136  -1.5427 N.2            1 S1                 0.0000
     13 ****         1.2743   0.5371  -1.9463 C.2            1 S1                 0.0000
     14 ****         2.2058   0.1563  -1.0063 N.pl3          1 S1                 0.0000
     15 ****         3.6462   0.0792  -1.1898 C.3            1 S1                 0.0000
     16 ****         4.1245  -1.2974  -1.7096 C.3            1 S1                 0.0000
     17 ****         3.8129  -2.2816  -0.7366 O.3            1 S1                 0.0000
     18 ****         3.5010  -1.7133  -3.0338 C.3            1 S1                 0.0000
     19 ****         4.5189  -2.7059  -3.5814 C.3            1 S1                 0.0000
     20 ****         5.7828  -2.1998  -3.1706 O.3            1 S1                 0.0000
     21 ****         5.6296  -1.3253  -2.0531 C.3            1 S1                 0.0000
     22 ****         6.5888  -1.7108  -0.9156 C.3            1 S1                 0.0000
     23 ****        -2.7496   1.2852   0.9783 C.3            1 S1                 0.0000
     24 ****        -2.0346   2.5031   0.3560 C.3            1 S1                 0.0000
     25 ****        -2.7467   3.8106   0.7382 C.3            1 S1                 0.0000
     26 ****        -2.8325   3.9569   2.2125 N.4            1 S1                 1.0000
     27 ****        -3.3972   5.2622   2.6171 C.3            1 S1                 0.0000
     28 ****        -3.5398   2.8154   2.8446 C.3            1 S1                 0.0000
     29 ****        -2.8530   1.4817   2.5065 C.3            1 S1                 0.0000
     30 ****        -3.8708  -1.9848  -1.6710 H              1 S1                 0.0000
     31 ****        -2.5487  -3.0881  -2.0424 H              1 S1                 0.0000
     32 ****        -2.2274  -1.3745  -1.8361 H              1 S1                 0.0000
     33 ****        -1.5325  -2.6584   0.1860 H              1 S1                 0.0000
     34 ****        -4.4441  -3.5321   0.4036 H              1 S1                 0.0000
     35 ****        -3.1715  -3.8734   1.5740 H              1 S1                 0.0000
     36 ****        -3.0840  -4.5601  -0.0427 H              1 S1                 0.0000
     37 ****        -4.0260  -0.9653   0.7112 H              1 S1                 0.0000
     38 ****        -2.8868  -1.4354   1.9407 H              1 S1                 0.0000
     39 ****         1.2119  -1.0946   3.1871 H              1 S1                 0.0000
     40 ****         1.5454   0.8270  -2.9511 H              1 S1                 0.0000
     41 ****         3.9365   0.8674  -1.8858 H              1 S1                 0.0000
     42 ****         4.1313   0.3156  -0.2418 H              1 S1                 0.0000
     43 ****         4.1328  -3.1167  -1.0421 H              1 S1                 0.0000
     44 ****         2.4997  -2.1357  -2.9365 H              1 S1                 0.0000
     45 ****         3.4392  -0.8561  -3.7057 H              1 S1                 0.0000
     46 ****         4.3715  -3.6906  -3.1362 H              1 S1                 0.0000
     47 ****         4.4620  -2.8115  -4.6649 H              1 S1                 0.0000
     48 ****         5.9187  -0.3392  -2.4195 H              1 S1                 0.0000
     49 ****         6.4652  -1.0495  -0.0578 H              1 S1                 0.0000
     50 ****         7.6254  -1.6367  -1.2446 H              1 S1                 0.0000
     51 ****         6.4255  -2.7350  -0.5794 H              1 S1                 0.0000
     52 ****        -3.7657   1.2838   0.5812 H              1 S1                 0.0000
     53 ****        -0.9981   2.5561   0.6921 H              1 S1                 0.0000
     54 ****        -2.0089   2.4074  -0.7300 H              1 S1                 0.0000
     55 ****        -2.2020   4.6566   0.3171 H              1 S1                 0.0000
     56 ****        -3.7493   3.8328   0.3079 H              1 S1                 0.0000
     57 ****        -4.4313   5.3621   2.2844 H              1 S1                 0.0000
     58 ****        -2.8187   6.0817   2.1894 H              1 S1                 0.0000
     59 ****        -3.3747   5.3715   3.7018 H              1 S1                 0.0000
     60 ****        -3.5565   2.9504   3.9268 H              1 S1                 0.0000
     61 ****        -4.5785   2.7979   2.5109 H              1 S1                 0.0000
     62 ****        -3.4136   0.6643   2.9606 H              1 S1                 0.0000
     63 ****        -1.8620   1.4693   2.9606 H              1 S1                 0.0000
     64 ****        -1.8840   3.9360   2.5594 H              1 S1                 0.0000
     65 ****        -2.2346   0.0608  -0.4090 LP             1 S1                 0.0000
     66 ****        -1.0300  -0.7801   2.7414 LP             1 S1                 0.0000
     67 ****         2.8983  -0.6902   1.5716 LP             1 S1                 0.0000
     68 ****        -0.7881   0.7459  -2.0634 LP             1 S1                 0.0000
     69 ****         2.8223  -2.3265  -0.6074 LP             1 S1                 0.0000
     70 ****         4.2520  -2.0490   0.1311 LP             1 S1                 0.0000
     71 ****         6.1982  -1.6964  -3.9283 LP             1 S1                 0.0000
     72 ****         6.3753  -2.9630  -2.9129 LP             1 S1                 0.0000
@<TRIPOS>BOND
    1    1    2 1     
    2    1   30 1     
    3    1   31 1     
    4    1   32 1     
    5    2    3 1     
    6    2    4 1     
    7    2   33 1     
    8    3   34 1     
    9    3   35 1     
   10    3   36 1     
   11    4    5 1     
   12    4   37 1     
   13    4   38 1     
   14    5    6 1     
   15    5   23 1     
   16    6   11 ar    
   17    6    7 ar    
   18    7    8 ar    
   19    8    9 ar    
   20    8   39 1     
   21    9   10 ar    
   22   10   14 1     
   23   10   11 ar    
   24   11   12 1     
   25   12   13 2     
   26   13   14 1     
   27   13   40 1     
   28   14   15 1     
   29   15   16 1     
   30   15   41 1     
   31   15   42 1     
   32   16   21 1     
   33   16   17 1     
   34   16   18 1     
   35   17   43 1     
   36   18   19 1     
   37   18   44 1     
   38   18   45 1     
   39   19   20 1     
   40   19   46 1     
   41   19   47 1     
   42   20   21 1     
   43   21   22 1     
   44   21   48 1     
   45   22   49 1     
   46   22   50 1     
   47   22   51 1     
   48   23   29 1     
   49   23   24 1     
   50   23   52 1     
   51   24   25 1     
   52   24   53 1     
   53   24   54 1     
   54   25   26 1     
   55   25   55 1     
   56   25   56 1     
   57   26   27 1     
   58   26   28 1     
   59   26   64 1     
   60   27   57 1     
   61   27   58 1     
   62   27   59 1     
   63   28   29 1     
   64   28   60 1     
   65   28   61 1     
   66   29   62 1     
   67   29   63 1     
   68    5   65 1     
   69    7   66 1     
   70    9   67 1     
   71   12   68 1     
   72   17   69 1     
   73   17   70 1     
   74   20   71 1     
   75   20   72 1     
@<TRIPOS>SUBSTRUCTURE
      1 S1             1
@<TRIPOS>SET
LONE_PAIRS      STATIC     ATOMS    <user>   **** ""
8 65 66 67 68 69 70 71 72
DONOR_HYDROGENS      STATIC     ATOMS    <user>   **** ""
2 43 64
ATOM$BLUE        STATIC     ATOMS    COLORGROUP SYSTEM
8 65 66 67 68 69 70 71 72
ATOM$RED        STATIC     ATOMS    COLORGROUP SYSTEM
2 43 64
