AV-unprocessed.smi:3129|AV-procd|sdf|11922|dock3
  -GOLD-   2272017303D 1   1.00000     0.00000
 Structure written by MMmdl.
 40 40  0  0  0  0  0  0  0  0  2 V2000
  146.9233  133.4971  151.4363 C   0  0  0  0  0  0  0  0  0  0  0  0
  145.6643  134.1336  152.0415 C   0  0  0  0  0  0  0  0  0  0  0  0
  144.8554  134.8738  150.9621 C   0  0  0  0  0  0  0  0  0  0  0  0
  146.0314  135.0406  153.2375 C   0  0  0  0  0  0  0  0  0  0  0  0
  146.5816  136.3296  152.8286 N   0  0  0  0  0  0  0  0  0  0  0  0
  146.1331  137.5248  153.2407 C   0  0  0  0  0  0  0  0  0  0  0  0
  145.2090  137.6606  154.0435 O   0  0  0  0  0  0  0  0  0  0  0  0
  146.8252  138.7616  152.6538 C   0  0  2  0  0  0  0  0  0  0  0  0
  146.5272  138.8725  151.1509 C   0  0  0  0  0  0  0  0  0  0  0  0
  148.2849  138.6799  152.8742 N   0  3  0  0  0  0  0  0  0  0  0  0
  148.7277  139.0225  154.2440 C   0  0  0  0  0  0  0  0  0  0  0  0
  150.2461  139.2513  154.2969 C   0  0  0  0  0  0  0  0  0  0  0  0
  150.6118  140.2157  155.3197 N   0  0  0  0  0  0  0  0  0  0  0  0
  151.4570  140.0482  156.3964 C   0  0  0  0  0  0  0  0  0  0  0  0
  151.4814  141.2292  157.0810 C   0  0  0  0  0  0  0  0  0  0  0  0
  150.6153  142.0731  156.3315 C   0  0  0  0  0  0  0  0  0  0  0  0
  150.0995  141.4646  155.2761 N   0  0  0  0  0  0  0  0  0  0  0  0
  147.5960  134.2541  151.0320 H   0  0  0  0  0  0  0  0  0  0  0  0
  146.6674  132.8125  150.6272 H   0  0  0  0  0  0  0  0  0  0  0  0
  147.4746  132.9276  152.1852 H   0  0  0  0  0  0  0  0  0  0  0  0
  145.0446  133.3166  152.4118 H   0  0  0  0  0  0  0  0  0  0  0  0
  145.4125  135.7210  150.5612 H   0  0  0  0  0  0  0  0  0  0  0  0
  143.9107  135.2502  151.3543 H   0  0  0  0  0  0  0  0  0  0  0  0
  144.6151  134.2105  150.1309 H   0  0  0  0  0  0  0  0  0  0  0  0
  145.1576  135.2061  153.8701 H   0  0  0  0  0  0  0  0  0  0  0  0
  146.7731  134.5446  153.8643 H   0  0  0  0  0  0  0  0  0  0  0  0
  147.3484  136.3071  152.1717 H   0  0  0  0  0  0  0  0  0  0  0  0
  146.4489  139.6633  153.1406 H   0  0  0  0  0  0  0  0  0  0  0  0
  145.4547  138.9428  150.9647 H   0  0  0  0  0  0  0  0  0  0  0  0
  146.9046  138.0099  150.5996 H   0  0  0  0  0  0  0  0  0  0  0  0
  146.9898  139.7640  150.7263 H   0  0  0  0  0  0  0  0  0  0  0  0
  148.5643  137.7301  152.6720 H   0  0  0  0  0  0  0  0  0  0  0  0
  148.1956  139.9183  154.5650 H   0  0  0  0  0  0  0  0  0  0  0  0
  148.4553  138.2350  154.9482 H   0  0  0  0  0  0  0  0  0  0  0  0
  150.7712  138.3143  154.4869 H   0  0  0  0  0  0  0  0  0  0  0  0
  150.6023  139.6234  153.3356 H   0  0  0  0  0  0  0  0  0  0  0  0
  151.9615  139.1125  156.5876 H   0  0  0  0  0  0  0  0  0  0  0  0
  152.0350  141.4568  157.9798 H   0  0  0  0  0  0  0  0  0  0  0  0
  150.3469  143.1017  156.5214 H   0  0  0  0  0  0  0  0  0  0  0  0
  148.7537  139.2990  152.2285 H   0  0  0  0  0  0  0  0  0  0  0  0
  1  2  1  0  0  0  0
  1 18  1  0  0  0  0
  1 19  1  0  0  0  0
  1 20  1  0  0  0  0
  2  3  1  0  0  0  0
  2  4  1  0  0  0  0
  2 21  1  0  0  0  0
  3 22  1  0  0  0  0
  3 23  1  0  0  0  0
  3 24  1  0  0  0  0
  4  5  1  0  0  0  0
  4 25  1  0  0  0  0
  4 26  1  0  0  0  0
  5  6  1  0  0  0  0
  5 27  1  0  0  0  0
  6  7  2  0  0  0  0
  6  8  1  0  0  0  0
  8  9  1  0  0  0  0
  8 10  1  0  0  0  0
  8 28  1  0  0  0  0
  9 29  1  0  0  0  0
  9 30  1  0  0  0  0
  9 31  1  0  0  0  0
 10 11  1  0  0  0  0
 10 32  1  0  0  0  0
 10 40  1  0  0  0  0
 11 12  1  0  0  0  0
 11 33  1  0  0  0  0
 11 34  1  0  0  0  0
 12 13  1  0  0  0  0
 12 35  1  0  0  0  0
 12 36  1  0  0  0  0
 13 17  1  0  0  0  0
 13 14  1  0  0  0  0
 14 15  2  0  0  0  0
 14 37  1  0  0  0  0
 15 16  1  0  0  0  0
 15 38  1  0  0  0  0
 16 17  2  0  0  0  0
 16 39  1  0  0  0  0
M  CHG  1  10   1
M  END
> <s_m_source_file>
AV-unprocessed.smi

> <i_m_source_file_index>
3129

> <i_lp_mmshare_version>
43012

> <i_f3d_flags>
0

> <s_epik_input>
W0NIM11bQ0hdKFtDSDNdKVtDSDJdW05IXUMoPU8pW0NASF0oW0NIM10pW05IXVtDSDJdW0NIMl1uMVtjSF1bY0hdW2NIXW4x

> <s_epik_cmdline>
J2VwaWtfcHl0aG9uJywgJy1waCcsICc3LjAnLCAnLXRuJywgJzgnLCAnLW1hJywgJzIwMCcsICctbWV0YWxfYmluZGluZycsICctaW1hZScsICc8aW5maWxlLm1hZT4nLCAnLW9tYWUnLCAnPG91dGZpbGUubWFlPic=

> <r_lp_tautomer_probability>
1

> <r_epik_Ionization_Penalty>
0.20724

> <r_epik_Ionization_Penalty_Charging>
0.207237

> <r_epik_Ionization_Penalty_Neutral>
3.32432e-06

> <r_epik_State_Penalty>
0.197234

> <r_epik_Charging_Adjusted_Penalty>
0.404471

> <i_epik_Tot_Q>
1

> <i_epik_Tot_abs_Q>
1

> <r_epik_Metal_State_Penalty>
0.197522

> <b_epik_Metal_Only>
0

> <s_lp_Force_Field>
OPLS_2005

> <r_lp_Energy>
5.48994

> <b_lp_Chiralities_Consistent>
1

> <s_lp_Variant>
AV-unprocessed.smi:3129-1

> <Gold.Version>
5.8.1

> <Gold.Id.Protein>
6NUR|6NUR_protein|mol2

> <Gold.PLP.Fitness>
46.6602

> <Gold.PLP.PLP>
-32.7749

> <Gold.PLP.part.hbond>
-3.8653

> <Gold.PLP.part.metal>
0.0000

> <Gold.PLP.part.buried>
0.0483

> <Gold.PLP.part.nonpolar>
-28.8621

> <Gold.PLP.part.repulsive>
0.3207

> <Gold.PLP.ligand.clash>
0.0000

> <Gold.PLP.ligand.torsion>
0.6343

> <Gold.PLP.Chemscore.Hbond>
3.9760

> <Gold.PLP.Chemscore.CHOScore>
1.0000

> <Gold.PLP.Chemscore.Metal>
0.0000

> <Gold.Chemscore.Hbonds>
donor molecule, donor type, donor heavy atom, donor atom, acceptor molecule, acceptor atom, score
      L1  H     5    27       P1  7948  1.00
      L1  H    10    32       P1  7948  2.00
      L1  H    10    40       P1  7957  1.00
      L1  C    16    39       P1  8028  1.00

> <Gold.PLP.Chemscore.Internal.Correction>
0.2258

> <Gold.Rescore>
     Score         DG    S(hbond)    S(metal)    S(lipo)     H(rot)  DE(clash)    DE(int)     intcor
     16.91     -17.51       2.97        0.00      66.71       2.22       0.08       0.52       ----

> <Gold.Chemscore.Fitness>
16.9087

> <Gold.Chemscore.DG>
-17.5076

> <Gold.Chemscore.ZeroCoef>
-5.4800

> <Gold.Chemscore.Hbond>
2.9697

> <Gold.Chemscore.Metal>
0.0000

> <Gold.Chemscore.Lipo>
66.7058

> <Gold.Chemscore.Internal_Hbond>
0.0000

> <Gold.Chemscore.DEClash>
0.0789

> <Gold.Chemscore.DEInternal>
0.5200

> <Gold.Chemscore.Rot>
2.2249

> <Gold.Chemscore.Internal.Correction>
   9.000000E+99

> <Gold.Chemscore.Hbonds>
donor molecule, donor type, donor heavy atom, donor atom, acceptor molecule, acceptor atom, score
      L1  H     5    27       P1  7948  0.95
      L1  H    10    32       P1  7948  1.00
      L1  H    10    40       P1  7957  0.94

> <Gold.Chemscore.Hbond.Weighted>
-9.9187

> <Gold.Chemscore.Metal.Weighted>
-0.0000

> <Gold.Chemscore.Lipo.Weighted>
-7.8046

> <Gold.Chemscore.Internal_Hbond.Weighted>
0.0000

> <Gold.Chemscore.DEClash.Weighted>
0.0789

> <Gold.Chemscore.DEInternal.Weighted>
0.5200

> <Gold.Chemscore.Rot.Weighted>
5.6957

> <Gold.Chemscore.Internal.Correction.Weighted>
   9.000000E+99

> <Gold.Protein.RotatedTorsions>
[ 6907 6896 6895 6894 ] final   12.67 input  -60.11 | X-H torsion
[ 7974 7965 7964 7962 ] final  114.61 input  175.53 | X-H torsion
[ 8008 7997 7996 7995 ] final -116.44 input   59.86 | X-H torsion
[ 10167 10162 10161 10158 ] final   74.40 input  -65.29 | X-H torsion
[ 10718 10713 10712 10709 ] final  138.10 input   66.30 | X-H torsion
[ 10763 10752 10751 10750 ] final  137.48 input  -60.55 | X-H torsion
[ 11005 11000 10999 10996 ] final  123.54 input  -57.11 | X-H torsion

> <Gold.Protein.ActiveResidues>
 VAL166  LYS551  ARG553  GLY616  TRP617  ASP618  TYR619  PRO620  LYS621  CYS622 
 ASP623  PHE694  ASN695  SER759  ASP760  ASP761  ALA762  ILE779  LEU786  VAL792 
 PHE793  MET794  SER795  GLU796  ALA797  LYS798  CYS799  TRP800  GLU811  SER814 

> <Gold.Protein.RotatedAtoms>
  151.7740  135.0779  160.0363 H   0  0  0  0  0  0  0  0  0  0  0  0  # atno 6907 bound_to 6896
  152.3269  133.5910  159.5791 H   0  0  0  0  0  0  0  0  0  0  0  0  # atno 6908 bound_to 6896
  150.7400  133.9843  159.3628 H   0  0  0  0  0  0  0  0  0  0  0  0  # atno 6909 bound_to 6896
  145.2023  139.2946  143.4312 H   0  0  0  0  0  0  0  0  0  0  0  0  # atno 7974 bound_to 7965
  155.0679  140.0393  157.2599 H   0  0  0  0  0  0  0  0  0  0  0  0  # atno 8008 bound_to 7997
  154.7006  140.2672  155.6699 H   0  0  0  0  0  0  0  0  0  0  0  0  # atno 8009 bound_to 7997
  156.2759  140.2741  156.1615 H   0  0  0  0  0  0  0  0  0  0  0  0  # atno 8010 bound_to 7997
  140.0141  144.5591  150.7635 H   0  0  0  0  0  0  0  0  0  0  0  0  # atno 10167 bound_to 10162
  157.4290  131.1046  151.0271 H   0  0  0  0  0  0  0  0  0  0  0  0  # atno 10718 bound_to 10713
  153.8737  135.3052  155.3443 H   0  0  0  0  0  0  0  0  0  0  0  0  # atno 10763 bound_to 10752
  154.7794  135.4844  153.9815 H   0  0  0  0  0  0  0  0  0  0  0  0  # atno 10764 bound_to 10752
  153.1391  135.6820  153.9151 H   0  0  0  0  0  0  0  0  0  0  0  0  # atno 10765 bound_to 10752
  139.9317  134.9641  156.8275 H   0  0  0  0  0  0  0  0  0  0  0  0  # atno 11005 bound_to 11000
  146.3415  140.2271  142.8592 LP  0  0  0  0  0  0  0  0  0  0  0  0  # atno 17320 bound_to 7965
  144.9936  140.8569  143.5324 LP  0  0  0  0  0  0  0  0  0  0  0  0  # atno 17321 bound_to 7965
  140.7369  143.2759  151.3743 LP  0  0  0  0  0  0  0  0  0  0  0  0  # atno 17342 bound_to 10162
  139.6185  144.0955  152.2368 LP  0  0  0  0  0  0  0  0  0  0  0  0  # atno 17343 bound_to 10162
  157.1174  130.6047  149.5496 LP  0  0  0  0  0  0  0  0  0  0  0  0  # atno 17370 bound_to 10713
  155.9906  130.4958  150.7266 LP  0  0  0  0  0  0  0  0  0  0  0  0  # atno 17371 bound_to 10713
  140.6183  134.0017  155.7607 LP  0  0  0  0  0  0  0  0  0  0  0  0  # atno 17394 bound_to 11000
  141.0910  133.9917  157.3238 LP  0  0  0  0  0  0  0  0  0  0  0  0  # atno 17395 bound_to 11000

$$$$
