AV-unprocessed.smi:27|AV-procd|sdf|187|dock5
  -GOLD-   2262015453D 1   1.00000     0.00000
 Structure written by MMmdl.
 53 56  0  0  0  0  0  0  0  0  1 V2000
  150.8436  137.0896  159.2629 O   0  0  0  0  0  0  0  0  0  0  0  0
  151.5299  137.5267  158.3404 C   0  0  0  0  0  0  0  0  0  0  0  0
  153.0288  137.7982  158.5707 C   0  0  0  0  0  0  0  0  0  0  0  0
  153.3112  139.0214  159.3603 N   0  0  0  0  0  0  0  0  0  0  0  0
  154.1101  138.9091  160.5245 C   0  0  0  0  0  0  0  0  0  0  0  0
  154.5913  137.8286  160.8681 O   0  0  0  0  0  0  0  0  0  0  0  0
  154.2993  140.1425  161.2782 C   0  0  0  0  0  0  0  0  0  0  0  0
  155.0622  140.1345  162.3845 F   0  0  0  0  0  0  0  0  0  0  0  0
  153.7158  141.2947  160.8878 C   0  0  0  0  0  0  0  0  0  0  0  0
  152.9186  141.3883  159.7593 N   0  0  0  0  0  0  0  0  0  0  0  0
  152.1898  142.6559  159.3601 C   0  0  2  0  0  0  0  0  0  0  0  0
  153.0764  143.8288  158.9330 C   0  0  0  0  0  0  0  0  0  0  0  0
  152.1106  144.9709  159.1478 C   0  0  0  0  0  0  0  0  0  0  0  0
  151.4169  144.5444  160.4415 C   0  0  0  0  0  0  0  0  0  0  0  0
  151.4774  143.1188  160.4687 O   0  0  0  0  0  0  0  0  0  0  0  0
  152.7131  140.2409  158.9614 C   0  0  0  0  0  0  0  0  0  0  0  0
  152.0102  140.2964  157.9497 O   0  0  0  0  0  0  0  0  0  0  0  0
  151.0364  137.7878  157.1195 N   0  0  0  0  0  0  0  0  0  0  0  0
  149.6653  137.5941  156.6600 C   0  0  0  0  0  0  0  0  0  0  0  0
  149.5134  136.2717  155.9146 C   0  0  0  0  0  0  0  0  0  0  0  0
  148.2489  135.8198  155.4666 C   0  0  0  0  0  0  0  0  0  0  0  0
  148.1326  134.5964  154.7792 C   0  0  0  0  0  0  0  0  0  0  0  0
  149.2760  133.8119  154.5378 C   0  0  0  0  0  0  0  0  0  0  0  0
  150.5357  134.2498  154.9881 C   0  0  0  0  0  0  0  0  0  0  0  0
  150.6532  135.4739  155.6748 C   0  0  0  0  0  0  0  0  0  0  0  0
  149.1699  138.7580  155.8083 C   0  0  0  0  0  0  0  0  0  0  0  0
  147.8423  138.7937  155.3227 C   0  0  0  0  0  0  0  0  0  0  0  0
  147.4001  139.8787  154.5414 C   0  0  0  0  0  0  0  0  0  0  0  0
  148.2788  140.9377  154.2437 C   0  0  0  0  0  0  0  0  0  0  0  0
  149.5995  140.9125  154.7304 C   0  0  0  0  0  0  0  0  0  0  0  0
  150.0427  139.8270  155.5107 C   0  0  0  0  0  0  0  0  0  0  0  0
  153.4673  136.9153  159.0380 H   0  0  0  0  0  0  0  0  0  0  0  0
  153.5180  137.8487  157.5968 H   0  0  0  0  0  0  0  0  0  0  0  0
  153.9130  142.1617  161.4962 H   0  0  0  0  0  0  0  0  0  0  0  0
  151.5034  142.3608  158.5633 H   0  0  0  0  0  0  0  0  0  0  0  0
  153.9169  143.9609  159.6137 H   0  0  0  0  0  0  0  0  0  0  0  0
  153.4295  143.7201  157.9073 H   0  0  0  0  0  0  0  0  0  0  0  0
  152.6011  145.9415  159.2269 H   0  0  0  0  0  0  0  0  0  0  0  0
  151.3919  145.0150  158.3283 H   0  0  0  0  0  0  0  0  0  0  0  0
  151.9511  144.9309  161.3098 H   0  0  0  0  0  0  0  0  0  0  0  0
  150.3871  144.8986  160.4920 H   0  0  0  0  0  0  0  0  0  0  0  0
  151.6841  138.1424  156.4314 H   0  0  0  0  0  0  0  0  0  0  0  0
  149.0284  137.5319  157.5448 H   0  0  0  0  0  0  0  0  0  0  0  0
  147.3572  136.4025  155.6464 H   0  0  0  0  0  0  0  0  0  0  0  0
  147.1647  134.2595  154.4391 H   0  0  0  0  0  0  0  0  0  0  0  0
  149.1865  132.8735  154.0108 H   0  0  0  0  0  0  0  0  0  0  0  0
  151.4130  133.6462  154.8072 H   0  0  0  0  0  0  0  0  0  0  0  0
  151.6245  135.8004  156.0168 H   0  0  0  0  0  0  0  0  0  0  0  0
  147.1543  137.9920  155.5482 H   0  0  0  0  0  0  0  0  0  0  0  0
  146.3857  139.8988  154.1715 H   0  0  0  0  0  0  0  0  0  0  0  0
  147.9392  141.7697  153.6446 H   0  0  0  0  0  0  0  0  0  0  0  0
  150.2730  141.7264  154.5057 H   0  0  0  0  0  0  0  0  0  0  0  0
  151.0578  139.8174  155.8802 H   0  0  0  0  0  0  0  0  0  0  0  0
  1  2  2  0  0  0  0
  2  3  1  0  0  0  0
  2 18  1  0  0  0  0
  3  4  1  0  0  0  0
  3 32  1  0  0  0  0
  3 33  1  0  0  0  0
  4 16  1  0  0  0  0
  4  5  1  0  0  0  0
  5  6  2  0  0  0  0
  5  7  1  0  0  0  0
  7  8  1  0  0  0  0
  7  9  2  0  0  0  0
  9 10  1  0  0  0  0
  9 34  1  0  0  0  0
 10 11  1  0  0  0  0
 10 16  1  0  0  0  0
 11 15  1  0  0  0  0
 11 12  1  0  0  0  0
 11 35  1  0  0  0  0
 12 13  1  0  0  0  0
 12 36  1  0  0  0  0
 12 37  1  0  0  0  0
 13 14  1  0  0  0  0
 13 38  1  0  0  0  0
 13 39  1  0  0  0  0
 14 15  1  0  0  0  0
 14 40  1  0  0  0  0
 14 41  1  0  0  0  0
 16 17  2  0  0  0  0
 18 19  1  0  0  0  0
 18 42  1  0  0  0  0
 19 20  1  0  0  0  0
 19 26  1  0  0  0  0
 19 43  1  0  0  0  0
 20 25  1  0  0  0  0
 20 21  2  0  0  0  0
 21 22  1  0  0  0  0
 21 44  1  0  0  0  0
 22 23  2  0  0  0  0
 22 45  1  0  0  0  0
 23 24  1  0  0  0  0
 23 46  1  0  0  0  0
 24 25  2  0  0  0  0
 24 47  1  0  0  0  0
 25 48  1  0  0  0  0
 26 31  1  0  0  0  0
 26 27  2  0  0  0  0
 27 28  1  0  0  0  0
 27 49  1  0  0  0  0
 28 29  2  0  0  0  0
 28 50  1  0  0  0  0
 29 30  1  0  0  0  0
 29 51  1  0  0  0  0
 30 31  2  0  0  0  0
 30 52  1  0  0  0  0
 31 53  1  0  0  0  0
M  END
> <s_m_source_file>
AV-unprocessed.smi

> <i_m_source_file_index>
27

> <i_lp_mmshare_version>
43012

> <i_f3d_flags>
0

> <s_epik_input>
W2NIXTFbY0hdW2NIXVtjSF1bY0hdYzFbQ0hdKGMyW2NIXVtjSF1bY0hdW2NIXVtjSF0yKVtOSF1DKD1PKVtDSDJdbjNjKD1PKWMoRilbY0hdbihjMz1PKVtDQEBIXTRbQ0gyXVtDSDJdW0NIMl1PNA==

> <s_epik_cmdline>
J2VwaWtfcHl0aG9uJywgJy1waCcsICc3LjAnLCAnLXRuJywgJzgnLCAnLW1hJywgJzIwMCcsICctbWV0YWxfYmluZGluZycsICctaW1hZScsICc8aW5maWxlLm1hZT4nLCAnLW9tYWUnLCAnPG91dGZpbGUubWFlPic=

> <r_lp_tautomer_probability>
1

> <r_epik_Ionization_Penalty>
5.29953e-08

> <r_epik_Ionization_Penalty_Charging>
3.6115e-09

> <r_epik_Ionization_Penalty_Neutral>
4.93838e-08

> <r_epik_State_Penalty>
-0

> <r_epik_Charging_Adjusted_Penalty>
3.6115e-09

> <i_epik_Tot_Q>
0

> <i_epik_Tot_abs_Q>
0

> <r_epik_Metal_State_Penalty>
-0

> <b_epik_Metal_Only>
0

> <s_epik_Chemistry_Notes>
This compound contains an acetal/aminal-like group ( X-CH(R)-Y where X, Y are N, S, or O) that may be acid/base labile, releasing an aldehyde.

> <s_lp_Force_Field>
OPLS_2005

> <r_lp_Energy>
32.38

> <b_lp_Chiralities_Consistent>
1

> <s_lp_Variant>
AV-unprocessed.smi:27-1

> <Gold.Version>
5.8.1

> <Gold.Id.Protein>
6NUR|6NUR_protein|mol2

> <Gold.PLP.Fitness>
53.4370

> <Gold.PLP.PLP>
-52.2295

> <Gold.PLP.part.hbond>
-1.4074

> <Gold.PLP.part.metal>
0.0000

> <Gold.PLP.part.buried>
-7.7818

> <Gold.PLP.part.nonpolar>
-43.4039

> <Gold.PLP.part.repulsive>
0.0925

> <Gold.PLP.ligand.clash>
0.0000

> <Gold.PLP.ligand.torsion>
0.6506

> <Gold.PLP.Chemscore.Hbond>
0.7475

> <Gold.PLP.Chemscore.CHOScore>
0.0000

> <Gold.PLP.Chemscore.Metal>
0.0000

> <Gold.Chemscore.Hbonds>
donor molecule, donor type, donor heavy atom, donor atom, acceptor molecule, acceptor atom, score
      P1  H  6896  6908       L1     1  0.83

> <Gold.PLP.Chemscore.Internal.Correction>
0.2662

> <Gold.Rescore>
     Score         DG    S(hbond)    S(metal)    S(lipo)     H(rot)  DE(clash)    DE(int)     intcor
     14.24     -16.29       0.97        0.00     112.00       2.16       0.01       2.05       ----

> <Gold.Chemscore.Fitness>
14.2397

> <Gold.Chemscore.DG>
-16.2937

> <Gold.Chemscore.ZeroCoef>
-5.4800

> <Gold.Chemscore.Hbond>
0.9731

> <Gold.Chemscore.Metal>
0.0000

> <Gold.Chemscore.Lipo>
112.0004

> <Gold.Chemscore.Internal_Hbond>
0.0000

> <Gold.Chemscore.DEClash>
0.0074

> <Gold.Chemscore.DEInternal>
2.0466

> <Gold.Chemscore.Rot>
2.1642

> <Gold.Chemscore.Internal.Correction>
   9.000000E+99

> <Gold.Chemscore.Hbonds>
donor molecule, donor type, donor heavy atom, donor atom, acceptor molecule, acceptor atom, score
      P1  H  6896  6908       L1     1  0.78

> <Gold.Chemscore.Hbond.Weighted>
-3.2501

> <Gold.Chemscore.Metal.Weighted>
-0.0000

> <Gold.Chemscore.Lipo.Weighted>
-13.1041

> <Gold.Chemscore.Internal_Hbond.Weighted>
0.0000

> <Gold.Chemscore.DEClash.Weighted>
0.0074

> <Gold.Chemscore.DEInternal.Weighted>
2.0466

> <Gold.Chemscore.Rot.Weighted>
5.5404

> <Gold.Chemscore.Internal.Correction.Weighted>
   9.000000E+99

> <Gold.Protein.RotatedTorsions>
[ 6907 6896 6895 6894 ] final -141.39 input  -60.11 | X-H torsion
[ 7974 7965 7964 7962 ] final -110.94 input  175.53 | X-H torsion
[ 8008 7997 7996 7995 ] final -102.20 input   59.86 | X-H torsion
[ 10167 10162 10161 10158 ] final   35.43 input  -65.29 | X-H torsion
[ 10718 10713 10712 10709 ] final  127.37 input   66.30 | X-H torsion
[ 10763 10752 10751 10750 ] final  -80.19 input  -60.55 | X-H torsion
[ 11005 11000 10999 10996 ] final  102.50 input  -57.11 | X-H torsion

> <Gold.Protein.ActiveResidues>
 VAL166  LYS551  ARG553  GLY616  TRP617  ASP618  TYR619  PRO620  LYS621  CYS622 
 ASP623  PHE694  ASN695  SER759  ASP760  ASP761  ALA762  ILE779  LEU786  VAL792 
 PHE793  MET794  SER795  GLU796  ALA797  LYS798  CYS799  TRP800  GLU811  SER814 

> <Gold.Protein.RotatedAtoms>
  151.0731  133.5450  159.2625 H   0  0  0  0  0  0  0  0  0  0  0  0  # atno 6907 bound_to 6896
  151.2382  135.0578  159.9024 H   0  0  0  0  0  0  0  0  0  0  0  0  # atno 6908 bound_to 6896
  152.5414  134.0510  159.8163 H   0  0  0  0  0  0  0  0  0  0  0  0  # atno 6909 bound_to 6896
  145.1621  140.8884  143.3584 H   0  0  0  0  0  0  0  0  0  0  0  0  # atno 7974 bound_to 7965
  154.8534  140.0430  157.1619 H   0  0  0  0  0  0  0  0  0  0  0  0  # atno 8008 bound_to 7997
  154.8918  140.2987  155.5346 H   0  0  0  0  0  0  0  0  0  0  0  0  # atno 8009 bound_to 7997
  156.2997  140.2392  156.3935 H   0  0  0  0  0  0  0  0  0  0  0  0  # atno 8010 bound_to 7997
  140.4222  144.1443  150.6149 H   0  0  0  0  0  0  0  0  0  0  0  0  # atno 10167 bound_to 10162
  157.5338  131.1098  150.8967 H   0  0  0  0  0  0  0  0  0  0  0  0  # atno 10718 bound_to 10713
  154.5481  135.5669  153.6898 H   0  0  0  0  0  0  0  0  0  0  0  0  # atno 10763 bound_to 10752
  152.9982  135.6244  154.2411 H   0  0  0  0  0  0  0  0  0  0  0  0  # atno 10764 bound_to 10752
  154.2344  135.2864  155.2857 H   0  0  0  0  0  0  0  0  0  0  0  0  # atno 10765 bound_to 10752
  139.8778  134.9226  156.5068 H   0  0  0  0  0  0  0  0  0  0  0  0  # atno 11005 bound_to 11000
  145.0320  139.3333  143.6020 LP  0  0  0  0  0  0  0  0  0  0  0  0  # atno 17320 bound_to 7965
  146.3481  139.9660  142.8711 LP  0  0  0  0  0  0  0  0  0  0  0  0  # atno 17321 bound_to 7965
  140.4521  143.2482  151.9334 LP  0  0  0  0  0  0  0  0  0  0  0  0  # atno 17342 bound_to 10162
  139.4783  144.5552  151.8325 LP  0  0  0  0  0  0  0  0  0  0  0  0  # atno 17343 bound_to 10162
  156.9540  130.5430  149.5283 LP  0  0  0  0  0  0  0  0  0  0  0  0  # atno 17370 bound_to 10713
  156.0443  130.5521  150.8844 LP  0  0  0  0  0  0  0  0  0  0  0  0  # atno 17371 bound_to 10713
  140.8549  133.8103  155.9206 LP  0  0  0  0  0  0  0  0  0  0  0  0  # atno 17394 bound_to 11000
  140.9107  134.2264  157.4987 LP  0  0  0  0  0  0  0  0  0  0  0  0  # atno 17395 bound_to 11000

$$$$
