AV-unprocessed.smi:3202|AV-procd|sdf|12244|dock5
  -GOLD-   2272018 83D 1   1.00000     0.00000
 Structure written by MMmdl.
 43 44  0  0  0  0  0  0  0  0  2 V2000
  146.7415  138.4926  152.9588 C   0  0  0  0  0  0  0  0  0  0  0  0
  147.8556  139.2675  153.5757 C   0  0  0  0  0  0  0  0  0  0  0  0
  147.8642  140.4478  154.2640 C   0  0  0  0  0  0  0  0  0  0  0  0
  149.2364  140.6563  154.5903 C   0  0  0  0  0  0  0  0  0  0  0  0
  149.8380  141.8029  155.3575 C   0  0  0  0  0  0  0  0  0  0  0  0
  150.4578  141.3844  156.7068 C   0  0  1  0  0  0  0  0  0  0  0  0
  151.4138  140.1849  156.5956 C   0  0  0  0  0  0  0  0  0  0  0  0
  151.1819  142.5354  157.2910 N   0  3  0  0  0  0  0  0  0  0  0  0
  151.3186  142.5248  158.7655 C   0  0  1  0  0  0  0  0  0  0  0  0
  152.4852  141.6601  159.2644 C   0  0  0  0  0  0  0  0  0  0  0  0
  152.8740  142.2472  160.6275 C   0  0  0  0  0  0  0  0  0  0  0  0
  152.0846  143.5569  160.7758 C   0  0  0  0  0  0  0  0  0  0  0  0
  151.5729  143.9222  159.3702 C   0  0  0  0  0  0  0  0  0  0  0  0
  152.6588  144.7176  158.6085 C   0  0  0  0  0  0  0  0  0  0  0  0
  150.2813  144.7578  159.4476 C   0  0  0  0  0  0  0  0  0  0  0  0
  150.0157  139.6828  154.1403 N   0  0  0  0  0  0  0  0  0  0  0  0
  149.1632  138.8431  153.5244 N   0  0  0  0  0  0  0  0  0  0  0  0
  149.4834  137.9951  153.0774 H   0  0  0  0  0  0  0  0  0  0  0  0
  145.7956  139.0262  153.0546 H   0  0  0  0  0  0  0  0  0  0  0  0
  146.6309  137.5218  153.4423 H   0  0  0  0  0  0  0  0  0  0  0  0
  146.9268  138.3245  151.8975 H   0  0  0  0  0  0  0  0  0  0  0  0
  147.0145  141.0711  154.5005 H   0  0  0  0  0  0  0  0  0  0  0  0
  150.5938  142.2994  154.7465 H   0  0  0  0  0  0  0  0  0  0  0  0
  149.0668  142.5534  155.5363 H   0  0  0  0  0  0  0  0  0  0  0  0
  149.6414  141.0971  157.3714 H   0  0  0  0  0  0  0  0  0  0  0  0
  150.8947  139.2864  156.2622 H   0  0  0  0  0  0  0  0  0  0  0  0
  151.8640  139.9516  157.5609 H   0  0  0  0  0  0  0  0  0  0  0  0
  152.2223  140.3846  155.8914 H   0  0  0  0  0  0  0  0  0  0  0  0
  152.1043  142.5817  156.8822 H   0  0  0  0  0  0  0  0  0  0  0  0
  150.3931  142.1314  159.1912 H   0  0  0  0  0  0  0  0  0  0  0  0
  152.2154  140.6059  159.3348 H   0  0  0  0  0  0  0  0  0  0  0  0
  153.3346  141.7330  158.5837 H   0  0  0  0  0  0  0  0  0  0  0  0
  152.6373  141.5604  161.4407 H   0  0  0  0  0  0  0  0  0  0  0  0
  153.9476  142.4352  160.6634 H   0  0  0  0  0  0  0  0  0  0  0  0
  151.2402  143.3783  161.4434 H   0  0  0  0  0  0  0  0  0  0  0  0
  152.6813  144.3496  161.2293 H   0  0  0  0  0  0  0  0  0  0  0  0
  152.8900  145.6515  159.1220 H   0  0  0  0  0  0  0  0  0  0  0  0
  152.3351  144.9800  157.6009 H   0  0  0  0  0  0  0  0  0  0  0  0
  153.5913  144.1598  158.5199 H   0  0  0  0  0  0  0  0  0  0  0  0
  150.4578  145.7074  159.9542 H   0  0  0  0  0  0  0  0  0  0  0  0
  149.4955  144.2365  159.9954 H   0  0  0  0  0  0  0  0  0  0  0  0
  149.8939  144.9823  158.4533 H   0  0  0  0  0  0  0  0  0  0  0  0
  150.6802  143.3735  157.0344 H   0  0  0  0  0  0  0  0  0  0  0  0
  1  2  1  0  0  0  0
  1 19  1  0  0  0  0
  1 20  1  0  0  0  0
  1 21  1  0  0  0  0
  2 17  1  0  0  0  0
  2  3  2  0  0  0  0
  3  4  1  0  0  0  0
  3 22  1  0  0  0  0
  4  5  1  0  0  0  0
  4 16  2  0  0  0  0
  5  6  1  0  0  0  0
  5 23  1  0  0  0  0
  5 24  1  0  0  0  0
  6  7  1  0  0  0  0
  6  8  1  0  0  0  0
  6 25  1  0  0  0  0
  7 26  1  0  0  0  0
  7 27  1  0  0  0  0
  7 28  1  0  0  0  0
  8  9  1  0  0  0  0
  8 29  1  0  0  0  0
  8 43  1  0  0  0  0
  9 13  1  0  0  0  0
  9 10  1  0  0  0  0
  9 30  1  0  0  0  0
 10 11  1  0  0  0  0
 10 31  1  0  0  0  0
 10 32  1  0  0  0  0
 11 12  1  0  0  0  0
 11 33  1  0  0  0  0
 11 34  1  0  0  0  0
 12 13  1  0  0  0  0
 12 35  1  0  0  0  0
 12 36  1  0  0  0  0
 13 14  1  0  0  0  0
 13 15  1  0  0  0  0
 14 37  1  0  0  0  0
 14 38  1  0  0  0  0
 14 39  1  0  0  0  0
 15 40  1  0  0  0  0
 15 41  1  0  0  0  0
 15 42  1  0  0  0  0
 16 17  1  0  0  0  0
 17 18  1  0  0  0  0
M  CHG  1   8   1
M  END
> <s_m_source_file>
AV-unprocessed.smi

> <i_m_source_file_index>
3202

> <i_lp_mmshare_version>
43012

> <i_f3d_flags>
0

> <s_epik_input>
W0NIM11jMVtjSF1jKG5bbkhdMSlbQ0gyXVtDQEhdKFtDSDNdKVtOSF1bQ0BASF0oQzIoW0NIM10pW0NIM10pW0NIMl1bQ0gyXVtDSDJdMg==

> <s_epik_cmdline>
J2VwaWtfcHl0aG9uJywgJy1waCcsICc3LjAnLCAnLXRuJywgJzgnLCAnLW1hJywgJzIwMCcsICctbWV0YWxfYmluZGluZycsICctaW1hZScsICc8aW5maWxlLm1hZT4nLCAnLW9tYWUnLCAnPG91dGZpbGUubWFlPic=

> <r_lp_tautomer_probability>
0.5

> <r_epik_Ionization_Penalty>
0.000341671

> <r_epik_Ionization_Penalty_Charging>
0.000281809

> <r_epik_Ionization_Penalty_Neutral>
5.9862e-05

> <r_epik_State_Penalty>
0.41068

> <r_epik_Charging_Adjusted_Penalty>
0.410962

> <i_epik_Tot_Q>
1

> <i_epik_Tot_abs_Q>
1

> <r_epik_Metal_State_Penalty>
0.410672

> <b_epik_Metal_Only>
0

> <s_lp_Force_Field>
OPLS_2005

> <r_lp_Energy>
30.3083

> <b_lp_Chiralities_Consistent>
1

> <s_lp_Variant>
AV-unprocessed.smi:3202-4

> <Gold.Version>
5.8.1

> <Gold.Id.Protein>
6NUR|6NUR_protein|mol2

> <Gold.PLP.Fitness>
43.2707

> <Gold.PLP.PLP>
-39.6625

> <Gold.PLP.part.hbond>
-2.8464

> <Gold.PLP.part.metal>
0.0000

> <Gold.PLP.part.buried>
-3.2060

> <Gold.PLP.part.nonpolar>
-34.6003

> <Gold.PLP.part.repulsive>
1.3076

> <Gold.PLP.ligand.clash>
0.0000

> <Gold.PLP.ligand.torsion>
0.5367

> <Gold.PLP.Chemscore.Hbond>
1.5530

> <Gold.PLP.Chemscore.CHOScore>
0.0000

> <Gold.PLP.Chemscore.Metal>
0.0000

> <Gold.Chemscore.Hbonds>
donor molecule, donor type, donor heavy atom, donor atom, acceptor molecule, acceptor atom, score
      L1  H    17    18       P1  7948  0.62
      P1  H  7989  7998       L1    16  0.75

> <Gold.PLP.Chemscore.Internal.Correction>
0.0225

> <Gold.Rescore>
     Score         DG    S(hbond)    S(metal)    S(lipo)     H(rot)  DE(clash)    DE(int)     intcor
     16.78     -18.75       0.97        0.00     117.55       1.46       0.12       1.85       ----

> <Gold.Chemscore.Fitness>
16.7773

> <Gold.Chemscore.DG>
-18.7463

> <Gold.Chemscore.ZeroCoef>
-5.4800

> <Gold.Chemscore.Hbond>
0.9728

> <Gold.Chemscore.Metal>
0.0000

> <Gold.Chemscore.Lipo>
117.5533

> <Gold.Chemscore.Internal_Hbond>
0.0000

> <Gold.Chemscore.DEClash>
0.1214

> <Gold.Chemscore.DEInternal>
1.8476

> <Gold.Chemscore.Rot>
1.4596

> <Gold.Chemscore.Internal.Correction>
   9.000000E+99

> <Gold.Chemscore.Hbonds>
donor molecule, donor type, donor heavy atom, donor atom, acceptor molecule, acceptor atom, score
      L1  H    17    18       P1  7948  0.53
      P1  H  7989  7998       L1    16  0.14

> <Gold.Chemscore.Hbond.Weighted>
-3.2491

> <Gold.Chemscore.Metal.Weighted>
-0.0000

> <Gold.Chemscore.Lipo.Weighted>
-13.7537

> <Gold.Chemscore.Internal_Hbond.Weighted>
0.0000

> <Gold.Chemscore.DEClash.Weighted>
0.1214

> <Gold.Chemscore.DEInternal.Weighted>
1.8476

> <Gold.Chemscore.Rot.Weighted>
3.7365

> <Gold.Chemscore.Internal.Correction.Weighted>
   9.000000E+99

> <Gold.Protein.RotatedTorsions>
[ 6907 6896 6895 6894 ] final  -45.48 input  -60.11 | X-H torsion
[ 7974 7965 7964 7962 ] final  -56.00 input  175.53 | X-H torsion
[ 8008 7997 7996 7995 ] final  117.06 input   59.86 | X-H torsion
[ 10167 10162 10161 10158 ] final -115.10 input  -65.29 | X-H torsion
[ 10718 10713 10712 10709 ] final -152.95 input   66.30 | X-H torsion
[ 10763 10752 10751 10750 ] final   84.72 input  -60.55 | X-H torsion
[ 11005 11000 10999 10996 ] final  -34.88 input  -57.11 | X-H torsion

> <Gold.Protein.ActiveResidues>
 VAL166  LYS551  ARG553  GLY616  TRP617  ASP618  TYR619  PRO620  LYS621  CYS622 
 ASP623  PHE694  ASN695  SER759  ASP760  ASP761  ALA762  ILE779  LEU786  VAL792 
 PHE793  MET794  SER795  GLU796  ALA797  LYS798  CYS799  TRP800  GLU811  SER814 

> <Gold.Protein.RotatedAtoms>
  150.9215  134.8633  159.7491 H   0  0  0  0  0  0  0  0  0  0  0  0  # atno 6907 bound_to 6896
  152.4995  134.4211  159.9491 H   0  0  0  0  0  0  0  0  0  0  0  0  # atno 6908 bound_to 6896
  151.4245  133.3649  159.2795 H   0  0  0  0  0  0  0  0  0  0  0  0  # atno 6909 bound_to 6896
  145.8677  140.8239  142.9904 H   0  0  0  0  0  0  0  0  0  0  0  0  # atno 7974 bound_to 7965
  156.2473  140.2904  156.0619 H   0  0  0  0  0  0  0  0  0  0  0  0  # atno 8008 bound_to 7997
  155.1766  140.0403  157.2891 H   0  0  0  0  0  0  0  0  0  0  0  0  # atno 8009 bound_to 7997
  154.6289  140.2494  155.7465 H   0  0  0  0  0  0  0  0  0  0  0  0  # atno 8010 bound_to 7997
  140.0937  143.4676  152.1854 H   0  0  0  0  0  0  0  0  0  0  0  0  # atno 10167 bound_to 10162
  156.4793  130.8295  151.2523 H   0  0  0  0  0  0  0  0  0  0  0  0  # atno 10718 bound_to 10713
  153.1408  135.4643  154.9493 H   0  0  0  0  0  0  0  0  0  0  0  0  # atno 10763 bound_to 10752
  154.7745  135.3169  154.8122 H   0  0  0  0  0  0  0  0  0  0  0  0  # atno 10764 bound_to 10752
  153.8646  135.6909  153.4834 H   0  0  0  0  0  0  0  0  0  0  0  0  # atno 10765 bound_to 10752
  140.9752  133.7087  156.1590 H   0  0  0  0  0  0  0  0  0  0  0  0  # atno 11005 bound_to 11000
  144.6726  140.1191  143.7451 LP  0  0  0  0  0  0  0  0  0  0  0  0  # atno 17320 bound_to 7965
  145.9174  139.2524  143.1401 LP  0  0  0  0  0  0  0  0  0  0  0  0  # atno 17321 bound_to 7965
  139.5710  144.7462  151.3891 LP  0  0  0  0  0  0  0  0  0  0  0  0  # atno 17342 bound_to 10162
  140.7015  143.7620  150.7410 LP  0  0  0  0  0  0  0  0  0  0  0  0  # atno 17343 bound_to 10162
  157.7484  131.0050  150.3098 LP  0  0  0  0  0  0  0  0  0  0  0  0  # atno 17370 bound_to 10713
  156.3538  130.3835  149.7307 LP  0  0  0  0  0  0  0  0  0  0  0  0  # atno 17371 bound_to 10713
  140.7270  134.4296  157.5569 LP  0  0  0  0  0  0  0  0  0  0  0  0  # atno 17394 bound_to 11000
  139.8927  134.8747  156.2256 LP  0  0  0  0  0  0  0  0  0  0  0  0  # atno 17395 bound_to 11000

$$$$
