AV-unprocessed.smi:2952|AV-procd|sdf|11291|dock6
  -GOLD-   2272016183D 1   1.00000     0.00000
 Structure written by MMmdl.
 38 40  0  0  0  0  0  0  0  0  1 V2000
  152.2021  136.9139  159.6319 O   0  0  0  0  0  0  0  0  0  0  0  0
  151.5881  138.1371  159.2852 C   0  0  0  0  0  0  0  0  0  0  0  0
  152.2453  138.7634  158.0439 C   0  0  0  0  0  0  0  0  0  0  0  0
  151.8392  140.1473  157.8341 N   0  0  0  0  0  0  0  0  0  0  0  0
  151.2026  140.6993  156.7682 C   0  0  0  0  0  0  0  0  0  0  0  0
  150.7900  139.8930  155.5654 C   0  0  0  0  0  0  0  0  0  0  0  0
  149.3878  140.0583  155.1825 N   0  0  0  0  0  0  0  0  0  0  0  0
  148.9547  139.0540  154.2133 C   0  0  0  0  0  0  0  0  0  0  0  0
  147.4836  139.2478  153.8085 C   0  0  0  0  0  0  0  0  0  0  0  0
  147.2996  140.5637  153.2952 O   0  0  0  0  0  0  0  0  0  0  0  0
  147.6705  141.5744  154.2273 C   0  0  0  0  0  0  0  0  0  0  0  0
  149.1427  141.3864  154.6333 C   0  0  0  0  0  0  0  0  0  0  0  0
  150.9815  142.0140  156.8482 N   0  0  0  0  0  0  0  0  0  0  0  0
  151.5021  142.3396  158.0841 C   0  0  0  0  0  0  0  0  0  0  0  0
  151.5666  143.5812  158.7557 C   0  0  0  0  0  0  0  0  0  0  0  0
  152.1573  143.6713  160.0332 C   0  0  0  0  0  0  0  0  0  0  0  0
  152.6911  142.5238  160.6555 C   0  0  0  0  0  0  0  0  0  0  0  0
  153.4123  142.6461  162.2178 Cl  0  0  0  0  0  0  0  0  0  0  0  0
  152.6371  141.2776  160.0023 C   0  0  0  0  0  0  0  0  0  0  0  0
  152.0461  141.1933  158.7276 C   0  0  0  0  0  0  0  0  0  0  0  0
  153.1155  137.0770  159.8124 H   0  0  0  0  0  0  0  0  0  0  0  0
  150.5270  137.9609  159.1074 H   0  0  0  0  0  0  0  0  0  0  0  0
  151.6618  138.8187  160.1327 H   0  0  0  0  0  0  0  0  0  0  0  0
  153.3290  138.7446  158.1625 H   0  0  0  0  0  0  0  0  0  0  0  0
  152.0393  138.1741  157.1512 H   0  0  0  0  0  0  0  0  0  0  0  0
  151.4314  140.2007  154.7391 H   0  0  0  0  0  0  0  0  0  0  0  0
  150.9896  138.8356  155.7316 H   0  0  0  0  0  0  0  0  0  0  0  0
  149.5806  139.1080  153.3216 H   0  0  0  0  0  0  0  0  0  0  0  0
  149.0826  138.0520  154.6235 H   0  0  0  0  0  0  0  0  0  0  0  0
  147.2019  138.5236  153.0441 H   0  0  0  0  0  0  0  0  0  0  0  0
  146.8238  139.0869  154.6624 H   0  0  0  0  0  0  0  0  0  0  0  0
  147.5248  142.5531  153.7699 H   0  0  0  0  0  0  0  0  0  0  0  0
  147.0195  141.5285  155.1017 H   0  0  0  0  0  0  0  0  0  0  0  0
  149.4143  142.1460  155.3672 H   0  0  0  0  0  0  0  0  0  0  0  0
  149.7804  141.5506  153.7632 H   0  0  0  0  0  0  0  0  0  0  0  0
  151.1615  144.4659  158.2869 H   0  0  0  0  0  0  0  0  0  0  0  0
  152.2013  144.6263  160.5361 H   0  0  0  0  0  0  0  0  0  0  0  0
  153.0445  140.3961  160.4746 H   0  0  0  0  0  0  0  0  0  0  0  0
  1  2  1  0  0  0  0
  1 21  1  0  0  0  0
  2  3  1  0  0  0  0
  2 22  1  0  0  0  0
  2 23  1  0  0  0  0
  3  4  1  0  0  0  0
  3 24  1  0  0  0  0
  3 25  1  0  0  0  0
  4 20  1  0  0  0  0
  4  5  1  0  0  0  0
  5  6  1  0  0  0  0
  5 13  2  0  0  0  0
  6  7  1  0  0  0  0
  6 26  1  0  0  0  0
  6 27  1  0  0  0  0
  7 12  1  0  0  0  0
  7  8  1  0  0  0  0
  8  9  1  0  0  0  0
  8 28  1  0  0  0  0
  8 29  1  0  0  0  0
  9 10  1  0  0  0  0
  9 30  1  0  0  0  0
  9 31  1  0  0  0  0
 10 11  1  0  0  0  0
 11 12  1  0  0  0  0
 11 32  1  0  0  0  0
 11 33  1  0  0  0  0
 12 34  1  0  0  0  0
 12 35  1  0  0  0  0
 13 14  1  0  0  0  0
 14 20  2  0  0  0  0
 14 15  1  0  0  0  0
 15 16  2  0  0  0  0
 15 36  1  0  0  0  0
 16 17  1  0  0  0  0
 16 37  1  0  0  0  0
 17 18  1  0  0  0  0
 17 19  2  0  0  0  0
 19 20  1  0  0  0  0
 19 38  1  0  0  0  0
M  END
> <s_m_source_file>
AV-unprocessed.smi

> <i_m_source_file_index>
2952

> <i_lp_mmshare_version>
43012

> <i_f3d_flags>
0

> <s_epik_input>
W2NIXTFbY0hdYyhDbClbY0hdYyhjMTIpbihbQ0gyXVtDSDJdW09IXSljKG4yKVtDSDJdTjNbQ0gyXVtDSDJdT1tDSDJdW0NIMl0z

> <s_epik_cmdline>
J2VwaWtfcHl0aG9uJywgJy1waCcsICc3LjAnLCAnLXRuJywgJzgnLCAnLW1hJywgJzIwMCcsICctbWV0YWxfYmluZGluZycsICctaW1hZScsICc8aW5maWxlLm1hZT4nLCAnLW9tYWUnLCAnPG91dGZpbGUubWFlPic=

> <r_epik_Ionization_Penalty>
0.0905371

> <r_epik_Ionization_Penalty_Charging>
0

> <r_epik_Ionization_Penalty_Neutral>
0.0905371

> <r_epik_State_Penalty>
0.0787939

> <r_epik_Charging_Adjusted_Penalty>
0.0787939

> <i_epik_Tot_Q>
0

> <i_epik_Tot_abs_Q>
0

> <r_epik_Metal_State_Penalty>
8.42675e-05

> <b_epik_Metal_Only>
0

> <s_lp_Force_Field>
OPLS_2005

> <r_lp_Energy>
22.7724

> <b_lp_Chiralities_Consistent>
1

> <s_lp_Variant>
AV-unprocessed.smi:2952-1

> <Gold.Version>
5.8.1

> <Gold.Id.Protein>
6NUR|6NUR_protein|mol2

> <Gold.PLP.Fitness>
45.9083

> <Gold.PLP.PLP>
-43.2338

> <Gold.PLP.part.hbond>
-1.0000

> <Gold.PLP.part.metal>
0.0000

> <Gold.PLP.part.buried>
-5.0882

> <Gold.PLP.part.nonpolar>
-37.2088

> <Gold.PLP.part.repulsive>
0.6307

> <Gold.PLP.ligand.clash>
0.0000

> <Gold.PLP.ligand.torsion>
0.1667

> <Gold.PLP.Chemscore.Hbond>
1.0000

> <Gold.PLP.Chemscore.CHOScore>
0.0000

> <Gold.PLP.Chemscore.Metal>
0.0000

> <Gold.Chemscore.Hbonds>
donor molecule, donor type, donor heavy atom, donor atom, acceptor molecule, acceptor atom, score
      P1  H  6896  6908       L1     1  1.00

> <Gold.PLP.Chemscore.Internal.Correction>
0.0080

> <Gold.Rescore>
     Score         DG    S(hbond)    S(metal)    S(lipo)     H(rot)  DE(clash)    DE(int)     intcor
     16.14     -16.50       0.98        0.00     112.64       2.13       0.04       0.32       ----

> <Gold.Chemscore.Fitness>
16.1445

> <Gold.Chemscore.DG>
-16.5026

> <Gold.Chemscore.ZeroCoef>
-5.4800

> <Gold.Chemscore.Hbond>
0.9836

> <Gold.Chemscore.Metal>
0.0000

> <Gold.Chemscore.Lipo>
112.6394

> <Gold.Chemscore.Internal_Hbond>
0.0000

> <Gold.Chemscore.DEClash>
0.0354

> <Gold.Chemscore.DEInternal>
0.3227

> <Gold.Chemscore.Rot>
2.1256

> <Gold.Chemscore.Internal.Correction>
   9.000000E+99

> <Gold.Chemscore.Hbonds>
donor molecule, donor type, donor heavy atom, donor atom, acceptor molecule, acceptor atom, score
      P1  H  6896  6908       L1     1  0.93

> <Gold.Chemscore.Hbond.Weighted>
-3.2853

> <Gold.Chemscore.Metal.Weighted>
-0.0000

> <Gold.Chemscore.Lipo.Weighted>
-13.1788

> <Gold.Chemscore.Internal_Hbond.Weighted>
0.0000

> <Gold.Chemscore.DEClash.Weighted>
0.0354

> <Gold.Chemscore.DEInternal.Weighted>
0.3227

> <Gold.Chemscore.Rot.Weighted>
5.4415

> <Gold.Chemscore.Internal.Correction.Weighted>
   9.000000E+99

> <Gold.Protein.RotatedTorsions>
[ 6907 6896 6895 6894 ] final -121.64 input  -60.11 | X-H torsion
[ 7974 7965 7964 7962 ] final   20.95 input  175.53 | X-H torsion
[ 8008 7997 7996 7995 ] final -111.21 input   59.86 | X-H torsion
[ 10167 10162 10161 10158 ] final -149.54 input  -65.29 | X-H torsion
[ 10718 10713 10712 10709 ] final   35.64 input   66.30 | X-H torsion
[ 10763 10752 10751 10750 ] final  169.44 input  -60.55 | X-H torsion
[ 11005 11000 10999 10996 ] final  119.40 input  -57.11 | X-H torsion

> <Gold.Protein.ActiveResidues>
 VAL166  LYS551  ARG553  GLY616  TRP617  ASP618  TYR619  PRO620  LYS621  CYS622 
 ASP623  PHE694  ASN695  SER759  ASP760  ASP761  ALA762  ILE779  LEU786  VAL792 
 PHE793  MET794  SER795  GLU796  ALA797  LYS798  CYS799  TRP800  GLU811  SER814 

> <Gold.Protein.RotatedAtoms>
  150.8501  133.7800  159.3028 H   0  0  0  0  0  0  0  0  0  0  0  0  # atno 6907 bound_to 6896
  151.5474  135.1066  159.9951 H   0  0  0  0  0  0  0  0  0  0  0  0  # atno 6908 bound_to 6896
  152.4546  133.7654  159.6825 H   0  0  0  0  0  0  0  0  0  0  0  0  # atno 6909 bound_to 6896
  146.2091  139.8097  142.8703 H   0  0  0  0  0  0  0  0  0  0  0  0  # atno 7974 bound_to 7965
  154.9863  140.0395  157.2300 H   0  0  0  0  0  0  0  0  0  0  0  0  # atno 8008 bound_to 7997
  154.7668  140.2794  155.6147 H   0  0  0  0  0  0  0  0  0  0  0  0  # atno 8009 bound_to 7997
  156.2914  140.2617  156.2461 H   0  0  0  0  0  0  0  0  0  0  0  0  # atno 8010 bound_to 7997
  139.7433  143.8629  152.2568 H   0  0  0  0  0  0  0  0  0  0  0  0  # atno 10167 bound_to 10162
  157.3252  130.7469  149.6811 H   0  0  0  0  0  0  0  0  0  0  0  0  # atno 10718 bound_to 10713
  154.3831  135.2753  155.2199 H   0  0  0  0  0  0  0  0  0  0  0  0  # atno 10763 bound_to 10752
  154.4297  135.5980  153.6064 H   0  0  0  0  0  0  0  0  0  0  0  0  # atno 10764 bound_to 10752
  152.9834  135.5992  154.4077 H   0  0  0  0  0  0  0  0  0  0  0  0  # atno 10765 bound_to 10752
  139.9145  134.9628  156.7649 H   0  0  0  0  0  0  0  0  0  0  0  0  # atno 11005 bound_to 11000
  145.3209  141.0243  143.3501 LP  0  0  0  0  0  0  0  0  0  0  0  0  # atno 17320 bound_to 7965
  144.8867  139.4829  143.6697 LP  0  0  0  0  0  0  0  0  0  0  0  0  # atno 17321 bound_to 7965
  139.8586  144.7129  150.9127 LP  0  0  0  0  0  0  0  0  0  0  0  0  # atno 17342 bound_to 10162
  140.7789  143.3837  151.1431 LP  0  0  0  0  0  0  0  0  0  0  0  0  # atno 17343 bound_to 10162
  155.9690  130.4211  150.4455 LP  0  0  0  0  0  0  0  0  0  0  0  0  # atno 17370 bound_to 10713
  157.2478  131.0539  151.2398 LP  0  0  0  0  0  0  0  0  0  0  0  0  # atno 17371 bound_to 10713
  140.6667  133.9596  155.7834 LP  0  0  0  0  0  0  0  0  0  0  0  0  # atno 17394 bound_to 11000
  141.0606  134.0352  157.3664 LP  0  0  0  0  0  0  0  0  0  0  0  0  # atno 17395 bound_to 11000

$$$$
