AV-unprocessed.smi:2979|AV-procd|sdf|11370|dock4
  -GOLD-   2272016283D 1   1.00000     0.00000
 Structure written by MMmdl.
 35 36  0  0  0  0  0  0  0  0  1 V2000
  152.6184  144.7342  158.3459 C   0  0  0  0  0  0  0  0  0  0  0  0
  151.7040  143.9000  157.6575 O   0  0  0  0  0  0  0  0  0  0  0  0
  150.6088  143.5075  158.4692 C   0  0  0  0  0  0  0  0  0  0  0  0
  150.3400  142.0066  158.2887 C   0  0  0  0  0  0  0  0  0  0  0  0
  151.5364  141.1947  158.4733 N   0  0  0  0  0  0  0  0  0  0  0  0
  152.0159  140.1956  157.6872 C   0  0  0  0  0  0  0  0  0  0  0  0
  151.3558  139.7717  156.4086 C   0  0  0  0  0  0  0  0  0  0  0  0
  151.9772  138.4959  155.8193 C   0  0  0  0  0  0  0  0  0  0  0  0
  151.8721  138.4470  154.2899 C   0  0  0  0  0  0  0  0  0  0  0  0
  152.2106  137.1576  153.8271 O   0  0  0  0  0  0  0  0  0  0  0  0
  153.1338  139.6078  158.1154 N   0  0  0  0  0  0  0  0  0  0  0  0
  153.4152  140.2962  159.2785 C   0  0  0  0  0  0  0  0  0  0  0  0
  154.4798  140.1492  160.1964 C   0  0  0  0  0  0  0  0  0  0  0  0
  154.5638  140.9820  161.3312 C   0  0  0  0  0  0  0  0  0  0  0  0
  153.5871  141.9717  161.5635 C   0  0  0  0  0  0  0  0  0  0  0  0
  152.5176  142.1336  160.6619 C   0  0  0  0  0  0  0  0  0  0  0  0
  152.4368  141.2987  159.5306 C   0  0  0  0  0  0  0  0  0  0  0  0
  153.4413  145.0006  157.6827 H   0  0  0  0  0  0  0  0  0  0  0  0
  153.0367  144.2275  159.2165 H   0  0  0  0  0  0  0  0  0  0  0  0
  152.1385  145.6572  158.6740 H   0  0  0  0  0  0  0  0  0  0  0  0
  150.8264  143.7196  159.5169 H   0  0  0  0  0  0  0  0  0  0  0  0
  149.7215  144.0826  158.2056 H   0  0  0  0  0  0  0  0  0  0  0  0
  149.5893  141.6854  159.0110 H   0  0  0  0  0  0  0  0  0  0  0  0
  149.9115  141.8028  157.3077 H   0  0  0  0  0  0  0  0  0  0  0  0
  150.2973  139.6027  156.6105 H   0  0  0  0  0  0  0  0  0  0  0  0
  151.3927  140.5756  155.6755 H   0  0  0  0  0  0  0  0  0  0  0  0
  153.0253  138.4282  156.1121 H   0  0  0  0  0  0  0  0  0  0  0  0
  151.4846  137.6217  156.2473 H   0  0  0  0  0  0  0  0  0  0  0  0
  150.8592  138.6869  153.9655 H   0  0  0  0  0  0  0  0  0  0  0  0
  152.5440  139.1747  153.8341 H   0  0  0  0  0  0  0  0  0  0  0  0
  151.9179  137.0724  152.9327 H   0  0  0  0  0  0  0  0  0  0  0  0
  155.2337  139.3951  160.0258 H   0  0  0  0  0  0  0  0  0  0  0  0
  155.3822  140.8617  162.0259 H   0  0  0  0  0  0  0  0  0  0  0  0
  153.6597  142.6073  162.4339 H   0  0  0  0  0  0  0  0  0  0  0  0
  151.7708  142.8934  160.8374 H   0  0  0  0  0  0  0  0  0  0  0  0
  1  2  1  0  0  0  0
  1 18  1  0  0  0  0
  1 19  1  0  0  0  0
  1 20  1  0  0  0  0
  2  3  1  0  0  0  0
  3  4  1  0  0  0  0
  3 21  1  0  0  0  0
  3 22  1  0  0  0  0
  4  5  1  0  0  0  0
  4 23  1  0  0  0  0
  4 24  1  0  0  0  0
  5 17  1  0  0  0  0
  5  6  1  0  0  0  0
  6  7  1  0  0  0  0
  6 11  2  0  0  0  0
  7  8  1  0  0  0  0
  7 25  1  0  0  0  0
  7 26  1  0  0  0  0
  8  9  1  0  0  0  0
  8 27  1  0  0  0  0
  8 28  1  0  0  0  0
  9 10  1  0  0  0  0
  9 29  1  0  0  0  0
  9 30  1  0  0  0  0
 10 31  1  0  0  0  0
 11 12  1  0  0  0  0
 12 17  2  0  0  0  0
 12 13  1  0  0  0  0
 13 14  2  0  0  0  0
 13 32  1  0  0  0  0
 14 15  1  0  0  0  0
 14 33  1  0  0  0  0
 15 16  2  0  0  0  0
 15 34  1  0  0  0  0
 16 17  1  0  0  0  0
 16 35  1  0  0  0  0
M  END
> <s_m_source_file>
AV-unprocessed.smi

> <i_m_source_file_index>
2979

> <i_lp_mmshare_version>
43012

> <i_f3d_flags>
0

> <s_epik_input>
W2NIXTFbY0hdW2NIXVtjSF1jKGMxMiluKFtDSDJdW0NIMl1PW0NIM10pYyhuMilbQ0gyXVtDSDJdW0NIMl1bT0hd

> <s_epik_cmdline>
J2VwaWtfcHl0aG9uJywgJy1waCcsICc3LjAnLCAnLXRuJywgJzgnLCAnLW1hJywgJzIwMCcsICctbWV0YWxfYmluZGluZycsICctaW1hZScsICc8aW5maWxlLm1hZT4nLCAnLW9tYWUnLCAnPG91dGZpbGUubWFlPic=

> <r_epik_Ionization_Penalty>
0.183246

> <r_epik_Ionization_Penalty_Charging>
0

> <r_epik_Ionization_Penalty_Neutral>
0.183246

> <r_epik_State_Penalty>
0.172781

> <r_epik_Charging_Adjusted_Penalty>
0.172781

> <i_epik_Tot_Q>
0

> <i_epik_Tot_abs_Q>
0

> <r_epik_Metal_State_Penalty>
0.000200578

> <b_epik_Metal_Only>
0

> <s_lp_Force_Field>
OPLS_2005

> <r_lp_Energy>
6.05289

> <b_lp_Chiralities_Consistent>
1

> <s_lp_Variant>
AV-unprocessed.smi:2979-1

> <Gold.Version>
5.8.1

> <Gold.Id.Protein>
6NUR|6NUR_protein|mol2

> <Gold.PLP.Fitness>
46.4551

> <Gold.PLP.PLP>
-38.9084

> <Gold.PLP.part.hbond>
-3.0000

> <Gold.PLP.part.metal>
0.0000

> <Gold.PLP.part.buried>
-5.3631

> <Gold.PLP.part.nonpolar>
-31.2663

> <Gold.PLP.part.repulsive>
0.1178

> <Gold.PLP.ligand.clash>
0.0000

> <Gold.PLP.ligand.torsion>
0.7520

> <Gold.PLP.Chemscore.Hbond>
3.0000

> <Gold.PLP.Chemscore.CHOScore>
0.0000

> <Gold.PLP.Chemscore.Metal>
0.0000

> <Gold.Chemscore.Hbonds>
donor molecule, donor type, donor heavy atom, donor atom, acceptor molecule, acceptor atom, score
      L1  H    10    31       P1  7949  1.00
      P1  H  7997  8008       L1    11  1.00
      P1  H 10752 10765       L1    10  0.80

> <Gold.PLP.Chemscore.Internal.Correction>
0.0507

> <Gold.Rescore>
     Score         DG    S(hbond)    S(metal)    S(lipo)     H(rot)  DE(clash)    DE(int)     intcor
     15.04     -15.90       1.47        0.00     100.74       2.45       0.09       0.77       ----

> <Gold.Chemscore.Fitness>
15.0391

> <Gold.Chemscore.DG>
-15.9019

> <Gold.Chemscore.ZeroCoef>
-5.4800

> <Gold.Chemscore.Hbond>
1.4673

> <Gold.Chemscore.Metal>
0.0000

> <Gold.Chemscore.Lipo>
100.7409

> <Gold.Chemscore.Internal_Hbond>
0.0000

> <Gold.Chemscore.DEClash>
0.0901

> <Gold.Chemscore.DEInternal>
0.7728

> <Gold.Chemscore.Rot>
2.4474

> <Gold.Chemscore.Internal.Correction>
   9.000000E+99

> <Gold.Chemscore.Hbonds>
donor molecule, donor type, donor heavy atom, donor atom, acceptor molecule, acceptor atom, score
      L1  H    10    31       P1  7949  0.93
      P1  H  7997  8008       L1    11  0.33
      P1  H 10752 10765       L1    10  0.13

> <Gold.Chemscore.Hbond.Weighted>
-4.9006

> <Gold.Chemscore.Metal.Weighted>
-0.0000

> <Gold.Chemscore.Lipo.Weighted>
-11.7867

> <Gold.Chemscore.Internal_Hbond.Weighted>
0.0000

> <Gold.Chemscore.DEClash.Weighted>
0.0901

> <Gold.Chemscore.DEInternal.Weighted>
0.7728

> <Gold.Chemscore.Rot.Weighted>
6.2654

> <Gold.Chemscore.Internal.Correction.Weighted>
   9.000000E+99

> <Gold.Protein.RotatedTorsions>
[ 6907 6896 6895 6894 ] final -126.13 input  -60.11 | X-H torsion
[ 7974 7965 7964 7962 ] final  -15.62 input  175.53 | X-H torsion
[ 8008 7997 7996 7995 ] final  -71.94 input   59.86 | X-H torsion
[ 10167 10162 10161 10158 ] final  126.04 input  -65.29 | X-H torsion
[ 10718 10713 10712 10709 ] final  178.36 input   66.30 | X-H torsion
[ 10763 10752 10751 10750 ] final  134.98 input  -60.55 | X-H torsion
[ 11005 11000 10999 10996 ] final  -99.01 input  -57.11 | X-H torsion

> <Gold.Protein.ActiveResidues>
 VAL166  LYS551  ARG553  GLY616  TRP617  ASP618  TYR619  PRO620  LYS621  CYS622 
 ASP623  PHE694  ASN695  SER759  ASP760  ASP761  ALA762  ILE779  LEU786  VAL792 
 PHE793  MET794  SER795  GLU796  ALA797  LYS798  CYS799  TRP800  GLU811  SER814 

> <Gold.Protein.RotatedAtoms>
  150.8938  133.7208  159.2897 H   0  0  0  0  0  0  0  0  0  0  0  0  # atno 6907 bound_to 6896
  151.4749  135.1047  159.9771 H   0  0  0  0  0  0  0  0  0  0  0  0  # atno 6908 bound_to 6896
  152.4836  133.8269  159.7138 H   0  0  0  0  0  0  0  0  0  0  0  0  # atno 6909 bound_to 6896
  146.2024  140.3519  142.8419 H   0  0  0  0  0  0  0  0  0  0  0  0  # atno 7974 bound_to 7965
  154.5127  140.0806  156.8020 H   0  0  0  0  0  0  0  0  0  0  0  0  # atno 8008 bound_to 7997
  155.3750  140.3425  155.4226 H   0  0  0  0  0  0  0  0  0  0  0  0  # atno 8009 bound_to 7997
  156.1591  140.1583  156.8629 H   0  0  0  0  0  0  0  0  0  0  0  0  # atno 8010 bound_to 7997
  139.5653  144.6907  151.3929 H   0  0  0  0  0  0  0  0  0  0  0  0  # atno 10167 bound_to 10162
  156.8917  130.9849  151.3048 H   0  0  0  0  0  0  0  0  0  0  0  0  # atno 10718 bound_to 10713
  153.8324  135.3102  155.3420 H   0  0  0  0  0  0  0  0  0  0  0  0  # atno 10763 bound_to 10752
  154.7967  135.4751  154.0181 H   0  0  0  0  0  0  0  0  0  0  0  0  # atno 10764 bound_to 10752
  153.1626  135.6863  153.8812 H   0  0  0  0  0  0  0  0  0  0  0  0  # atno 10765 bound_to 10752
  141.1324  133.8289  157.0915 H   0  0  0  0  0  0  0  0  0  0  0  0  # atno 11005 bound_to 11000
  144.8713  140.7277  143.6045 LP  0  0  0  0  0  0  0  0  0  0  0  0  # atno 17320 bound_to 7965
  145.3438  139.1725  143.4471 LP  0  0  0  0  0  0  0  0  0  0  0  0  # atno 17321 bound_to 7965
  140.6936  143.7803  150.7292 LP  0  0  0  0  0  0  0  0  0  0  0  0  # atno 17342 bound_to 10162
  140.1293  143.4540  152.2264 LP  0  0  0  0  0  0  0  0  0  0  0  0  # atno 17343 bound_to 10162
  157.6080  130.8561  149.8906 LP  0  0  0  0  0  0  0  0  0  0  0  0  # atno 17370 bound_to 10713
  156.0626  130.3697  150.0949 LP  0  0  0  0  0  0  0  0  0  0  0  0  # atno 17371 bound_to 10713
  140.0389  134.9864  157.0924 LP  0  0  0  0  0  0  0  0  0  0  0  0  # atno 17394 bound_to 11000
  140.4166  134.1924  155.7163 LP  0  0  0  0  0  0  0  0  0  0  0  0  # atno 17395 bound_to 11000

$$$$
