#       Name:                AV-unprocessed.smi:102
#       Creating user name   scv26
#       Creation time:       Thu Mar 26 17:48:05 2020


#       File generated by GOLD software.
#

@<TRIPOS>MOLECULE
AV-unprocessed.smi:102
    56    57     1
SMALL
NO_CHARGES


@<TRIPOS>ATOM
      1 ****        -3.8748   3.8350   1.4407 C.3            1 S1                 0.0000
      2 ****        -3.2757   2.6307   0.7261 C.2            1 S1                 0.0000
      3 ****        -3.0281   2.6591  -0.4797 O.2            1 S1                 0.0000
      4 ****        -3.0658   1.5925   1.5562 O.3            1 S1                 0.0000
      5 ****        -2.5017   0.3832   1.0681 C.3            1 S1                 0.0000
      6 ****        -0.9685   0.4102   1.1631 C.3            1 S1                 0.0000
      7 ****        -0.4250   1.2084   0.1221 O.3            1 S1                 0.0000
      8 ****         0.8725   0.7914  -0.1709 C.3            1 S1                 0.0000
      9 ****         1.0894   0.9619  -1.6621 N.am           1 S1                 0.0000
     10 ****         2.1432   1.7353  -2.1287 C.2            1 S1                 0.0000
     11 ****         2.3679   1.9603  -3.4448 C.2            1 S1                 0.0000
     12 ****         3.4153   2.7144  -3.8195 F              1 S1                 0.0000
     13 ****         1.4826   1.3955  -4.4589 C.2            1 S1                 0.0000
     14 ****         1.6073   1.5387  -5.6736 O.2            1 S1                 0.0000
     15 ****         0.4228   0.6433  -3.9449 N.am           1 S1                 0.0000
     16 ****         0.1772   0.4068  -2.5915 C.2            1 S1                 0.0000
     17 ****        -0.7983  -0.2625  -2.2543 O.2            1 S1                 0.0000
     18 ****         1.0525  -0.6513   0.3596 C.3            1 S1                 0.0000
     19 ****         1.4373  -1.5699  -0.6579 O.3            1 S1                 0.0000
     20 ****         2.0913  -2.6988  -0.3436 C.2            1 S1                 0.0000
     21 ****         2.4148  -3.5390  -1.5714 C.3            1 S1                 0.0000
     22 ****         2.4141  -3.0603   0.7878 O.2            1 S1                 0.0000
     23 ****        -0.3352  -0.9671   0.9185 C.3            1 S1                 0.0000
     24 ****        -0.3509  -1.8484   2.0467 O.3            1 S1                 0.0000
     25 ****         0.2923  -1.5938   3.2096 C.2            1 S1                 0.0000
     26 ****         0.0984  -2.7071   4.2305 C.3            1 S1                 0.0000
     27 ****         0.9687  -0.6000   3.4731 O.2            1 S1                 0.0000
     28 ****        -0.2235   0.2421  -4.6089 H              1 S1                 0.0000
     29 ****        -3.0822   4.4808   1.8187 H              1 S1                 0.0000
     30 ****        -4.4929   3.5166   2.2804 H              1 S1                 0.0000
     31 ****        -4.4961   4.4132   0.7563 H              1 S1                 0.0000
     32 ****        -2.8822  -0.4214   1.6976 H              1 S1                 0.0000
     33 ****        -2.8311   0.1618   0.0516 H              1 S1                 0.0000
     34 ****        -0.6500   0.8340   2.1151 H              1 S1                 0.0000
     35 ****         1.5664   1.4784   0.3149 H              1 S1                 0.0000
     36 ****         2.8280   2.1787  -1.4202 H              1 S1                 0.0000
     37 ****         1.8121  -0.6017   1.1396 H              1 S1                 0.0000
     38 ****         2.9874  -2.9535  -2.2909 H              1 S1                 0.0000
     39 ****         1.4958  -3.8758  -2.0514 H              1 S1                 0.0000
     40 ****         3.0014  -4.4147  -1.2934 H              1 S1                 0.0000
     41 ****        -0.9075  -1.4544   0.1284 H              1 S1                 0.0000
     42 ****        -0.0522  -3.6648   3.7320 H              1 S1                 0.0000
     43 ****        -0.7716  -2.4994   4.8537 H              1 S1                 0.0000
     44 ****         0.9742  -2.7890   4.8746 H              1 S1                 0.0000
     45 ****        -3.2203   3.4847  -1.0103 LP             1 S1                 0.0000
     46 ****        -2.6348   1.8566  -0.9284 LP             1 S1                 0.0000
     47 ****        -0.4076   2.1650   0.4131 LP             1 S1                 0.0000
     48 ****        -0.9941   1.1189  -0.6953 LP             1 S1                 0.0000
     49 ****         2.3651   2.0799  -6.0380 LP             1 S1                 0.0000
     50 ****         0.9510   1.1140  -6.2971 LP             1 S1                 0.0000
     51 ****        -0.9752  -0.4355  -1.2854 LP             1 S1                 0.0000
     52 ****        -1.4144  -0.6336  -2.9491 LP             1 S1                 0.0000
     53 ****         2.1885  -2.4907   1.5782 LP             1 S1                 0.0000
     54 ****         2.9020  -3.9236   0.9167 LP             1 S1                 0.0000
     55 ****         1.0847   0.1213   2.7903 LP             1 S1                 0.0000
     56 ****         1.4024  -0.5138   4.3701 LP             1 S1                 0.0000
@<TRIPOS>BOND
    1    1    2 1     
    2    1   29 1     
    3    1   30 1     
    4    1   31 1     
    5    2    3 2     
    6    2    4 1     
    7    4    5 1     
    8    5    6 1     
    9    5   32 1     
   10    5   33 1     
   11    6   23 1     
   12    6    7 1     
   13    6   34 1     
   14    7    8 1     
   15    8    9 1     
   16    8   18 1     
   17    8   35 1     
   18    9   16 1     
   19    9   10 1     
   20   10   11 2     
   21   10   36 1     
   22   11   12 1     
   23   11   13 1     
   24   13   14 2     
   25   13   15 1     
   26   15   28 1     
   27   15   16 1     
   28   16   17 2     
   29   18   19 1     
   30   18   23 1     
   31   18   37 1     
   32   19   20 1     
   33   20   21 1     
   34   20   22 2     
   35   21   38 1     
   36   21   39 1     
   37   21   40 1     
   38   23   24 1     
   39   23   41 1     
   40   24   25 1     
   41   25   26 1     
   42   25   27 2     
   43   26   42 1     
   44   26   43 1     
   45   26   44 1     
   46    3   45 1     
   47    3   46 1     
   48    7   47 1     
   49    7   48 1     
   50   14   49 1     
   51   14   50 1     
   52   17   51 1     
   53   17   52 1     
   54   22   53 1     
   55   22   54 1     
   56   27   55 1     
   57   27   56 1     
@<TRIPOS>SUBSTRUCTURE
      1 S1             1
@<TRIPOS>SET
LONE_PAIRS      STATIC     ATOMS    <user>   **** ""
12 45 46 47 48 49 50 51 52 53 54 55 56
DONOR_HYDROGENS      STATIC     ATOMS    <user>   **** ""
1 28
ATOM$BLUE        STATIC     ATOMS    COLORGROUP SYSTEM
12 45 46 47 48 49 50 51 52 53 54 55 56
ATOM$RED        STATIC     ATOMS    COLORGROUP SYSTEM
1 28
