AV-unprocessed.smi:54|AV-procd|sdf|554|dock8
  -GOLD-   2262016453D 1   1.00000     0.00000
 Structure written by MMmdl.
 43 45  0  0  0  0  0  0  0  0  2 V2000
  145.5198  136.5952  161.1815 C   0  0  0  0  0  0  0  0  0  0  0  0
  146.6435  135.5812  160.9114 C   0  0  0  0  0  0  0  0  0  0  0  0
  147.2087  135.0120  162.2233 C   0  0  0  0  0  0  0  0  0  0  0  0
  147.7571  136.2182  160.0675 C   0  0  0  0  0  0  0  0  0  0  0  0
  148.3488  137.2075  160.5046 O   0  0  0  0  0  0  0  0  0  0  0  0
  147.9876  135.6249  158.8752 N   0  0  0  0  0  0  0  0  0  0  0  0
  148.9113  135.9657  157.8801 C   0  0  0  0  0  0  0  0  0  0  0  0
  148.4503  136.8569  157.0360 N   0  0  0  0  0  0  0  0  0  0  0  0
  149.3592  137.1699  156.0431 C   0  0  0  0  0  0  0  0  0  0  0  0
  150.6198  136.6674  155.8741 C   0  0  0  0  0  0  0  0  0  0  0  0
  151.2493  137.2364  154.7742 N   0  0  0  0  0  0  0  0  0  0  0  0
  150.3166  138.0727  154.3214 C   0  0  0  0  0  0  0  0  0  0  0  0
  149.1532  138.0754  155.0070 N   0  0  0  0  0  0  0  0  0  0  0  0
  147.9306  138.9167  154.7724 C   0  0  1  0  0  0  0  0  0  0  0  0
  147.5426  139.5051  155.9753 O   0  0  0  0  0  0  0  0  0  0  0  0
  148.2232  140.7436  156.1325 C   0  0  2  0  0  0  0  0  0  0  0  0
  147.4793  141.6265  157.1461 C   0  0  0  0  0  0  0  0  0  0  0  0
  148.2406  142.7794  157.4356 O   0  0  0  0  0  0  0  0  0  0  0  0
  148.2171  141.3099  154.7075 C   0  0  1  0  0  0  0  0  0  0  0  0
  149.3708  142.0999  154.5001 O   0  0  0  0  0  0  0  0  0  0  0  0
  148.2442  140.0735  153.8060 C   0  0  2  0  0  0  0  0  0  0  0  0
  147.2639  140.1729  152.7933 O   0  0  0  0  0  0  0  0  0  0  0  0
  151.0764  135.6587  156.8587 C   0  0  0  0  0  0  0  0  0  0  0  0
  152.2021  135.1774  156.7449 O   0  0  0  0  0  0  0  0  0  0  0  0
  150.1749  135.3426  157.8360 N   0  5  0  0  0  0  0  0  0  0  0  0
  147.1881  138.2049  154.4094 H   0  0  0  0  0  0  0  0  0  0  0  0
  149.2500  140.5616  156.4559 H   0  0  0  0  0  0  0  0  0  0  0  0
  147.3172  141.9031  154.5357 H   0  0  0  0  0  0  0  0  0  0  0  0
  149.2204  139.9278  153.3407 H   0  0  0  0  0  0  0  0  0  0  0  0
  145.1202  137.0007  160.2510 H   0  0  0  0  0  0  0  0  0  0  0  0
  145.8707  137.4325  161.7861 H   0  0  0  0  0  0  0  0  0  0  0  0
  144.6929  136.1266  161.7156 H   0  0  0  0  0  0  0  0  0  0  0  0
  146.2156  134.7511  160.3467 H   0  0  0  0  0  0  0  0  0  0  0  0
  148.0159  134.3034  162.0331 H   0  0  0  0  0  0  0  0  0  0  0  0
  146.4361  134.4842  162.7832 H   0  0  0  0  0  0  0  0  0  0  0  0
  147.6019  135.8001  162.8671 H   0  0  0  0  0  0  0  0  0  0  0  0
  147.3627  134.8633  158.6559 H   0  0  0  0  0  0  0  0  0  0  0  0
  150.4919  138.7035  153.4627 H   0  0  0  0  0  0  0  0  0  0  0  0
  146.5296  141.9598  156.7265 H   0  0  0  0  0  0  0  0  0  0  0  0
  147.2546  141.0787  158.0616 H   0  0  0  0  0  0  0  0  0  0  0  0
  148.2855  143.3130  156.6568 H   0  0  0  0  0  0  0  0  0  0  0  0
  149.2537  142.9237  154.9485 H   0  0  0  0  0  0  0  0  0  0  0  0
  147.6983  140.1588  151.9545 H   0  0  0  0  0  0  0  0  0  0  0  0
  1  2  1  0  0  0  0
  1 30  1  0  0  0  0
  1 31  1  0  0  0  0
  1 32  1  0  0  0  0
  2  3  1  0  0  0  0
  2  4  1  0  0  0  0
  2 33  1  0  0  0  0
  3 34  1  0  0  0  0
  3 35  1  0  0  0  0
  3 36  1  0  0  0  0
  4  5  2  0  0  0  0
  4  6  1  0  0  0  0
  6 37  1  0  0  0  0
  6  7  1  0  0  0  0
  7 25  1  0  0  0  0
  7  8  2  0  0  0  0
  8  9  1  0  0  0  0
  9 13  1  0  0  0  0
  9 10  2  0  0  0  0
 10 11  1  0  0  0  0
 10 23  1  0  0  0  0
 11 12  2  0  0  0  0
 12 13  1  0  0  0  0
 12 38  1  0  0  0  0
 13 14  1  0  0  0  0
 14 26  1  0  0  0  0
 14 21  1  0  0  0  0
 14 15  1  0  0  0  0
 15 16  1  0  0  0  0
 16 27  1  0  0  0  0
 16 17  1  0  0  0  0
 16 19  1  0  0  0  0
 17 18  1  0  0  0  0
 17 39  1  0  0  0  0
 17 40  1  0  0  0  0
 18 41  1  0  0  0  0
 19 28  1  0  0  0  0
 19 20  1  0  0  0  0
 19 21  1  0  0  0  0
 20 42  1  0  0  0  0
 21 29  1  0  0  0  0
 21 22  1  0  0  0  0
 22 43  1  0  0  0  0
 23 24  2  0  0  0  0
 23 25  1  0  0  0  0
M  CHG  1  25  -1
M  END
> <s_m_source_file>
AV-unprocessed.smi

> <i_m_source_file_index>
54

> <i_lp_mmshare_version>
43012

> <i_f3d_flags>
0

> <s_epik_input>
W0NIM11bQ0hdKFtDSDNdKUMoPU8pW05IXWMobjEpW25IXWMoPU8pYyhjMTIpbltjSF1uMltDQEBIXTNPW0NASF0oW0NIMl1bT0hdKVtDQEBIXShbT0hdKVtDQEhdM1tPSF0=

> <s_epik_cmdline>
J2VwaWtfcHl0aG9uJywgJy1waCcsICc3LjAnLCAnLXRuJywgJzgnLCAnLW1hJywgJzIwMCcsICctbWV0YWxfYmluZGluZycsICctaW1hZScsICc8aW5maWxlLm1hZT4nLCAnLW9tYWUnLCAnPG91dGZpbGUubWFlPic=

> <r_lp_tautomer_probability>
0.85571

> <r_epik_Ionization_Penalty>
1.75936

> <r_epik_Ionization_Penalty_Charging>
4.55893e-11

> <r_epik_Ionization_Penalty_Neutral>
1.75936

> <r_epik_State_Penalty>
1.72072

> <r_epik_Charging_Adjusted_Penalty>
1.72072

> <i_epik_Tot_Q>
-1

> <i_epik_Tot_abs_Q>
1

> <r_epik_Metal_State_Penalty>
0.400338

> <b_epik_Metal_Only>
1

> <s_epik_Chemistry_Notes>
This compound contains an acetal/aminal-like group ( X-CH(R)-Y where X, Y are N, S, or O) that may be acid/base labile, releasing an aldehyde.

> <s_lp_Force_Field>
OPLS_2005

> <r_lp_Energy>
54.6298

> <b_lp_Chiralities_Consistent>
1

> <s_lp_Variant>
AV-unprocessed.smi:54-26

> <Gold.Version>
5.8.1

> <Gold.Id.Protein>
6NUR|6NUR_protein|mol2

> <Gold.PLP.Fitness>
48.0938

> <Gold.PLP.PLP>
-29.1589

> <Gold.PLP.part.hbond>
-9.3361

> <Gold.PLP.part.metal>
0.0000

> <Gold.PLP.part.buried>
-0.4686

> <Gold.PLP.part.nonpolar>
-18.5506

> <Gold.PLP.part.repulsive>
0.2127

> <Gold.PLP.ligand.clash>
0.0000

> <Gold.PLP.ligand.torsion>
1.1446

> <Gold.PLP.Chemscore.Hbond>
6.5757

> <Gold.PLP.Chemscore.CHOScore>
0.4784

> <Gold.PLP.Chemscore.Metal>
0.0000

> <Gold.Chemscore.Hbonds>
donor molecule, donor type, donor heavy atom, donor atom, acceptor molecule, acceptor atom, score
      L1  H    18    41       P1  8028  1.00
      L1  H    20    42       P1  8028  1.00
      L1  H    22    43       P1  7957  0.81
      P1  H  6896  6907       L1    25  1.50
      P1  H  6931  6943       L1     5  0.74
      P1  H  6934  6947       L1     5  0.36
      P1  H  8011  8017       L1    20  0.15
      P1  H 10752 10765       L1    24  1.00
      L1  C    12    38       P1  7957  0.36

> <Gold.PLP.Chemscore.Internal.Correction>
0.0618

> <Gold.Rescore>
     Score         DG    S(hbond)    S(metal)    S(lipo)     H(rot)  DE(clash)    DE(int)     intcor
     13.09     -16.75       5.07        0.00      39.60       4.02       1.21       2.45       ----

> <Gold.Chemscore.Fitness>
13.0897

> <Gold.Chemscore.DG>
-16.7486

> <Gold.Chemscore.ZeroCoef>
-5.4800

> <Gold.Chemscore.Hbond>
5.0672

> <Gold.Chemscore.Metal>
0.0000

> <Gold.Chemscore.Lipo>
39.6014

> <Gold.Chemscore.Internal_Hbond>
0.0000

> <Gold.Chemscore.DEClash>
1.2117

> <Gold.Chemscore.DEInternal>
2.4472

> <Gold.Chemscore.Rot>
4.0192

> <Gold.Chemscore.Internal.Correction>
   9.000000E+99

> <Gold.Chemscore.Hbonds>
donor molecule, donor type, donor heavy atom, donor atom, acceptor molecule, acceptor atom, score
      L1  H    18    41       P1  8028  0.29
      L1  H    20    42       P1  8028  0.99
      L1  H    22    43       P1  7957  0.74
      P1  H  6896  6907       L1    25  0.66
      P1  H  6931  6943       L1     5  0.74
      P1  H  6934  6947       L1     5  0.35
      P1  H  8011  8017       L1    20  0.10
      P1  H 10752 10765       L1    24  0.96

> <Gold.Chemscore.Hbond.Weighted>
-16.9245

> <Gold.Chemscore.Metal.Weighted>
-0.0000

> <Gold.Chemscore.Lipo.Weighted>
-4.6334

> <Gold.Chemscore.Internal_Hbond.Weighted>
0.0000

> <Gold.Chemscore.DEClash.Weighted>
1.2117

> <Gold.Chemscore.DEInternal.Weighted>
2.4472

> <Gold.Chemscore.Rot.Weighted>
10.2893

> <Gold.Chemscore.Internal.Correction.Weighted>
   9.000000E+99

> <Gold.Protein.RotatedTorsions>
[ 6907 6896 6895 6894 ] final  -77.83 input  -60.11 | X-H torsion
[ 7974 7965 7964 7962 ] final  155.81 input  175.53 | X-H torsion
[ 8008 7997 7996 7995 ] final -154.98 input   59.86 | X-H torsion
[ 10167 10162 10161 10158 ] final -113.21 input  -65.29 | X-H torsion
[ 10718 10713 10712 10709 ] final  -16.37 input   66.30 | X-H torsion
[ 10763 10752 10751 10750 ] final -144.81 input  -60.55 | X-H torsion
[ 11005 11000 10999 10996 ] final   40.42 input  -57.11 | X-H torsion

> <Gold.Protein.ActiveResidues>
 VAL166  LYS551  ARG553  GLY616  TRP617  ASP618  TYR619  PRO620  LYS621  CYS622 
 ASP623  PHE694  ASN695  SER759  ASP760  ASP761  ALA762  ILE779  LEU786  VAL792 
 PHE793  MET794  SER795  GLU796  ALA797  LYS798  CYS799  TRP800  GLU811  SER814 

> <Gold.Protein.RotatedAtoms>
  150.6988  134.4363  159.5271 H   0  0  0  0  0  0  0  0  0  0  0  0  # atno 6907 bound_to 6896
  152.2081  134.8524  160.0509 H   0  0  0  0  0  0  0  0  0  0  0  0  # atno 6908 bound_to 6896
  151.9419  133.3605  159.4005 H   0  0  0  0  0  0  0  0  0  0  0  0  # atno 6909 bound_to 6896
  144.8001  139.7119  143.6185 H   0  0  0  0  0  0  0  0  0  0  0  0  # atno 7974 bound_to 7965
  155.6947  140.0759  157.2434 H   0  0  0  0  0  0  0  0  0  0  0  0  # atno 8008 bound_to 7997
  154.4083  140.1658  156.2178 H   0  0  0  0  0  0  0  0  0  0  0  0  # atno 8009 bound_to 7997
  155.9421  140.3383  155.6339 H   0  0  0  0  0  0  0  0  0  0  0  0  # atno 8010 bound_to 7997
  140.1144  143.4499  152.1732 H   0  0  0  0  0  0  0  0  0  0  0  0  # atno 10167 bound_to 10162
  156.5886  130.4793  149.6289 H   0  0  0  0  0  0  0  0  0  0  0  0  # atno 10718 bound_to 10713
  154.8411  135.3430  154.6405 H   0  0  0  0  0  0  0  0  0  0  0  0  # atno 10763 bound_to 10752
  153.7016  135.6969  153.5066 H   0  0  0  0  0  0  0  0  0  0  0  0  # atno 10764 bound_to 10752
  153.2518  135.4351  155.0760 H   0  0  0  0  0  0  0  0  0  0  0  0  # atno 10765 bound_to 10752
  140.1932  134.3961  155.8135 H   0  0  0  0  0  0  0  0  0  0  0  0  # atno 11005 bound_to 11000
  146.2280  139.5760  142.9574 LP  0  0  0  0  0  0  0  0  0  0  0  0  # atno 17320 bound_to 7965
  145.5574  141.0408  143.2245 LP  0  0  0  0  0  0  0  0  0  0  0  0  # atno 17321 bound_to 7965
  139.5602  144.7400  151.4177 LP  0  0  0  0  0  0  0  0  0  0  0  0  # atno 17342 bound_to 10162
  140.6908  143.7867  150.7252 LP  0  0  0  0  0  0  0  0  0  0  0  0  # atno 17343 bound_to 10162
  156.2569  130.6940  151.1696 LP  0  0  0  0  0  0  0  0  0  0  0  0  # atno 17370 bound_to 10713
  157.7309  131.0612  150.5703 LP  0  0  0  0  0  0  0  0  0  0  0  0  # atno 17371 bound_to 10713
  141.2226  133.7057  156.8131 LP  0  0  0  0  0  0  0  0  0  0  0  0  # atno 17394 bound_to 11000
  140.2136  134.8809  157.3301 LP  0  0  0  0  0  0  0  0  0  0  0  0  # atno 17395 bound_to 11000

$$$$
