#       Name:                AV-unprocessed.smi:1018
#       Creating user name   scv26
#       Creation time:       Fri Mar 27 02:40:20 2020


#       File generated by GOLD software.
#

@<TRIPOS>MOLECULE
AV-unprocessed.smi:1018
    60    61     1
SMALL
NO_CHARGES


@<TRIPOS>ATOM
      1 ****        -4.6135   4.2124  -1.7987 C.3            1 S1                 0.0000
      2 ****        -5.2011   2.7964  -1.6618 C.3            1 S1                 0.0000
      3 ****        -4.1301   1.6880  -1.6364 C.3            1 S1                 0.0000
      4 ****        -3.4471   1.6458  -0.3462 N.3            1 S1                 0.0000
      5 ****        -2.2720   0.8646  -0.3101 C.ar           1 S1                 0.0000
      6 ****        -1.2351   1.0979  -1.2437 C.ar           1 S1                 0.0000
      7 ****        -0.0734   0.3032  -1.1984 C.ar           1 S1                 0.0000
      8 ****         0.0290  -0.7048  -0.2113 C.ar           1 S1                 0.0000
      9 ****         1.1332  -1.5892  -0.0704 N.am           1 S1                 0.0000
     10 ****         2.3773  -1.4731  -0.5652 C.2            1 S1                 0.0000
     11 ****         2.7991  -0.5200  -1.2194 O.2            1 S1                 0.0000
     12 ****         3.1262  -2.5343  -0.2329 N.am           1 S1                 0.0000
     13 ****         4.5355  -2.7316  -0.5763 C.3            1 S1                 0.0000
     14 ****         5.4841  -2.6891   0.6558 C.3            1 S1                 0.0000
     15 ****         5.0952  -3.8196   1.6404 C.3            1 S1                 0.0000
     16 ****         6.9337  -2.9406   0.1902 C.3            1 S1                 0.0000
     17 ****         5.4293  -1.3142   1.3697 C.2            1 S1                 0.0000
     18 ****         5.6121  -0.2206   0.6225 N.am           1 S1                 0.0000
     19 ****         5.2284  -1.2302   2.5806 O.2            1 S1                 0.0000
     20 ****        -1.0569  -0.8638   0.6722 C.ar           1 S1                 0.0000
     21 ****        -2.1709  -0.1039   0.6329 N.ar           1 S1                 0.0000
     22 ****        -4.3653   1.5538   0.7857 C.3            1 S1                 0.0000
     23 ****        -5.4006   2.6916   0.7331 C.3            1 S1                 0.0000
     24 ****        -6.4617   2.5478   1.8290 C.3            1 S1                 0.0000
     25 ****        -6.0652   2.6764  -0.5296 O.3            1 S1                 0.0000
     26 ****        -4.0692   4.3143  -2.7378 H              1 S1                 0.0000
     27 ****        -3.9169   4.4513  -0.9956 H              1 S1                 0.0000
     28 ****        -5.4034   4.9637  -1.7926 H              1 S1                 0.0000
     29 ****        -5.8271   2.6303  -2.5390 H              1 S1                 0.0000
     30 ****        -4.6045   0.7194  -1.8001 H              1 S1                 0.0000
     31 ****        -3.4361   1.8372  -2.4625 H              1 S1                 0.0000
     32 ****        -1.3137   1.8787  -1.9855 H              1 S1                 0.0000
     33 ****         0.7023   0.4781  -1.9269 H              1 S1                 0.0000
     34 ****         0.9649  -2.3954   0.5134 H              1 S1                 0.0000
     35 ****         2.6920  -3.2634   0.3138 H              1 S1                 0.0000
     36 ****         4.6114  -3.7070  -1.0579 H              1 S1                 0.0000
     37 ****         4.8584  -2.0156  -1.3343 H              1 S1                 0.0000
     38 ****         5.0976  -4.7910   1.1451 H              1 S1                 0.0000
     39 ****         4.0992  -3.6736   2.0608 H              1 S1                 0.0000
     40 ****         5.7946  -3.8844   2.4752 H              1 S1                 0.0000
     41 ****         7.0357  -3.9266  -0.2644 H              1 S1                 0.0000
     42 ****         7.6373  -2.8926   1.0226 H              1 S1                 0.0000
     43 ****         7.2537  -2.2094  -0.5531 H              1 S1                 0.0000
     44 ****         5.5967   0.6931   1.0521 H              1 S1                 0.0000
     45 ****         5.7782  -0.3135  -0.3692 H              1 S1                 0.0000
     46 ****        -1.0336  -1.6248   1.4386 H              1 S1                 0.0000
     47 ****        -4.8673   0.5854   0.7620 H              1 S1                 0.0000
     48 ****        -3.8125   1.6121   1.7243 H              1 S1                 0.0000
     49 ****        -4.8991   3.6494   0.8734 H              1 S1                 0.0000
     50 ****        -6.0072   2.5657   2.8199 H              1 S1                 0.0000
     51 ****        -7.0085   1.6097   1.7282 H              1 S1                 0.0000
     52 ****        -7.1850   3.3620   1.7805 H              1 S1                 0.0000
     53 ****        -3.0407   2.5506  -0.2188 LP             1 S1                 0.0000
     54 ****         2.1977   0.2529  -1.4216 LP             1 S1                 0.0000
     55 ****         3.7432  -0.5184  -1.5489 LP             1 S1                 0.0000
     56 ****         5.0966  -2.0591   3.1242 LP             1 S1                 0.0000
     57 ****         5.1969  -0.3330   3.0211 LP             1 S1                 0.0000
     58 ****        -2.9106  -0.2528   1.2892 LP             1 S1                 0.0000
     59 ****        -6.5638   1.8132  -0.6087 LP             1 S1                 0.0000
     60 ****        -6.7126   3.4383  -0.5499 LP             1 S1                 0.0000
@<TRIPOS>BOND
    1    1    2 1     
    2    1   26 1     
    3    1   27 1     
    4    1   28 1     
    5    2   25 1     
    6    2    3 1     
    7    2   29 1     
    8    3    4 1     
    9    3   30 1     
   10    3   31 1     
   11    4    5 1     
   12    4   22 1     
   13    5   21 ar    
   14    5    6 ar    
   15    6    7 ar    
   16    6   32 1     
   17    7    8 ar    
   18    7   33 1     
   19    8    9 1     
   20    8   20 ar    
   21    9   10 am    
   22    9   34 1     
   23   10   11 2     
   24   10   12 am    
   25   12   13 1     
   26   12   35 1     
   27   13   14 1     
   28   13   36 1     
   29   13   37 1     
   30   14   15 1     
   31   14   16 1     
   32   14   17 1     
   33   15   38 1     
   34   15   39 1     
   35   15   40 1     
   36   16   41 1     
   37   16   42 1     
   38   16   43 1     
   39   17   18 am    
   40   17   19 2     
   41   18   44 1     
   42   18   45 1     
   43   20   21 ar    
   44   20   46 1     
   45   22   23 1     
   46   22   47 1     
   47   22   48 1     
   48   23   24 1     
   49   23   25 1     
   50   23   49 1     
   51   24   50 1     
   52   24   51 1     
   53   24   52 1     
   54    4   53 1     
   55   11   54 1     
   56   11   55 1     
   57   19   56 1     
   58   19   57 1     
   59   21   58 1     
   60   25   59 1     
   61   25   60 1     
@<TRIPOS>SUBSTRUCTURE
      1 S1             1
@<TRIPOS>SET
LONE_PAIRS      STATIC     ATOMS    <user>   **** ""
8 53 54 55 56 57 58 59 60
DONOR_HYDROGENS      STATIC     ATOMS    <user>   **** ""
4 34 35 44 45
ATOM$BLUE        STATIC     ATOMS    COLORGROUP SYSTEM
8 53 54 55 56 57 58 59 60
ATOM$RED        STATIC     ATOMS    COLORGROUP SYSTEM
4 34 35 44 45
