#       Name:                AV-unprocessed.smi:1576
#       Creating user name   scv26
#       Creation time:       Fri Mar 27 06:56:16 2020


#       File generated by GOLD software.
#

@<TRIPOS>MOLECULE
AV-unprocessed.smi:1576
    49    51     1
SMALL
NO_CHARGES


@<TRIPOS>ATOM
      1 ****        -2.2903   1.5179  -0.6873 O.2            1 S1                 0.0000
      2 ****        -2.5231   0.3819  -0.2755 C.2            1 S1                 0.0000
      3 ****        -1.5954  -0.5358   0.0457 N.am           1 S1                 0.0000
      4 ****        -0.1830  -0.4517  -0.0868 C.ar           1 S1                 0.0000
      5 ****         0.6057  -1.3527   0.6543 C.ar           1 S1                 0.0000
      6 ****         2.0066  -1.3098   0.5251 C.ar           1 S1                 0.0000
      7 ****         2.5894  -0.3672  -0.3537 C.ar           1 S1                 0.0000
      8 ****         3.9922  -0.3085  -0.5000 N.3            1 S1                 0.0000
      9 ****         4.5254   0.4111  -1.6599 C.3            1 S1                 0.0000
     10 ****         6.0069   0.0696  -1.8933 C.3            1 S1                 0.0000
     11 ****         6.8342   0.3058  -0.6213 C.3            1 S1                 0.0000
     12 ****         6.2289  -0.4791   0.5522 C.3            1 S1                 0.0000
     13 ****         4.7430  -0.1303   0.7445 C.3            1 S1                 0.0000
     14 ****         1.8297   0.4889  -1.0798 N.ar           1 S1                 0.0000
     15 ****         0.4867   0.4471  -0.9507 C.ar           1 S1                 0.0000
     16 ****        -3.7610  -0.0882  -0.0668 N.am           1 S1                 0.0000
     17 ****        -4.9970   0.6533  -0.3091 C.3            1 S1                 0.0000
     18 ****        -5.3382   1.5552   0.8963 C.3            1 S1                 0.0000
     19 ****        -5.9687   0.7000   2.0030 C.3            1 S1                 0.0000
     20 ****        -6.8647  -0.6510   1.1482 S.o2           1 S1                 0.0000
     21 ****        -6.3651  -1.9423   1.6444 O.2            1 S1                 0.0000
     22 ****        -8.3049  -0.3532   1.1285 O.2            1 S1                 0.0000
     23 ****        -6.1643  -0.3244  -0.5149 C.3            1 S1                 0.0000
     24 ****        -1.9402  -1.3885   0.4618 H              1 S1                 0.0000
     25 ****         0.1453  -2.0721   1.3158 H              1 S1                 0.0000
     26 ****         2.6142  -2.0058   1.0842 H              1 S1                 0.0000
     27 ****         3.9566   0.1558  -2.5551 H              1 S1                 0.0000
     28 ****         4.4108   1.4839  -1.4991 H              1 S1                 0.0000
     29 ****         6.0966  -0.9740  -2.1983 H              1 S1                 0.0000
     30 ****         6.4018   0.6674  -2.7152 H              1 S1                 0.0000
     31 ****         7.8698   0.0050  -0.7831 H              1 S1                 0.0000
     32 ****         6.8495   1.3703  -0.3843 H              1 S1                 0.0000
     33 ****         6.3305  -1.5494   0.3671 H              1 S1                 0.0000
     34 ****         6.7821  -0.2690   1.4679 H              1 S1                 0.0000
     35 ****         4.6447   0.9084   1.0626 H              1 S1                 0.0000
     36 ****         4.3383  -0.7415   1.5500 H              1 S1                 0.0000
     37 ****        -0.0462   1.1424  -1.5799 H              1 S1                 0.0000
     38 ****        -3.8581  -1.0301   0.2837 H              1 S1                 0.0000
     39 ****        -4.8710   1.2578  -1.2093 H              1 S1                 0.0000
     40 ****        -4.4748   2.1134   1.2601 H              1 S1                 0.0000
     41 ****        -6.0709   2.2958   0.5735 H              1 S1                 0.0000
     42 ****        -5.1981   0.2497   2.6289 H              1 S1                 0.0000
     43 ****        -6.6509   1.2626   2.6404 H              1 S1                 0.0000
     44 ****        -6.9461   0.1413  -1.1155 H              1 S1                 0.0000
     45 ****        -5.8771  -1.2591  -0.9974 H              1 S1                 0.0000
     46 ****        -1.3454   1.8225  -0.8068 LP             1 S1                 0.0000
     47 ****        -3.0460   2.1364  -0.9025 LP             1 S1                 0.0000
     48 ****         4.1858  -1.2524  -0.7678 LP             1 S1                 0.0000
     49 ****         2.2586   1.1429  -1.7030 LP             1 S1                 0.0000
@<TRIPOS>BOND
    1    1    2 2     
    2    2    3 am    
    3    2   16 am    
    4    3    4 1     
    5    3   24 1     
    6    4   15 ar    
    7    4    5 ar    
    8    5    6 ar    
    9    5   25 1     
   10    6    7 ar    
   11    6   26 1     
   12    7    8 1     
   13    7   14 ar    
   14    8   13 1     
   15    8    9 1     
   16    9   10 1     
   17    9   27 1     
   18    9   28 1     
   19   10   11 1     
   20   10   29 1     
   21   10   30 1     
   22   11   12 1     
   23   11   31 1     
   24   11   32 1     
   25   12   13 1     
   26   12   33 1     
   27   12   34 1     
   28   13   35 1     
   29   13   36 1     
   30   14   15 ar    
   31   15   37 1     
   32   16   17 1     
   33   16   38 1     
   34   17   23 1     
   35   17   18 1     
   36   17   39 1     
   37   18   19 1     
   38   18   40 1     
   39   18   41 1     
   40   19   20 1     
   41   19   42 1     
   42   19   43 1     
   43   20   21 2     
   44   20   22 2     
   45   20   23 1     
   46   23   44 1     
   47   23   45 1     
   48    1   46 1     
   49    1   47 1     
   50    8   48 1     
   51   14   49 1     
@<TRIPOS>SUBSTRUCTURE
      1 S1             1
@<TRIPOS>SET
LONE_PAIRS      STATIC     ATOMS    <user>   **** ""
6 46 47 48 49 21 22
DONOR_HYDROGENS      STATIC     ATOMS    <user>   **** ""
2 24 38
ATOM$BLUE        STATIC     ATOMS    COLORGROUP SYSTEM
6 46 47 48 49 21 22
ATOM$RED        STATIC     ATOMS    COLORGROUP SYSTEM
2 24 38
