AV-unprocessed.smi:336|AV-procd|sdf|2371|dock5
  -GOLD-   2262022293D 1   1.00000     0.00000
 Structure written by MMmdl.
 34 36  0  0  0  0  0  0  0  0  1 V2000
  150.7953  140.9051  157.3445 O   0  0  0  0  0  0  0  0  0  0  0  0
  150.4287  141.9504  156.8084 C   0  0  0  0  0  0  0  0  0  0  0  0
  150.5607  143.1795  157.3366 N   0  0  0  0  0  0  0  0  0  0  0  0
  151.1030  143.5463  158.5982 C   0  0  0  0  0  0  0  0  0  0  0  0
  152.0376  142.7658  159.3213 C   0  0  0  0  0  0  0  0  0  0  0  0
  152.4878  143.2305  160.5722 C   0  0  0  0  0  0  0  0  0  0  0  0
  151.9828  144.4522  161.0577 C   0  0  0  0  0  0  0  0  0  0  0  0
  151.0809  145.1989  160.3865 N   0  0  0  0  0  0  0  0  0  0  0  0
  150.6530  144.7466  159.1883 C   0  0  0  0  0  0  0  0  0  0  0  0
  149.8563  142.0055  155.5958 N   0  0  0  0  0  0  0  0  0  0  0  0
  149.5610  140.8757  154.7156 C   0  0  0  0  0  0  0  0  0  0  0  0
  148.1102  140.4192  154.7646 C   0  0  0  0  0  0  0  0  0  0  0  0
  147.4000  139.9318  153.5239 C   0  0  0  0  0  0  0  0  0  0  0  0
  147.0074  141.2494  154.1540 C   0  0  0  0  0  0  0  0  0  0  0  0
  150.5059  139.6961  154.8923 C   0  0  0  0  0  0  0  0  0  0  0  0
  150.3863  138.4628  154.0299 C   0  0  0  0  0  0  0  0  0  0  0  0
  150.0310  138.3965  155.4984 C   0  0  0  0  0  0  0  0  0  0  0  0
  150.2913  143.9494  156.7420 H   0  0  0  0  0  0  0  0  0  0  0  0
  152.4049  141.8208  158.9529 H   0  0  0  0  0  0  0  0  0  0  0  0
  153.2010  142.6601  161.1488 H   0  0  0  0  0  0  0  0  0  0  0  0
  152.3077  144.8366  162.0133 H   0  0  0  0  0  0  0  0  0  0  0  0
  149.9297  145.3688  158.6815 H   0  0  0  0  0  0  0  0  0  0  0  0
  149.5995  142.9169  155.2455 H   0  0  0  0  0  0  0  0  0  0  0  0
  149.7312  141.2650  153.7108 H   0  0  0  0  0  0  0  0  0  0  0  0
  147.8490  139.8929  155.6808 H   0  0  0  0  0  0  0  0  0  0  0  0
  147.9357  139.9716  152.5777 H   0  0  0  0  0  0  0  0  0  0  0  0
  146.7142  139.0947  153.6362 H   0  0  0  0  0  0  0  0  0  0  0  0
  146.0589  141.2911  154.6855 H   0  0  0  0  0  0  0  0  0  0  0  0
  147.2894  142.1609  153.6307 H   0  0  0  0  0  0  0  0  0  0  0  0
  151.5203  139.9860  155.1604 H   0  0  0  0  0  0  0  0  0  0  0  0
  149.5689  138.4227  153.3129 H   0  0  0  0  0  0  0  0  0  0  0  0
  151.3092  137.9817  153.7128 H   0  0  0  0  0  0  0  0  0  0  0  0
  150.7173  137.8718  156.1601 H   0  0  0  0  0  0  0  0  0  0  0  0
  148.9771  138.3064  155.7540 H   0  0  0  0  0  0  0  0  0  0  0  0
  1  2  2  0  0  0  0
  2  3  1  0  0  0  0
  2 10  1  0  0  0  0
  3  4  1  0  0  0  0
  3 18  1  0  0  0  0
  4  9  1  0  0  0  0
  4  5  2  0  0  0  0
  5  6  1  0  0  0  0
  5 19  1  0  0  0  0
  6  7  2  0  0  0  0
  6 20  1  0  0  0  0
  7  8  1  0  0  0  0
  7 21  1  0  0  0  0
  8  9  2  0  0  0  0
  9 22  1  0  0  0  0
 10 11  1  0  0  0  0
 10 23  1  0  0  0  0
 11 12  1  0  0  0  0
 11 15  1  0  0  0  0
 11 24  1  0  0  0  0
 12 14  1  0  0  0  0
 12 13  1  0  0  0  0
 12 25  1  0  0  0  0
 13 14  1  0  0  0  0
 13 26  1  0  0  0  0
 13 27  1  0  0  0  0
 14 28  1  0  0  0  0
 14 29  1  0  0  0  0
 15 17  1  0  0  0  0
 15 16  1  0  0  0  0
 15 30  1  0  0  0  0
 16 17  1  0  0  0  0
 16 31  1  0  0  0  0
 16 32  1  0  0  0  0
 17 33  1  0  0  0  0
 17 34  1  0  0  0  0
M  END
> <s_m_source_file>
AV-unprocessed.smi

> <i_m_source_file_index>
336

> <i_lp_mmshare_version>
43012

> <i_f3d_flags>
0

> <s_epik_input>
W0NIMl0xW0NIMl1bQ0hdMVtDSF0oW0NIXTJbQ0gyXVtDSDJdMilbTkhdQyg9TylbTkhdYzNbY0hdW2NIXVtjSF1uW2NIXTM=

> <s_epik_cmdline>
J2VwaWtfcHl0aG9uJywgJy1waCcsICc3LjAnLCAnLXRuJywgJzgnLCAnLW1hJywgJzIwMCcsICctbWV0YWxfYmluZGluZycsICctaW1hZScsICc8aW5maWxlLm1hZT4nLCAnLW9tYWUnLCAnPG91dGZpbGUubWFlPic=

> <r_epik_Ionization_Penalty>
0.00498677

> <r_epik_Ionization_Penalty_Charging>
0

> <r_epik_Ionization_Penalty_Neutral>
0.00498677

> <r_epik_State_Penalty>
0.00359262

> <r_epik_Charging_Adjusted_Penalty>
0.00359262

> <i_epik_Tot_Q>
0

> <i_epik_Tot_abs_Q>
0

> <r_epik_Metal_State_Penalty>
-0

> <b_epik_Metal_Only>
0

> <s_lp_Force_Field>
OPLS_2005

> <r_lp_Energy>
27.0567

> <b_lp_Chiralities_Consistent>
1

> <s_lp_Variant>
AV-unprocessed.smi:336-1

> <Gold.Version>
5.8.1

> <Gold.Id.Protein>
6NUR|6NUR_protein|mol2

> <Gold.PLP.Fitness>
43.0555

> <Gold.PLP.PLP>
-35.6102

> <Gold.PLP.part.hbond>
-2.0000

> <Gold.PLP.part.metal>
0.0000

> <Gold.PLP.part.buried>
-4.9617

> <Gold.PLP.part.nonpolar>
-30.4201

> <Gold.PLP.part.repulsive>
0.3922

> <Gold.PLP.ligand.clash>
0.0280

> <Gold.PLP.ligand.torsion>
1.6746

> <Gold.PLP.Chemscore.Hbond>
1.8880

> <Gold.PLP.Chemscore.CHOScore>
0.9979

> <Gold.PLP.Chemscore.Metal>
0.0000

> <Gold.Chemscore.Hbonds>
donor molecule, donor type, donor heavy atom, donor atom, acceptor molecule, acceptor atom, score
      L1  H     3    18       P1  8028  0.94
      L1  H    10    23       P1  8028  0.96
      L1  C     9    22       P1  8029  1.00

> <Gold.PLP.Chemscore.Internal.Correction>
2.1647

> <Gold.Rescore>
     Score         DG    S(hbond)    S(metal)    S(lipo)     H(rot)  DE(clash)    DE(int)     intcor
     15.98     -20.33       1.91        0.00     101.45       1.33       0.16       4.19       ----

> <Gold.Chemscore.Fitness>
15.9817

> <Gold.Chemscore.DG>
-20.3278

> <Gold.Chemscore.ZeroCoef>
-5.4800

> <Gold.Chemscore.Hbond>
1.9075

> <Gold.Chemscore.Metal>
0.0000

> <Gold.Chemscore.Lipo>
101.4490

> <Gold.Chemscore.Internal_Hbond>
0.0000

> <Gold.Chemscore.DEClash>
0.1600

> <Gold.Chemscore.DEInternal>
4.1861

> <Gold.Chemscore.Rot>
1.3253

> <Gold.Chemscore.Internal.Correction>
   9.000000E+99

> <Gold.Chemscore.Hbonds>
donor molecule, donor type, donor heavy atom, donor atom, acceptor molecule, acceptor atom, score
      L1  H     3    18       P1  8028  0.90
      L1  H    10    23       P1  8028  0.90

> <Gold.Chemscore.Hbond.Weighted>
-6.3711

> <Gold.Chemscore.Metal.Weighted>
-0.0000

> <Gold.Chemscore.Lipo.Weighted>
-11.8695

> <Gold.Chemscore.Internal_Hbond.Weighted>
0.0000

> <Gold.Chemscore.DEClash.Weighted>
0.1600

> <Gold.Chemscore.DEInternal.Weighted>
4.1861

> <Gold.Chemscore.Rot.Weighted>
3.3928

> <Gold.Chemscore.Internal.Correction.Weighted>
   9.000000E+99

> <Gold.Protein.RotatedTorsions>
[ 6907 6896 6895 6894 ] final  -89.76 input  -60.11 | X-H torsion
[ 7974 7965 7964 7962 ] final  -99.92 input  175.53 | X-H torsion
[ 8008 7997 7996 7995 ] final   61.68 input   59.86 | X-H torsion
[ 10167 10162 10161 10158 ] final  -60.43 input  -65.29 | X-H torsion
[ 10718 10713 10712 10709 ] final  -51.49 input   66.30 | X-H torsion
[ 10763 10752 10751 10750 ] final -101.46 input  -60.55 | X-H torsion
[ 11005 11000 10999 10996 ] final  130.67 input  -57.11 | X-H torsion

> <Gold.Protein.ActiveResidues>
 VAL166  LYS551  ARG553  GLY616  TRP617  ASP618  TYR619  PRO620  LYS621  CYS622 
 ASP623  PHE694  ASN695  SER759  ASP760  ASP761  ALA762  ILE779  LEU786  VAL792 
 PHE793  MET794  SER795  GLU796  ALA797  LYS798  CYS799  TRP800  GLU811  SER814 

> <Gold.Protein.RotatedAtoms>
  150.6876  134.2537  159.4520 H   0  0  0  0  0  0  0  0  0  0  0  0  # atno 6907 bound_to 6896
  152.0472  134.9673  160.0583 H   0  0  0  0  0  0  0  0  0  0  0  0  # atno 6908 bound_to 6896
  152.1151  133.4287  159.4686 H   0  0  0  0  0  0  0  0  0  0  0  0  # atno 6909 bound_to 6896
  145.3013  140.9378  143.2822 H   0  0  0  0  0  0  0  0  0  0  0  0  # atno 7974 bound_to 7965
  155.6022  140.3494  155.4597 H   0  0  0  0  0  0  0  0  0  0  0  0  # atno 8008 bound_to 7997
  156.0219  140.1255  157.0373 H   0  0  0  0  0  0  0  0  0  0  0  0  # atno 8009 bound_to 7997
  154.4318  140.1061  156.5962 H   0  0  0  0  0  0  0  0  0  0  0  0  # atno 8010 bound_to 7997
  140.6072  143.2376  151.5794 H   0  0  0  0  0  0  0  0  0  0  0  0  # atno 10167 bound_to 10162
  156.1705  130.4149  149.9655 H   0  0  0  0  0  0  0  0  0  0  0  0  # atno 10718 bound_to 10713
  154.7660  135.4897  153.9554 H   0  0  0  0  0  0  0  0  0  0  0  0  # atno 10763 bound_to 10752
  153.1308  135.6752  153.9189 H   0  0  0  0  0  0  0  0  0  0  0  0  # atno 10764 bound_to 10752
  153.8893  135.3123  155.3426 H   0  0  0  0  0  0  0  0  0  0  0  0  # atno 10765 bound_to 10752
  139.9685  134.9584  156.9327 H   0  0  0  0  0  0  0  0  0  0  0  0  # atno 11005 bound_to 11000
  144.9091  139.4551  143.6595 LP  0  0  0  0  0  0  0  0  0  0  0  0  # atno 17320 bound_to 7965
  146.3151  139.7889  142.8990 LP  0  0  0  0  0  0  0  0  0  0  0  0  # atno 17321 bound_to 7965
  139.5333  144.2852  152.1197 LP  0  0  0  0  0  0  0  0  0  0  0  0  # atno 17342 bound_to 10162
  140.2044  144.4626  150.6416 LP  0  0  0  0  0  0  0  0  0  0  0  0  # atno 17343 bound_to 10162
  156.7456  130.9096  151.3634 LP  0  0  0  0  0  0  0  0  0  0  0  0  # atno 17370 bound_to 10713
  157.6799  130.9130  150.0241 LP  0  0  0  0  0  0  0  0  0  0  0  0  # atno 17371 bound_to 10713
  140.5344  134.0782  155.7324 LP  0  0  0  0  0  0  0  0  0  0  0  0  # atno 17394 bound_to 11000
  141.1365  133.9212  157.2422 LP  0  0  0  0  0  0  0  0  0  0  0  0  # atno 17395 bound_to 11000

$$$$
