AV-unprocessed.smi:2417|AV-procd|sdf|9549|dock4
  -GOLD-   2272013183D 1   1.00000     0.00000
 Structure written by MMmdl.
 38 39  0  0  0  0  0  0  0  0  1 V2000
  145.6840  140.3165  156.6516 C   0  0  0  0  0  0  0  0  0  0  0  0
  147.0706  140.1188  156.0650 C   0  0  0  0  0  0  0  0  0  0  0  0
  147.8158  139.0722  156.6160 N   0  0  0  0  0  0  0  0  0  0  0  0
  149.0091  138.8314  156.1804 C   0  0  0  0  0  0  0  0  0  0  0  0
  149.5869  139.5940  155.1526 N   0  0  0  0  0  0  0  0  0  0  0  0
  150.9520  139.2181  154.7500 C   0  0  0  0  0  0  0  0  0  0  0  0
  151.9043  139.1028  155.9618 C   0  0  1  0  0  0  0  0  0  0  0  0
  153.2296  138.8750  155.5273 O   0  0  0  0  0  0  0  0  0  0  0  0
  151.9120  140.3614  156.8449 C   0  0  0  0  0  0  0  0  0  0  0  0
  152.8663  140.2141  157.8901 O   0  0  0  0  0  0  0  0  0  0  0  0
  152.8130  141.0910  158.9519 C   0  0  0  0  0  0  0  0  0  0  0  0
  153.6148  140.7881  160.0719 C   0  0  0  0  0  0  0  0  0  0  0  0
  153.6250  141.6304  161.2003 C   0  0  0  0  0  0  0  0  0  0  0  0
  152.8275  142.7894  161.2198 C   0  0  0  0  0  0  0  0  0  0  0  0
  152.8356  143.6011  162.3034 F   0  0  0  0  0  0  0  0  0  0  0  0
  152.0213  143.1031  160.1100 C   0  0  0  0  0  0  0  0  0  0  0  0
  152.0118  142.2608  158.9811 C   0  0  0  0  0  0  0  0  0  0  0  0
  148.9333  140.6386  154.5668 C   0  0  0  0  0  0  0  0  0  0  0  0
  149.4578  141.3124  153.6777 O   0  0  0  0  0  0  0  0  0  0  0  0
  147.5758  140.9001  155.0717 C   0  0  0  0  0  0  0  0  0  0  0  0
  146.8132  142.0565  154.4370 C   0  0  0  0  0  0  0  0  0  0  0  0
  144.9219  140.2034  155.8801 H   0  0  0  0  0  0  0  0  0  0  0  0
  145.5934  141.3112  157.0887 H   0  0  0  0  0  0  0  0  0  0  0  0
  145.4762  139.5877  157.4358 H   0  0  0  0  0  0  0  0  0  0  0  0
  149.6350  138.0322  156.5816 H   0  0  0  0  0  0  0  0  0  0  0  0
  150.9688  138.2989  154.1603 H   0  0  0  0  0  0  0  0  0  0  0  0
  151.3294  139.9798  154.0651 H   0  0  0  0  0  0  0  0  0  0  0  0
  151.6186  138.2584  156.5902 H   0  0  0  0  0  0  0  0  0  0  0  0
  153.3121  137.9652  155.2847 H   0  0  0  0  0  0  0  0  0  0  0  0
  152.1904  141.2165  156.2269 H   0  0  0  0  0  0  0  0  0  0  0  0
  150.9148  140.5530  157.2455 H   0  0  0  0  0  0  0  0  0  0  0  0
  154.2299  139.9002  160.0658 H   0  0  0  0  0  0  0  0  0  0  0  0
  154.2452  141.3865  162.0502 H   0  0  0  0  0  0  0  0  0  0  0  0
  151.4084  143.9923  160.1238 H   0  0  0  0  0  0  0  0  0  0  0  0
  151.3803  142.5351  158.1500 H   0  0  0  0  0  0  0  0  0  0  0  0
  147.3543  142.9909  154.5894 H   0  0  0  0  0  0  0  0  0  0  0  0
  145.8124  142.1871  154.8456 H   0  0  0  0  0  0  0  0  0  0  0  0
  146.7107  141.8959  153.3633 H   0  0  0  0  0  0  0  0  0  0  0  0
  1  2  1  0  0  0  0
  1 22  1  0  0  0  0
  1 23  1  0  0  0  0
  1 24  1  0  0  0  0
  2 20  2  0  0  0  0
  2  3  1  0  0  0  0
  3  4  2  0  0  0  0
  4  5  1  0  0  0  0
  4 25  1  0  0  0  0
  5  6  1  0  0  0  0
  5 18  1  0  0  0  0
  6  7  1  0  0  0  0
  6 26  1  0  0  0  0
  6 27  1  0  0  0  0
  7  8  1  0  0  0  0
  7  9  1  0  0  0  0
  7 28  1  0  0  0  0
  8 29  1  0  0  0  0
  9 10  1  0  0  0  0
  9 30  1  0  0  0  0
  9 31  1  0  0  0  0
 10 11  1  0  0  0  0
 11 17  1  0  0  0  0
 11 12  2  0  0  0  0
 12 13  1  0  0  0  0
 12 32  1  0  0  0  0
 13 14  2  0  0  0  0
 13 33  1  0  0  0  0
 14 15  1  0  0  0  0
 14 16  1  0  0  0  0
 16 17  2  0  0  0  0
 16 34  1  0  0  0  0
 17 35  1  0  0  0  0
 18 19  2  0  0  0  0
 18 20  1  0  0  0  0
 20 21  1  0  0  0  0
 21 36  1  0  0  0  0
 21 37  1  0  0  0  0
 21 38  1  0  0  0  0
M  END
> <s_m_source_file>
AV-unprocessed.smi

> <i_m_source_file_index>
2417

> <i_lp_mmshare_version>
43012

> <i_f3d_flags>
0

> <s_epik_input>
W0NIM11jMW5bY0hdbihjKD1PKWMxW0NIM10pW0NIMl1bQ0BIXShbT0hdKVtDSDJdT2MyW2NIXVtjSF1jKEYpW2NIXVtjSF0y

> <s_epik_cmdline>
J2VwaWtfcHl0aG9uJywgJy1waCcsICc3LjAnLCAnLXRuJywgJzgnLCAnLW1hJywgJzIwMCcsICctbWV0YWxfYmluZGluZycsICctaW1hZScsICc8aW5maWxlLm1hZT4nLCAnLW9tYWUnLCAnPG91dGZpbGUubWFlPic=

> <r_lp_tautomer_probability>
1

> <r_epik_Ionization_Penalty>
3.65384e-05

> <r_epik_Ionization_Penalty_Charging>
8.23007e-08

> <r_epik_Ionization_Penalty_Neutral>
3.64561e-05

> <r_epik_State_Penalty>
-0

> <r_epik_Charging_Adjusted_Penalty>
8.23007e-08

> <i_epik_Tot_Q>
0

> <i_epik_Tot_abs_Q>
0

> <r_epik_Metal_State_Penalty>
-0

> <b_epik_Metal_Only>
0

> <s_lp_Force_Field>
OPLS_2005

> <r_lp_Energy>
22.9041

> <b_lp_Chiralities_Consistent>
1

> <s_lp_Variant>
AV-unprocessed.smi:2417-2

> <Gold.Version>
5.8.1

> <Gold.Id.Protein>
6NUR|6NUR_protein|mol2

> <Gold.PLP.Fitness>
45.8804

> <Gold.PLP.PLP>
-40.4527

> <Gold.PLP.part.hbond>
-4.0000

> <Gold.PLP.part.metal>
0.0000

> <Gold.PLP.part.buried>
-3.2711

> <Gold.PLP.part.nonpolar>
-34.5636

> <Gold.PLP.part.repulsive>
1.8045

> <Gold.PLP.ligand.clash>
0.0000

> <Gold.PLP.ligand.torsion>
0.2626

> <Gold.PLP.Chemscore.Hbond>
1.9550

> <Gold.PLP.Chemscore.CHOScore>
0.0000

> <Gold.PLP.Chemscore.Metal>
0.0000

> <Gold.Chemscore.Hbonds>
donor molecule, donor type, donor heavy atom, donor atom, acceptor molecule, acceptor atom, score
      P1  H  7989  7998       L1    19  0.13
      P1  H  7997  8008       L1     8  1.00
      P1  H  8011  8017       L1    19  0.88

> <Gold.PLP.Chemscore.Internal.Correction>
0.0880

> <Gold.Rescore>
     Score         DG    S(hbond)    S(metal)    S(lipo)     H(rot)  DE(clash)    DE(int)     intcor
     14.63     -16.46       1.96        0.00      93.32       2.54       1.51       0.33       ----

> <Gold.Chemscore.Fitness>
14.6292

> <Gold.Chemscore.DG>
-16.4641

> <Gold.Chemscore.ZeroCoef>
-5.4800

> <Gold.Chemscore.Hbond>
1.9631

> <Gold.Chemscore.Metal>
0.0000

> <Gold.Chemscore.Lipo>
93.3181

> <Gold.Chemscore.Internal_Hbond>
0.0000

> <Gold.Chemscore.DEClash>
1.5071

> <Gold.Chemscore.DEInternal>
0.3279

> <Gold.Chemscore.Rot>
2.5355

> <Gold.Chemscore.Internal.Correction>
   9.000000E+99

> <Gold.Chemscore.Hbonds>
donor molecule, donor type, donor heavy atom, donor atom, acceptor molecule, acceptor atom, score
      P1  H  7989  7998       L1    19  0.11
      P1  H  7997  8008       L1     8  0.75
      P1  H  8011  8017       L1    19  0.87

> <Gold.Chemscore.Hbond.Weighted>
-6.5567

> <Gold.Chemscore.Metal.Weighted>
-0.0000

> <Gold.Chemscore.Lipo.Weighted>
-10.9182

> <Gold.Chemscore.Internal_Hbond.Weighted>
0.0000

> <Gold.Chemscore.DEClash.Weighted>
1.5071

> <Gold.Chemscore.DEInternal.Weighted>
0.3279

> <Gold.Chemscore.Rot.Weighted>
6.4908

> <Gold.Chemscore.Internal.Correction.Weighted>
   9.000000E+99

> <Gold.Protein.RotatedTorsions>
[ 6907 6896 6895 6894 ] final    3.99 input  -60.11 | X-H torsion
[ 7974 7965 7964 7962 ] final   41.63 input  175.53 | X-H torsion
[ 8008 7997 7996 7995 ] final  -36.58 input   59.86 | X-H torsion
[ 10167 10162 10161 10158 ] final -173.33 input  -65.29 | X-H torsion
[ 10718 10713 10712 10709 ] final  124.52 input   66.30 | X-H torsion
[ 10763 10752 10751 10750 ] final   79.60 input  -60.55 | X-H torsion
[ 11005 11000 10999 10996 ] final  101.29 input  -57.11 | X-H torsion

> <Gold.Protein.ActiveResidues>
 VAL166  LYS551  ARG553  GLY616  TRP617  ASP618  TYR619  PRO620  LYS621  CYS622 
 ASP623  PHE694  ASN695  SER759  ASP760  ASP761  ALA762  ILE779  LEU786  VAL792 
 PHE793  MET794  SER795  GLU796  ALA797  LYS798  CYS799  TRP800  GLU811  SER814 

> <Gold.Protein.RotatedAtoms>
  151.6340  135.1020  160.0127 H   0  0  0  0  0  0  0  0  0  0  0  0  # atno 6907 bound_to 6896
  152.4091  133.6930  159.6390 H   0  0  0  0  0  0  0  0  0  0  0  0  # atno 6908 bound_to 6896
  150.7982  133.8574  159.3263 H   0  0  0  0  0  0  0  0  0  0  0  0  # atno 6909 bound_to 6896
  146.0807  139.5393  142.9539 H   0  0  0  0  0  0  0  0  0  0  0  0  # atno 7974 bound_to 7965
  154.4070  140.1627  156.2398 H   0  0  0  0  0  0  0  0  0  0  0  0  # atno 8008 bound_to 7997
  155.9211  140.3421  155.6151 H   0  0  0  0  0  0  0  0  0  0  0  0  # atno 8009 bound_to 7997
  155.7221  140.0769  157.2317 H   0  0  0  0  0  0  0  0  0  0  0  0  # atno 8010 bound_to 7997
  139.5694  144.1677  152.1362 H   0  0  0  0  0  0  0  0  0  0  0  0  # atno 10167 bound_to 10162
  157.5578  131.1091  150.8590 H   0  0  0  0  0  0  0  0  0  0  0  0  # atno 10718 bound_to 10713
  153.0965  135.4834  154.8789 H   0  0  0  0  0  0  0  0  0  0  0  0  # atno 10763 bound_to 10752
  154.7331  135.3064  154.8860 H   0  0  0  0  0  0  0  0  0  0  0  0  # atno 10764 bound_to 10752
  153.9490  135.6825  153.4797 H   0  0  0  0  0  0  0  0  0  0  0  0  # atno 10765 bound_to 10752
  139.8773  134.9177  156.4884 H   0  0  0  0  0  0  0  0  0  0  0  0  # atno 11005 bound_to 11000
  145.6223  141.0320  143.1908 LP  0  0  0  0  0  0  0  0  0  0  0  0  # atno 17320 bound_to 7965
  144.7291  139.7780  143.7354 LP  0  0  0  0  0  0  0  0  0  0  0  0  # atno 17321 bound_to 7965
  140.1207  144.5376  150.6865 LP  0  0  0  0  0  0  0  0  0  0  0  0  # atno 17342 bound_to 10162
  140.6979  143.2415  151.4950 LP  0  0  0  0  0  0  0  0  0  0  0  0  # atno 17343 bound_to 10162
  156.9097  130.5276  149.5280 LP  0  0  0  0  0  0  0  0  0  0  0  0  # atno 17370 bound_to 10713
  156.0635  130.5683  150.9241 LP  0  0  0  0  0  0  0  0  0  0  0  0  # atno 17371 bound_to 10713
  140.8676  133.8012  155.9330 LP  0  0  0  0  0  0  0  0  0  0  0  0  # atno 17394 bound_to 11000
  140.8985  134.2407  157.5055 LP  0  0  0  0  0  0  0  0  0  0  0  0  # atno 17395 bound_to 11000

$$$$
