AV-unprocessed.smi:2278|AV-procd|sdf|9180|dock5
  -GOLD-   2272012393D 1   1.00000     0.00000
 Structure written by MMmdl.
 46 47  0  0  0  0  0  0  0  0  2 V2000
  147.0327  136.0835  162.7753 C   0  0  0  0  0  0  0  0  0  0  0  0
  147.6068  135.9414  161.3769 C   0  0  0  0  0  0  0  0  0  0  0  0
  147.8145  137.1380  160.6847 N   0  0  0  0  0  0  0  0  0  0  0  0
  148.2978  137.1146  159.4861 C   0  0  0  0  0  0  0  0  0  0  0  0
  148.6256  135.9079  158.8469 N   0  0  0  0  0  0  0  0  0  0  0  0
  149.1606  136.0161  157.4792 C   0  0  0  0  0  0  0  0  0  0  0  0
  148.2452  135.3318  156.4383 C   0  0  1  0  0  0  0  0  0  0  0  0
  146.9009  135.6287  156.7625 O   0  0  0  0  0  0  0  0  0  0  0  0
  148.5042  135.8710  155.0166 C   0  0  0  0  0  0  0  0  0  0  0  0
  148.0056  134.9534  153.9600 N   0  3  2  0  0  0  0  0  0  0  0  0
  146.5215  134.9122  153.8713 C   0  0  0  0  0  0  0  0  0  0  0  0
  146.0605  134.0539  152.6817 C   0  0  0  0  0  0  0  0  0  0  0  0
  146.6287  132.6277  152.7693 C   0  0  1  0  0  0  0  0  0  0  0  0
  146.1972  131.7693  151.5720 C   0  0  0  0  0  0  0  0  0  0  0  0
  148.1596  132.7005  152.8974 C   0  0  0  0  0  0  0  0  0  0  0  0
  148.5806  133.5890  154.0804 C   0  0  0  0  0  0  0  0  0  0  0  0
  148.4521  134.6955  159.4491 C   0  0  0  0  0  0  0  0  0  0  0  0
  148.7336  133.6430  158.8721 O   0  0  0  0  0  0  0  0  0  0  0  0
  147.9027  134.7381  160.8135 C   0  0  0  0  0  0  0  0  0  0  0  0
  147.6945  133.4028  161.5171 C   0  0  0  0  0  0  0  0  0  0  0  0
  147.7048  135.6430  163.5124 H   0  0  0  0  0  0  0  0  0  0  0  0
  146.0656  135.5841  162.8425 H   0  0  0  0  0  0  0  0  0  0  0  0
  146.8876  137.1315  163.0409 H   0  0  0  0  0  0  0  0  0  0  0  0
  148.4750  138.0200  158.9028 H   0  0  0  0  0  0  0  0  0  0  0  0
  149.3654  137.0499  157.1917 H   0  0  0  0  0  0  0  0  0  0  0  0
  150.1429  135.5401  157.4684 H   0  0  0  0  0  0  0  0  0  0  0  0
  148.3867  134.2521  156.4644 H   0  0  0  0  0  0  0  0  0  0  0  0
  146.3526  135.3885  156.0306 H   0  0  0  0  0  0  0  0  0  0  0  0
  148.0243  136.8469  154.9228 H   0  0  0  0  0  0  0  0  0  0  0  0
  149.5701  136.0436  154.8584 H   0  0  0  0  0  0  0  0  0  0  0  0
  146.1117  134.5128  154.8003 H   0  0  0  0  0  0  0  0  0  0  0  0
  146.1164  135.9171  153.7577 H   0  0  0  0  0  0  0  0  0  0  0  0
  144.9706  134.0207  152.6555 H   0  0  0  0  0  0  0  0  0  0  0  0
  146.3774  134.5237  151.7493 H   0  0  0  0  0  0  0  0  0  0  0  0
  146.2336  132.1593  153.6722 H   0  0  0  0  0  0  0  0  0  0  0  0
  146.5636  132.1842  150.6324 H   0  0  0  0  0  0  0  0  0  0  0  0
  145.1105  131.7058  151.5066 H   0  0  0  0  0  0  0  0  0  0  0  0
  146.5809  130.7525  151.6592 H   0  0  0  0  0  0  0  0  0  0  0  0
  148.5718  131.6993  153.0270 H   0  0  0  0  0  0  0  0  0  0  0  0
  148.5903  133.0945  151.9757 H   0  0  0  0  0  0  0  0  0  0  0  0
  149.6694  133.6491  154.1094 H   0  0  0  0  0  0  0  0  0  0  0  0
  148.2619  133.1401  155.0227 H   0  0  0  0  0  0  0  0  0  0  0  0
  147.0114  132.7771  160.9421 H   0  0  0  0  0  0  0  0  0  0  0  0
  147.2791  133.5047  162.5186 H   0  0  0  0  0  0  0  0  0  0  0  0
  148.6439  132.8740  161.6079 H   0  0  0  0  0  0  0  0  0  0  0  0
  148.3466  135.3240  153.0842 H   0  0  0  0  0  0  0  0  0  0  0  0
  1  2  1  0  0  0  0
  1 21  1  0  0  0  0
  1 22  1  0  0  0  0
  1 23  1  0  0  0  0
  2 19  2  0  0  0  0
  2  3  1  0  0  0  0
  3  4  2  0  0  0  0
  4  5  1  0  0  0  0
  4 24  1  0  0  0  0
  5  6  1  0  0  0  0
  5 17  1  0  0  0  0
  6  7  1  0  0  0  0
  6 25  1  0  0  0  0
  6 26  1  0  0  0  0
  7  8  1  0  0  0  0
  7  9  1  0  0  0  0
  7 27  1  0  0  0  0
  8 28  1  0  0  0  0
  9 10  1  0  0  0  0
  9 29  1  0  0  0  0
  9 30  1  0  0  0  0
 10 16  1  0  0  0  0
 10 11  1  0  0  0  0
 10 46  1  0  0  0  0
 11 12  1  0  0  0  0
 11 31  1  0  0  0  0
 11 32  1  0  0  0  0
 12 13  1  0  0  0  0
 12 33  1  0  0  0  0
 12 34  1  0  0  0  0
 13 14  1  0  0  0  0
 13 15  1  0  0  0  0
 13 35  1  0  0  0  0
 14 36  1  0  0  0  0
 14 37  1  0  0  0  0
 14 38  1  0  0  0  0
 15 16  1  0  0  0  0
 15 39  1  0  0  0  0
 15 40  1  0  0  0  0
 16 41  1  0  0  0  0
 16 42  1  0  0  0  0
 17 18  2  0  0  0  0
 17 19  1  0  0  0  0
 19 20  1  0  0  0  0
 20 43  1  0  0  0  0
 20 44  1  0  0  0  0
 20 45  1  0  0  0  0
M  CHG  1  10   1
M  END
> <s_m_source_file>
AV-unprocessed.smi

> <i_m_source_file_index>
2278

> <i_lp_mmshare_version>
43012

> <i_f3d_flags>
0

> <s_epik_input>
W0NIM11jMW5bY0hdbihjKD1PKWMxW0NIM10pW0NIMl1bQ0BIXShbT0hdKVtDSDJdTjJbQ0gyXVtDSDJdW0NIXShbQ0gzXSlbQ0gyXVtDSDJdMg==

> <s_epik_cmdline>
J2VwaWtfcHl0aG9uJywgJy1waCcsICc3LjAnLCAnLXRuJywgJzgnLCAnLW1hJywgJzIwMCcsICctbWV0YWxfYmluZGluZycsICctaW1hZScsICc8aW5maWxlLm1hZT4nLCAnLW9tYWUnLCAnPG91dGZpbGUubWFlPic=

> <r_lp_tautomer_probability>
1

> <r_epik_Ionization_Penalty>
0.00139489

> <r_epik_Ionization_Penalty_Charging>
0.00136819

> <r_epik_Ionization_Penalty_Neutral>
2.66975e-05

> <r_epik_State_Penalty>
0.000910892

> <r_epik_Charging_Adjusted_Penalty>
0.00227908

> <i_epik_Tot_Q>
1

> <i_epik_Tot_abs_Q>
1

> <r_epik_Metal_State_Penalty>
-0

> <b_epik_Metal_Only>
0

> <s_lp_Force_Field>
OPLS_2005

> <r_lp_Energy>
29.3235

> <b_lp_Chiralities_Consistent>
1

> <s_lp_Variant>
AV-unprocessed.smi:2278-2

> <Gold.Version>
5.8.1

> <Gold.Id.Protein>
6NUR|6NUR_protein|mol2

> <Gold.PLP.Fitness>
41.5347

> <Gold.PLP.PLP>
-29.2705

> <Gold.PLP.part.hbond>
-4.0000

> <Gold.PLP.part.metal>
0.0000

> <Gold.PLP.part.buried>
-1.0717

> <Gold.PLP.part.nonpolar>
-24.0102

> <Gold.PLP.part.repulsive>
0.0000

> <Gold.PLP.ligand.clash>
0.0000

> <Gold.PLP.ligand.torsion>
0.4176

> <Gold.PLP.Chemscore.Hbond>
4.3458

> <Gold.PLP.Chemscore.CHOScore>
0.0000

> <Gold.PLP.Chemscore.Metal>
0.0000

> <Gold.Chemscore.Hbonds>
donor molecule, donor type, donor heavy atom, donor atom, acceptor molecule, acceptor atom, score
      L1  H    10    46       P1  7948  2.00
      P1  H  6896  6907       L1    18  0.56
      P1  H  6931  6943       L1     3  0.80
      P1  H  6934  6947       L1     3  0.86

> <Gold.PLP.Chemscore.Internal.Correction>
0.0621

> <Gold.Rescore>
     Score         DG    S(hbond)    S(metal)    S(lipo)     H(rot)  DE(clash)    DE(int)     intcor
     11.90     -14.63       2.04        0.00      68.07       2.20       0.02       2.71       ----

> <Gold.Chemscore.Fitness>
11.8994

> <Gold.Chemscore.DG>
-14.6311

> <Gold.Chemscore.ZeroCoef>
-5.4800

> <Gold.Chemscore.Hbond>
2.0407

> <Gold.Chemscore.Metal>
0.0000

> <Gold.Chemscore.Lipo>
68.0666

> <Gold.Chemscore.Internal_Hbond>
0.0000

> <Gold.Chemscore.DEClash>
0.0203

> <Gold.Chemscore.DEInternal>
2.7114

> <Gold.Chemscore.Rot>
2.1986

> <Gold.Chemscore.Internal.Correction>
   9.000000E+99

> <Gold.Chemscore.Hbonds>
donor molecule, donor type, donor heavy atom, donor atom, acceptor molecule, acceptor atom, score
      L1  H    10    46       P1  7948  0.97
      P1  H  6896  6907       L1    18  0.04
      P1  H  6931  6943       L1     3  0.29
      P1  H  6934  6947       L1     3  0.37

> <Gold.Chemscore.Hbond.Weighted>
-6.8158

> <Gold.Chemscore.Metal.Weighted>
-0.0000

> <Gold.Chemscore.Lipo.Weighted>
-7.9638

> <Gold.Chemscore.Internal_Hbond.Weighted>
0.0000

> <Gold.Chemscore.DEClash.Weighted>
0.0203

> <Gold.Chemscore.DEInternal.Weighted>
2.7114

> <Gold.Chemscore.Rot.Weighted>
5.6285

> <Gold.Chemscore.Internal.Correction.Weighted>
   9.000000E+99

> <Gold.Protein.RotatedTorsions>
[ 6907 6896 6895 6894 ] final -116.15 input  -60.11 | X-H torsion
[ 7974 7965 7964 7962 ] final   63.83 input  175.53 | X-H torsion
[ 8008 7997 7996 7995 ] final -108.01 input   59.86 | X-H torsion
[ 10167 10162 10161 10158 ] final  -47.88 input  -65.29 | X-H torsion
[ 10718 10713 10712 10709 ] final   36.95 input   66.30 | X-H torsion
[ 10763 10752 10751 10750 ] final    8.77 input  -60.55 | X-H torsion
[ 11005 11000 10999 10996 ] final  -48.32 input  -57.11 | X-H torsion

> <Gold.Protein.ActiveResidues>
 VAL166  LYS551  ARG553  GLY616  TRP617  ASP618  TYR619  PRO620  LYS621  CYS622 
 ASP623  PHE694  ASN695  SER759  ASP760  ASP761  ALA762  ILE779  LEU786  VAL792 
 PHE793  MET794  SER795  GLU796  ALA797  LYS798  CYS799  TRP800  GLU811  SER814 

> <Gold.Protein.RotatedAtoms>
  150.8033  133.8558  159.3217 H   0  0  0  0  0  0  0  0  0  0  0  0  # atno 6907 bound_to 6896
  151.6364  135.1016  160.0142 H   0  0  0  0  0  0  0  0  0  0  0  0  # atno 6908 bound_to 6896
  152.4122  133.6942  159.6443 H   0  0  0  0  0  0  0  0  0  0  0  0  # atno 6909 bound_to 6896
  145.8573  139.3292  143.0839 H   0  0  0  0  0  0  0  0  0  0  0  0  # atno 7974 bound_to 7965
  154.9378  140.0403  157.2081 H   0  0  0  0  0  0  0  0  0  0  0  0  # atno 8008 bound_to 7997
  154.8098  140.2866  155.5840 H   0  0  0  0  0  0  0  0  0  0  0  0  # atno 8009 bound_to 7997
  156.2970  140.2539  156.2983 H   0  0  0  0  0  0  0  0  0  0  0  0  # atno 8010 bound_to 7997
  140.6756  143.2765  151.3990 H   0  0  0  0  0  0  0  0  0  0  0  0  # atno 10167 bound_to 10162
  157.3410  130.7548  149.6912 H   0  0  0  0  0  0  0  0  0  0  0  0  # atno 10718 bound_to 10713
  153.2214  135.6881  153.7996 H   0  0  0  0  0  0  0  0  0  0  0  0  # atno 10763 bound_to 10752
  153.7194  135.3270  155.3264 H   0  0  0  0  0  0  0  0  0  0  0  0  # atno 10764 bound_to 10752
  154.8271  135.4609  154.1062 H   0  0  0  0  0  0  0  0  0  0  0  0  # atno 10765 bound_to 10752
  141.0694  133.6684  156.3424 H   0  0  0  0  0  0  0  0  0  0  0  0  # atno 11005 bound_to 11000
  145.9288  140.9063  143.0367 LP  0  0  0  0  0  0  0  0  0  0  0  0  # atno 17320 bound_to 7965
  144.6727  140.1390  143.7438 LP  0  0  0  0  0  0  0  0  0  0  0  0  # atno 17321 bound_to 7965
  139.6046  144.1223  152.2235 LP  0  0  0  0  0  0  0  0  0  0  0  0  # atno 17342 bound_to 10162
  140.0618  144.5850  150.7257 LP  0  0  0  0  0  0  0  0  0  0  0  0  # atno 17343 bound_to 10162
  155.9708  130.4167  150.4246 LP  0  0  0  0  0  0  0  0  0  0  0  0  # atno 17370 bound_to 10713
  157.2294  131.0500  151.2501 LP  0  0  0  0  0  0  0  0  0  0  0  0  # atno 17371 bound_to 10713
  140.5706  134.5844  157.5456 LP  0  0  0  0  0  0  0  0  0  0  0  0  # atno 17394 bound_to 11000
  139.9508  134.7621  156.0453 LP  0  0  0  0  0  0  0  0  0  0  0  0  # atno 17395 bound_to 11000

$$$$
