AV-unprocessed.smi:1368|AV-procd|sdf|5575|dock4
  -GOLD-   22720 5173D 1   1.00000     0.00000
 Structure written by MMmdl.
 46 48  0  0  0  0  0  0  0  0  1 V2000
  140.5134  146.5374  155.1100 C   0  0  0  0  0  0  0  0  0  0  0  0
  141.5102  145.4300  155.4389 C   0  0  0  0  0  0  0  0  0  0  0  0
  141.3938  144.8114  156.4957 O   0  0  0  0  0  0  0  0  0  0  0  0
  142.4819  145.2303  154.5288 N   0  0  0  0  0  0  0  0  0  0  0  0
  143.5388  144.2789  154.5406 C   0  0  0  0  0  0  0  0  0  0  0  0
  143.4806  143.2645  155.5173 C   0  0  0  0  0  0  0  0  0  0  0  0
  144.4979  142.2954  155.6041 C   0  0  0  0  0  0  0  0  0  0  0  0
  145.5985  142.3228  154.7249 C   0  0  0  0  0  0  0  0  0  0  0  0
  146.5480  141.3352  154.8780 O   0  0  0  0  0  0  0  0  0  0  0  0
  147.8934  141.6367  154.5318 C   0  0  0  0  0  0  0  0  0  0  0  0
  148.7973  141.3607  155.7437 C   0  0  2  0  0  0  0  0  0  0  0  0
  148.2783  142.0627  156.8564 O   0  0  0  0  0  0  0  0  0  0  0  0
  150.2483  141.8166  155.4875 C   0  0  0  0  0  0  0  0  0  0  0  0
  151.1502  141.4906  156.5847 N   0  0  0  0  0  0  0  0  0  0  0  0
  151.8980  140.3713  156.7456 C   0  0  0  0  0  0  0  0  0  0  0  0
  151.8843  139.2611  155.7432 C   0  0  0  0  0  0  0  0  0  0  0  0
  152.6478  140.3254  157.8468 N   0  0  0  0  0  0  0  0  0  0  0  0
  152.3610  141.5305  158.4585 C   0  0  0  0  0  0  0  0  0  0  0  0
  152.8419  142.0847  159.6667 C   0  0  0  0  0  0  0  0  0  0  0  0
  152.3990  143.3528  160.0965 C   0  0  0  0  0  0  0  0  0  0  0  0
  151.4706  144.0834  159.3268 C   0  0  0  0  0  0  0  0  0  0  0  0
  150.9802  143.5505  158.1193 C   0  0  0  0  0  0  0  0  0  0  0  0
  151.4259  142.2846  157.6940 C   0  0  0  0  0  0  0  0  0  0  0  0
  145.6661  143.3516  153.7527 C   0  0  0  0  0  0  0  0  0  0  0  0
  144.6492  144.3221  153.6642 C   0  0  0  0  0  0  0  0  0  0  0  0
  140.4050  146.6641  154.0323 H   0  0  0  0  0  0  0  0  0  0  0  0
  140.8473  147.4835  155.5368 H   0  0  0  0  0  0  0  0  0  0  0  0
  139.5319  146.3026  155.5230 H   0  0  0  0  0  0  0  0  0  0  0  0
  142.4938  145.8764  153.7530 H   0  0  0  0  0  0  0  0  0  0  0  0
  142.6487  143.2209  156.2054 H   0  0  0  0  0  0  0  0  0  0  0  0
  144.4327  141.5216  156.3552 H   0  0  0  0  0  0  0  0  0  0  0  0
  148.1879  140.9844  153.7079 H   0  0  0  0  0  0  0  0  0  0  0  0
  148.0026  142.6694  154.1948 H   0  0  0  0  0  0  0  0  0  0  0  0
  148.7913  140.2936  155.9676 H   0  0  0  0  0  0  0  0  0  0  0  0
  148.4926  142.9781  156.7590 H   0  0  0  0  0  0  0  0  0  0  0  0
  150.6316  141.3619  154.5738 H   0  0  0  0  0  0  0  0  0  0  0  0
  150.2804  142.8942  155.3216 H   0  0  0  0  0  0  0  0  0  0  0  0
  152.5300  138.4448  156.0688 H   0  0  0  0  0  0  0  0  0  0  0  0
  152.2451  139.6184  154.7787 H   0  0  0  0  0  0  0  0  0  0  0  0
  150.8743  138.8701  155.6219 H   0  0  0  0  0  0  0  0  0  0  0  0
  153.5527  141.5327  160.2638 H   0  0  0  0  0  0  0  0  0  0  0  0
  152.7728  143.7667  161.0215 H   0  0  0  0  0  0  0  0  0  0  0  0
  151.1345  145.0530  159.6641 H   0  0  0  0  0  0  0  0  0  0  0  0
  150.2672  144.1057  157.5283 H   0  0  0  0  0  0  0  0  0  0  0  0
  146.4924  143.4235  153.0621 H   0  0  0  0  0  0  0  0  0  0  0  0
  144.7535  145.0979  152.9220 H   0  0  0  0  0  0  0  0  0  0  0  0
  1  2  1  0  0  0  0
  1 26  1  0  0  0  0
  1 27  1  0  0  0  0
  1 28  1  0  0  0  0
  2  3  2  0  0  0  0
  2  4  1  0  0  0  0
  4  5  1  0  0  0  0
  4 29  1  0  0  0  0
  5 25  1  0  0  0  0
  5  6  2  0  0  0  0
  6  7  1  0  0  0  0
  6 30  1  0  0  0  0
  7  8  2  0  0  0  0
  7 31  1  0  0  0  0
  8  9  1  0  0  0  0
  8 24  1  0  0  0  0
  9 10  1  0  0  0  0
 10 11  1  0  0  0  0
 10 32  1  0  0  0  0
 10 33  1  0  0  0  0
 11 12  1  0  0  0  0
 11 13  1  0  0  0  0
 11 34  1  0  0  0  0
 12 35  1  0  0  0  0
 13 14  1  0  0  0  0
 13 36  1  0  0  0  0
 13 37  1  0  0  0  0
 14 23  1  0  0  0  0
 14 15  1  0  0  0  0
 15 16  1  0  0  0  0
 15 17  2  0  0  0  0
 16 38  1  0  0  0  0
 16 39  1  0  0  0  0
 16 40  1  0  0  0  0
 17 18  1  0  0  0  0
 18 23  2  0  0  0  0
 18 19  1  0  0  0  0
 19 20  2  0  0  0  0
 19 41  1  0  0  0  0
 20 21  1  0  0  0  0
 20 42  1  0  0  0  0
 21 22  2  0  0  0  0
 21 43  1  0  0  0  0
 22 23  1  0  0  0  0
 22 44  1  0  0  0  0
 24 25  2  0  0  0  0
 24 45  1  0  0  0  0
 25 46  1  0  0  0  0
M  END
> <s_m_source_file>
AV-unprocessed.smi

> <i_m_source_file_index>
1368

> <i_lp_mmshare_version>
43012

> <i_f3d_flags>
0

> <s_epik_input>
W0NIM11DKD1PKVtOSF1jMVtjSF1bY0hdYyhbY0hdW2NIXTEpT1tDSDJdW0NASF0oW09IXSlbQ0gyXW4oYyhuMilbQ0gzXSljKGMyMylbY0hdW2NIXVtjSF1bY0hdMw==

> <s_epik_cmdline>
J2VwaWtfcHl0aG9uJywgJy1waCcsICc3LjAnLCAnLXRuJywgJzgnLCAnLW1hJywgJzIwMCcsICctbWV0YWxfYmluZGluZycsICctaW1hZScsICc8aW5maWxlLm1hZT4nLCAnLW9tYWUnLCAnPG91dGZpbGUubWFlPic=

> <r_lp_tautomer_probability>
1

> <r_epik_Ionization_Penalty>
0.119634

> <r_epik_Ionization_Penalty_Charging>
0

> <r_epik_Ionization_Penalty_Neutral>
0.119634

> <r_epik_State_Penalty>
0.10919

> <r_epik_Charging_Adjusted_Penalty>
0.10919

> <i_epik_Tot_Q>
0

> <i_epik_Tot_abs_Q>
0

> <r_epik_Metal_State_Penalty>
0.0906856

> <b_epik_Metal_Only>
0

> <s_lp_Force_Field>
OPLS_2005

> <r_lp_Energy>
21.7849

> <b_lp_Chiralities_Consistent>
1

> <s_lp_Variant>
AV-unprocessed.smi:1368-1

> <Gold.Version>
5.8.1

> <Gold.Id.Protein>
6NUR|6NUR_protein|mol2

> <Gold.PLP.Fitness>
51.4106

> <Gold.PLP.PLP>
-47.6426

> <Gold.PLP.part.hbond>
-2.0000

> <Gold.PLP.part.metal>
0.0000

> <Gold.PLP.part.buried>
-6.3462

> <Gold.PLP.part.nonpolar>
-39.0327

> <Gold.PLP.part.repulsive>
0.1769

> <Gold.PLP.ligand.clash>
0.0000

> <Gold.PLP.ligand.torsion>
1.1801

> <Gold.PLP.Chemscore.Hbond>
2.0000

> <Gold.PLP.Chemscore.CHOScore>
0.0000

> <Gold.PLP.Chemscore.Metal>
0.0000

> <Gold.Chemscore.Hbonds>
donor molecule, donor type, donor heavy atom, donor atom, acceptor molecule, acceptor atom, score
      L1  H    12    35       P1  8028  0.86
      P1  H  7997  8010       L1    17  0.61

> <Gold.PLP.Chemscore.Internal.Correction>
0.1281

> <Gold.Rescore>
     Score         DG    S(hbond)    S(metal)    S(lipo)     H(rot)  DE(clash)    DE(int)     intcor
     15.42     -18.57       1.47        0.00     122.19       2.39       0.79       2.36       ----

> <Gold.Chemscore.Fitness>
15.4175

> <Gold.Chemscore.DG>
-18.5698

> <Gold.Chemscore.ZeroCoef>
-5.4800

> <Gold.Chemscore.Hbond>
1.4716

> <Gold.Chemscore.Metal>
0.0000

> <Gold.Chemscore.Lipo>
122.1936

> <Gold.Chemscore.Internal_Hbond>
0.0000

> <Gold.Chemscore.DEClash>
0.7911

> <Gold.Chemscore.DEInternal>
2.3613

> <Gold.Chemscore.Rot>
2.3914

> <Gold.Chemscore.Internal.Correction>
   9.000000E+99

> <Gold.Chemscore.Hbonds>
donor molecule, donor type, donor heavy atom, donor atom, acceptor molecule, acceptor atom, score
      L1  H    12    35       P1  8028  0.54
      P1  H  7997  8010       L1    17  0.07

> <Gold.Chemscore.Hbond.Weighted>
-4.9151

> <Gold.Chemscore.Metal.Weighted>
-0.0000

> <Gold.Chemscore.Lipo.Weighted>
-14.2966

> <Gold.Chemscore.Internal_Hbond.Weighted>
0.0000

> <Gold.Chemscore.DEClash.Weighted>
0.7911

> <Gold.Chemscore.DEInternal.Weighted>
2.3613

> <Gold.Chemscore.Rot.Weighted>
6.1220

> <Gold.Chemscore.Internal.Correction.Weighted>
   9.000000E+99

> <Gold.Protein.RotatedTorsions>
[ 6907 6896 6895 6894 ] final  -32.52 input  -60.11 | X-H torsion
[ 7974 7965 7964 7962 ] final  -63.20 input  175.53 | X-H torsion
[ 8008 7997 7996 7995 ] final   49.29 input   59.86 | X-H torsion
[ 10167 10162 10161 10158 ] final -114.93 input  -65.29 | X-H torsion
[ 10718 10713 10712 10709 ] final   17.84 input   66.30 | X-H torsion
[ 10763 10752 10751 10750 ] final   21.77 input  -60.55 | X-H torsion
[ 11005 11000 10999 10996 ] final   -5.18 input  -57.11 | X-H torsion

> <Gold.Protein.ActiveResidues>
 VAL166  LYS551  ARG553  GLY616  TRP617  ASP618  TYR619  PRO620  LYS621  CYS622 
 ASP623  PHE694  ASN695  SER759  ASP760  ASP761  ALA762  ILE779  LEU786  VAL792 
 PHE793  MET794  SER795  GLU796  ALA797  LYS798  CYS799  TRP800  GLU811  SER814 

> <Gold.Protein.RotatedAtoms>
  151.0777  134.9839  159.8340 H   0  0  0  0  0  0  0  0  0  0  0  0  # atno 6907 bound_to 6896
  152.5416  134.2220  159.8801 H   0  0  0  0  0  0  0  0  0  0  0  0  # atno 6908 bound_to 6896
  151.2248  133.4439  159.2635 H   0  0  0  0  0  0  0  0  0  0  0  0  # atno 6909 bound_to 6896
  145.7820  140.8757  143.0325 H   0  0  0  0  0  0  0  0  0  0  0  0  # atno 7974 bound_to 7965
  155.3998  140.3437  155.4256 H   0  0  0  0  0  0  0  0  0  0  0  0  # atno 8008 bound_to 7997
  156.1510  140.1571  156.8802 H   0  0  0  0  0  0  0  0  0  0  0  0  # atno 8009 bound_to 7997
  154.5052  140.0804  156.7861 H   0  0  0  0  0  0  0  0  0  0  0  0  # atno 8010 bound_to 7997
  140.0956  143.4660  152.1844 H   0  0  0  0  0  0  0  0  0  0  0  0  # atno 10167 bound_to 10162
  157.0878  130.6415  149.5841 H   0  0  0  0  0  0  0  0  0  0  0  0  # atno 10718 bound_to 10713
  153.0968  135.6662  153.9748 H   0  0  0  0  0  0  0  0  0  0  0  0  # atno 10763 bound_to 10752
  153.9329  135.3002  155.3446 H   0  0  0  0  0  0  0  0  0  0  0  0  # atno 10764 bound_to 10752
  154.7387  135.5089  153.9160 H   0  0  0  0  0  0  0  0  0  0  0  0  # atno 10765 bound_to 10752
  140.6884  133.9093  155.8601 H   0  0  0  0  0  0  0  0  0  0  0  0  # atno 11005 bound_to 11000
  144.6795  140.0002  143.7484 LP  0  0  0  0  0  0  0  0  0  0  0  0  # atno 17320 bound_to 7965
  146.0065  139.3134  143.0896 LP  0  0  0  0  0  0  0  0  0  0  0  0  # atno 17321 bound_to 7965
  139.5700  144.7457  151.3916 LP  0  0  0  0  0  0  0  0  0  0  0  0  # atno 17342 bound_to 10162
  140.7005  143.7642  150.7396 LP  0  0  0  0  0  0  0  0  0  0  0  0  # atno 17343 bound_to 10162
  155.9906  130.4958  150.7264 LP  0  0  0  0  0  0  0  0  0  0  0  0  # atno 17370 bound_to 10713
  157.4746  131.0896  151.0604 LP  0  0  0  0  0  0  0  0  0  0  0  0  # atno 17371 bound_to 10713
  141.0261  134.0821  157.4066 LP  0  0  0  0  0  0  0  0  0  0  0  0  # atno 17394 bound_to 11000
  139.8931  135.0128  156.6879 LP  0  0  0  0  0  0  0  0  0  0  0  0  # atno 17395 bound_to 11000

$$$$
