AV-unprocessed.smi:3264|AV-procd|sdf|12495|dock3
  -GOLD-   2272018393D 1   1.00000     0.00000
 Structure written by MMmdl.
 32 33  0  0  0  0  0  0  0  0  1 V2000
  153.3894  138.5390  154.3430 C   0  0  0  0  0  0  0  0  0  0  0  0
  151.9837  138.9082  154.6732 C   0  0  0  0  0  0  0  0  0  0  0  0
  151.5935  140.1527  154.9612 N   0  0  0  0  0  0  0  0  0  0  0  0
  150.2260  140.2370  155.2412 C   0  0  0  0  0  0  0  0  0  0  0  0
  149.6118  141.5603  155.5838 C   0  0  0  0  0  0  0  0  0  0  0  0
  149.1868  141.6417  157.0564 C   0  0  0  0  0  0  0  0  0  0  0  0
  150.1826  142.3642  157.8362 N   0  0  0  0  0  0  0  0  0  0  0  0
  151.1432  141.7866  158.5720 C   0  0  0  0  0  0  0  0  0  0  0  0
  151.2822  140.5661  158.6604 O   0  0  0  0  0  0  0  0  0  0  0  0
  152.0956  142.7402  159.3034 C   0  0  1  0  0  0  0  0  0  0  0  0
  152.7324  143.8272  158.4154 C   0  0  0  0  0  0  0  0  0  0  0  0
  152.1097  145.1148  158.9195 C   0  0  0  0  0  0  0  0  0  0  0  0
  151.8160  144.7748  160.3734 C   0  0  0  0  0  0  0  0  0  0  0  0
  151.3472  143.4384  160.2964 O   0  0  0  0  0  0  0  0  0  0  0  0
  149.5809  139.0283  155.1563 C   0  0  0  0  0  0  0  0  0  0  0  0
  150.6701  137.7391  154.7240 S   0  0  0  0  0  0  0  0  0  0  0  0
  154.0236  139.4258  154.3128 H   0  0  0  0  0  0  0  0  0  0  0  0
  153.4273  138.0488  153.3701 H   0  0  0  0  0  0  0  0  0  0  0  0
  153.7807  137.8549  155.0961 H   0  0  0  0  0  0  0  0  0  0  0  0
  150.3183  142.3625  155.3666 H   0  0  0  0  0  0  0  0  0  0  0  0
  148.7471  141.7431  154.9443 H   0  0  0  0  0  0  0  0  0  0  0  0
  148.2269  142.1523  157.1469 H   0  0  0  0  0  0  0  0  0  0  0  0
  149.0567  140.6352  157.4586 H   0  0  0  0  0  0  0  0  0  0  0  0
  150.1421  143.3729  157.8137 H   0  0  0  0  0  0  0  0  0  0  0  0
  152.8847  142.1678  159.7946 H   0  0  0  0  0  0  0  0  0  0  0  0
  153.8105  143.8467  158.5797 H   0  0  0  0  0  0  0  0  0  0  0  0
  152.5734  143.6888  157.3452 H   0  0  0  0  0  0  0  0  0  0  0  0
  152.7624  145.9806  158.8059 H   0  0  0  0  0  0  0  0  0  0  0  0
  151.1779  145.3139  158.3885 H   0  0  0  0  0  0  0  0  0  0  0  0
  152.7250  144.8114  160.9760 H   0  0  0  0  0  0  0  0  0  0  0  0
  151.0746  145.4366  160.8214 H   0  0  0  0  0  0  0  0  0  0  0  0
  148.5342  138.8187  155.3201 H   0  0  0  0  0  0  0  0  0  0  0  0
  1  2  1  0  0  0  0
  1 17  1  0  0  0  0
  1 18  1  0  0  0  0
  1 19  1  0  0  0  0
  2 16  1  0  0  0  0
  2  3  2  0  0  0  0
  3  4  1  0  0  0  0
  4  5  1  0  0  0  0
  4 15  2  0  0  0  0
  5  6  1  0  0  0  0
  5 20  1  0  0  0  0
  5 21  1  0  0  0  0
  6  7  1  0  0  0  0
  6 22  1  0  0  0  0
  6 23  1  0  0  0  0
  7  8  1  0  0  0  0
  7 24  1  0  0  0  0
  8  9  2  0  0  0  0
  8 10  1  0  0  0  0
 10 14  1  0  0  0  0
 10 11  1  0  0  0  0
 10 25  1  0  0  0  0
 11 12  1  0  0  0  0
 11 26  1  0  0  0  0
 11 27  1  0  0  0  0
 12 13  1  0  0  0  0
 12 28  1  0  0  0  0
 12 29  1  0  0  0  0
 13 14  1  0  0  0  0
 13 30  1  0  0  0  0
 13 31  1  0  0  0  0
 15 16  1  0  0  0  0
 15 32  1  0  0  0  0
M  END
> <s_m_source_file>
AV-unprocessed.smi

> <i_m_source_file_index>
3264

> <i_lp_mmshare_version>
43012

> <i_f3d_flags>
0

> <s_epik_input>
W0NIM11jMW5jKFtjSF1zMSlbQ0gyXVtDSDJdW05IXUMoPU8pW0NAQEhdMltDSDJdW0NIMl1bQ0gyXU8y

> <s_epik_cmdline>
J2VwaWtfcHl0aG9uJywgJy1waCcsICc3LjAnLCAnLXRuJywgJzgnLCAnLW1hJywgJzIwMCcsICctbWV0YWxfYmluZGluZycsICctaW1hZScsICc8aW5maWxlLm1hZT4nLCAnLW9tYWUnLCAnPG91dGZpbGUubWFlPic=

> <r_epik_Ionization_Penalty>
0.00112246

> <r_epik_Ionization_Penalty_Charging>
0

> <r_epik_Ionization_Penalty_Neutral>
0.00112246

> <r_epik_State_Penalty>
0.000737392

> <r_epik_Charging_Adjusted_Penalty>
0.000737392

> <i_epik_Tot_Q>
0

> <i_epik_Tot_abs_Q>
0

> <r_epik_Metal_State_Penalty>
-0

> <b_epik_Metal_Only>
0

> <s_lp_Force_Field>
OPLS_2005

> <r_lp_Energy>
13.6214

> <b_lp_Chiralities_Consistent>
1

> <s_lp_Variant>
AV-unprocessed.smi:3264-2

> <Gold.Version>
5.8.1

> <Gold.Id.Protein>
6NUR|6NUR_protein|mol2

> <Gold.PLP.Fitness>
38.4126

> <Gold.PLP.PLP>
-36.7364

> <Gold.PLP.part.hbond>
-1.4621

> <Gold.PLP.part.metal>
0.0000

> <Gold.PLP.part.buried>
-3.8237

> <Gold.PLP.part.nonpolar>
-30.7052

> <Gold.PLP.part.repulsive>
0.1814

> <Gold.PLP.ligand.clash>
0.0000

> <Gold.PLP.ligand.torsion>
0.6330

> <Gold.PLP.Chemscore.Hbond>
0.9760

> <Gold.PLP.Chemscore.CHOScore>
0.0000

> <Gold.PLP.Chemscore.Metal>
0.0000

> <Gold.Chemscore.Hbonds>
donor molecule, donor type, donor heavy atom, donor atom, acceptor molecule, acceptor atom, score
      P1  H  7989  7998       L1     3  1.00

> <Gold.PLP.Chemscore.Internal.Correction>
0.0143

> <Gold.Rescore>
     Score         DG    S(hbond)    S(metal)    S(lipo)     H(rot)  DE(clash)    DE(int)     intcor
     13.85     -14.34       0.49        0.00      94.74       1.52       0.03       0.45       ----

> <Gold.Chemscore.Fitness>
13.8541

> <Gold.Chemscore.DG>
-14.3367

> <Gold.Chemscore.ZeroCoef>
-5.4800

> <Gold.Chemscore.Hbond>
0.4949

> <Gold.Chemscore.Metal>
0.0000

> <Gold.Chemscore.Lipo>
94.7374

> <Gold.Chemscore.Internal_Hbond>
0.0000

> <Gold.Chemscore.DEClash>
0.0285

> <Gold.Chemscore.DEInternal>
0.4541

> <Gold.Chemscore.Rot>
1.5159

> <Gold.Chemscore.Internal.Correction>
   9.000000E+99

> <Gold.Chemscore.Hbonds>
donor molecule, donor type, donor heavy atom, donor atom, acceptor molecule, acceptor atom, score
      P1  H  7989  7998       L1     3  0.10

> <Gold.Chemscore.Hbond.Weighted>
-1.6531

> <Gold.Chemscore.Metal.Weighted>
-0.0000

> <Gold.Chemscore.Lipo.Weighted>
-11.0843

> <Gold.Chemscore.Internal_Hbond.Weighted>
0.0000

> <Gold.Chemscore.DEClash.Weighted>
0.0285

> <Gold.Chemscore.DEInternal.Weighted>
0.4541

> <Gold.Chemscore.Rot.Weighted>
3.8807

> <Gold.Chemscore.Internal.Correction.Weighted>
   9.000000E+99

> <Gold.Protein.RotatedTorsions>
[ 6907 6896 6895 6894 ] final -126.81 input  -60.11 | X-H torsion
[ 7974 7965 7964 7962 ] final -156.34 input  175.53 | X-H torsion
[ 8008 7997 7996 7995 ] final  -58.05 input   59.86 | X-H torsion
[ 10167 10162 10161 10158 ] final   63.09 input  -65.29 | X-H torsion
[ 10718 10713 10712 10709 ] final  -79.81 input   66.30 | X-H torsion
[ 10763 10752 10751 10750 ] final   10.32 input  -60.55 | X-H torsion
[ 11005 11000 10999 10996 ] final   11.59 input  -57.11 | X-H torsion

> <Gold.Protein.ActiveResidues>
 VAL166  LYS551  ARG553  GLY616  TRP617  ASP618  TYR619  PRO620  LYS621  CYS622 
 ASP623  PHE694  ASN695  SER759  ASP760  ASP761  ALA762  ILE779  LEU786  VAL792 
 PHE793  MET794  SER795  GLU796  ALA797  LYS798  CYS799  TRP800  GLU811  SER814 

> <Gold.Protein.RotatedAtoms>
  150.9007  133.7122  159.2879 H   0  0  0  0  0  0  0  0  0  0  0  0  # atno 6907 bound_to 6896
  151.4641  135.1039  159.9742 H   0  0  0  0  0  0  0  0  0  0  0  0  # atno 6908 bound_to 6896
  152.4875  133.8363  159.7185 H   0  0  0  0  0  0  0  0  0  0  0  0  # atno 6909 bound_to 6896
  144.7598  140.4124  143.5985 H   0  0  0  0  0  0  0  0  0  0  0  0  # atno 7974 bound_to 7965
  154.4292  140.1093  156.5894 H   0  0  0  0  0  0  0  0  0  0  0  0  # atno 8008 bound_to 7997
  155.6027  140.3493  155.4580 H   0  0  0  0  0  0  0  0  0  0  0  0  # atno 8009 bound_to 7997
  156.0160  140.1229  157.0395 H   0  0  0  0  0  0  0  0  0  0  0  0  # atno 8010 bound_to 7997
  140.1369  144.4591  150.6833 H   0  0  0  0  0  0  0  0  0  0  0  0  # atno 10167 bound_to 10162
  156.0084  130.4556  150.3705 H   0  0  0  0  0  0  0  0  0  0  0  0  # atno 10718 bound_to 10713
  153.2045  135.6860  153.8190 H   0  0  0  0  0  0  0  0  0  0  0  0  # atno 10763 bound_to 10752
  153.7445  135.3233  155.3311 H   0  0  0  0  0  0  0  0  0  0  0  0  # atno 10764 bound_to 10752
  154.8189  135.4666  154.0825 H   0  0  0  0  0  0  0  0  0  0  0  0  # atno 10765 bound_to 10752
  140.5015  134.0741  155.7795 H   0  0  0  0  0  0  0  0  0  0  0  0  # atno 11005 bound_to 11000
  145.6658  139.1590  143.2782 LP  0  0  0  0  0  0  0  0  0  0  0  0  # atno 17320 bound_to 7965
  146.1648  140.6734  142.9260 LP  0  0  0  0  0  0  0  0  0  0  0  0  # atno 17321 bound_to 7965
  140.6784  143.2315  151.5448 LP  0  0  0  0  0  0  0  0  0  0  0  0  # atno 17342 bound_to 10162
  139.5491  144.2441  152.1498 LP  0  0  0  0  0  0  0  0  0  0  0  0  # atno 17343 bound_to 10162
  157.1789  131.0387  151.2758 LP  0  0  0  0  0  0  0  0  0  0  0  0  # atno 17370 bound_to 10713
  157.4163  130.7413  149.6878 LP  0  0  0  0  0  0  0  0  0  0  0  0  # atno 17371 bound_to 10713
  141.1433  133.9100  157.2276 LP  0  0  0  0  0  0  0  0  0  0  0  0  # atno 17394 bound_to 11000
  139.9710  135.0128  156.9512 LP  0  0  0  0  0  0  0  0  0  0  0  0  # atno 17395 bound_to 11000

$$$$
