AV-unprocessed.smi:3232|AV-procd|sdf|12341|dock5
  -GOLD-   2272018203D 1   1.00000     0.00000
 Structure written by MMmdl.
 40 41  0  0  0  0  0  0  0  0  2 V2000
  153.9592  141.0928  160.7510 C   0  0  0  0  0  0  0  0  0  0  0  0
  152.9853  142.1616  161.2667 C   0  0  0  0  0  0  0  0  0  0  0  0
  152.9058  143.3353  160.3619 N   0  3  2  0  0  0  0  0  0  0  0  0
  151.9656  144.3916  160.7998 C   0  0  0  0  0  0  0  0  0  0  0  0
  151.5162  145.1292  159.5306 C   0  0  0  0  0  0  0  0  0  0  0  0
  152.3394  144.5071  158.4032 C   0  0  0  0  0  0  0  0  0  0  0  0
  152.6642  143.0981  158.9161 C   0  0  2  0  0  0  0  0  0  0  0  0
  151.5386  142.0646  158.6431 C   0  0  0  0  0  0  0  0  0  0  0  0
  151.4797  141.6644  157.2403 N   0  0  0  0  0  0  0  0  0  0  0  0
  150.3678  141.3018  156.5802 C   0  0  0  0  0  0  0  0  0  0  0  0
  149.2517  141.2864  157.1005 O   0  0  0  0  0  0  0  0  0  0  0  0
  150.5478  140.9010  155.1087 C   0  0  2  0  0  0  0  0  0  0  0  0
  149.1977  140.7017  154.3909 C   0  0  0  0  0  0  0  0  0  0  0  0
  151.4090  139.7289  155.0113 N   0  0  0  0  0  0  0  0  0  0  0  0
  151.1708  138.5342  154.4652 C   0  0  0  0  0  0  0  0  0  0  0  0
  152.2049  137.7058  154.5067 N   0  0  0  0  0  0  0  0  0  0  0  0
  153.1180  138.5127  155.1241 C   0  0  0  0  0  0  0  0  0  0  0  0
  152.6971  139.7380  155.4371 N   0  0  0  0  0  0  0  0  0  0  0  0
  154.0557  140.2809  161.4722 H   0  0  0  0  0  0  0  0  0  0  0  0
  154.9536  141.5106  160.5904 H   0  0  0  0  0  0  0  0  0  0  0  0
  153.6225  140.6565  159.8107 H   0  0  0  0  0  0  0  0  0  0  0  0
  151.9976  141.7356  161.4448 H   0  0  0  0  0  0  0  0  0  0  0  0
  153.3415  142.5095  162.2372 H   0  0  0  0  0  0  0  0  0  0  0  0
  151.1006  143.9561  161.3026 H   0  0  0  0  0  0  0  0  0  0  0  0
  152.4613  145.0592  161.5050 H   0  0  0  0  0  0  0  0  0  0  0  0
  150.4534  144.9542  159.3567 H   0  0  0  0  0  0  0  0  0  0  0  0
  151.6665  146.2070  159.5994 H   0  0  0  0  0  0  0  0  0  0  0  0
  151.8308  144.5357  157.4405 H   0  0  0  0  0  0  0  0  0  0  0  0
  153.2674  145.0691  158.2873 H   0  0  0  0  0  0  0  0  0  0  0  0
  153.5855  142.7413  158.4536 H   0  0  0  0  0  0  0  0  0  0  0  0
  151.7199  141.1497  159.2058 H   0  0  0  0  0  0  0  0  0  0  0  0
  150.5730  142.4413  158.9850 H   0  0  0  0  0  0  0  0  0  0  0  0
  152.3536  141.6493  156.7343 H   0  0  0  0  0  0  0  0  0  0  0  0
  151.0637  141.7174  154.5999 H   0  0  0  0  0  0  0  0  0  0  0  0
  148.5946  141.6094  154.4328 H   0  0  0  0  0  0  0  0  0  0  0  0
  148.6101  139.8959  154.8326 H   0  0  0  0  0  0  0  0  0  0  0  0
  149.3494  140.4603  153.3387 H   0  0  0  0  0  0  0  0  0  0  0  0
  150.2217  138.2663  154.0246 H   0  0  0  0  0  0  0  0  0  0  0  0
  154.1254  138.1903  155.3426 H   0  0  0  0  0  0  0  0  0  0  0  0
  153.8149  143.7740  160.4000 H   0  0  0  0  0  0  0  0  0  0  0  0
  1  2  1  0  0  0  0
  1 19  1  0  0  0  0
  1 20  1  0  0  0  0
  1 21  1  0  0  0  0
  2  3  1  0  0  0  0
  2 22  1  0  0  0  0
  2 23  1  0  0  0  0
  3  7  1  0  0  0  0
  3  4  1  0  0  0  0
  3 40  1  0  0  0  0
  4  5  1  0  0  0  0
  4 24  1  0  0  0  0
  4 25  1  0  0  0  0
  5  6  1  0  0  0  0
  5 26  1  0  0  0  0
  5 27  1  0  0  0  0
  6  7  1  0  0  0  0
  6 28  1  0  0  0  0
  6 29  1  0  0  0  0
  7  8  1  0  0  0  0
  7 30  1  0  0  0  0
  8  9  1  0  0  0  0
  8 31  1  0  0  0  0
  8 32  1  0  0  0  0
  9 10  1  0  0  0  0
  9 33  1  0  0  0  0
 10 11  2  0  0  0  0
 10 12  1  0  0  0  0
 12 13  1  0  0  0  0
 12 14  1  0  0  0  0
 12 34  1  0  0  0  0
 13 35  1  0  0  0  0
 13 36  1  0  0  0  0
 13 37  1  0  0  0  0
 14 18  1  0  0  0  0
 14 15  1  0  0  0  0
 15 16  2  0  0  0  0
 15 38  1  0  0  0  0
 16 17  1  0  0  0  0
 17 18  2  0  0  0  0
 17 39  1  0  0  0  0
M  CHG  1   3   1
M  END
> <s_m_source_file>
AV-unprocessed.smi

> <i_m_source_file_index>
3232

> <i_lp_mmshare_version>
43012

> <i_f3d_flags>
0

> <s_epik_input>
W0NIM11bQ0gyXU4xW0NIMl1bQ0gyXVtDSDJdW0NASF0xW0NIMl1bTkhdQyg9TylbQ0BIXShbQ0gzXSluMltjSF1uW2NIXW4y

> <s_epik_cmdline>
J2VwaWtfcHl0aG9uJywgJy1waCcsICc3LjAnLCAnLXRuJywgJzgnLCAnLW1hJywgJzIwMCcsICctbWV0YWxfYmluZGluZycsICctaW1hZScsICc8aW5maWxlLm1hZT4nLCAnLW9tYWUnLCAnPG91dGZpbGUubWFlPic=

> <r_lp_tautomer_probability>
1

> <r_epik_Ionization_Penalty>
0.00177695

> <r_epik_Ionization_Penalty_Charging>
0.00176881

> <r_epik_Ionization_Penalty_Neutral>
8.13528e-06

> <r_epik_State_Penalty>
0.00119827

> <r_epik_Charging_Adjusted_Penalty>
0.00296709

> <i_epik_Tot_Q>
1

> <i_epik_Tot_abs_Q>
1

> <r_epik_Metal_State_Penalty>
-0

> <b_epik_Metal_Only>
0

> <s_lp_Force_Field>
OPLS_2005

> <r_lp_Energy>
38.6691

> <b_lp_Chiralities_Consistent>
1

> <s_lp_Variant>
AV-unprocessed.smi:3232-3

> <Gold.Version>
5.8.1

> <Gold.Id.Protein>
6NUR|6NUR_protein|mol2

> <Gold.PLP.Fitness>
48.7916

> <Gold.PLP.PLP>
-44.0469

> <Gold.PLP.part.hbond>
-2.0000

> <Gold.PLP.part.metal>
0.0000

> <Gold.PLP.part.buried>
-3.8335

> <Gold.PLP.part.nonpolar>
-39.5811

> <Gold.PLP.part.repulsive>
0.2484

> <Gold.PLP.ligand.clash>
0.0000

> <Gold.PLP.ligand.torsion>
0.3946

> <Gold.PLP.Chemscore.Hbond>
1.8000

> <Gold.PLP.Chemscore.CHOScore>
0.0000

> <Gold.PLP.Chemscore.Metal>
0.0000

> <Gold.Chemscore.Hbonds>
donor molecule, donor type, donor heavy atom, donor atom, acceptor molecule, acceptor atom, score
      P1  H  7997  8010       L1    18  0.58
      P1  H 10752 10763       L1    16  0.41

> <Gold.PLP.Chemscore.Internal.Correction>
0.1340

> <Gold.Rescore>
     Score         DG    S(hbond)    S(metal)    S(lipo)     H(rot)  DE(clash)    DE(int)     intcor
     13.31     -15.25       1.56        0.00      93.51       2.49       0.05       1.89       ----

> <Gold.Chemscore.Fitness>
13.3070

> <Gold.Chemscore.DG>
-15.2501

> <Gold.Chemscore.ZeroCoef>
-5.4800

> <Gold.Chemscore.Hbond>
1.5566

> <Gold.Chemscore.Metal>
0.0000

> <Gold.Chemscore.Lipo>
93.5116

> <Gold.Chemscore.Internal_Hbond>
0.0000

> <Gold.Chemscore.DEClash>
0.0545

> <Gold.Chemscore.DEInternal>
1.8886

> <Gold.Chemscore.Rot>
2.4882

> <Gold.Chemscore.Internal.Correction>
   9.000000E+99

> <Gold.Chemscore.Hbonds>
donor molecule, donor type, donor heavy atom, donor atom, acceptor molecule, acceptor atom, score
      P1  H  7997  8010       L1    18  0.04
      P1  H 10752 10763       L1    16  0.31

> <Gold.Chemscore.Hbond.Weighted>
-5.1990

> <Gold.Chemscore.Metal.Weighted>
-0.0000

> <Gold.Chemscore.Lipo.Weighted>
-10.9409

> <Gold.Chemscore.Internal_Hbond.Weighted>
0.0000

> <Gold.Chemscore.DEClash.Weighted>
0.0545

> <Gold.Chemscore.DEInternal.Weighted>
1.8886

> <Gold.Chemscore.Rot.Weighted>
6.3697

> <Gold.Chemscore.Internal.Correction.Weighted>
   9.000000E+99

> <Gold.Protein.RotatedTorsions>
[ 6907 6896 6895 6894 ] final  127.99 input  -60.11 | X-H torsion
[ 7974 7965 7964 7962 ] final  -10.50 input  175.53 | X-H torsion
[ 8008 7997 7996 7995 ] final   71.94 input   59.86 | X-H torsion
[ 10167 10162 10161 10158 ] final  174.04 input  -65.29 | X-H torsion
[ 10718 10713 10712 10709 ] final   59.92 input   66.30 | X-H torsion
[ 10763 10752 10751 10750 ] final   51.33 input  -60.55 | X-H torsion
[ 11005 11000 10999 10996 ] final   25.04 input  -57.11 | X-H torsion

> <Gold.Protein.ActiveResidues>
 VAL166  LYS551  ARG553  GLY616  TRP617  ASP618  TYR619  PRO620  LYS621  CYS622 
 ASP623  PHE694  ASN695  SER759  ASP760  ASP761  ALA762  ILE779  LEU786  VAL792 
 PHE793  MET794  SER795  GLU796  ALA797  LYS798  CYS799  TRP800  GLU811  SER814 

> <Gold.Protein.RotatedAtoms>
  152.3761  133.6483  159.6124 H   0  0  0  0  0  0  0  0  0  0  0  0  # atno 6907 bound_to 6896
  150.7705  133.9190  159.3401 H   0  0  0  0  0  0  0  0  0  0  0  0  # atno 6908 bound_to 6896
  151.7005  135.0932  160.0301 H   0  0  0  0  0  0  0  0  0  0  0  0  # atno 6909 bound_to 6896
  146.2218  140.2774  142.8360 H   0  0  0  0  0  0  0  0  0  0  0  0  # atno 7974 bound_to 7965
  155.7614  140.3486  155.5200 H   0  0  0  0  0  0  0  0  0  0  0  0  # atno 8008 bound_to 7997
  155.8910  140.1018  157.1439 H   0  0  0  0  0  0  0  0  0  0  0  0  # atno 8009 bound_to 7997
  154.4033  140.1304  156.4303 H   0  0  0  0  0  0  0  0  0  0  0  0  # atno 8010 bound_to 7997
  139.5128  144.3192  152.0219 H   0  0  0  0  0  0  0  0  0  0  0  0  # atno 10167 bound_to 10162
  157.5713  130.8909  149.9272 H   0  0  0  0  0  0  0  0  0  0  0  0  # atno 10718 bound_to 10713
  152.9785  135.5849  154.4398 H   0  0  0  0  0  0  0  0  0  0  0  0  # atno 10763 bound_to 10752
  154.4001  135.2768  155.2104 H   0  0  0  0  0  0  0  0  0  0  0  0  # atno 10764 bound_to 10752
  154.3938  135.6119  153.5912 H   0  0  0  0  0  0  0  0  0  0  0  0  # atno 10765 bound_to 10752
  140.3521  134.2217  155.7679 H   0  0  0  0  0  0  0  0  0  0  0  0  # atno 11005 bound_to 11000
  144.9223  140.7882  143.5741 LP  0  0  0  0  0  0  0  0  0  0  0  0  # atno 17320 bound_to 7965
  145.2711  139.1954  143.4841 LP  0  0  0  0  0  0  0  0  0  0  0  0  # atno 17321 bound_to 7965
  140.2634  144.4042  150.6177 LP  0  0  0  0  0  0  0  0  0  0  0  0  # atno 17342 bound_to 10162
  140.6141  143.2171  151.6828 LP  0  0  0  0  0  0  0  0  0  0  0  0  # atno 17343 bound_to 10162
  156.0758  130.3679  150.0680 LP  0  0  0  0  0  0  0  0  0  0  0  0  # atno 17370 bound_to 10713
  156.8832  130.9564  151.3597 LP  0  0  0  0  0  0  0  0  0  0  0  0  # atno 17371 bound_to 10713
  141.2009  133.7976  157.0467 LP  0  0  0  0  0  0  0  0  0  0  0  0  # atno 17394 bound_to 11000
  140.0694  134.9710  157.1442 LP  0  0  0  0  0  0  0  0  0  0  0  0  # atno 17395 bound_to 11000

$$$$
