#       Name:                AV-unprocessed.smi:2466
#       Creating user name   scv26
#       Creation time:       Fri Mar 27 13:36:33 2020


#       File generated by GOLD software.
#

@<TRIPOS>MOLECULE
AV-unprocessed.smi:2466
    42    43     1
SMALL
NO_CHARGES


@<TRIPOS>ATOM
      1 ****        -6.3715  -3.1059  -0.1696 C.3            1 S1                 0.0000
      2 ****        -4.9513  -3.0650  -0.2525 O.3            1 S1                 0.0000
      3 ****        -4.3387  -1.8317  -0.3349 C.ar           1 S1                 0.0000
      4 ****        -2.9337  -1.7635  -0.4299 C.ar           1 S1                 0.0000
      5 ****        -2.3462  -0.4813  -0.5158 C.ar           1 S1                 0.0000
      6 ****        -0.9299  -0.4581  -0.6158 N.am           1 S1                 0.0000
      7 ****        -0.1241   0.6120  -0.7317 C.2            1 S1                 0.0000
      8 ****        -0.4980   1.7850  -0.7496 O.2            1 S1                 0.0000
      9 ****         1.1617   0.2415  -0.8246 N.am           1 S1                 0.0000
     10 ****         2.3010   1.1444  -0.9750 C.3            1 S1                 0.0000
     11 ****         3.1512   1.2320   0.3024 C.3            1 S1                 0.0000
     12 ****         2.3179   1.9155   1.3970 C.3            1 S1                 0.0000
     13 ****         3.8630  -0.0688   0.7330 C.3            1 S1                 0.0000
     14 ****         5.1099   0.7461   1.0715 C.3            1 S1                 0.0000
     15 ****         4.5708   1.8106   0.1172 C.3            1 S1                 0.0000
     16 ****        -3.1308   0.6246  -0.5020 N.ar           1 S1                 0.0000
     17 ****        -4.4508   0.4537  -0.4078 C.ar           1 S1                 0.0000
     18 ****        -5.0978  -0.7093  -0.3243 N.ar           1 S1                 0.0000
     19 ****        -6.7000  -4.1435  -0.1107 H              1 S1                 0.0000
     20 ****        -6.8349  -2.6621  -1.0519 H              1 S1                 0.0000
     21 ****        -6.7344  -2.5925   0.7220 H              1 S1                 0.0000
     22 ****        -2.3355  -2.6631  -0.4385 H              1 S1                 0.0000
     23 ****        -0.4794  -1.3610  -0.6107 H              1 S1                 0.0000
     24 ****         1.3726  -0.7453  -0.7943 H              1 S1                 0.0000
     25 ****         2.9012   0.7585  -1.7994 H              1 S1                 0.0000
     26 ****         1.9804   2.1378  -1.2937 H              1 S1                 0.0000
     27 ****         2.9142   2.1319   2.2835 H              1 S1                 0.0000
     28 ****         1.4862   1.2906   1.7229 H              1 S1                 0.0000
     29 ****         1.9030   2.8633   1.0527 H              1 S1                 0.0000
     30 ****         3.4098  -0.5785   1.5839 H              1 S1                 0.0000
     31 ****         4.0311  -0.7589  -0.0960 H              1 S1                 0.0000
     32 ****         5.1355   1.0764   2.1109 H              1 S1                 0.0000
     33 ****         6.0519   0.2906   0.7648 H              1 S1                 0.0000
     34 ****         4.9557   1.6893  -0.8970 H              1 S1                 0.0000
     35 ****         4.6973   2.8364   0.4650 H              1 S1                 0.0000
     36 ****        -5.0564   1.3479  -0.3995 H              1 S1                 0.0000
     37 ****        -4.6867  -3.5825  -1.0663 LP             1 S1                 0.0000
     38 ****        -4.5934  -3.5200   0.5628 LP             1 S1                 0.0000
     39 ****        -1.4716   2.0007  -0.6744 LP             1 S1                 0.0000
     40 ****         0.1719   2.5220  -0.8394 LP             1 S1                 0.0000
     41 ****        -2.7325   1.5400  -0.5607 LP             1 S1                 0.0000
     42 ****        -6.0947  -0.7511  -0.2572 LP             1 S1                 0.0000
@<TRIPOS>BOND
    1    1    2 1     
    2    1   19 1     
    3    1   20 1     
    4    1   21 1     
    5    2    3 1     
    6    3   18 ar    
    7    3    4 ar    
    8    4    5 ar    
    9    4   22 1     
   10    5    6 1     
   11    5   16 ar    
   12    6    7 am    
   13    6   23 1     
   14    7    8 2     
   15    7    9 am    
   16    9   10 1     
   17    9   24 1     
   18   10   11 1     
   19   10   25 1     
   20   10   26 1     
   21   11   15 1     
   22   11   12 1     
   23   11   13 1     
   24   12   27 1     
   25   12   28 1     
   26   12   29 1     
   27   13   14 1     
   28   13   30 1     
   29   13   31 1     
   30   14   15 1     
   31   14   32 1     
   32   14   33 1     
   33   15   34 1     
   34   15   35 1     
   35   16   17 ar    
   36   17   18 ar    
   37   17   36 1     
   38    2   37 1     
   39    2   38 1     
   40    8   39 1     
   41    8   40 1     
   42   16   41 1     
   43   18   42 1     
@<TRIPOS>SUBSTRUCTURE
      1 S1             1
@<TRIPOS>SET
LONE_PAIRS      STATIC     ATOMS    <user>   **** ""
6 37 38 39 40 41 42
DONOR_HYDROGENS      STATIC     ATOMS    <user>   **** ""
2 23 24
ATOM$BLUE        STATIC     ATOMS    COLORGROUP SYSTEM
6 37 38 39 40 41 42
ATOM$RED        STATIC     ATOMS    COLORGROUP SYSTEM
2 23 24
