#       Name:                AV-unprocessed.smi:531
#       Creating user name   scv26
#       Creation time:       Thu Mar 26 23:33:40 2020


#       File generated by GOLD software.
#

@<TRIPOS>MOLECULE
AV-unprocessed.smi:531
    53    55     1
SMALL
NO_CHARGES


@<TRIPOS>ATOM
      1 ****        -2.9901   4.5509  -0.4493 C.3            1 S1                 0.0000
      2 ****        -2.6231   3.1086  -0.8051 C.3            1 S1                 0.0000
      3 ****        -1.2740   2.8749  -0.4384 O.3            1 S1                 0.0000
      4 ****        -0.8524   1.5516  -0.7205 C.3            1 S1                 0.0000
      5 ****         0.6036   1.3909  -0.2697 C.3            1 S1                 0.0000
      6 ****         1.0758   0.0234  -0.4682 N.pl3          1 S1                 0.0000
      7 ****         0.9011  -1.0630   0.3352 C.2            1 S1                 0.0000
      8 ****         0.2139  -0.9963   1.5493 N.pl3          1 S1                 0.0000
      9 ****         0.5341  -0.1335   2.6872 C.3            1 S1                 0.0000
     10 ****        -0.6980   0.6589   3.1615 C.3            1 S1                 0.0000
     11 ****        -1.8355  -0.2984   3.5428 C.3            1 S1                 0.0000
     12 ****        -2.0978  -1.2859   2.3971 C.3            1 S1                 0.0000
     13 ****        -0.7923  -1.9746   1.9599 C.3            1 S1                 0.0000
     14 ****         1.3903  -2.2033  -0.1599 N.2            1 S1                 0.0000
     15 ****         1.9407  -1.8123  -1.3700 C.2            1 S1                 0.0000
     16 ****         1.7484  -0.4855  -1.5819 C.2            1 S1                 0.0000
     17 ****         2.1819   0.1827  -2.8177 C.2            1 S1                 0.0000
     18 ****         1.9974   1.3757  -3.0474 O.2            1 S1                 0.0000
     19 ****         2.7966  -0.6546  -3.6881 N.am           1 S1                 0.0000
     20 ****         3.0290  -1.9933  -3.5317 C.2            1 S1                 0.0000
     21 ****         3.5966  -2.6269  -4.4214 O.2            1 S1                 0.0000
     22 ****         2.6063  -2.5811  -2.3671 N.am           1 S1                 0.0000
     23 ****         2.8237  -4.0119  -2.1451 C.3            1 S1                 0.0000
     24 ****         3.1136  -0.2447  -4.5545 H              1 S1                 0.0000
     25 ****        -4.0234   4.7681  -0.7207 H              1 S1                 0.0000
     26 ****        -2.3495   5.2592  -0.9756 H              1 S1                 0.0000
     27 ****        -2.8804   4.7294   0.6207 H              1 S1                 0.0000
     28 ****        -3.2825   2.4174  -0.2782 H              1 S1                 0.0000
     29 ****        -2.7562   2.9431  -1.8751 H              1 S1                 0.0000
     30 ****        -1.4893   0.8395  -0.1931 H              1 S1                 0.0000
     31 ****        -0.9404   1.3466  -1.7886 H              1 S1                 0.0000
     32 ****         1.2476   2.0858  -0.8048 H              1 S1                 0.0000
     33 ****         0.7054   1.6737   0.7732 H              1 S1                 0.0000
     34 ****         0.9034  -0.7565   3.5030 H              1 S1                 0.0000
     35 ****         1.3570   0.5360   2.4405 H              1 S1                 0.0000
     36 ****        -0.4354   1.2847   4.0147 H              1 S1                 0.0000
     37 ****        -1.0353   1.3333   2.3737 H              1 S1                 0.0000
     38 ****        -1.5617  -0.8496   4.4433 H              1 S1                 0.0000
     39 ****        -2.7410   0.2605   3.7802 H              1 S1                 0.0000
     40 ****        -2.8296  -2.0323   2.7070 H              1 S1                 0.0000
     41 ****        -2.5334  -0.7569   1.5483 H              1 S1                 0.0000
     42 ****        -1.0010  -2.6547   1.1333 H              1 S1                 0.0000
     43 ****        -0.3943  -2.5860   2.7709 H              1 S1                 0.0000
     44 ****         3.8600  -4.2866  -2.3476 H              1 S1                 0.0000
     45 ****         2.1802  -4.5981  -2.8021 H              1 S1                 0.0000
     46 ****         2.6106  -4.3110  -1.1188 H              1 S1                 0.0000
     47 ****        -1.1760   3.0396   0.5430 LP             1 S1                 0.0000
     48 ****        -0.6904   3.5112  -0.9431 LP             1 S1                 0.0000
     49 ****         1.3653  -3.1174   0.2447 LP             1 S1                 0.0000
     50 ****         1.5290   1.9480  -2.3742 LP             1 S1                 0.0000
     51 ****         2.3156   1.7744  -3.9076 LP             1 S1                 0.0000
     52 ****         3.8875  -2.1628  -5.2581 LP             1 S1                 0.0000
     53 ****         3.7667  -3.6057  -4.3076 LP             1 S1                 0.0000
@<TRIPOS>BOND
    1    1    2 1     
    2    1   25 1     
    3    1   26 1     
    4    1   27 1     
    5    2    3 1     
    6    2   28 1     
    7    2   29 1     
    8    3    4 1     
    9    4    5 1     
   10    4   30 1     
   11    4   31 1     
   12    5    6 1     
   13    5   32 1     
   14    5   33 1     
   15    6   16 1     
   16    6    7 1     
   17    7    8 1     
   18    7   14 2     
   19    8   13 1     
   20    8    9 1     
   21    9   10 1     
   22    9   34 1     
   23    9   35 1     
   24   10   11 1     
   25   10   36 1     
   26   10   37 1     
   27   11   12 1     
   28   11   38 1     
   29   11   39 1     
   30   12   13 1     
   31   12   40 1     
   32   12   41 1     
   33   13   42 1     
   34   13   43 1     
   35   14   15 1     
   36   15   22 1     
   37   15   16 2     
   38   16   17 1     
   39   17   18 2     
   40   17   19 1     
   41   19   24 1     
   42   19   20 1     
   43   20   21 2     
   44   20   22 1     
   45   22   23 1     
   46   23   44 1     
   47   23   45 1     
   48   23   46 1     
   49    3   47 1     
   50    3   48 1     
   51   14   49 1     
   52   18   50 1     
   53   18   51 1     
   54   21   52 1     
   55   21   53 1     
@<TRIPOS>SUBSTRUCTURE
      1 S1             1
@<TRIPOS>SET
LONE_PAIRS      STATIC     ATOMS    <user>   **** ""
7 47 48 49 50 51 52 53
DONOR_HYDROGENS      STATIC     ATOMS    <user>   **** ""
1 24
ATOM$BLUE        STATIC     ATOMS    COLORGROUP SYSTEM
7 47 48 49 50 51 52 53
ATOM$RED        STATIC     ATOMS    COLORGROUP SYSTEM
1 24
