AV-unprocessed.smi:550|AV-procd|sdf|2896|dock3
  -GOLD-   2262023393D 1   1.00000     0.00000
 Structure written by MMmdl.
 46 48  0  0  0  0  0  0  0  0  2 V2000
  146.7186  140.0224  153.9032 O   0  0  0  0  0  0  0  0  0  0  0  0
  147.6442  139.3288  153.4829 C   0  0  0  0  0  0  0  0  0  0  0  0
  147.4937  138.3969  152.5310 N   0  0  0  0  0  0  0  0  0  0  0  0
  146.2403  138.0927  151.8471 C   0  0  0  0  0  0  0  0  0  0  0  0
  145.7936  136.6251  152.0410 C   0  0  2  0  0  0  0  0  0  0  0  0
  144.3469  136.3725  151.5586 C   0  0  0  0  0  0  0  0  0  0  0  0
  143.3610  136.8833  152.6186 C   0  0  0  0  0  0  0  0  0  0  0  0
  144.2155  136.6992  154.2298 S   0  0  0  0  0  0  0  0  0  0  0  0
  144.3292  138.0226  154.8611 O   0  0  0  0  0  0  0  0  0  0  0  0
  143.6523  135.5558  154.9636 O   0  0  0  0  0  0  0  0  0  0  0  0
  145.8378  136.2204  153.5233 C   0  0  0  0  0  0  0  0  0  0  0  0
  148.9164  139.3843  153.9147 N   0  0  0  0  0  0  0  0  0  0  0  0
  149.4924  140.2608  154.8753 C   0  0  0  0  0  0  0  0  0  0  0  0
  150.6268  139.8054  155.5817 C   0  0  0  0  0  0  0  0  0  0  0  0
  151.2451  140.6436  156.5321 C   0  0  0  0  0  0  0  0  0  0  0  0
  150.7239  141.9390  156.7573 C   0  0  0  0  0  0  0  0  0  0  0  0
  151.2620  142.8502  157.6768 N   0  0  0  0  0  0  0  0  0  0  0  0
  152.3183  142.3068  158.5127 C   0  0  0  0  0  0  0  0  0  0  0  0
  153.0117  143.5218  159.1330 C   0  0  0  0  0  0  0  0  0  0  0  0
  152.6939  144.6830  158.1832 C   0  0  0  0  0  0  0  0  0  0  0  0
  151.7926  144.0765  157.1035 C   0  0  0  0  0  0  0  0  0  0  0  0
  149.6416  142.3412  156.0569 N   0  3  0  0  0  0  0  0  0  0  0  0
  149.0184  141.5696  155.1400 C   0  0  0  0  0  0  0  0  0  0  0  0
  148.3052  137.8674  152.2471 H   0  0  0  0  0  0  0  0  0  0  0  0
  145.4623  138.7719  152.2003 H   0  0  0  0  0  0  0  0  0  0  0  0
  146.3742  138.3141  150.7881 H   0  0  0  0  0  0  0  0  0  0  0  0
  146.4783  135.9858  151.4821 H   0  0  0  0  0  0  0  0  0  0  0  0
  144.1446  136.8063  150.5793 H   0  0  0  0  0  0  0  0  0  0  0  0
  144.2062  135.2965  151.4500 H   0  0  0  0  0  0  0  0  0  0  0  0
  143.1406  137.9407  152.4717 H   0  0  0  0  0  0  0  0  0  0  0  0
  142.4217  136.3300  152.6254 H   0  0  0  0  0  0  0  0  0  0  0  0
  145.9346  135.1387  153.6196 H   0  0  0  0  0  0  0  0  0  0  0  0
  146.6483  136.6871  154.0838 H   0  0  0  0  0  0  0  0  0  0  0  0
  149.5452  138.6980  153.5241 H   0  0  0  0  0  0  0  0  0  0  0  0
  151.0228  138.8164  155.4017 H   0  0  0  0  0  0  0  0  0  0  0  0
  152.1078  140.2901  157.0776 H   0  0  0  0  0  0  0  0  0  0  0  0
  151.9131  141.6430  159.2770 H   0  0  0  0  0  0  0  0  0  0  0  0
  153.0258  141.7359  157.9098 H   0  0  0  0  0  0  0  0  0  0  0  0
  152.5974  143.7282  160.1206 H   0  0  0  0  0  0  0  0  0  0  0  0
  154.0838  143.3595  159.2499 H   0  0  0  0  0  0  0  0  0  0  0  0
  152.1685  145.4728  158.7217 H   0  0  0  0  0  0  0  0  0  0  0  0
  153.5942  145.1194  157.7496 H   0  0  0  0  0  0  0  0  0  0  0  0
  152.3758  143.8669  156.2063 H   0  0  0  0  0  0  0  0  0  0  0  0
  150.9867  144.7574  156.8274 H   0  0  0  0  0  0  0  0  0  0  0  0
  148.1784  142.0405  154.6525 H   0  0  0  0  0  0  0  0  0  0  0  0
  149.2781  143.2797  156.2256 H   0  0  0  0  0  0  0  0  0  0  0  0
  1  2  2  0  0  0  0
  2  3  1  0  0  0  0
  2 12  1  0  0  0  0
  3  4  1  0  0  0  0
  3 24  1  0  0  0  0
  4  5  1  0  0  0  0
  4 25  1  0  0  0  0
  4 26  1  0  0  0  0
  5 11  1  0  0  0  0
  5  6  1  0  0  0  0
  5 27  1  0  0  0  0
  6  7  1  0  0  0  0
  6 28  1  0  0  0  0
  6 29  1  0  0  0  0
  7  8  1  0  0  0  0
  7 30  1  0  0  0  0
  7 31  1  0  0  0  0
  8  9  2  0  0  0  0
  8 10  2  0  0  0  0
  8 11  1  0  0  0  0
 11 32  1  0  0  0  0
 11 33  1  0  0  0  0
 12 13  1  0  0  0  0
 12 34  1  0  0  0  0
 13 23  1  0  0  0  0
 13 14  2  0  0  0  0
 14 15  1  0  0  0  0
 14 35  1  0  0  0  0
 15 16  2  0  0  0  0
 15 36  1  0  0  0  0
 16 17  1  0  0  0  0
 16 22  1  0  0  0  0
 17 21  1  0  0  0  0
 17 18  1  0  0  0  0
 18 19  1  0  0  0  0
 18 37  1  0  0  0  0
 18 38  1  0  0  0  0
 19 20  1  0  0  0  0
 19 39  1  0  0  0  0
 19 40  1  0  0  0  0
 20 21  1  0  0  0  0
 20 41  1  0  0  0  0
 20 42  1  0  0  0  0
 21 43  1  0  0  0  0
 21 44  1  0  0  0  0
 22 23  2  0  0  0  0
 22 46  1  0  0  0  0
 23 45  1  0  0  0  0
M  CHG  1  22   1
M  END
> <s_m_source_file>
AV-unprocessed.smi

> <i_m_source_file_index>
550

> <i_lp_mmshare_version>
43012

> <i_f3d_flags>
0

> <s_epik_input>
Tz1TMSg9TylbQ0gyXVtDSDJdW0NASF0oW0NIMl0xKVtDSDJdW05IXUMoPU8pW05IXWMyW2NIXVtjSF1jKG5bY0hdMilOM1tDSDJdW0NIMl1bQ0gyXVtDSDJdMw==

> <s_epik_cmdline>
J2VwaWtfcHl0aG9uJywgJy1waCcsICc3LjAnLCAnLXRuJywgJzgnLCAnLW1hJywgJzIwMCcsICctbWV0YWxfYmluZGluZycsICctaW1hZScsICc8aW5maWxlLm1hZT4nLCAnLW9tYWUnLCAnPG91dGZpbGUubWFlPic=

> <r_lp_tautomer_probability>
0.999994

> <r_epik_Ionization_Penalty>
1.12573

> <r_epik_Ionization_Penalty_Charging>
1.12571

> <r_epik_Ionization_Penalty_Neutral>
1.93198e-05

> <r_epik_State_Penalty>
1.18495

> <r_epik_Charging_Adjusted_Penalty>
2.31065

> <i_epik_Tot_Q>
1

> <i_epik_Tot_abs_Q>
1

> <r_epik_Metal_State_Penalty>
1.26884

> <b_epik_Metal_Only>
0

> <s_lp_Force_Field>
OPLS_2005

> <r_lp_Energy>
42.4783

> <b_lp_Chiralities_Consistent>
1

> <s_lp_Variant>
AV-unprocessed.smi:550-3

> <Gold.Version>
5.8.1

> <Gold.Id.Protein>
6NUR|6NUR_protein|mol2

> <Gold.PLP.Fitness>
47.5750

> <Gold.PLP.PLP>
-39.2925

> <Gold.PLP.part.hbond>
-3.9539

> <Gold.PLP.part.metal>
0.0000

> <Gold.PLP.part.buried>
-0.8097

> <Gold.PLP.part.nonpolar>
-36.2648

> <Gold.PLP.part.repulsive>
0.6405

> <Gold.PLP.ligand.clash>
0.0000

> <Gold.PLP.ligand.torsion>
0.2860

> <Gold.PLP.Chemscore.Hbond>
2.9440

> <Gold.PLP.Chemscore.CHOScore>
0.0000

> <Gold.PLP.Chemscore.Metal>
0.0000

> <Gold.Chemscore.Hbonds>
donor molecule, donor type, donor heavy atom, donor atom, acceptor molecule, acceptor atom, score
      L1  H     3    24       P1  7948  0.94
      L1  H    22    46       P1  8028  1.98

> <Gold.PLP.Chemscore.Internal.Correction>
0.0226

> <Gold.Rescore>
     Score         DG    S(hbond)    S(metal)    S(lipo)     H(rot)  DE(clash)    DE(int)     intcor
     18.64     -19.06       2.00        0.00      91.83       1.50       0.15       0.27       ----

> <Gold.Chemscore.Fitness>
18.6430

> <Gold.Chemscore.DG>
-19.0586

> <Gold.Chemscore.ZeroCoef>
-5.4800

> <Gold.Chemscore.Hbond>
1.9955

> <Gold.Chemscore.Metal>
0.0000

> <Gold.Chemscore.Lipo>
91.8273

> <Gold.Chemscore.Internal_Hbond>
0.0000

> <Gold.Chemscore.DEClash>
0.1467

> <Gold.Chemscore.DEInternal>
0.2689

> <Gold.Chemscore.Rot>
1.4962

> <Gold.Chemscore.Internal.Correction>
   9.000000E+99

> <Gold.Chemscore.Hbonds>
donor molecule, donor type, donor heavy atom, donor atom, acceptor molecule, acceptor atom, score
      L1  H     3    24       P1  7948  0.91
      L1  H    22    46       P1  8028  0.92

> <Gold.Chemscore.Hbond.Weighted>
-6.6651

> <Gold.Chemscore.Metal.Weighted>
-0.0000

> <Gold.Chemscore.Lipo.Weighted>
-10.7438

> <Gold.Chemscore.Internal_Hbond.Weighted>
0.0000

> <Gold.Chemscore.DEClash.Weighted>
0.1467

> <Gold.Chemscore.DEInternal.Weighted>
0.2689

> <Gold.Chemscore.Rot.Weighted>
3.8303

> <Gold.Chemscore.Internal.Correction.Weighted>
   9.000000E+99

> <Gold.Protein.RotatedTorsions>
[ 6907 6896 6895 6894 ] final  128.55 input  -60.11 | X-H torsion
[ 7974 7965 7964 7962 ] final  111.90 input  175.53 | X-H torsion
[ 8008 7997 7996 7995 ] final -129.55 input   59.86 | X-H torsion
[ 10167 10162 10161 10158 ] final   48.96 input  -65.29 | X-H torsion
[ 10718 10713 10712 10709 ] final   94.52 input   66.30 | X-H torsion
[ 10763 10752 10751 10750 ] final -132.09 input  -60.55 | X-H torsion
[ 11005 11000 10999 10996 ] final -179.73 input  -57.11 | X-H torsion

> <Gold.Protein.ActiveResidues>
 VAL166  LYS551  ARG553  GLY616  TRP617  ASP618  TYR619  PRO620  LYS621  CYS622 
 ASP623  PHE694  ASN695  SER759  ASP760  ASP761  ALA762  ILE779  LEU786  VAL792 
 PHE793  MET794  SER795  GLU796  ALA797  LYS798  CYS799  TRP800  GLU811  SER814 

> <Gold.Protein.RotatedAtoms>
  152.3709  133.6417  159.6086 H   0  0  0  0  0  0  0  0  0  0  0  0  # atno 6907 bound_to 6896
  150.7668  133.9272  159.3424 H   0  0  0  0  0  0  0  0  0  0  0  0  # atno 6908 bound_to 6896
  151.7095  135.0916  160.0316 H   0  0  0  0  0  0  0  0  0  0  0  0  # atno 6909 bound_to 6896
  145.2364  139.2797  143.4141 H   0  0  0  0  0  0  0  0  0  0  0  0  # atno 7974 bound_to 7965
  155.2811  140.0444  157.3015 H   0  0  0  0  0  0  0  0  0  0  0  0  # atno 8008 bound_to 7997
  154.5596  140.2342  155.8324 H   0  0  0  0  0  0  0  0  0  0  0  0  # atno 8009 bound_to 7997
  156.2036  140.3018  155.9587 H   0  0  0  0  0  0  0  0  0  0  0  0  # atno 8010 bound_to 7997
  140.2879  144.3081  150.6248 H   0  0  0  0  0  0  0  0  0  0  0  0  # atno 10167 bound_to 10162
  157.6947  131.0515  150.4199 H   0  0  0  0  0  0  0  0  0  0  0  0  # atno 10718 bound_to 10713
  154.8746  135.3809  154.4353 H   0  0  0  0  0  0  0  0  0  0  0  0  # atno 10763 bound_to 10752
  153.5043  135.7030  153.5820 H   0  0  0  0  0  0  0  0  0  0  0  0  # atno 10764 bound_to 10752
  153.4138  135.3918  155.2034 H   0  0  0  0  0  0  0  0  0  0  0  0  # atno 10765 bound_to 10752
  140.4153  134.6654  157.4636 H   0  0  0  0  0  0  0  0  0  0  0  0  # atno 11005 bound_to 11000
  146.3340  140.2714  142.8606 LP  0  0  0  0  0  0  0  0  0  0  0  0  # atno 17320 bound_to 7965
  144.9629  140.8293  143.5502 LP  0  0  0  0  0  0  0  0  0  0  0  0  # atno 17321 bound_to 7965
  140.5757  143.2176  151.7519 LP  0  0  0  0  0  0  0  0  0  0  0  0  # atno 17342 bound_to 10162
  139.4945  144.4153  152.0037 LP  0  0  0  0  0  0  0  0  0  0  0  0  # atno 17343 bound_to 10162
  156.4575  130.4025  149.6597 LP  0  0  0  0  0  0  0  0  0  0  0  0  # atno 17370 bound_to 10713
  156.3724  130.7537  151.2521 LP  0  0  0  0  0  0  0  0  0  0  0  0  # atno 17371 bound_to 10713
  140.0238  134.6507  155.9202 LP  0  0  0  0  0  0  0  0  0  0  0  0  # atno 17394 bound_to 11000
  141.1805  133.6546  156.5001 LP  0  0  0  0  0  0  0  0  0  0  0  0  # atno 17395 bound_to 11000

$$$$
