#       Name:                AV-unprocessed.smi:853
#       Creating user name   scv26
#       Creation time:       Fri Mar 27 01:42:27 2020


#       File generated by GOLD software.
#

@<TRIPOS>MOLECULE
AV-unprocessed.smi:853
    54    56     1
SMALL
NO_CHARGES


@<TRIPOS>ATOM
      1 ****        -5.9784  -4.3085  -2.0562 C.3            1 S1                 0.0000
      2 ****        -5.7779  -4.0649  -0.5587 C.2            1 S1                 0.0000
      3 ****        -5.9562  -5.0102   0.2097 O.2            1 S1                 0.0000
      4 ****        -5.4125  -2.8324  -0.1309 N.am           1 S1                 0.0000
      5 ****        -5.1331  -2.5319   1.2781 C.3            1 S1                 0.0000
      6 ****        -3.6208  -2.3002   1.4464 C.3            1 S1                 0.0000
      7 ****        -3.1131  -1.1881   0.5036 C.3            1 S1                 0.0000
      8 ****        -1.6556  -1.1278   0.5592 N.am           1 S1                 0.0000
      9 ****        -0.9137  -0.0458   0.2839 C.2            1 S1                 0.0000
     10 ****        -1.3914   1.0335  -0.0649 O.2            1 S1                 0.0000
     11 ****         0.3966  -0.3115   0.4222 N.am           1 S1                 0.0000
     12 ****         1.5066   0.5619   0.2628 C.ar           1 S1                 0.0000
     13 ****         1.4247   1.9741   0.2616 C.ar           1 S1                 0.0000
     14 ****         2.6063   2.7261   0.1174 C.ar           1 S1                 0.0000
     15 ****         3.8436   2.0516  -0.0109 C.ar           1 S1                 0.0000
     16 ****         5.0484   2.7681  -0.1557 N.pl3          1 S1                 0.0000
     17 ****         6.3419   2.1033  -0.1136 C.3            1 S1                 0.0000
     18 ****         7.3620   3.2401  -0.1439 C.3            1 S1                 0.0000
     19 ****         6.6472   4.3650   0.6042 C.3            1 S1                 0.0000
     20 ****         5.1662   4.1577   0.2666 C.3            1 S1                 0.0000
     21 ****         3.9196   0.6995  -0.0079 N.ar           1 S1                 0.0000
     22 ****         2.7846  -0.0167   0.1304 C.ar           1 S1                 0.0000
     23 ****        -3.5947  -1.4154  -0.9481 C.3            1 S1                 0.0000
     24 ****        -5.1087  -1.6871  -0.9978 C.3            1 S1                 0.0000
     25 ****        -5.0644  -4.0920  -2.6100 H              1 S1                 0.0000
     26 ****        -6.7852  -3.6859  -2.4438 H              1 S1                 0.0000
     27 ****        -6.2418  -5.3499  -2.2443 H              1 S1                 0.0000
     28 ****        -5.6853  -1.6387   1.5744 H              1 S1                 0.0000
     29 ****        -5.4645  -3.3222   1.9530 H              1 S1                 0.0000
     30 ****        -3.3973  -2.0436   2.4826 H              1 S1                 0.0000
     31 ****        -3.0934  -3.2326   1.2380 H              1 S1                 0.0000
     32 ****        -3.5249  -0.2413   0.8587 H              1 S1                 0.0000
     33 ****        -1.1772  -1.9741   0.8315 H              1 S1                 0.0000
     34 ****         0.6320  -1.2691   0.6385 H              1 S1                 0.0000
     35 ****         0.4896   2.4983   0.3800 H              1 S1                 0.0000
     36 ****         2.5460   3.8041   0.1064 H              1 S1                 0.0000
     37 ****         6.4289   1.5334   0.8127 H              1 S1                 0.0000
     38 ****         6.4731   1.4208  -0.9539 H              1 S1                 0.0000
     39 ****         8.3167   2.9665   0.3058 H              1 S1                 0.0000
     40 ****         7.5474   3.5431  -1.1753 H              1 S1                 0.0000
     41 ****         6.7976   4.2392   1.6774 H              1 S1                 0.0000
     42 ****         7.0088   5.3564   0.3297 H              1 S1                 0.0000
     43 ****         4.8637   4.8026  -0.5589 H              1 S1                 0.0000
     44 ****         4.5368   4.3836   1.1281 H              1 S1                 0.0000
     45 ****         2.9036  -1.0904   0.1340 H              1 S1                 0.0000
     46 ****        -3.3543  -0.5486  -1.5648 H              1 S1                 0.0000
     47 ****        -3.0651  -2.2629  -1.3862 H              1 S1                 0.0000
     48 ****        -5.4266  -1.8233  -2.0303 H              1 S1                 0.0000
     49 ****        -5.6545  -0.8130  -0.6397 H              1 S1                 0.0000
     50 ****        -6.2238  -5.9038  -0.1506 LP             1 S1                 0.0000
     51 ****        -5.8334  -4.8844   1.1941 LP             1 S1                 0.0000
     52 ****        -2.3820   1.1359  -0.1556 LP             1 S1                 0.0000
     53 ****        -0.7890   1.8080  -0.2576 LP             1 S1                 0.0000
     54 ****         4.8021   0.2396  -0.1066 LP             1 S1                 0.0000
@<TRIPOS>BOND
    1    1    2 1     
    2    1   25 1     
    3    1   26 1     
    4    1   27 1     
    5    2    3 2     
    6    2    4 am    
    7    4   24 1     
    8    4    5 1     
    9    5    6 1     
   10    5   28 1     
   11    5   29 1     
   12    6    7 1     
   13    6   30 1     
   14    6   31 1     
   15    7    8 1     
   16    7   23 1     
   17    7   32 1     
   18    8    9 am    
   19    8   33 1     
   20    9   10 2     
   21    9   11 am    
   22   11   12 1     
   23   11   34 1     
   24   12   22 ar    
   25   12   13 ar    
   26   13   14 ar    
   27   13   35 1     
   28   14   15 ar    
   29   14   36 1     
   30   15   16 1     
   31   15   21 ar    
   32   16   20 1     
   33   16   17 1     
   34   17   18 1     
   35   17   37 1     
   36   17   38 1     
   37   18   19 1     
   38   18   39 1     
   39   18   40 1     
   40   19   20 1     
   41   19   41 1     
   42   19   42 1     
   43   20   43 1     
   44   20   44 1     
   45   21   22 ar    
   46   22   45 1     
   47   23   24 1     
   48   23   46 1     
   49   23   47 1     
   50   24   48 1     
   51   24   49 1     
   52    3   50 1     
   53    3   51 1     
   54   10   52 1     
   55   10   53 1     
   56   21   54 1     
@<TRIPOS>SUBSTRUCTURE
      1 S1             1
@<TRIPOS>SET
LONE_PAIRS      STATIC     ATOMS    <user>   **** ""
5 50 51 52 53 54
DONOR_HYDROGENS      STATIC     ATOMS    <user>   **** ""
2 33 34
ATOM$BLUE        STATIC     ATOMS    COLORGROUP SYSTEM
5 50 51 52 53 54
ATOM$RED        STATIC     ATOMS    COLORGROUP SYSTEM
2 33 34
