AV-unprocessed.smi:3031|AV-procd|sdf|11554|dock10
  -GOLD-   2272016523D 1   1.00000     0.00000
 Structure written by MMmdl.
 46 47  0  0  0  0  0  0  0  0  1 V2000
  153.6596  142.3389  162.3370 C   0  0  0  0  0  0  0  0  0  0  0  0
  153.0019  142.9693  161.1436 C   0  0  0  0  0  0  0  0  0  0  0  0
  152.1157  144.0835  161.1177 C   0  0  0  0  0  0  0  0  0  0  0  0
  151.7073  144.3869  159.8965 N   0  0  0  0  0  0  0  0  0  0  0  0
  152.3305  143.4934  159.0981 N   0  0  0  0  0  0  0  0  0  0  0  0
  152.0920  143.5173  157.6638 C   0  0  0  0  0  0  0  0  0  0  0  0
  151.1508  142.3923  157.1644 C   0  0  1  0  0  0  0  0  0  0  0  0
  149.8811  142.3378  158.0259 C   0  0  0  0  0  0  0  0  0  0  0  0
  150.7542  142.5494  155.7594 N   0  0  0  0  0  0  0  0  0  0  0  0
  149.9666  141.4604  155.1829 C   0  0  0  0  0  0  0  0  0  0  0  0
  150.5915  140.9516  153.8740 C   0  0  2  0  0  0  0  0  0  0  0  0
  149.8155  141.4689  152.8128 O   0  0  0  0  0  0  0  0  0  0  0  0
  150.5700  139.4101  153.7794 C   0  0  0  0  0  0  0  0  0  0  0  0
  151.5496  138.7089  154.6112 N   0  0  0  0  0  0  0  0  0  0  0  0
  152.8722  139.3093  154.4711 C   0  0  0  0  0  0  0  0  0  0  0  0
  153.9232  138.5963  155.3387 C   0  0  0  0  0  0  0  0  0  0  0  0
  153.9640  137.2157  154.9945 O   0  0  0  0  0  0  0  0  0  0  0  0
  152.7036  136.5735  155.1565 C   0  0  0  0  0  0  0  0  0  0  0  0
  151.6426  137.2841  154.2972 C   0  0  0  0  0  0  0  0  0  0  0  0
  153.1016  142.6131  159.8286 C   0  0  0  0  0  0  0  0  0  0  0  0
  153.4503  142.8897  163.2544 H   0  0  0  0  0  0  0  0  0  0  0  0
  154.7435  142.3021  162.2253 H   0  0  0  0  0  0  0  0  0  0  0  0
  153.3167  141.3157  162.4912 H   0  0  0  0  0  0  0  0  0  0  0  0
  151.7559  144.6750  161.9467 H   0  0  0  0  0  0  0  0  0  0  0  0
  151.6528  144.4905  157.4414 H   0  0  0  0  0  0  0  0  0  0  0  0
  153.0437  143.4851  157.1302 H   0  0  0  0  0  0  0  0  0  0  0  0
  151.6492  141.4300  157.2866 H   0  0  0  0  0  0  0  0  0  0  0  0
  150.1226  142.1479  159.0721 H   0  0  0  0  0  0  0  0  0  0  0  0
  149.2142  141.5402  157.6966 H   0  0  0  0  0  0  0  0  0  0  0  0
  149.3275  143.2763  157.9776 H   0  0  0  0  0  0  0  0  0  0  0  0
  150.2487  143.4227  155.6494 H   0  0  0  0  0  0  0  0  0  0  0  0
  149.8820  140.6301  155.8816 H   0  0  0  0  0  0  0  0  0  0  0  0
  148.9536  141.8136  154.9850 H   0  0  0  0  0  0  0  0  0  0  0  0
  151.6019  141.3493  153.7867 H   0  0  0  0  0  0  0  0  0  0  0  0
  149.9164  140.9012  152.0641 H   0  0  0  0  0  0  0  0  0  0  0  0
  149.5727  139.0470  154.0325 H   0  0  0  0  0  0  0  0  0  0  0  0
  150.7232  139.1350  152.7347 H   0  0  0  0  0  0  0  0  0  0  0  0
  153.1853  139.2751  153.4264 H   0  0  0  0  0  0  0  0  0  0  0  0
  152.8320  140.3629  154.7499 H   0  0  0  0  0  0  0  0  0  0  0  0
  154.9086  139.0335  155.1771 H   0  0  0  0  0  0  0  0  0  0  0  0
  153.6913  138.7091  156.3989 H   0  0  0  0  0  0  0  0  0  0  0  0
  152.7952  135.5291  154.8583 H   0  0  0  0  0  0  0  0  0  0  0  0
  152.4164  136.5824  156.2092 H   0  0  0  0  0  0  0  0  0  0  0  0
  150.6840  136.7936  154.4604 H   0  0  0  0  0  0  0  0  0  0  0  0
  151.8864  137.1524  153.2420 H   0  0  0  0  0  0  0  0  0  0  0  0
  153.6571  141.8158  159.3572 H   0  0  0  0  0  0  0  0  0  0  0  0
  1  2  1  0  0  0  0
  1 21  1  0  0  0  0
  1 22  1  0  0  0  0
  1 23  1  0  0  0  0
  2 20  2  0  0  0  0
  2  3  1  0  0  0  0
  3  4  2  0  0  0  0
  3 24  1  0  0  0  0
  4  5  1  0  0  0  0
  5  6  1  0  0  0  0
  5 20  1  0  0  0  0
  6  7  1  0  0  0  0
  6 25  1  0  0  0  0
  6 26  1  0  0  0  0
  7  8  1  0  0  0  0
  7  9  1  0  0  0  0
  7 27  1  0  0  0  0
  8 28  1  0  0  0  0
  8 29  1  0  0  0  0
  8 30  1  0  0  0  0
  9 10  1  0  0  0  0
  9 31  1  0  0  0  0
 10 11  1  0  0  0  0
 10 32  1  0  0  0  0
 10 33  1  0  0  0  0
 11 12  1  0  0  0  0
 11 13  1  0  0  0  0
 11 34  1  0  0  0  0
 12 35  1  0  0  0  0
 13 14  1  0  0  0  0
 13 36  1  0  0  0  0
 13 37  1  0  0  0  0
 14 19  1  0  0  0  0
 14 15  1  0  0  0  0
 15 16  1  0  0  0  0
 15 38  1  0  0  0  0
 15 39  1  0  0  0  0
 16 17  1  0  0  0  0
 16 40  1  0  0  0  0
 16 41  1  0  0  0  0
 17 18  1  0  0  0  0
 18 19  1  0  0  0  0
 18 42  1  0  0  0  0
 18 43  1  0  0  0  0
 19 44  1  0  0  0  0
 19 45  1  0  0  0  0
 20 46  1  0  0  0  0
M  END
> <s_m_source_file>
AV-unprocessed.smi

> <i_m_source_file_index>
3031

> <i_lp_mmshare_version>
43012

> <i_f3d_flags>
0

> <s_epik_input>
W0NIM11jMVtjSF1ubihbY0hdMSlbQ0gyXVtDQEhdKFtDSDNdKVtOSF1bQ0gyXVtDQEhdKFtPSF0pW0NIMl1OMltDSDJdW0NIMl1PW0NIMl1bQ0gyXTI=

> <s_epik_cmdline>
J2VwaWtfcHl0aG9uJywgJy1waCcsICc3LjAnLCAnLXRuJywgJzgnLCAnLW1hJywgJzIwMCcsICctbWV0YWxfYmluZGluZycsICctaW1hZScsICc8aW5maWxlLm1hZT4nLCAnLW9tYWUnLCAnPG91dGZpbGUubWFlPic=

> <r_lp_tautomer_probability>
1

> <r_epik_Ionization_Penalty>
2.8101

> <r_epik_Ionization_Penalty_Charging>
0

> <r_epik_Ionization_Penalty_Neutral>
2.8101

> <r_epik_State_Penalty>
2.12351

> <r_epik_Charging_Adjusted_Penalty>
2.12351

> <i_epik_Tot_Q>
0

> <i_epik_Tot_abs_Q>
0

> <r_epik_Metal_State_Penalty>
2.12345

> <b_epik_Metal_Only>
0

> <s_lp_Force_Field>
OPLS_2005

> <r_lp_Energy>
32.7569

> <b_lp_Chiralities_Consistent>
1

> <s_lp_Variant>
AV-unprocessed.smi:3031-14

> <Gold.Version>
5.8.1

> <Gold.Id.Protein>
6NUR|6NUR_protein|mol2

> <Gold.PLP.Fitness>
53.6478

> <Gold.PLP.PLP>
-44.8427

> <Gold.PLP.part.hbond>
-4.3780

> <Gold.PLP.part.metal>
0.0000

> <Gold.PLP.part.buried>
-4.4110

> <Gold.PLP.part.nonpolar>
-36.5750

> <Gold.PLP.part.repulsive>
0.1335

> <Gold.PLP.ligand.clash>
0.0000

> <Gold.PLP.ligand.torsion>
1.3761

> <Gold.PLP.Chemscore.Hbond>
3.8240

> <Gold.PLP.Chemscore.CHOScore>
0.0000

> <Gold.PLP.Chemscore.Metal>
0.0000

> <Gold.Chemscore.Hbonds>
donor molecule, donor type, donor heavy atom, donor atom, acceptor molecule, acceptor atom, score
      L1  H     9    31       P1  8028  1.00
      L1  H    12    35       P1  7957  0.32

> <Gold.PLP.Chemscore.Internal.Correction>
0.0854

> <Gold.Rescore>
     Score         DG    S(hbond)    S(metal)    S(lipo)     H(rot)  DE(clash)    DE(int)     intcor
     19.82     -21.26       2.95        0.00     105.99       2.53       0.01       1.43       ----

> <Gold.Chemscore.Fitness>
19.8193

> <Gold.Chemscore.DG>
-21.2621

> <Gold.Chemscore.ZeroCoef>
-5.4800

> <Gold.Chemscore.Hbond>
2.9539

> <Gold.Chemscore.Metal>
0.0000

> <Gold.Chemscore.Lipo>
105.9929

> <Gold.Chemscore.Internal_Hbond>
0.0000

> <Gold.Chemscore.DEClash>
0.0089

> <Gold.Chemscore.DEInternal>
1.4339

> <Gold.Chemscore.Rot>
2.5333

> <Gold.Chemscore.Internal.Correction>
   9.000000E+99

> <Gold.Chemscore.Hbonds>
donor molecule, donor type, donor heavy atom, donor atom, acceptor molecule, acceptor atom, score
      L1  H     9    31       P1  8028  1.00
      L1  H    12    35       P1  7957  0.33

> <Gold.Chemscore.Hbond.Weighted>
-9.8661

> <Gold.Chemscore.Metal.Weighted>
-0.0000

> <Gold.Chemscore.Lipo.Weighted>
-12.4012

> <Gold.Chemscore.Internal_Hbond.Weighted>
0.0000

> <Gold.Chemscore.DEClash.Weighted>
0.0089

> <Gold.Chemscore.DEInternal.Weighted>
1.4339

> <Gold.Chemscore.Rot.Weighted>
6.4852

> <Gold.Chemscore.Internal.Correction.Weighted>
   9.000000E+99

> <Gold.Protein.RotatedTorsions>
[ 6907 6896 6895 6894 ] final -170.13 input  -60.11 | X-H torsion
[ 7974 7965 7964 7962 ] final   13.76 input  175.53 | X-H torsion
[ 8008 7997 7996 7995 ] final  127.31 input   59.86 | X-H torsion
[ 10167 10162 10161 10158 ] final  144.36 input  -65.29 | X-H torsion
[ 10718 10713 10712 10709 ] final   -0.85 input   66.30 | X-H torsion
[ 10763 10752 10751 10750 ] final   79.24 input  -60.55 | X-H torsion
[ 11005 11000 10999 10996 ] final  110.98 input  -57.11 | X-H torsion

> <Gold.Protein.ActiveResidues>
 VAL166  LYS551  ARG553  GLY616  TRP617  ASP618  TYR619  PRO620  LYS621  CYS622 
 ASP623  PHE694  ASN695  SER759  ASP760  ASP761  ALA762  ILE779  LEU786  VAL792 
 PHE793  MET794  SER795  GLU796  ALA797  LYS798  CYS799  TRP800  GLU811  SER814 

> <Gold.Protein.RotatedAtoms>
  151.5028  133.3501  159.2871 H   0  0  0  0  0  0  0  0  0  0  0  0  # atno 6907 bound_to 6896
  150.8762  134.8147  159.7202 H   0  0  0  0  0  0  0  0  0  0  0  0  # atno 6908 bound_to 6896
  152.4732  134.4919  159.9750 H   0  0  0  0  0  0  0  0  0  0  0  0  # atno 6909 bound_to 6896
  146.2322  139.9141  142.8520 H   0  0  0  0  0  0  0  0  0  0  0  0  # atno 7974 bound_to 7965
  156.2887  140.2672  156.2252 H   0  0  0  0  0  0  0  0  0  0  0  0  # atno 8008 bound_to 7997
  155.0128  140.0387  157.2424 H   0  0  0  0  0  0  0  0  0  0  0  0  # atno 8009 bound_to 7997
  154.7503  140.2742  155.6303 H   0  0  0  0  0  0  0  0  0  0  0  0  # atno 8010 bound_to 7997
  139.4949  144.5977  151.6547 H   0  0  0  0  0  0  0  0  0  0  0  0  # atno 10167 bound_to 10162
  156.8143  130.5435  149.5705 H   0  0  0  0  0  0  0  0  0  0  0  0  # atno 10718 bound_to 10713
  153.0937  135.4847  154.8738 H   0  0  0  0  0  0  0  0  0  0  0  0  # atno 10763 bound_to 10752
  154.7299  135.3058  154.8910 H   0  0  0  0  0  0  0  0  0  0  0  0  # atno 10764 bound_to 10752
  153.9549  135.6819  153.4797 H   0  0  0  0  0  0  0  0  0  0  0  0  # atno 10765 bound_to 10752
  139.8893  134.9497  156.6362 H   0  0  0  0  0  0  0  0  0  0  0  0  # atno 11005 bound_to 11000
  145.2200  140.9931  143.4051 LP  0  0  0  0  0  0  0  0  0  0  0  0  # atno 17320 bound_to 7965
  144.9618  139.3972  143.6352 LP  0  0  0  0  0  0  0  0  0  0  0  0  # atno 17321 bound_to 7965
  140.5620  144.0253  150.6174 LP  0  0  0  0  0  0  0  0  0  0  0  0  # atno 17342 bound_to 10162
  140.3342  143.3059  152.0655 LP  0  0  0  0  0  0  0  0  0  0  0  0  # atno 17343 bound_to 10162
  156.1026  130.5980  150.9919 LP  0  0  0  0  0  0  0  0  0  0  0  0  # atno 17370 bound_to 10713
  157.6490  131.0900  150.8092 LP  0  0  0  0  0  0  0  0  0  0  0  0  # atno 17371 bound_to 10713
  140.7628  133.8803  155.8431 LP  0  0  0  0  0  0  0  0  0  0  0  0  # atno 17394 bound_to 11000
  140.9907  134.1282  157.4410 LP  0  0  0  0  0  0  0  0  0  0  0  0  # atno 17395 bound_to 11000

$$$$
