AV-unprocessed.smi:157|AV-procd|sdf|1316|dock2
  -GOLD-   2262019 13D 1   1.00000     0.00000
 Structure written by MMmdl.
 36 38  0  0  0  0  0  0  0  0  2 V2000
  144.2501  132.5027  148.3633 O   0  0  0  0  0  0  0  0  0  0  0  0
  145.2760  132.0851  149.2383 C   0  0  0  0  0  0  0  0  0  0  0  0
  145.0331  132.6361  150.6523 C   0  0  2  0  0  0  0  0  0  0  0  0
  144.7385  134.0327  150.5737 O   0  0  0  0  0  0  0  0  0  0  0  0
  145.5852  134.7440  151.4226 C   0  0  1  0  0  0  0  0  0  0  0  0
  144.8140  135.8439  152.0742 N   0  0  0  0  0  0  0  0  0  0  0  0
  145.1215  137.1584  152.0695 C   0  0  0  0  0  0  0  0  0  0  0  0
  144.2583  137.9210  152.7196 N   0  3  0  0  0  0  0  0  0  0  0  0
  143.2792  137.0790  153.2034 C   0  0  0  0  0  0  0  0  0  0  0  0
  143.6458  135.7933  152.7979 C   0  0  0  0  0  0  0  0  0  0  0  0
  143.0054  134.5636  153.0147 N   0  0  0  0  0  0  0  0  0  0  0  0
  142.0818  134.3992  153.9050 C   0  0  0  0  0  0  0  0  0  0  0  0
  141.4842  135.3398  154.7271 N   0  0  0  0  0  0  0  0  0  0  0  0
  141.0046  136.6236  154.2464 C   0  0  0  0  0  0  0  0  0  0  0  0
  142.1235  137.6374  153.9734 C   0  0  1  0  0  0  0  0  0  0  0  0
  142.5178  138.2155  155.2004 O   0  0  0  0  0  0  0  0  0  0  0  0
  146.0827  133.7521  152.4623 C   0  0  0  0  0  0  0  0  0  0  0  0
  146.2397  132.5201  151.5990 C   0  0  1  0  0  0  0  0  0  0  0  0
  146.2047  131.3489  152.3881 O   0  0  0  0  0  0  0  0  0  0  0  0
  144.1560  132.1619  151.0965 H   0  0  0  0  0  0  0  0  0  0  0  0
  146.3820  135.2266  150.8549 H   0  0  0  0  0  0  0  0  0  0  0  0
  141.6956  138.4491  153.3837 H   0  0  0  0  0  0  0  0  0  0  0  0
  147.1788  132.5723  151.0457 H   0  0  0  0  0  0  0  0  0  0  0  0
  144.4063  133.4034  148.1234 H   0  0  0  0  0  0  0  0  0  0  0  0
  145.3356  130.9964  149.2458 H   0  0  0  0  0  0  0  0  0  0  0  0
  146.2248  132.4567  148.8500 H   0  0  0  0  0  0  0  0  0  0  0  0
  145.9940  137.5488  151.5765 H   0  0  0  0  0  0  0  0  0  0  0  0
  141.6770  133.3991  154.0665 H   0  0  0  0  0  0  0  0  0  0  0  0
  140.9448  135.0168  155.5177 H   0  0  0  0  0  0  0  0  0  0  0  0
  140.4591  136.4410  153.3193 H   0  0  0  0  0  0  0  0  0  0  0  0
  140.2774  137.0305  154.9499 H   0  0  0  0  0  0  0  0  0  0  0  0
  143.4269  138.0112  155.3559 H   0  0  0  0  0  0  0  0  0  0  0  0
  147.0072  134.0925  152.9299 H   0  0  0  0  0  0  0  0  0  0  0  0
  145.3166  133.6075  153.2267 H   0  0  0  0  0  0  0  0  0  0  0  0
  146.3176  131.5905  153.2945 H   0  0  0  0  0  0  0  0  0  0  0  0
  144.3071  138.9260  152.8291 H   0  0  0  0  0  0  0  0  0  0  0  0
  1  2  1  0  0  0  0
  1 24  1  0  0  0  0
  2  3  1  0  0  0  0
  2 25  1  0  0  0  0
  2 26  1  0  0  0  0
  3 20  1  0  0  0  0
  3 18  1  0  0  0  0
  3  4  1  0  0  0  0
  4  5  1  0  0  0  0
  5 21  1  0  0  0  0
  5  6  1  0  0  0  0
  5 17  1  0  0  0  0
  6 10  1  0  0  0  0
  6  7  1  0  0  0  0
  7  8  2  0  0  0  0
  7 27  1  0  0  0  0
  8  9  1  0  0  0  0
  8 36  1  0  0  0  0
  9 15  1  0  0  0  0
  9 10  2  0  0  0  0
 10 11  1  0  0  0  0
 11 12  2  0  0  0  0
 12 13  1  0  0  0  0
 12 28  1  0  0  0  0
 13 14  1  0  0  0  0
 13 29  1  0  0  0  0
 14 15  1  0  0  0  0
 14 30  1  0  0  0  0
 14 31  1  0  0  0  0
 15 22  1  0  0  0  0
 15 16  1  0  0  0  0
 16 32  1  0  0  0  0
 17 18  1  0  0  0  0
 17 33  1  0  0  0  0
 17 34  1  0  0  0  0
 18 23  1  0  0  0  0
 18 19  1  0  0  0  0
 19 35  1  0  0  0  0
M  CHG  1   8   1
M  END
> <s_m_source_file>
AV-unprocessed.smi

> <i_m_source_file_index>
157

> <i_lp_mmshare_version>
43012

> <i_f3d_flags>
0

> <s_epik_input>
W09IXVtDSDJdW0NASF0xT1tDQEhdKFtDSDJdW0NAQEhdMVtPSF0pbihbY0hdbjIpYyhjMjMpTj1bQ0hdW05IXVtDSDJdW0NASF0zW09IXQ==

> <s_epik_cmdline>
J2VwaWtfcHl0aG9uJywgJy1waCcsICc3LjAnLCAnLXRuJywgJzgnLCAnLW1hJywgJzIwMCcsICctbWV0YWxfYmluZGluZycsICctaW1hZScsICc8aW5maWxlLm1hZT4nLCAnLW9tYWUnLCAnPG91dGZpbGUubWFlPic=

> <r_epik_Ionization_Penalty>
1.68594

> <r_epik_Ionization_Penalty_Charging>
0

> <r_epik_Ionization_Penalty_Neutral>
1.68594

> <r_epik_State_Penalty>
1.79006

> <r_epik_Charging_Adjusted_Penalty>
1.79006

> <i_epik_Tot_Q>
1

> <i_epik_Tot_abs_Q>
1

> <r_epik_Metal_State_Penalty>
5.85324

> <b_epik_Metal_Only>
0

> <s_epik_Chemistry_Notes>
This compound has an imine and may undergo hydrolysis. This compound contains an acetal/aminal-like group ( X-CH(R)-Y where X, Y are N, S, or O) that may be acid/base labile, releasing an aldehyde.

> <s_lp_Force_Field>
OPLS_2005

> <r_lp_Energy>
52.5264

> <b_lp_Chiralities_Consistent>
1

> <s_lp_Variant>
AV-unprocessed.smi:157-26

> <Gold.Version>
5.8.1

> <Gold.Id.Protein>
6NUR|6NUR_protein|mol2

> <Gold.PLP.Fitness>
46.6624

> <Gold.PLP.PLP>
-33.1126

> <Gold.PLP.part.hbond>
-4.9852

> <Gold.PLP.part.metal>
0.0000

> <Gold.PLP.part.buried>
-3.8608

> <Gold.PLP.part.nonpolar>
-24.7428

> <Gold.PLP.part.repulsive>
0.5051

> <Gold.PLP.ligand.clash>
0.0000

> <Gold.PLP.ligand.torsion>
0.1165

> <Gold.PLP.Chemscore.Hbond>
3.8324

> <Gold.PLP.Chemscore.CHOScore>
0.7577

> <Gold.PLP.Chemscore.Metal>
0.0000

> <Gold.Chemscore.Hbonds>
donor molecule, donor type, donor heavy atom, donor atom, acceptor molecule, acceptor atom, score
      L1  H     1    24       P1  7921  0.34
      L1  H     8    36       P1 10175  1.92
      L1  H    13    29       P1 11000  1.00
      L1  C    12    28       P1 10957  0.93

> <Gold.PLP.Chemscore.Internal.Correction>
0.0124

> <Gold.Rescore>
     Score         DG    S(hbond)    S(metal)    S(lipo)     H(rot)  DE(clash)    DE(int)     intcor
      9.72     -10.51       2.69        0.00      46.49       3.67       0.62       0.16       ----

> <Gold.Chemscore.Fitness>
9.7226

> <Gold.Chemscore.DG>
-10.5063

> <Gold.Chemscore.ZeroCoef>
-5.4800

> <Gold.Chemscore.Hbond>
2.6862

> <Gold.Chemscore.Metal>
0.0000

> <Gold.Chemscore.Lipo>
46.4897

> <Gold.Chemscore.Internal_Hbond>
0.0000

> <Gold.Chemscore.DEClash>
0.6191

> <Gold.Chemscore.DEInternal>
0.1645

> <Gold.Chemscore.Rot>
3.6659

> <Gold.Chemscore.Internal.Correction>
   9.000000E+99

> <Gold.Chemscore.Hbonds>
donor molecule, donor type, donor heavy atom, donor atom, acceptor molecule, acceptor atom, score
      L1  H     1    24       P1  7921  0.33
      L1  H     8    36       P1 10175  0.92
      L1  H    13    29       P1 11000  0.53

> <Gold.Chemscore.Hbond.Weighted>
-8.9718

> <Gold.Chemscore.Metal.Weighted>
-0.0000

> <Gold.Chemscore.Lipo.Weighted>
-5.4393

> <Gold.Chemscore.Internal_Hbond.Weighted>
0.0000

> <Gold.Chemscore.DEClash.Weighted>
0.6191

> <Gold.Chemscore.DEInternal.Weighted>
0.1645

> <Gold.Chemscore.Rot.Weighted>
9.3848

> <Gold.Chemscore.Internal.Correction.Weighted>
   9.000000E+99

> <Gold.Protein.RotatedTorsions>
[ 6907 6896 6895 6894 ] final    3.09 input  -60.11 | X-H torsion
[ 7974 7965 7964 7962 ] final   18.32 input  175.53 | X-H torsion
[ 8008 7997 7996 7995 ] final  120.66 input   59.86 | X-H torsion
[ 10167 10162 10161 10158 ] final  -64.87 input  -65.29 | X-H torsion
[ 10718 10713 10712 10709 ] final   59.81 input   66.30 | X-H torsion
[ 10763 10752 10751 10750 ] final -126.39 input  -60.55 | X-H torsion
[ 11005 11000 10999 10996 ] final -128.84 input  -57.11 | X-H torsion

> <Gold.Protein.ActiveResidues>
 VAL166  LYS551  ARG553  GLY616  TRP617  ASP618  TYR619  PRO620  LYS621  CYS622 
 ASP623  PHE694  ASN695  SER759  ASP760  ASP761  ALA762  ILE779  LEU786  VAL792 
 PHE793  MET794  SER795  GLU796  ALA797  LYS798  CYS799  TRP800  GLU811  SER814 

> <Gold.Protein.RotatedAtoms>
  151.6195  135.1033  160.0098 H   0  0  0  0  0  0  0  0  0  0  0  0  # atno 6907 bound_to 6896
  152.4165  133.7043  159.6452 H   0  0  0  0  0  0  0  0  0  0  0  0  # atno 6908 bound_to 6896
  150.8053  133.8447  159.3229 H   0  0  0  0  0  0  0  0  0  0  0  0  # atno 6909 bound_to 6896
  146.2189  139.8474  142.8629 H   0  0  0  0  0  0  0  0  0  0  0  0  # atno 7974 bound_to 7965
  156.2652  140.2826  156.1185 H   0  0  0  0  0  0  0  0  0  0  0  0  # atno 8008 bound_to 7997
  155.1181  140.0392  157.2760 H   0  0  0  0  0  0  0  0  0  0  0  0  # atno 8009 bound_to 7997
  154.6691  140.2584  155.7032 H   0  0  0  0  0  0  0  0  0  0  0  0  # atno 8010 bound_to 7997
  140.5770  143.2323  151.6421 H   0  0  0  0  0  0  0  0  0  0  0  0  # atno 10167 bound_to 10162
  157.5705  130.8903  149.9258 H   0  0  0  0  0  0  0  0  0  0  0  0  # atno 10718 bound_to 10713
  154.8745  135.3997  154.3423 H   0  0  0  0  0  0  0  0  0  0  0  0  # atno 10763 bound_to 10752
  153.4221  135.7023  153.6292 H   0  0  0  0  0  0  0  0  0  0  0  0  # atno 10764 bound_to 10752
  153.4950  135.3740  155.2481 H   0  0  0  0  0  0  0  0  0  0  0  0  # atno 10765 bound_to 10752
  140.9482  134.1101  157.4087 H   0  0  0  0  0  0  0  0  0  0  0  0  # atno 11005 bound_to 11000
  145.2836  141.0146  143.3703 LP  0  0  0  0  0  0  0  0  0  0  0  0  # atno 17320 bound_to 7965
  144.9131  139.4504  143.6577 LP  0  0  0  0  0  0  0  0  0  0  0  0  # atno 17321 bound_to 7965
  139.5148  144.3398  152.0750 LP  0  0  0  0  0  0  0  0  0  0  0  0  # atno 17342 bound_to 10162
  140.2543  144.4135  150.6210 LP  0  0  0  0  0  0  0  0  0  0  0  0  # atno 17343 bound_to 10162
  156.0750  130.3680  150.0696 LP  0  0  0  0  0  0  0  0  0  0  0  0  # atno 17370 bound_to 10713
  156.8849  130.9569  151.3595 LP  0  0  0  0  0  0  0  0  0  0  0  0  # atno 17371 bound_to 10713
  139.8840  135.0058  156.6336 LP  0  0  0  0  0  0  0  0  0  0  0  0  # atno 17394 bound_to 11000
  140.7639  133.8794  155.8439 LP  0  0  0  0  0  0  0  0  0  0  0  0  # atno 17395 bound_to 11000

$$$$
