AV-unprocessed.smi:2702|AV-procd|sdf|10430|dock6
  -GOLD-   2272014473D 1   1.00000     0.00000
 Structure written by MMmdl.
 47 48  0  0  0  0  0  0  0  0  1 V2000
  156.2434  137.2378  151.7023 C   0  0  0  0  0  0  0  0  0  0  0  0
  155.4806  137.1897  152.8950 O   0  0  0  0  0  0  0  0  0  0  0  0
  155.2408  138.4765  153.4386 C   0  0  0  0  0  0  0  0  0  0  0  0
  154.0794  138.4315  154.4105 C   0  0  0  0  0  0  0  0  0  0  0  0
  152.9134  139.0706  154.1587 C   0  0  0  0  0  0  0  0  0  0  0  0
  151.8134  139.0235  155.1219 C   0  0  0  0  0  0  0  0  0  0  0  0
  150.7334  139.5804  154.9230 O   0  0  0  0  0  0  0  0  0  0  0  0
  152.0756  138.3146  156.2594 N   0  0  0  0  0  0  0  0  0  0  0  0
  151.0639  138.1681  157.3222 C   0  0  0  0  0  0  0  0  0  0  0  0
  150.7725  139.4735  158.0781 C   0  0  0  0  0  0  0  0  0  0  0  0
  149.7784  139.5808  158.7976 O   0  0  0  0  0  0  0  0  0  0  0  0
  151.6752  140.4531  157.9144 N   0  0  0  0  0  0  0  0  0  0  0  0
  151.6328  141.7745  158.5401 C   0  0  2  0  0  0  0  0  0  0  0  0
  151.0187  142.7741  157.5408 C   0  0  0  0  0  0  0  0  0  0  0  0
  151.0102  144.2054  158.0952 C   0  0  0  0  0  0  0  0  0  0  0  0
  152.4207  144.6425  158.5200 C   0  0  0  0  0  0  0  0  0  0  0  0
  153.0489  143.6716  159.5405 C   0  0  1  0  0  0  0  0  0  0  0  0
  152.3967  143.8089  160.9317 C   0  0  0  0  0  0  0  0  0  0  0  0
  153.0517  142.2234  158.9810 C   0  0  1  0  0  0  0  0  0  0  0  0
  153.7337  141.2273  159.9400 C   0  0  0  0  0  0  0  0  0  0  0  0
  153.3124  137.6741  156.4747 C   0  0  0  0  0  0  0  0  0  0  0  0
  154.2697  137.7283  155.6043 N   0  0  0  0  0  0  0  0  0  0  0  0
  156.4034  136.2264  151.3291 H   0  0  0  0  0  0  0  0  0  0  0  0
  157.2203  137.6910  151.8764 H   0  0  0  0  0  0  0  0  0  0  0  0
  155.7272  137.8048  150.9265 H   0  0  0  0  0  0  0  0  0  0  0  0
  156.1311  138.8364  153.9573 H   0  0  0  0  0  0  0  0  0  0  0  0
  155.0222  139.1888  152.6412 H   0  0  0  0  0  0  0  0  0  0  0  0
  152.7856  139.6192  153.2369 H   0  0  0  0  0  0  0  0  0  0  0  0
  150.1225  137.7895  156.9195 H   0  0  0  0  0  0  0  0  0  0  0  0
  151.3839  137.4105  158.0402 H   0  0  0  0  0  0  0  0  0  0  0  0
  152.4610  140.2687  157.3077 H   0  0  0  0  0  0  0  0  0  0  0  0
  150.9877  141.7456  159.4194 H   0  0  0  0  0  0  0  0  0  0  0  0
  151.5834  142.7566  156.6073 H   0  0  0  0  0  0  0  0  0  0  0  0
  150.0007  142.4737  157.2899 H   0  0  0  0  0  0  0  0  0  0  0  0
  150.6221  144.8908  157.3413 H   0  0  0  0  0  0  0  0  0  0  0  0
  150.3273  144.2679  158.9428 H   0  0  0  0  0  0  0  0  0  0  0  0
  153.0570  144.6939  157.6353 H   0  0  0  0  0  0  0  0  0  0  0  0
  152.3915  145.6536  158.9277 H   0  0  0  0  0  0  0  0  0  0  0  0
  154.0897  143.9755  159.6617 H   0  0  0  0  0  0  0  0  0  0  0  0
  151.3598  143.4746  160.9362 H   0  0  0  0  0  0  0  0  0  0  0  0
  152.4069  144.8471  161.2644 H   0  0  0  0  0  0  0  0  0  0  0  0
  152.9330  143.2311  161.6841 H   0  0  0  0  0  0  0  0  0  0  0  0
  153.6703  142.2457  158.0820 H   0  0  0  0  0  0  0  0  0  0  0  0
  153.1176  141.0294  160.8175 H   0  0  0  0  0  0  0  0  0  0  0  0
  154.6957  141.6079  160.2837 H   0  0  0  0  0  0  0  0  0  0  0  0
  153.9237  140.2706  159.4533 H   0  0  0  0  0  0  0  0  0  0  0  0
  153.4011  137.1314  157.4173 H   0  0  0  0  0  0  0  0  0  0  0  0
  1  2  1  0  0  0  0
  1 23  1  0  0  0  0
  1 24  1  0  0  0  0
  1 25  1  0  0  0  0
  2  3  1  0  0  0  0
  3  4  1  0  0  0  0
  3 26  1  0  0  0  0
  3 27  1  0  0  0  0
  4 22  1  0  0  0  0
  4  5  2  0  0  0  0
  5  6  1  0  0  0  0
  5 28  1  0  0  0  0
  6  7  2  0  0  0  0
  6  8  1  0  0  0  0
  8  9  1  0  0  0  0
  8 21  1  0  0  0  0
  9 10  1  0  0  0  0
  9 29  1  0  0  0  0
  9 30  1  0  0  0  0
 10 11  2  0  0  0  0
 10 12  1  0  0  0  0
 12 13  1  0  0  0  0
 12 31  1  0  0  0  0
 13 19  1  0  0  0  0
 13 14  1  0  0  0  0
 13 32  1  0  0  0  0
 14 15  1  0  0  0  0
 14 33  1  0  0  0  0
 14 34  1  0  0  0  0
 15 16  1  0  0  0  0
 15 35  1  0  0  0  0
 15 36  1  0  0  0  0
 16 17  1  0  0  0  0
 16 37  1  0  0  0  0
 16 38  1  0  0  0  0
 17 18  1  0  0  0  0
 17 19  1  0  0  0  0
 17 39  1  0  0  0  0
 18 40  1  0  0  0  0
 18 41  1  0  0  0  0
 18 42  1  0  0  0  0
 19 20  1  0  0  0  0
 19 43  1  0  0  0  0
 20 44  1  0  0  0  0
 20 45  1  0  0  0  0
 20 46  1  0  0  0  0
 21 22  2  0  0  0  0
 21 47  1  0  0  0  0
M  END
> <s_m_source_file>
AV-unprocessed.smi

> <i_m_source_file_index>
2702

> <i_lp_mmshare_version>
43012

> <i_f3d_flags>
0

> <s_epik_input>
W0NIM11PW0NIMl1jMVtjSF1jKD1PKW4oW2NIXW4xKVtDSDJdQyg9TylbTkhdW0NAQEhdMltDSDJdW0NIMl1bQ0gyXVtDQEBIXShbQ0gzXSlbQ0BIXTJbQ0gzXQ==

> <s_epik_cmdline>
J2VwaWtfcHl0aG9uJywgJy1waCcsICc3LjAnLCAnLXRuJywgJzgnLCAnLW1hJywgJzIwMCcsICctbWV0YWxfYmluZGluZycsICctaW1hZScsICc8aW5maWxlLm1hZT4nLCAnLW9tYWUnLCAnPG91dGZpbGUubWFlPic=

> <r_lp_tautomer_probability>
1

> <r_epik_Ionization_Penalty>
1.22164e-06

> <r_epik_Ionization_Penalty_Charging>
3.17988e-07

> <r_epik_Ionization_Penalty_Neutral>
9.03656e-07

> <r_epik_State_Penalty>
-0

> <r_epik_Charging_Adjusted_Penalty>
3.17988e-07

> <i_epik_Tot_Q>
0

> <i_epik_Tot_abs_Q>
0

> <r_epik_Metal_State_Penalty>
-0

> <b_epik_Metal_Only>
0

> <s_lp_Force_Field>
OPLS_2005

> <r_lp_Energy>
19.3371

> <b_lp_Chiralities_Consistent>
1

> <s_lp_Variant>
AV-unprocessed.smi:2702-1

> <Gold.Version>
5.8.1

> <Gold.Id.Protein>
6NUR|6NUR_protein|mol2

> <Gold.PLP.Fitness>
47.9885

> <Gold.PLP.PLP>
-43.1137

> <Gold.PLP.part.hbond>
-3.7133

> <Gold.PLP.part.metal>
0.0000

> <Gold.PLP.part.buried>
-0.7317

> <Gold.PLP.part.nonpolar>
-39.8802

> <Gold.PLP.part.repulsive>
0.1482

> <Gold.PLP.ligand.clash>
0.0000

> <Gold.PLP.ligand.torsion>
0.7061

> <Gold.PLP.Chemscore.Hbond>
2.0923

> <Gold.PLP.Chemscore.CHOScore>
0.0000

> <Gold.PLP.Chemscore.Metal>
0.0000

> <Gold.Chemscore.Hbonds>
donor molecule, donor type, donor heavy atom, donor atom, acceptor molecule, acceptor atom, score
      P1  H  7989  7998       L1     7  0.43
      P1  H 10752 10763       L1     2  0.90

> <Gold.PLP.Chemscore.Internal.Correction>
0.0102

> <Gold.Rescore>
     Score         DG    S(hbond)    S(metal)    S(lipo)     H(rot)  DE(clash)    DE(int)     intcor
     20.07     -22.51       1.93        0.00     132.69       1.93       1.71       0.73       ----

> <Gold.Chemscore.Fitness>
20.0672

> <Gold.Chemscore.DG>
-22.5098

> <Gold.Chemscore.ZeroCoef>
-5.4800

> <Gold.Chemscore.Hbond>
1.9288

> <Gold.Chemscore.Metal>
0.0000

> <Gold.Chemscore.Lipo>
132.6878

> <Gold.Chemscore.Internal_Hbond>
0.0000

> <Gold.Chemscore.DEClash>
1.7086

> <Gold.Chemscore.DEInternal>
0.7340

> <Gold.Chemscore.Rot>
1.9284

> <Gold.Chemscore.Internal.Correction>
   9.000000E+99

> <Gold.Chemscore.Hbonds>
donor molecule, donor type, donor heavy atom, donor atom, acceptor molecule, acceptor atom, score
      P1  H  7989  7998       L1     7  0.02
      P1  H 10752 10763       L1     2  0.82

> <Gold.Chemscore.Hbond.Weighted>
-6.4421

> <Gold.Chemscore.Metal.Weighted>
-0.0000

> <Gold.Chemscore.Lipo.Weighted>
-15.5245

> <Gold.Chemscore.Internal_Hbond.Weighted>
0.0000

> <Gold.Chemscore.DEClash.Weighted>
1.7086

> <Gold.Chemscore.DEInternal.Weighted>
0.7340

> <Gold.Chemscore.Rot.Weighted>
4.9368

> <Gold.Chemscore.Internal.Correction.Weighted>
   9.000000E+99

> <Gold.Protein.RotatedTorsions>
[ 6907 6896 6895 6894 ] final  -94.73 input  -60.11 | X-H torsion
[ 7974 7965 7964 7962 ] final  122.30 input  175.53 | X-H torsion
[ 8008 7997 7996 7995 ] final -140.11 input   59.86 | X-H torsion
[ 10167 10162 10161 10158 ] final  -24.31 input  -65.29 | X-H torsion
[ 10718 10713 10712 10709 ] final -160.40 input   66.30 | X-H torsion
[ 10763 10752 10751 10750 ] final  -92.19 input  -60.55 | X-H torsion
[ 11005 11000 10999 10996 ] final -168.22 input  -57.11 | X-H torsion

> <Gold.Protein.ActiveResidues>
 VAL166  LYS551  ARG553  GLY616  TRP617  ASP618  TYR619  PRO620  LYS621  CYS622 
 ASP623  PHE694  ASN695  SER759  ASP760  ASP761  ALA762  ILE779  LEU786  VAL792 
 PHE793  MET794  SER795  GLU796  ALA797  LYS798  CYS799  TRP800  GLU811  SER814 

> <Gold.Protein.RotatedAtoms>
  150.6948  134.1767  159.4232 H   0  0  0  0  0  0  0  0  0  0  0  0  # atno 6907 bound_to 6896
  151.9743  135.0059  160.0563 H   0  0  0  0  0  0  0  0  0  0  0  0  # atno 6908 bound_to 6896
  152.1813  133.4674  159.4996 H   0  0  0  0  0  0  0  0  0  0  0  0  # atno 6909 bound_to 6896
  145.1091  139.3465  143.4772 H   0  0  0  0  0  0  0  0  0  0  0  0  # atno 7974 bound_to 7965
  155.4560  140.0542  157.2996 H   0  0  0  0  0  0  0  0  0  0  0  0  # atno 8008 bound_to 7997
  154.4757  140.2060  155.9839 H   0  0  0  0  0  0  0  0  0  0  0  0  # atno 8009 bound_to 7997
  156.1128  140.3201  155.8101 H   0  0  0  0  0  0  0  0  0  0  0  0  # atno 8010 bound_to 7997
  140.7288  143.4365  151.0722 H   0  0  0  0  0  0  0  0  0  0  0  0  # atno 10167 bound_to 10162
  156.5816  130.8732  151.2866 H   0  0  0  0  0  0  0  0  0  0  0  0  # atno 10718 bound_to 10713
  154.6836  135.5240  153.8296 H   0  0  0  0  0  0  0  0  0  0  0  0  # atno 10763 bound_to 10752
  153.0582  135.6558  154.0536 H   0  0  0  0  0  0  0  0  0  0  0  0  # atno 10764 bound_to 10752
  154.0420  135.2976  155.3333 H   0  0  0  0  0  0  0  0  0  0  0  0  # atno 10765 bound_to 10752
  140.5445  134.5490  157.5108 H   0  0  0  0  0  0  0  0  0  0  0  0  # atno 11005 bound_to 11000
  146.3527  140.1002  142.8608 LP  0  0  0  0  0  0  0  0  0  0  0  0  # atno 17320 bound_to 7965
  145.0867  140.9257  143.4793 LP  0  0  0  0  0  0  0  0  0  0  0  0  # atno 17321 bound_to 7965
  139.8028  143.8060  152.3164 LP  0  0  0  0  0  0  0  0  0  0  0  0  # atno 17342 bound_to 10162
  139.8083  144.7346  150.9732 LP  0  0  0  0  0  0  0  0  0  0  0  0  # atno 17343 bound_to 10162
  157.7325  130.9716  150.1931 LP  0  0  0  0  0  0  0  0  0  0  0  0  # atno 17370 bound_to 10713
  156.2626  130.3712  149.8114 LP  0  0  0  0  0  0  0  0  0  0  0  0  # atno 17371 bound_to 10713
  139.9487  134.7656  156.0500 LP  0  0  0  0  0  0  0  0  0  0  0  0  # atno 17394 bound_to 11000
  141.1208  133.6613  156.3209 LP  0  0  0  0  0  0  0  0  0  0  0  0  # atno 17395 bound_to 11000

$$$$
