AV-unprocessed.smi:1033|AV-procd|sdf|4509|dock2
  -GOLD-   22720 2513D 1   1.00000     0.00000
 Structure written by MMmdl.
 57 59  0  0  0  0  0  0  0  0  3 V2000
  153.7976  141.9512  161.6068 C   0  0  0  0  0  0  0  0  0  0  0  0
  153.0127  141.9194  160.3071 C   0  0  0  0  0  0  0  0  0  0  0  0
  153.2024  140.8390  159.4162 C   0  0  0  0  0  0  0  0  0  0  0  0
  152.4916  140.7714  158.1980 C   0  0  0  0  0  0  0  0  0  0  0  0
  152.5178  139.8198  157.1930 N   0  0  0  0  0  0  0  0  0  0  0  0
  151.6375  140.3168  156.3293 C   0  0  0  0  0  0  0  0  0  0  0  0
  151.0385  141.4776  156.6580 N   0  0  0  0  0  0  0  0  0  0  0  0
  150.0474  142.2005  155.8804 C   0  0  0  0  0  0  0  0  0  0  0  0
  148.8329  141.3258  155.5126 C   0  0  1  0  0  0  0  0  0  0  0  0
  147.6732  142.1342  155.4465 O   0  0  0  0  0  0  0  0  0  0  0  0
  149.0229  140.6307  154.1496 C   0  0  0  0  0  0  0  0  0  0  0  0
  147.8778  139.7546  153.7892 N   0  3  2  0  0  0  0  0  0  0  0  0
  147.8809  138.4464  154.4917 C   0  0  0  0  0  0  0  0  0  0  0  0
  146.6187  137.6327  154.1521 C   0  0  0  0  0  0  0  0  0  0  0  0
  146.4715  137.4498  152.6846 N   0  3  1  0  0  0  0  0  0  0  0  0
  145.2990  136.6190  152.3057 C   0  0  0  0  0  0  0  0  0  0  0  0
  145.5314  135.8130  151.0124 C   0  0  1  0  0  0  0  0  0  0  0  0
  144.4137  134.7910  150.7679 C   0  0  0  0  0  0  0  0  0  0  0  0
  145.5618  136.7037  149.9161 O   0  0  0  0  0  0  0  0  0  0  0  0
  146.4836  138.7562  151.9807 C   0  0  0  0  0  0  0  0  0  0  0  0
  147.7461  139.5662  152.3239 C   0  0  0  0  0  0  0  0  0  0  0  0
  151.5782  141.8227  157.8929 C   0  0  0  0  0  0  0  0  0  0  0  0
  151.3818  142.9035  158.7707 C   0  0  0  0  0  0  0  0  0  0  0  0
  152.1003  142.9556  159.9834 C   0  0  0  0  0  0  0  0  0  0  0  0
  151.8807  144.1268  160.9246 C   0  0  0  0  0  0  0  0  0  0  0  0
  154.4084  141.0557  161.7258 H   0  0  0  0  0  0  0  0  0  0  0  0
  153.1229  142.0101  162.4610 H   0  0  0  0  0  0  0  0  0  0  0  0
  154.4621  142.8151  161.6289 H   0  0  0  0  0  0  0  0  0  0  0  0
  153.8976  140.0496  159.6623 H   0  0  0  0  0  0  0  0  0  0  0  0
  151.4120  139.8051  155.4050 H   0  0  0  0  0  0  0  0  0  0  0  0
  149.7330  143.0781  156.4471 H   0  0  0  0  0  0  0  0  0  0  0  0
  150.5298  142.5729  154.9756 H   0  0  0  0  0  0  0  0  0  0  0  0
  148.6886  140.5867  156.3002 H   0  0  0  0  0  0  0  0  0  0  0  0
  147.9278  143.0365  155.5745 H   0  0  0  0  0  0  0  0  0  0  0  0
  149.1446  141.4025  153.3876 H   0  0  0  0  0  0  0  0  0  0  0  0
  149.9448  140.0473  154.1398 H   0  0  0  0  0  0  0  0  0  0  0  0
  148.7734  137.8842  154.2118 H   0  0  0  0  0  0  0  0  0  0  0  0
  147.9274  138.5935  155.5701 H   0  0  0  0  0  0  0  0  0  0  0  0
  146.6761  136.6664  154.6519 H   0  0  0  0  0  0  0  0  0  0  0  0
  145.7354  138.1388  154.5455 H   0  0  0  0  0  0  0  0  0  0  0  0
  145.0470  135.9528  153.1323 H   0  0  0  0  0  0  0  0  0  0  0  0
  144.4280  137.2601  152.1583 H   0  0  0  0  0  0  0  0  0  0  0  0
  146.4808  135.2801  151.0503 H   0  0  0  0  0  0  0  0  0  0  0  0
  144.3608  134.0677  151.5821 H   0  0  0  0  0  0  0  0  0  0  0  0
  144.5828  134.2343  149.8456 H   0  0  0  0  0  0  0  0  0  0  0  0
  143.4394  135.2751  150.6904 H   0  0  0  0  0  0  0  0  0  0  0  0
  145.0298  137.4576  150.1244 H   0  0  0  0  0  0  0  0  0  0  0  0
  146.4434  138.5940  150.9027 H   0  0  0  0  0  0  0  0  0  0  0  0
  145.5904  139.3226  152.2501 H   0  0  0  0  0  0  0  0  0  0  0  0
  147.6941  140.5373  151.8296 H   0  0  0  0  0  0  0  0  0  0  0  0
  148.6343  139.0610  151.9402 H   0  0  0  0  0  0  0  0  0  0  0  0
  150.6822  143.6852  158.5139 H   0  0  0  0  0  0  0  0  0  0  0  0
  151.1814  144.8500  160.5041 H   0  0  0  0  0  0  0  0  0  0  0  0
  152.8202  144.6448  161.1178 H   0  0  0  0  0  0  0  0  0  0  0  0
  151.4736  143.7811  161.8750 H   0  0  0  0  0  0  0  0  0  0  0  0
  147.2857  136.9455  152.3615 H   0  0  0  0  0  0  0  0  0  0  0  0
  147.0485  140.2506  154.0860 H   0  0  0  0  0  0  0  0  0  0  0  0
  1  2  1  0  0  0  0
  1 26  1  0  0  0  0
  1 27  1  0  0  0  0
  1 28  1  0  0  0  0
  2 24  1  0  0  0  0
  2  3  2  0  0  0  0
  3  4  1  0  0  0  0
  3 29  1  0  0  0  0
  4 22  2  0  0  0  0
  4  5  1  0  0  0  0
  5  6  2  0  0  0  0
  6  7  1  0  0  0  0
  6 30  1  0  0  0  0
  7  8  1  0  0  0  0
  7 22  1  0  0  0  0
  8  9  1  0  0  0  0
  8 31  1  0  0  0  0
  8 32  1  0  0  0  0
  9 10  1  0  0  0  0
  9 11  1  0  0  0  0
  9 33  1  0  0  0  0
 10 34  1  0  0  0  0
 11 12  1  0  0  0  0
 11 35  1  0  0  0  0
 11 36  1  0  0  0  0
 12 21  1  0  0  0  0
 12 13  1  0  0  0  0
 12 57  1  0  0  0  0
 13 14  1  0  0  0  0
 13 37  1  0  0  0  0
 13 38  1  0  0  0  0
 14 15  1  0  0  0  0
 14 39  1  0  0  0  0
 14 40  1  0  0  0  0
 15 16  1  0  0  0  0
 15 20  1  0  0  0  0
 15 56  1  0  0  0  0
 16 17  1  0  0  0  0
 16 41  1  0  0  0  0
 16 42  1  0  0  0  0
 17 18  1  0  0  0  0
 17 19  1  0  0  0  0
 17 43  1  0  0  0  0
 18 44  1  0  0  0  0
 18 45  1  0  0  0  0
 18 46  1  0  0  0  0
 19 47  1  0  0  0  0
 20 21  1  0  0  0  0
 20 48  1  0  0  0  0
 20 49  1  0  0  0  0
 21 50  1  0  0  0  0
 21 51  1  0  0  0  0
 22 23  1  0  0  0  0
 23 24  2  0  0  0  0
 23 52  1  0  0  0  0
 24 25  1  0  0  0  0
 25 53  1  0  0  0  0
 25 54  1  0  0  0  0
 25 55  1  0  0  0  0
M  CHG  1  12   1
M  CHG  1  15   1
M  END
> <s_m_source_file>
AV-unprocessed.smi

> <i_m_source_file_index>
1033

> <i_lp_mmshare_version>
43012

> <i_f3d_flags>
0

> <s_epik_input>
W0NIM11jKFtjSF0xKWMoW0NIM10pW2NIXWMoYzEyKW4oW2NIXW4yKVtDSDJdW0NASF0oW09IXSlbQ0gyXU4zW0NIMl1bQ0gyXU4oW0NIMl1bQ0gyXTMpW0NIMl1bQ0BIXShbQ0gzXSlbT0hd

> <s_epik_cmdline>
J2VwaWtfcHl0aG9uJywgJy1waCcsICc3LjAnLCAnLXRuJywgJzgnLCAnLW1hJywgJzIwMCcsICctbWV0YWxfYmluZGluZycsICctaW1hZScsICc8aW5maWxlLm1hZT4nLCAnLW9tYWUnLCAnPG91dGZpbGUubWFlPic=

> <r_epik_Ionization_Penalty>
3.16016

> <r_epik_Ionization_Penalty_Charging>
3.07679

> <r_epik_Ionization_Penalty_Neutral>
0.083365

> <r_epik_State_Penalty>
2.09701

> <r_epik_Charging_Adjusted_Penalty>
5.1738

> <i_epik_Tot_Q>
2

> <i_epik_Tot_abs_Q>
2

> <r_epik_Metal_State_Penalty>
2.02534

> <b_epik_Metal_Only>
0

> <s_lp_Force_Field>
OPLS_2005

> <r_lp_Energy>
27.8385

> <b_lp_Chiralities_Consistent>
1

> <s_lp_Variant>
AV-unprocessed.smi:1033-20

> <Gold.Version>
5.8.1

> <Gold.Id.Protein>
6NUR|6NUR_protein|mol2

> <Gold.PLP.Fitness>
62.5058

> <Gold.PLP.PLP>
-49.1706

> <Gold.PLP.part.hbond>
-5.6749

> <Gold.PLP.part.metal>
0.0000

> <Gold.PLP.part.buried>
2.1758

> <Gold.PLP.part.nonpolar>
-46.2632

> <Gold.PLP.part.repulsive>
0.0793

> <Gold.PLP.ligand.clash>
0.0000

> <Gold.PLP.ligand.torsion>
1.0320

> <Gold.PLP.Chemscore.Hbond>
5.0000

> <Gold.PLP.Chemscore.CHOScore>
0.0000

> <Gold.PLP.Chemscore.Metal>
0.0000

> <Gold.Chemscore.Hbonds>
donor molecule, donor type, donor heavy atom, donor atom, acceptor molecule, acceptor atom, score
      L1  H    10    34       P1  8028  1.00
      L1  H    15    56       P1  7948  2.00
      L1  H    19    47       P1 10171  1.00
      P1  H  7997  8008       L1     5  1.00

> <Gold.PLP.Chemscore.Internal.Correction>
0.3992

> <Gold.Rescore>
     Score         DG    S(hbond)    S(metal)    S(lipo)     H(rot)  DE(clash)    DE(int)     intcor
     19.92     -24.21       3.09        0.00     140.54       3.14       3.31       0.99       ----

> <Gold.Chemscore.Fitness>
19.9183

> <Gold.Chemscore.DG>
-24.2142

> <Gold.Chemscore.ZeroCoef>
-5.4800

> <Gold.Chemscore.Hbond>
3.0912

> <Gold.Chemscore.Metal>
0.0000

> <Gold.Chemscore.Lipo>
140.5361

> <Gold.Chemscore.Internal_Hbond>
0.0000

> <Gold.Chemscore.DEClash>
3.3095

> <Gold.Chemscore.DEInternal>
0.9864

> <Gold.Chemscore.Rot>
3.1380

> <Gold.Chemscore.Internal.Correction>
   9.000000E+99

> <Gold.Chemscore.Hbonds>
donor molecule, donor type, donor heavy atom, donor atom, acceptor molecule, acceptor atom, score
      L1  H    10    34       P1  8028  0.70
      L1  H    15    56       P1  7948  1.00
      L1  H    19    47       P1 10171  0.96
      P1  H  7997  8008       L1     5  0.17

> <Gold.Chemscore.Hbond.Weighted>
-10.3247

> <Gold.Chemscore.Metal.Weighted>
-0.0000

> <Gold.Chemscore.Lipo.Weighted>
-16.4427

> <Gold.Chemscore.Internal_Hbond.Weighted>
0.0000

> <Gold.Chemscore.DEClash.Weighted>
3.3095

> <Gold.Chemscore.DEInternal.Weighted>
0.9864

> <Gold.Chemscore.Rot.Weighted>
8.0332

> <Gold.Chemscore.Internal.Correction.Weighted>
   9.000000E+99

> <Gold.Protein.RotatedTorsions>
[ 6907 6896 6895 6894 ] final -110.26 input  -60.11 | X-H torsion
[ 7974 7965 7964 7962 ] final   40.24 input  175.53 | X-H torsion
[ 8008 7997 7996 7995 ] final  -50.63 input   59.86 | X-H torsion
[ 10167 10162 10161 10158 ] final  -88.34 input  -65.29 | X-H torsion
[ 10718 10713 10712 10709 ] final  -38.98 input   66.30 | X-H torsion
[ 10763 10752 10751 10750 ] final  111.18 input  -60.55 | X-H torsion
[ 11005 11000 10999 10996 ] final -109.27 input  -57.11 | X-H torsion

> <Gold.Protein.ActiveResidues>
 VAL166  LYS551  ARG553  GLY616  TRP617  ASP618  TYR619  PRO620  LYS621  CYS622 
 ASP623  PHE694  ASN695  SER759  ASP760  ASP761  ALA762  ILE779  LEU786  VAL792 
 PHE793  MET794  SER795  GLU796  ALA797  LYS798  CYS799  TRP800  GLU811  SER814 

> <Gold.Protein.RotatedAtoms>
  150.7613  133.9408  159.3455 H   0  0  0  0  0  0  0  0  0  0  0  0  # atno 6907 bound_to 6896
  151.7316  135.0871  160.0310 H   0  0  0  0  0  0  0  0  0  0  0  0  # atno 6908 bound_to 6896
  152.3586  133.6231  159.6034 H   0  0  0  0  0  0  0  0  0  0  0  0  # atno 6909 bound_to 6896
  146.0921  139.5556  142.9469 H   0  0  0  0  0  0  0  0  0  0  0  0  # atno 7974 bound_to 7965
  154.4066  140.1267  156.4697 H   0  0  0  0  0  0  0  0  0  0  0  0  # atno 8008 bound_to 7997
  155.7191  140.3493  155.4988 H   0  0  0  0  0  0  0  0  0  0  0  0  # atno 8009 bound_to 7997
  155.9231  140.1056  157.1182 H   0  0  0  0  0  0  0  0  0  0  0  0  # atno 8010 bound_to 7997
  140.3756  143.2773  151.9446 H   0  0  0  0  0  0  0  0  0  0  0  0  # atno 10167 bound_to 10162
  156.2976  130.4236  149.8175 H   0  0  0  0  0  0  0  0  0  0  0  0  # atno 10718 bound_to 10713
  153.4597  135.3725  155.2331 H   0  0  0  0  0  0  0  0  0  0  0  0  # atno 10763 bound_to 10752
  154.8757  135.3905  154.3940 H   0  0  0  0  0  0  0  0  0  0  0  0  # atno 10764 bound_to 10752
  153.4511  135.7085  153.6172 H   0  0  0  0  0  0  0  0  0  0  0  0  # atno 10765 bound_to 10752
  141.0856  133.9144  157.2192 H   0  0  0  0  0  0  0  0  0  0  0  0  # atno 11005 bound_to 11000
  145.6020  141.0354  143.2013 LP  0  0  0  0  0  0  0  0  0  0  0  0  # atno 17320 bound_to 7965
  144.7367  139.7564  143.7326 LP  0  0  0  0  0  0  0  0  0  0  0  0  # atno 17321 bound_to 7965
  139.4799  144.5866  151.7843 LP  0  0  0  0  0  0  0  0  0  0  0  0  # atno 17342 bound_to 10162
  140.4989  144.1199  150.5966 LP  0  0  0  0  0  0  0  0  0  0  0  0  # atno 17343 bound_to 10162
  156.5565  130.8365  151.3315 LP  0  0  0  0  0  0  0  0  0  0  0  0  # atno 17370 bound_to 10713
  157.7359  130.9770  150.2109 LP  0  0  0  0  0  0  0  0  0  0  0  0  # atno 17371 bound_to 10713
  139.9674  135.0138  156.9424 LP  0  0  0  0  0  0  0  0  0  0  0  0  # atno 17394 bound_to 11000
  140.5369  134.0758  155.7331 LP  0  0  0  0  0  0  0  0  0  0  0  0  # atno 17395 bound_to 11000

$$$$
