AV-unprocessed.smi:1762|AV-procd|sdf|7115|dock9
  -GOLD-   22720 8343D 1   1.00000     0.00000
 Structure written by MMmdl.
 53 54  0  0  0  0  0  0  0  0  2 V2000
  144.6252  134.1839  150.5387 C   0  0  0  0  0  0  0  0  0  0  0  0
  145.5535  135.0003  151.4449 C   0  0  2  0  0  0  0  0  0  0  0  0
  146.2787  134.1173  152.4789 C   0  0  0  0  0  0  0  0  0  0  0  0
  147.1157  134.9392  153.3973 N   0  3  2  0  0  0  0  0  0  0  0  0
  147.9011  134.1596  154.4155 C   0  0  2  0  0  0  0  0  0  0  0  0
  148.7966  135.0930  155.2587 C   0  0  0  0  0  0  0  0  0  0  0  0
  148.8190  134.9883  156.4857 O   0  0  0  0  0  0  0  0  0  0  0  0
  149.5278  135.9958  154.5884 N   0  0  0  0  0  0  0  0  0  0  0  0
  150.4283  136.9532  155.2153 C   0  0  0  0  0  0  0  0  0  0  0  0
  150.3195  138.3243  154.5341 C   0  0  0  0  0  0  0  0  0  0  0  0
  150.4649  139.4680  155.5201 C   0  0  0  0  0  0  0  0  0  0  0  0
  150.9018  139.2302  156.8409 C   0  0  0  0  0  0  0  0  0  0  0  0
  151.0262  140.3285  157.7139 C   0  0  0  0  0  0  0  0  0  0  0  0
  150.7118  141.6148  157.2348 C   0  0  0  0  0  0  0  0  0  0  0  0
  150.2848  141.7466  155.8983 C   0  0  0  0  0  0  0  0  0  0  0  0
  150.1618  140.7003  155.0530 N   0  0  0  0  0  0  0  0  0  0  0  0
  148.7418  132.9807  153.8173 C   0  0  0  0  0  0  0  0  0  0  0  0
  147.8834  131.7632  153.4204 C   0  0  0  0  0  0  0  0  0  0  0  0
  149.9181  132.5304  154.7089 C   0  0  0  0  0  0  0  0  0  0  0  0
  146.2627  135.9998  154.0076 C   0  0  0  0  0  0  0  0  0  0  0  0
  145.5538  136.8350  152.9265 C   0  0  2  0  0  0  0  0  0  0  0  0
  144.6271  137.8963  153.5298 C   0  0  0  0  0  0  0  0  0  0  0  0
  144.7655  135.9692  152.1221 O   0  0  0  0  0  0  0  0  0  0  0  0
  145.1816  133.4277  149.9844 H   0  0  0  0  0  0  0  0  0  0  0  0
  144.1252  134.8261  149.8132 H   0  0  0  0  0  0  0  0  0  0  0  0
  143.8548  133.6749  151.1188 H   0  0  0  0  0  0  0  0  0  0  0  0
  146.2881  135.5087  150.8175 H   0  0  0  0  0  0  0  0  0  0  0  0
  145.5571  133.5424  153.0617 H   0  0  0  0  0  0  0  0  0  0  0  0
  146.8846  133.4063  151.9211 H   0  0  0  0  0  0  0  0  0  0  0  0
  147.1654  133.7134  155.0877 H   0  0  0  0  0  0  0  0  0  0  0  0
  149.4550  136.0236  153.5815 H   0  0  0  0  0  0  0  0  0  0  0  0
  150.1797  137.0381  156.2743 H   0  0  0  0  0  0  0  0  0  0  0  0
  151.4544  136.5867  155.1525 H   0  0  0  0  0  0  0  0  0  0  0  0
  151.0879  138.4223  153.7656 H   0  0  0  0  0  0  0  0  0  0  0  0
  149.3602  138.4119  154.0221 H   0  0  0  0  0  0  0  0  0  0  0  0
  151.1374  138.2318  157.1793 H   0  0  0  0  0  0  0  0  0  0  0  0
  151.3576  140.1867  158.7321 H   0  0  0  0  0  0  0  0  0  0  0  0
  150.7960  142.4798  157.8758 H   0  0  0  0  0  0  0  0  0  0  0  0
  150.0365  142.7183  155.4973 H   0  0  0  0  0  0  0  0  0  0  0  0
  149.1616  133.3184  152.8709 H   0  0  0  0  0  0  0  0  0  0  0  0
  147.4729  131.2481  154.2894 H   0  0  0  0  0  0  0  0  0  0  0  0
  148.4761  131.0350  152.8661 H   0  0  0  0  0  0  0  0  0  0  0  0
  147.0510  132.0589  152.7813 H   0  0  0  0  0  0  0  0  0  0  0  0
  149.5708  132.0609  155.6293 H   0  0  0  0  0  0  0  0  0  0  0  0
  150.5640  133.3626  154.9873 H   0  0  0  0  0  0  0  0  0  0  0  0
  150.5392  131.7998  154.1898 H   0  0  0  0  0  0  0  0  0  0  0  0
  145.5252  135.5359  154.6650 H   0  0  0  0  0  0  0  0  0  0  0  0
  146.8517  136.6763  154.6265 H   0  0  0  0  0  0  0  0  0  0  0  0
  146.2956  137.3373  152.3026 H   0  0  0  0  0  0  0  0  0  0  0  0
  145.1838  138.5970  154.1527 H   0  0  0  0  0  0  0  0  0  0  0  0
  143.8530  137.4402  154.1478 H   0  0  0  0  0  0  0  0  0  0  0  0
  144.1316  138.4707  152.7466 H   0  0  0  0  0  0  0  0  0  0  0  0
  147.7978  135.4101  152.8192 H   0  0  0  0  0  0  0  0  0  0  0  0
  1  2  1  0  0  0  0
  1 24  1  0  0  0  0
  1 25  1  0  0  0  0
  1 26  1  0  0  0  0
  2 23  1  0  0  0  0
  2  3  1  0  0  0  0
  2 27  1  0  0  0  0
  3  4  1  0  0  0  0
  3 28  1  0  0  0  0
  3 29  1  0  0  0  0
  4  5  1  0  0  0  0
  4 20  1  0  0  0  0
  4 53  1  0  0  0  0
  5  6  1  0  0  0  0
  5 17  1  0  0  0  0
  5 30  1  0  0  0  0
  6  7  2  0  0  0  0
  6  8  1  0  0  0  0
  8  9  1  0  0  0  0
  8 31  1  0  0  0  0
  9 10  1  0  0  0  0
  9 32  1  0  0  0  0
  9 33  1  0  0  0  0
 10 11  1  0  0  0  0
 10 34  1  0  0  0  0
 10 35  1  0  0  0  0
 11 16  1  0  0  0  0
 11 12  2  0  0  0  0
 12 13  1  0  0  0  0
 12 36  1  0  0  0  0
 13 14  2  0  0  0  0
 13 37  1  0  0  0  0
 14 15  1  0  0  0  0
 14 38  1  0  0  0  0
 15 16  2  0  0  0  0
 15 39  1  0  0  0  0
 17 18  1  0  0  0  0
 17 19  1  0  0  0  0
 17 40  1  0  0  0  0
 18 41  1  0  0  0  0
 18 42  1  0  0  0  0
 18 43  1  0  0  0  0
 19 44  1  0  0  0  0
 19 45  1  0  0  0  0
 19 46  1  0  0  0  0
 20 21  1  0  0  0  0
 20 47  1  0  0  0  0
 20 48  1  0  0  0  0
 21 22  1  0  0  0  0
 21 23  1  0  0  0  0
 21 49  1  0  0  0  0
 22 50  1  0  0  0  0
 22 51  1  0  0  0  0
 22 52  1  0  0  0  0
M  CHG  1   4   1
M  END
> <s_m_source_file>
AV-unprocessed.smi

> <i_m_source_file_index>
1762

> <i_lp_mmshare_version>
43012

> <i_f3d_flags>
0

> <s_epik_input>
W0NIM11bQ0BASF0xW0NIMl1OKFtDSDJdW0NASF0oTzEpW0NIM10pW0NAQEhdKFtDSF0oW0NIM10pW0NIM10pQyg9TylbTkhdW0NIMl1bQ0gyXWMyW2NIXVtjSF1bY0hdW2NIXW4y

> <s_epik_cmdline>
J2VwaWtfcHl0aG9uJywgJy1waCcsICc3LjAnLCAnLXRuJywgJzgnLCAnLW1hJywgJzIwMCcsICctbWV0YWxfYmluZGluZycsICctaW1hZScsICc8aW5maWxlLm1hZT4nLCAnLW9tYWUnLCAnPG91dGZpbGUubWFlPic=

> <r_epik_Ionization_Penalty>
2.27005

> <r_epik_Ionization_Penalty_Charging>
2.24983

> <r_epik_Ionization_Penalty_Neutral>
0.0202209

> <r_epik_State_Penalty>
2.40228

> <r_epik_Charging_Adjusted_Penalty>
4.65211

> <i_epik_Tot_Q>
1

> <i_epik_Tot_abs_Q>
1

> <r_epik_Metal_State_Penalty>
2.40762

> <b_epik_Metal_Only>
0

> <s_lp_Force_Field>
OPLS_2005

> <r_lp_Energy>
21.2519

> <b_lp_Chiralities_Consistent>
1

> <s_lp_Variant>
AV-unprocessed.smi:1762-17

> <Gold.Version>
5.8.1

> <Gold.Id.Protein>
6NUR|6NUR_protein|mol2

> <Gold.PLP.Fitness>
46.1831

> <Gold.PLP.PLP>
-33.9606

> <Gold.PLP.part.hbond>
-3.0000

> <Gold.PLP.part.metal>
0.0000

> <Gold.PLP.part.buried>
-3.9068

> <Gold.PLP.part.nonpolar>
-27.3302

> <Gold.PLP.part.repulsive>
0.2802

> <Gold.PLP.ligand.clash>
0.0000

> <Gold.PLP.ligand.torsion>
1.3896

> <Gold.PLP.Chemscore.Hbond>
3.9120

> <Gold.PLP.Chemscore.CHOScore>
1.0000

> <Gold.PLP.Chemscore.Metal>
0.0000

> <Gold.Chemscore.Hbonds>
donor molecule, donor type, donor heavy atom, donor atom, acceptor molecule, acceptor atom, score
      L1  H     4    53       P1  7948  2.00
      L1  H     8    31       P1  7948  1.00
      P1  H  7989  7998       L1    16  0.63
      L1  C    15    39       P1  8028  1.00

> <Gold.PLP.Chemscore.Internal.Correction>
0.2656

> <Gold.Rescore>
     Score         DG    S(hbond)    S(metal)    S(lipo)     H(rot)  DE(clash)    DE(int)     intcor
     16.48     -19.11       2.55        0.00      80.13       1.66       0.15       2.48       ----

> <Gold.Chemscore.Fitness>
16.4794

> <Gold.Chemscore.DG>
-19.1076

> <Gold.Chemscore.ZeroCoef>
-5.4800

> <Gold.Chemscore.Hbond>
2.5481

> <Gold.Chemscore.Metal>
0.0000

> <Gold.Chemscore.Lipo>
80.1317

> <Gold.Chemscore.Internal_Hbond>
0.0000

> <Gold.Chemscore.DEClash>
0.1452

> <Gold.Chemscore.DEInternal>
2.4829

> <Gold.Chemscore.Rot>
1.6635

> <Gold.Chemscore.Internal.Correction>
   9.000000E+99

> <Gold.Chemscore.Hbonds>
donor molecule, donor type, donor heavy atom, donor atom, acceptor molecule, acceptor atom, score
      L1  H     4    53       P1  7948  1.00
      L1  H     8    31       P1  7948  0.55
      P1  H  7989  7998       L1    16  0.13

> <Gold.Chemscore.Hbond.Weighted>
-8.5108

> <Gold.Chemscore.Metal.Weighted>
-0.0000

> <Gold.Chemscore.Lipo.Weighted>
-9.3754

> <Gold.Chemscore.Internal_Hbond.Weighted>
0.0000

> <Gold.Chemscore.DEClash.Weighted>
0.1452

> <Gold.Chemscore.DEInternal.Weighted>
2.4829

> <Gold.Chemscore.Rot.Weighted>
4.2586

> <Gold.Chemscore.Internal.Correction.Weighted>
   9.000000E+99

> <Gold.Protein.RotatedTorsions>
[ 6907 6896 6895 6894 ] final  152.00 input  -60.11 | X-H torsion
[ 7974 7965 7964 7962 ] final  161.09 input  175.53 | X-H torsion
[ 8008 7997 7996 7995 ] final  140.59 input   59.86 | X-H torsion
[ 10167 10162 10161 10158 ] final  -24.26 input  -65.29 | X-H torsion
[ 10718 10713 10712 10709 ] final  171.03 input   66.30 | X-H torsion
[ 10763 10752 10751 10750 ] final   88.00 input  -60.55 | X-H torsion
[ 11005 11000 10999 10996 ] final   89.00 input  -57.11 | X-H torsion

> <Gold.Protein.ActiveResidues>
 VAL166  LYS551  ARG553  GLY616  TRP617  ASP618  TYR619  PRO620  LYS621  CYS622 
 ASP623  PHE694  ASN695  SER759  ASP760  ASP761  ALA762  ILE779  LEU786  VAL792 
 PHE793  MET794  SER795  GLU796  ALA797  LYS798  CYS799  TRP800  GLU811  SER814 

> <Gold.Protein.RotatedAtoms>
  152.0929  133.4209  159.4551 H   0  0  0  0  0  0  0  0  0  0  0  0  # atno 6907 bound_to 6896
  150.6862  134.2851  159.4652 H   0  0  0  0  0  0  0  0  0  0  0  0  # atno 6908 bound_to 6896
  152.0704  134.9536  160.0625 H   0  0  0  0  0  0  0  0  0  0  0  0  # atno 6909 bound_to 6896
  144.7703  139.7849  143.6299 H   0  0  0  0  0  0  0  0  0  0  0  0  # atno 7974 bound_to 7965
  156.2977  140.2337  156.4426 H   0  0  0  0  0  0  0  0  0  0  0  0  # atno 8008 bound_to 7997
  154.8172  140.0440  157.1405 H   0  0  0  0  0  0  0  0  0  0  0  0  # atno 8009 bound_to 7997
  154.9356  140.3022  155.5149 H   0  0  0  0  0  0  0  0  0  0  0  0  # atno 8010 bound_to 7997
  140.7288  143.4369  151.0716 H   0  0  0  0  0  0  0  0  0  0  0  0  # atno 10167 bound_to 10162
  156.9996  131.0172  151.2834 H   0  0  0  0  0  0  0  0  0  0  0  0  # atno 10718 bound_to 10713
  153.1724  135.4523  154.9920 H   0  0  0  0  0  0  0  0  0  0  0  0  # atno 10763 bound_to 10752
  154.7975  135.3243  154.7634 H   0  0  0  0  0  0  0  0  0  0  0  0  # atno 10764 bound_to 10752
  153.8108  135.6955  153.4896 H   0  0  0  0  0  0  0  0  0  0  0  0  # atno 10765 bound_to 10752
  139.8884  134.8524  156.3080 H   0  0  0  0  0  0  0  0  0  0  0  0  # atno 11005 bound_to 11000
  146.1845  139.5053  142.9845 LP  0  0  0  0  0  0  0  0  0  0  0  0  # atno 17320 bound_to 7965
  145.6343  141.0297  143.1846 LP  0  0  0  0  0  0  0  0  0  0  0  0  # atno 17321 bound_to 7965
  139.8032  143.8054  152.3165 LP  0  0  0  0  0  0  0  0  0  0  0  0  # atno 17342 bound_to 10162
  139.8078  144.7348  150.9738 LP  0  0  0  0  0  0  0  0  0  0  0  0  # atno 17343 bound_to 10162
  157.5400  130.8113  149.8017 LP  0  0  0  0  0  0  0  0  0  0  0  0  # atno 17370 bound_to 10713
  156.0176  130.3807  150.2061 LP  0  0  0  0  0  0  0  0  0  0  0  0  # atno 17371 bound_to 10713
  140.9869  133.7232  156.0755 LP  0  0  0  0  0  0  0  0  0  0  0  0  # atno 17394 bound_to 11000
  140.7676  134.3869  157.5514 LP  0  0  0  0  0  0  0  0  0  0  0  0  # atno 17395 bound_to 11000

$$$$
