AV-unprocessed.smi:3187|AV-procd|sdf|12179|dock10
  -GOLD-   2272018 23D 1   1.00000     0.00000
 Structure written by MMmdl.
 42 43  0  0  0  0  0  0  0  0  3 V2000
  151.7097  145.0532  158.1852 C   0  0  0  0  0  0  0  0  0  0  0  0
  152.1095  144.1471  159.3381 C   0  0  0  0  0  0  0  0  0  0  0  0
  152.0816  144.5965  160.6086 C   0  0  0  0  0  0  0  0  0  0  0  0
  152.5115  143.7916  161.8225 C   0  0  0  0  0  0  0  0  0  0  0  0
  152.8080  142.3190  161.4957 C   0  0  0  0  0  0  0  0  0  0  0  0
  153.4922  142.1759  160.1253 C   0  0  1  0  0  0  0  0  0  0  0  0
  154.0163  140.7495  159.8847 C   0  0  0  0  0  0  0  0  0  0  0  0
  152.5862  142.7303  158.9894 C   0  0  1  0  0  0  0  0  0  0  0  0
  151.4071  141.7852  158.6376 C   0  0  0  0  0  0  0  0  0  0  0  0
  150.7055  142.1813  157.4005 N   0  3  0  0  0  0  0  0  0  0  0  0
  150.3124  141.0497  156.5386 C   0  0  0  0  0  0  0  0  0  0  0  0
  151.5462  140.3109  156.0010 C   0  0  0  0  0  0  0  0  0  0  0  0
  151.1915  139.0238  155.3982 N   0  0  0  0  0  0  0  0  0  0  0  0
  151.5310  137.7740  155.8495 C   0  0  0  0  0  0  0  0  0  0  0  0
  150.9848  136.8779  154.9669 C   0  0  0  0  0  0  0  0  0  0  0  0
  150.3348  137.6177  154.0157 N   0  3  0  0  0  0  0  0  0  0  0  0
  150.4609  138.9225  154.2798 C   0  0  0  0  0  0  0  0  0  0  0  0
  152.4597  145.0221  157.3945 H   0  0  0  0  0  0  0  0  0  0  0  0
  151.6211  146.0891  158.5149 H   0  0  0  0  0  0  0  0  0  0  0  0
  150.7469  144.7662  157.7662 H   0  0  0  0  0  0  0  0  0  0  0  0
  151.7632  145.6093  160.8096 H   0  0  0  0  0  0  0  0  0  0  0  0
  153.4073  144.2647  162.2261 H   0  0  0  0  0  0  0  0  0  0  0  0
  151.7451  143.8591  162.5952 H   0  0  0  0  0  0  0  0  0  0  0  0
  153.4331  141.8945  162.2822 H   0  0  0  0  0  0  0  0  0  0  0  0
  151.8805  141.7462  161.5074 H   0  0  0  0  0  0  0  0  0  0  0  0
  154.3794  142.8114  160.1513 H   0  0  0  0  0  0  0  0  0  0  0  0
  153.2306  140.0012  159.9887 H   0  0  0  0  0  0  0  0  0  0  0  0
  154.7939  140.4983  160.6067 H   0  0  0  0  0  0  0  0  0  0  0  0
  154.4515  140.6513  158.8899 H   0  0  0  0  0  0  0  0  0  0  0  0
  153.2195  142.8144  158.1048 H   0  0  0  0  0  0  0  0  0  0  0  0
  151.7600  140.7661  158.4854 H   0  0  0  0  0  0  0  0  0  0  0  0
  150.6910  141.7545  159.4597 H   0  0  0  0  0  0  0  0  0  0  0  0
  149.8730  142.6913  157.6602 H   0  0  0  0  0  0  0  0  0  0  0  0
  149.6840  140.3641  157.1091 H   0  0  0  0  0  0  0  0  0  0  0  0
  149.7115  141.4250  155.7088 H   0  0  0  0  0  0  0  0  0  0  0  0
  152.0502  140.9071  155.2387 H   0  0  0  0  0  0  0  0  0  0  0  0
  152.2697  140.1284  156.7974 H   0  0  0  0  0  0  0  0  0  0  0  0
  152.1201  137.6168  156.7417 H   0  0  0  0  0  0  0  0  0  0  0  0
  151.0091  135.7979  154.9451 H   0  0  0  0  0  0  0  0  0  0  0  0
  150.0528  139.7323  153.7014 H   0  0  0  0  0  0  0  0  0  0  0  0
  151.3101  142.7972  156.8753 H   0  0  0  0  0  0  0  0  0  0  0  0
  149.8299  137.2348  153.2259 H   0  0  0  0  0  0  0  0  0  0  0  0
  1  2  1  0  0  0  0
  1 18  1  0  0  0  0
  1 19  1  0  0  0  0
  1 20  1  0  0  0  0
  2  8  1  0  0  0  0
  2  3  2  0  0  0  0
  3  4  1  0  0  0  0
  3 21  1  0  0  0  0
  4  5  1  0  0  0  0
  4 22  1  0  0  0  0
  4 23  1  0  0  0  0
  5  6  1  0  0  0  0
  5 24  1  0  0  0  0
  5 25  1  0  0  0  0
  6  7  1  0  0  0  0
  6  8  1  0  0  0  0
  6 26  1  0  0  0  0
  7 27  1  0  0  0  0
  7 28  1  0  0  0  0
  7 29  1  0  0  0  0
  8  9  1  0  0  0  0
  8 30  1  0  0  0  0
  9 10  1  0  0  0  0
  9 31  1  0  0  0  0
  9 32  1  0  0  0  0
 10 11  1  0  0  0  0
 10 33  1  0  0  0  0
 10 41  1  0  0  0  0
 11 12  1  0  0  0  0
 11 34  1  0  0  0  0
 11 35  1  0  0  0  0
 12 13  1  0  0  0  0
 12 36  1  0  0  0  0
 12 37  1  0  0  0  0
 13 17  1  0  0  0  0
 13 14  1  0  0  0  0
 14 15  2  0  0  0  0
 14 38  1  0  0  0  0
 15 16  1  0  0  0  0
 15 39  1  0  0  0  0
 16 17  2  0  0  0  0
 16 42  1  0  0  0  0
 17 40  1  0  0  0  0
M  CHG  1  10   1
M  CHG  1  16   1
M  END
> <s_m_source_file>
AV-unprocessed.smi

> <i_m_source_file_index>
3187

> <i_lp_mmshare_version>
43012

> <i_f3d_flags>
0

> <s_epik_input>
W0NIM11DMT1bQ0hdW0NIMl1bQ0gyXVtDQEBIXShbQ0gzXSlbQ0BIXTFbQ0gyXVtOSF1bQ0gyXVtDSDJdbjJbY0hdW2NIXW5bY0hdMg==

> <s_epik_cmdline>
J2VwaWtfcHl0aG9uJywgJy1waCcsICc3LjAnLCAnLXRuJywgJzgnLCAnLW1hJywgJzIwMCcsICctbWV0YWxfYmluZGluZycsICctaW1hZScsICc8aW5maWxlLm1hZT4nLCAnLW9tYWUnLCAnPG91dGZpbGUubWFlPic=

> <r_lp_tautomer_probability>
1

> <r_epik_Ionization_Penalty>
1.51066

> <r_epik_Ionization_Penalty_Charging>
0.0026721

> <r_epik_Ionization_Penalty_Neutral>
1.50798

> <r_epik_State_Penalty>
1.12593

> <r_epik_Charging_Adjusted_Penalty>
1.12861

> <i_epik_Tot_Q>
2

> <i_epik_Tot_abs_Q>
2

> <r_epik_Metal_State_Penalty>
5.12155

> <b_epik_Metal_Only>
0

> <s_lp_Force_Field>
OPLS_2005

> <r_lp_Energy>
24.2531

> <b_lp_Chiralities_Consistent>
1

> <s_lp_Variant>
AV-unprocessed.smi:3187-5

> <Gold.Version>
5.8.1

> <Gold.Id.Protein>
6NUR|6NUR_protein|mol2

> <Gold.PLP.Fitness>
55.6357

> <Gold.PLP.PLP>
-47.5324

> <Gold.PLP.part.hbond>
-1.9502

> <Gold.PLP.part.metal>
0.0000

> <Gold.PLP.part.buried>
-4.4706

> <Gold.PLP.part.nonpolar>
-40.0152

> <Gold.PLP.part.repulsive>
0.0982

> <Gold.PLP.ligand.clash>
0.0000

> <Gold.PLP.ligand.torsion>
0.4061

> <Gold.PLP.Chemscore.Hbond>
2.0000

> <Gold.PLP.Chemscore.CHOScore>
0.9506

> <Gold.PLP.Chemscore.Metal>
0.0000

> <Gold.Chemscore.Hbonds>
donor molecule, donor type, donor heavy atom, donor atom, acceptor molecule, acceptor atom, score
      L1  H    16    42       P1  7948  2.00
      L1  C    17    40       P1  7957  0.84

> <Gold.PLP.Chemscore.Internal.Correction>
0.0636

> <Gold.Rescore>
     Score         DG    S(hbond)    S(metal)    S(lipo)     H(rot)  DE(clash)    DE(int)     intcor
     17.89     -18.31       0.94        0.00     126.03       1.97       0.04       0.38       ----

> <Gold.Chemscore.Fitness>
17.8888

> <Gold.Chemscore.DG>
-18.3111

> <Gold.Chemscore.ZeroCoef>
-5.4800

> <Gold.Chemscore.Hbond>
0.9392

> <Gold.Chemscore.Metal>
0.0000

> <Gold.Chemscore.Lipo>
126.0290

> <Gold.Chemscore.Internal_Hbond>
0.0000

> <Gold.Chemscore.DEClash>
0.0430

> <Gold.Chemscore.DEInternal>
0.3793

> <Gold.Chemscore.Rot>
1.9732

> <Gold.Chemscore.Internal.Correction>
   9.000000E+99

> <Gold.Chemscore.Hbonds>
donor molecule, donor type, donor heavy atom, donor atom, acceptor molecule, acceptor atom, score
      L1  H    16    42       P1  7948  0.45

> <Gold.Chemscore.Hbond.Weighted>
-3.1371

> <Gold.Chemscore.Metal.Weighted>
-0.0000

> <Gold.Chemscore.Lipo.Weighted>
-14.7454

> <Gold.Chemscore.Internal_Hbond.Weighted>
0.0000

> <Gold.Chemscore.DEClash.Weighted>
0.0430

> <Gold.Chemscore.DEInternal.Weighted>
0.3793

> <Gold.Chemscore.Rot.Weighted>
5.0514

> <Gold.Chemscore.Internal.Correction.Weighted>
   9.000000E+99

> <Gold.Protein.RotatedTorsions>
[ 6907 6896 6895 6894 ] final   28.82 input  -60.11 | X-H torsion
[ 7974 7965 7964 7962 ] final   78.33 input  175.53 | X-H torsion
[ 8008 7997 7996 7995 ] final -115.57 input   59.86 | X-H torsion
[ 10167 10162 10161 10158 ] final   27.15 input  -65.29 | X-H torsion
[ 10718 10713 10712 10709 ] final   16.49 input   66.30 | X-H torsion
[ 10763 10752 10751 10750 ] final -177.46 input  -60.55 | X-H torsion
[ 11005 11000 10999 10996 ] final -109.67 input  -57.11 | X-H torsion

> <Gold.Protein.ActiveResidues>
 VAL166  LYS551  ARG553  GLY616  TRP617  ASP618  TYR619  PRO620  LYS621  CYS622 
 ASP623  PHE694  ASN695  SER759  ASP760  ASP761  ALA762  ILE779  LEU786  VAL792 
 PHE793  MET794  SER795  GLU796  ALA797  LYS798  CYS799  TRP800  GLU811  SER814 

> <Gold.Protein.RotatedAtoms>
  152.0225  134.9814  160.0570 H   0  0  0  0  0  0  0  0  0  0  0  0  # atno 6907 bound_to 6896
  152.1323  133.4410  159.4735 H   0  0  0  0  0  0  0  0  0  0  0  0  # atno 6908 bound_to 6896
  150.6857  134.2324  159.4483 H   0  0  0  0  0  0  0  0  0  0  0  0  # atno 6909 bound_to 6896
  145.6786  139.2517  143.1827 H   0  0  0  0  0  0  0  0  0  0  0  0  # atno 7974 bound_to 7965
  155.0541  140.0393  157.2554 H   0  0  0  0  0  0  0  0  0  0  0  0  # atno 8008 bound_to 7997
  154.7113  140.2693  155.6602 H   0  0  0  0  0  0  0  0  0  0  0  0  # atno 8009 bound_to 7997
  156.2790  140.2721  156.1756 H   0  0  0  0  0  0  0  0  0  0  0  0  # atno 8010 bound_to 7997
  140.4963  144.0387  150.6315 H   0  0  0  0  0  0  0  0  0  0  0  0  # atno 10167 bound_to 10162
  157.0685  130.6338  149.5800 H   0  0  0  0  0  0  0  0  0  0  0  0  # atno 10718 bound_to 10713
  154.5598  135.2819  155.0930 H   0  0  0  0  0  0  0  0  0  0  0  0  # atno 10763 bound_to 10752
  154.2343  135.6368  153.5189 H   0  0  0  0  0  0  0  0  0  0  0  0  # atno 10764 bound_to 10752
  153.0026  135.5544  154.6189 H   0  0  0  0  0  0  0  0  0  0  0  0  # atno 10765 bound_to 10752
  141.0834  133.9180  157.2238 H   0  0  0  0  0  0  0  0  0  0  0  0  # atno 11005 bound_to 11000
  146.0984  140.7573  142.9561 LP  0  0  0  0  0  0  0  0  0  0  0  0  # atno 17320 bound_to 7965
  144.7033  140.3748  143.7138 LP  0  0  0  0  0  0  0  0  0  0  0  0  # atno 17321 bound_to 7965
  140.3670  143.2876  152.0320 LP  0  0  0  0  0  0  0  0  0  0  0  0  # atno 17342 bound_to 10162
  139.4862  144.6259  151.7165 LP  0  0  0  0  0  0  0  0  0  0  0  0  # atno 17343 bound_to 10162
  155.9957  130.5025  150.7469 LP  0  0  0  0  0  0  0  0  0  0  0  0  # atno 17370 bound_to 10713
  157.4897  131.0910  151.0441 LP  0  0  0  0  0  0  0  0  0  0  0  0  # atno 17371 bound_to 10713
  139.9650  135.0144  156.9363 LP  0  0  0  0  0  0  0  0  0  0  0  0  # atno 17394 bound_to 11000
  140.5417  134.0714  155.7343 LP  0  0  0  0  0  0  0  0  0  0  0  0  # atno 17395 bound_to 11000

$$$$
