AV-unprocessed.smi:2695|AV-procd|sdf|10407|dock8
  -GOLD-   2272014443D 1   1.00000     0.00000
 Structure written by MMmdl.
 41 42  0  0  0  0  0  0  0  0  2 V2000
  151.2135  145.1571  160.2505 C   0  0  0  0  0  0  0  0  0  0  0  0
  152.1073  144.0168  160.7234 C   0  0  0  0  0  0  0  0  0  0  0  0
  152.5397  143.9704  162.0029 C   0  0  0  0  0  0  0  0  0  0  0  0
  153.3295  142.9281  162.4701 C   0  0  0  0  0  0  0  0  0  0  0  0
  153.7350  142.8818  163.6525 O   0  5  0  0  0  0  0  0  0  0  0  0
  153.6365  141.9384  161.5452 C   0  0  0  0  0  0  0  0  0  0  0  0
  153.1945  141.9298  160.1560 C   0  0  0  0  0  0  0  0  0  0  0  0
  153.4854  141.0163  159.3815 O   0  0  0  0  0  0  0  0  0  0  0  0
  152.4449  143.0057  159.7847 N   0  0  0  0  0  0  0  0  0  0  0  0
  151.9972  143.1052  158.3763 C   0  0  0  0  0  0  0  0  0  0  0  0
  151.0757  141.9564  157.9398 C   0  0  0  0  0  0  0  0  0  0  0  0
  150.0055  141.7474  158.5126 O   0  0  0  0  0  0  0  0  0  0  0  0
  151.5165  141.2212  156.9074 N   0  0  0  0  0  0  0  0  0  0  0  0
  150.8392  140.0639  156.3198 C   0  0  2  0  0  0  0  0  0  0  0  0
  149.3907  140.4603  155.9337 C   0  0  0  0  0  0  0  0  0  0  0  0
  148.5924  139.3758  155.1999 C   0  0  0  0  0  0  0  0  0  0  0  0
  147.4415  140.1149  154.5092 C   0  0  0  0  0  0  0  0  0  0  0  0
  147.8954  141.5735  154.3576 C   0  0  0  0  0  0  0  0  0  0  0  0
  149.2983  141.6503  154.9677 C   0  0  0  0  0  0  0  0  0  0  0  0
  150.9239  138.8808  157.3113 C   0  0  0  0  0  0  0  0  0  0  0  0
  150.6958  137.7354  156.6673 F   0  0  0  0  0  0  0  0  0  0  0  0
  152.1325  138.8214  157.8723 F   0  0  0  0  0  0  0  0  0  0  0  0
  150.0074  138.9950  158.2714 F   0  0  0  0  0  0  0  0  0  0  0  0
  150.8444  145.7360  161.0980 H   0  0  0  0  0  0  0  0  0  0  0  0
  150.3380  144.7893  159.7152 H   0  0  0  0  0  0  0  0  0  0  0  0
  151.7684  145.8385  159.6054 H   0  0  0  0  0  0  0  0  0  0  0  0
  152.2590  144.7642  162.6804 H   0  0  0  0  0  0  0  0  0  0  0  0
  154.2465  141.1068  161.8675 H   0  0  0  0  0  0  0  0  0  0  0  0
  151.5044  144.0520  158.1626 H   0  0  0  0  0  0  0  0  0  0  0  0
  152.8626  143.1201  157.7108 H   0  0  0  0  0  0  0  0  0  0  0  0
  152.4025  141.4777  156.4970 H   0  0  0  0  0  0  0  0  0  0  0  0
  151.3568  139.7607  155.4080 H   0  0  0  0  0  0  0  0  0  0  0  0
  148.8435  140.7265  156.8396 H   0  0  0  0  0  0  0  0  0  0  0  0
  149.2205  138.8987  154.4463 H   0  0  0  0  0  0  0  0  0  0  0  0
  148.2260  138.5961  155.8680 H   0  0  0  0  0  0  0  0  0  0  0  0
  147.1962  139.6608  153.5487 H   0  0  0  0  0  0  0  0  0  0  0  0
  146.5441  140.0717  155.1276 H   0  0  0  0  0  0  0  0  0  0  0  0
  147.8977  141.8948  153.3156 H   0  0  0  0  0  0  0  0  0  0  0  0
  147.2133  142.2298  154.8998 H   0  0  0  0  0  0  0  0  0  0  0  0
  149.4792  142.6070  155.4595 H   0  0  0  0  0  0  0  0  0  0  0  0
  150.0431  141.5433  154.1773 H   0  0  0  0  0  0  0  0  0  0  0  0
  1  2  1  0  0  0  0
  1 24  1  0  0  0  0
  1 25  1  0  0  0  0
  1 26  1  0  0  0  0
  2  9  1  0  0  0  0
  2  3  2  0  0  0  0
  3  4  1  0  0  0  0
  3 27  1  0  0  0  0
  4  5  1  0  0  0  0
  4  6  2  0  0  0  0
  6  7  1  0  0  0  0
  6 28  1  0  0  0  0
  7  8  2  0  0  0  0
  7  9  1  0  0  0  0
  9 10  1  0  0  0  0
 10 11  1  0  0  0  0
 10 29  1  0  0  0  0
 10 30  1  0  0  0  0
 11 12  2  0  0  0  0
 11 13  1  0  0  0  0
 13 14  1  0  0  0  0
 13 31  1  0  0  0  0
 14 15  1  0  0  0  0
 14 20  1  0  0  0  0
 14 32  1  0  0  0  0
 15 19  1  0  0  0  0
 15 16  1  0  0  0  0
 15 33  1  0  0  0  0
 16 17  1  0  0  0  0
 16 34  1  0  0  0  0
 16 35  1  0  0  0  0
 17 18  1  0  0  0  0
 17 36  1  0  0  0  0
 17 37  1  0  0  0  0
 18 19  1  0  0  0  0
 18 38  1  0  0  0  0
 18 39  1  0  0  0  0
 19 40  1  0  0  0  0
 19 41  1  0  0  0  0
 20 21  1  0  0  0  0
 20 22  1  0  0  0  0
 20 23  1  0  0  0  0
M  CHG  1   5  -1
M  END
> <s_m_source_file>
AV-unprocessed.smi

> <i_m_source_file_index>
2695

> <i_lp_mmshare_version>
43012

> <i_f3d_flags>
0

> <s_epik_input>
W0NIM11jMVtjSF1jKFtPSF0pW2NIXWMoPU8pbjFbQ0gyXUMoPU8pW05IXVtDQEBIXShDKEYpKEYpRilbQ0hdMltDSDJdW0NIMl1bQ0gyXVtDSDJdMg==

> <s_epik_cmdline>
J2VwaWtfcHl0aG9uJywgJy1waCcsICc3LjAnLCAnLXRuJywgJzgnLCAnLW1hJywgJzIwMCcsICctbWV0YWxfYmluZGluZycsICctaW1hZScsICc8aW5maWxlLm1hZT4nLCAnLW9tYWUnLCAnPG91dGZpbGUubWFlPic=

> <r_lp_tautomer_probability>
1

> <r_epik_Ionization_Penalty>
0.176977

> <r_epik_Ionization_Penalty_Charging>
0.176977

> <r_epik_Ionization_Penalty_Neutral>
1.44272e-07

> <r_epik_State_Penalty>
0.160849

> <r_epik_Charging_Adjusted_Penalty>
0.337826

> <i_epik_Tot_Q>
-1

> <i_epik_Tot_abs_Q>
1

> <r_epik_Metal_State_Penalty>
0.16085

> <b_epik_Metal_Only>
0

> <s_lp_Force_Field>
OPLS_2005

> <r_lp_Energy>
43.1089

> <b_lp_Chiralities_Consistent>
1

> <s_lp_Variant>
AV-unprocessed.smi:2695-1

> <Gold.Version>
5.8.1

> <Gold.Id.Protein>
6NUR|6NUR_protein|mol2

> <Gold.PLP.Fitness>
47.1649

> <Gold.PLP.PLP>
-47.9762

> <Gold.PLP.part.hbond>
-0.1862

> <Gold.PLP.part.metal>
0.0000

> <Gold.PLP.part.buried>
-5.1016

> <Gold.PLP.part.nonpolar>
-40.3913

> <Gold.PLP.part.repulsive>
0.2811

> <Gold.PLP.ligand.clash>
0.0000

> <Gold.PLP.ligand.torsion>
0.5582

> <Gold.PLP.Chemscore.Hbond>
0.0000

> <Gold.PLP.Chemscore.CHOScore>
0.0000

> <Gold.PLP.Chemscore.Metal>
0.0000

> <Gold.PLP.Chemscore.Internal.Correction>
0.3051

> <Gold.Rescore>
     Score         DG    S(hbond)    S(metal)    S(lipo)     H(rot)  DE(clash)    DE(int)     intcor
      9.61     -13.29       0.00        0.00     105.16       1.75       0.13       3.56       ----

> <Gold.Chemscore.Fitness>
9.6100

> <Gold.Chemscore.DG>
-13.2939

> <Gold.Chemscore.ZeroCoef>
-5.4800

> <Gold.Chemscore.Hbond>
0.0000

> <Gold.Chemscore.Metal>
0.0000

> <Gold.Chemscore.Lipo>
105.1608

> <Gold.Chemscore.Internal_Hbond>
0.0000

> <Gold.Chemscore.DEClash>
0.1288

> <Gold.Chemscore.DEInternal>
3.5551

> <Gold.Chemscore.Rot>
1.7539

> <Gold.Chemscore.Internal.Correction>
   9.000000E+99

> <Gold.Chemscore.Hbond.Weighted>
-0.0000

> <Gold.Chemscore.Metal.Weighted>
-0.0000

> <Gold.Chemscore.Lipo.Weighted>
-12.3038

> <Gold.Chemscore.Internal_Hbond.Weighted>
0.0000

> <Gold.Chemscore.DEClash.Weighted>
0.1288

> <Gold.Chemscore.DEInternal.Weighted>
3.5551

> <Gold.Chemscore.Rot.Weighted>
4.4899

> <Gold.Chemscore.Internal.Correction.Weighted>
   9.000000E+99

> <Gold.Protein.RotatedTorsions>
[ 6907 6896 6895 6894 ] final  -96.03 input  -60.11 | X-H torsion
[ 7974 7965 7964 7962 ] final  116.41 input  175.53 | X-H torsion
[ 8008 7997 7996 7995 ] final  143.53 input   59.86 | X-H torsion
[ 10167 10162 10161 10158 ] final   15.63 input  -65.29 | X-H torsion
[ 10718 10713 10712 10709 ] final   -5.12 input   66.30 | X-H torsion
[ 10763 10752 10751 10750 ] final   68.41 input  -60.55 | X-H torsion
[ 11005 11000 10999 10996 ] final  -12.10 input  -57.11 | X-H torsion

> <Gold.Protein.ActiveResidues>
 VAL166  LYS551  ARG553  GLY616  TRP617  ASP618  TYR619  PRO620  LYS621  CYS622 
 ASP623  PHE694  ASN695  SER759  ASP760  ASP761  ALA762  ILE779  LEU786  VAL792 
 PHE793  MET794  SER795  GLU796  ALA797  LYS798  CYS799  TRP800  GLU811  SER814 

> <Gold.Protein.RotatedAtoms>
  150.6978  134.1566  159.4160 H   0  0  0  0  0  0  0  0  0  0  0  0  # atno 6907 bound_to 6896
  151.9547  135.0150  160.0553 H   0  0  0  0  0  0  0  0  0  0  0  0  # atno 6908 bound_to 6896
  152.1980  133.4785  159.5080 H   0  0  0  0  0  0  0  0  0  0  0  0  # atno 6909 bound_to 6896
  145.1800  139.3055  143.4423 H   0  0  0  0  0  0  0  0  0  0  0  0  # atno 7974 bound_to 7965
  156.2928  140.2260  156.4906 H   0  0  0  0  0  0  0  0  0  0  0  0  # atno 8008 bound_to 7997
  154.7775  140.0462  157.1122 H   0  0  0  0  0  0  0  0  0  0  0  0  # atno 8009 bound_to 7997
  154.9799  140.3077  155.4954 H   0  0  0  0  0  0  0  0  0  0  0  0  # atno 8010 bound_to 7997
  140.5854  143.8900  150.6825 H   0  0  0  0  0  0  0  0  0  0  0  0  # atno 10167 bound_to 10162
  156.7512  130.5240  149.5803 H   0  0  0  0  0  0  0  0  0  0  0  0  # atno 10718 bound_to 10713
  153.0234  135.5248  154.7130 H   0  0  0  0  0  0  0  0  0  0  0  0  # atno 10763 bound_to 10752
  154.6207  135.2888  155.0332 H   0  0  0  0  0  0  0  0  0  0  0  0  # atno 10764 bound_to 10752
  154.1319  135.6591  153.4976 H   0  0  0  0  0  0  0  0  0  0  0  0  # atno 10765 bound_to 10752
  140.7622  133.8506  155.9134 H   0  0  0  0  0  0  0  0  0  0  0  0  # atno 11005 bound_to 11000
  146.3455  140.1976  142.8589 LP  0  0  0  0  0  0  0  0  0  0  0  0  # atno 17320 bound_to 7965
  145.0146  140.8743  143.5203 LP  0  0  0  0  0  0  0  0  0  0  0  0  # atno 17321 bound_to 7965
  140.2410  143.3664  152.1487 LP  0  0  0  0  0  0  0  0  0  0  0  0  # atno 17342 bound_to 10162
  139.5194  144.7019  151.5467 LP  0  0  0  0  0  0  0  0  0  0  0  0  # atno 17343 bound_to 10162
  156.1400  130.6238  151.0453 LP  0  0  0  0  0  0  0  0  0  0  0  0  # atno 17370 bound_to 10713
  157.6776  131.0846  150.7454 LP  0  0  0  0  0  0  0  0  0  0  0  0  # atno 17371 bound_to 10713
  140.9653  134.1603  157.4621 LP  0  0  0  0  0  0  0  0  0  0  0  0  # atno 17394 bound_to 11000
  139.8769  134.9959  156.5768 LP  0  0  0  0  0  0  0  0  0  0  0  0  # atno 17395 bound_to 11000

$$$$
