AV-unprocessed.smi:661|AV-procd|sdf|3241|dock2
  -GOLD-   22720 0193D 1   1.00000     0.00000
 Structure written by MMmdl.
 30 31  0  0  0  0  0  0  0  0  1 V2000
  149.0273  145.0069  160.6609 C   0  0  0  0  0  0  0  0  0  0  0  0
  149.3047  144.8233  159.2477 N   0  0  0  0  0  0  0  0  0  0  0  0
  150.7287  144.9843  159.0047 C   0  0  0  0  0  0  0  0  0  0  0  0
  151.5600  144.1056  159.8873 C   0  0  0  0  0  0  0  0  0  0  0  0
  151.7721  144.4027  161.1698 N   0  0  0  0  0  0  0  0  0  0  0  0
  152.5721  143.3600  161.5950 C   0  0  0  0  0  0  0  0  0  0  0  0
  153.1395  143.0948  162.8619 C   0  0  0  0  0  0  0  0  0  0  0  0
  153.9376  141.9492  163.0610 C   0  0  0  0  0  0  0  0  0  0  0  0
  154.1798  141.0545  161.9986 C   0  0  0  0  0  0  0  0  0  0  0  0
  153.6236  141.2997  160.7283 C   0  0  0  0  0  0  0  0  0  0  0  0
  152.8268  142.4440  160.5353 C   0  0  0  0  0  0  0  0  0  0  0  0
  152.1486  142.9673  159.4392 N   0  0  0  0  0  0  0  0  0  0  0  0
  152.1099  142.3885  158.1045 C   0  0  0  0  0  0  0  0  0  0  0  0
  150.6739  142.2926  157.5712 C   0  0  0  0  0  0  0  0  0  0  0  0
  150.6424  142.6869  156.2171 O   0  0  0  0  0  0  0  0  0  0  0  0
  147.9587  144.8967  160.8459 H   0  0  0  0  0  0  0  0  0  0  0  0
  149.3285  146.0017  160.9915 H   0  0  0  0  0  0  0  0  0  0  0  0
  149.5543  144.2641  161.2609 H   0  0  0  0  0  0  0  0  0  0  0  0
  148.8020  145.5249  158.7228 H   0  0  0  0  0  0  0  0  0  0  0  0
  150.9438  144.7420  157.9629 H   0  0  0  0  0  0  0  0  0  0  0  0
  151.0249  146.0234  159.1508 H   0  0  0  0  0  0  0  0  0  0  0  0
  152.9603  143.7740  163.6820 H   0  0  0  0  0  0  0  0  0  0  0  0
  154.3663  141.7567  164.0335 H   0  0  0  0  0  0  0  0  0  0  0  0
  154.7930  140.1799  162.1596 H   0  0  0  0  0  0  0  0  0  0  0  0
  153.8075  140.6174  159.9116 H   0  0  0  0  0  0  0  0  0  0  0  0
  152.7149  143.0119  157.4448 H   0  0  0  0  0  0  0  0  0  0  0  0
  152.5822  141.4067  158.1132 H   0  0  0  0  0  0  0  0  0  0  0  0
  150.2953  141.2737  157.6526 H   0  0  0  0  0  0  0  0  0  0  0  0
  150.0050  142.9364  158.1433 H   0  0  0  0  0  0  0  0  0  0  0  0
  149.9228  143.2876  156.0963 H   0  0  0  0  0  0  0  0  0  0  0  0
  1  2  1  0  0  0  0
  1 16  1  0  0  0  0
  1 17  1  0  0  0  0
  1 18  1  0  0  0  0
  2  3  1  0  0  0  0
  2 19  1  0  0  0  0
  3  4  1  0  0  0  0
  3 20  1  0  0  0  0
  3 21  1  0  0  0  0
  4 12  1  0  0  0  0
  4  5  2  0  0  0  0
  5  6  1  0  0  0  0
  6 11  2  0  0  0  0
  6  7  1  0  0  0  0
  7  8  2  0  0  0  0
  7 22  1  0  0  0  0
  8  9  1  0  0  0  0
  8 23  1  0  0  0  0
  9 10  2  0  0  0  0
  9 24  1  0  0  0  0
 10 11  1  0  0  0  0
 10 25  1  0  0  0  0
 11 12  1  0  0  0  0
 12 13  1  0  0  0  0
 13 14  1  0  0  0  0
 13 26  1  0  0  0  0
 13 27  1  0  0  0  0
 14 15  1  0  0  0  0
 14 28  1  0  0  0  0
 14 29  1  0  0  0  0
 15 30  1  0  0  0  0
M  END
> <s_m_source_file>
AV-unprocessed.smi

> <i_m_source_file_index>
661

> <i_lp_mmshare_version>
43012

> <i_f3d_flags>
0

> <s_epik_input>
W0NIM11bTkhdW0NIMl1jKG4xKW4oW0NIMl1bQ0gyXVtPSF0pYyhjMTIpW2NIXVtjSF1bY0hdW2NIXTI=

> <s_epik_cmdline>
J2VwaWtfcHl0aG9uJywgJy1waCcsICc3LjAnLCAnLXRuJywgJzgnLCAnLW1hJywgJzIwMCcsICctbWV0YWxfYmluZGluZycsICctaW1hZScsICc8aW5maWxlLm1hZT4nLCAnLW9tYWUnLCAnPG91dGZpbGUubWFlPic=

> <r_epik_Ionization_Penalty>
1.98932

> <r_epik_Ionization_Penalty_Charging>
0

> <r_epik_Ionization_Penalty_Neutral>
1.98932

> <r_epik_State_Penalty>
1.95598

> <r_epik_Charging_Adjusted_Penalty>
1.95598

> <i_epik_Tot_Q>
0

> <i_epik_Tot_abs_Q>
0

> <r_epik_Metal_State_Penalty>
1.80219

> <b_epik_Metal_Only>
0

> <s_lp_Force_Field>
OPLS_2005

> <r_lp_Energy>
9.98392

> <b_lp_Chiralities_Consistent>
1

> <s_lp_Variant>
AV-unprocessed.smi:661-2

> <Gold.Version>
5.8.1

> <Gold.Id.Protein>
6NUR|6NUR_protein|mol2

> <Gold.PLP.Fitness>
44.9084

> <Gold.PLP.PLP>
-40.1595

> <Gold.PLP.part.hbond>
-2.0000

> <Gold.PLP.part.metal>
0.0000

> <Gold.PLP.part.buried>
-4.8264

> <Gold.PLP.part.nonpolar>
-32.6757

> <Gold.PLP.part.repulsive>
0.1783

> <Gold.PLP.ligand.clash>
0.0000

> <Gold.PLP.ligand.torsion>
0.6309

> <Gold.PLP.Chemscore.Hbond>
2.0000

> <Gold.PLP.Chemscore.CHOScore>
0.0000

> <Gold.PLP.Chemscore.Metal>
0.0000

> <Gold.Chemscore.Hbonds>
donor molecule, donor type, donor heavy atom, donor atom, acceptor molecule, acceptor atom, score
      L1  H     2    19       P1  8029  0.98
      L1  H    15    30       P1  8028  1.00

> <Gold.PLP.Chemscore.Internal.Correction>
0.0107

> <Gold.Rescore>
     Score         DG    S(hbond)    S(metal)    S(lipo)     H(rot)  DE(clash)    DE(int)     intcor
     15.80     -17.68       1.98        0.00      98.23       2.30       0.03       1.86       ----

> <Gold.Chemscore.Fitness>
15.7957

> <Gold.Chemscore.DG>
-17.6802

> <Gold.Chemscore.ZeroCoef>
-5.4800

> <Gold.Chemscore.Hbond>
1.9771

> <Gold.Chemscore.Metal>
0.0000

> <Gold.Chemscore.Lipo>
98.2291

> <Gold.Chemscore.Internal_Hbond>
0.0000

> <Gold.Chemscore.DEClash>
0.0288

> <Gold.Chemscore.DEInternal>
1.8557

> <Gold.Chemscore.Rot>
2.3031

> <Gold.Chemscore.Internal.Correction>
   9.000000E+99

> <Gold.Chemscore.Hbonds>
donor molecule, donor type, donor heavy atom, donor atom, acceptor molecule, acceptor atom, score
      L1  H     2    19       P1  8029  0.93
      L1  H    15    30       P1  8028  1.00

> <Gold.Chemscore.Hbond.Weighted>
-6.6034

> <Gold.Chemscore.Metal.Weighted>
-0.0000

> <Gold.Chemscore.Lipo.Weighted>
-11.4928

> <Gold.Chemscore.Internal_Hbond.Weighted>
0.0000

> <Gold.Chemscore.DEClash.Weighted>
0.0288

> <Gold.Chemscore.DEInternal.Weighted>
1.8557

> <Gold.Chemscore.Rot.Weighted>
5.8960

> <Gold.Chemscore.Internal.Correction.Weighted>
   9.000000E+99

> <Gold.Protein.RotatedTorsions>
[ 6907 6896 6895 6894 ] final   -9.40 input  -60.11 | X-H torsion
[ 7974 7965 7964 7962 ] final   46.20 input  175.53 | X-H torsion
[ 8008 7997 7996 7995 ] final -131.10 input   59.86 | X-H torsion
[ 10167 10162 10161 10158 ] final -108.99 input  -65.29 | X-H torsion
[ 10718 10713 10712 10709 ] final  102.94 input   66.30 | X-H torsion
[ 10763 10752 10751 10750 ] final  168.20 input  -60.55 | X-H torsion
[ 11005 11000 10999 10996 ] final -160.69 input  -57.11 | X-H torsion

> <Gold.Protein.ActiveResidues>
 VAL166  LYS551  ARG553  GLY616  TRP617  ASP618  TYR619  PRO620  LYS621  CYS622 
 ASP623  PHE694  ASN695  SER759  ASP760  ASP761  ALA762  ILE779  LEU786  VAL792 
 PHE793  MET794  SER795  GLU796  ALA797  LYS798  CYS799  TRP800  GLU811  SER814 

> <Gold.Protein.RotatedAtoms>
  151.4184  135.0994  159.9606 H   0  0  0  0  0  0  0  0  0  0  0  0  # atno 6907 bound_to 6896
  152.4996  133.8730  159.7318 H   0  0  0  0  0  0  0  0  0  0  0  0  # atno 6908 bound_to 6896
  150.9241  133.6788  159.2853 H   0  0  0  0  0  0  0  0  0  0  0  0  # atno 6909 bound_to 6896
  146.0412  139.4882  142.9777 H   0  0  0  0  0  0  0  0  0  0  0  0  # atno 7974 bound_to 7965
  155.3067  140.0455  157.3032 H   0  0  0  0  0  0  0  0  0  0  0  0  # atno 8008 bound_to 7997
  154.5456  140.2301  155.8536 H   0  0  0  0  0  0  0  0  0  0  0  0  # atno 8009 bound_to 7997
  156.1921  140.3048  155.9359 H   0  0  0  0  0  0  0  0  0  0  0  0  # atno 8010 bound_to 7997
  140.1601  143.4127  152.1432 H   0  0  0  0  0  0  0  0  0  0  0  0  # atno 10167 bound_to 10162
  157.6787  131.0766  150.5480 H   0  0  0  0  0  0  0  0  0  0  0  0  # atno 10718 bound_to 10713
  154.3651  135.2753  155.2298 H   0  0  0  0  0  0  0  0  0  0  0  0  # atno 10763 bound_to 10752
  154.4469  135.5940  153.6169 H   0  0  0  0  0  0  0  0  0  0  0  0  # atno 10764 bound_to 10752
  152.9841  135.6032  154.3876 H   0  0  0  0  0  0  0  0  0  0  0  0  # atno 10765 bound_to 10752
  140.6286  134.4674  157.5228 H   0  0  0  0  0  0  0  0  0  0  0  0  # atno 11005 bound_to 11000
  145.6882  141.0172  143.1570 LP  0  0  0  0  0  0  0  0  0  0  0  0  # atno 17320 bound_to 7965
  144.7075  139.8501  143.7425 LP  0  0  0  0  0  0  0  0  0  0  0  0  # atno 17321 bound_to 7965
  139.5385  144.7233  151.4812 LP  0  0  0  0  0  0  0  0  0  0  0  0  # atno 17342 bound_to 10162
  140.6648  143.8421  150.6929 LP  0  0  0  0  0  0  0  0  0  0  0  0  # atno 17343 bound_to 10162
  156.5785  130.4298  149.5988 LP  0  0  0  0  0  0  0  0  0  0  0  0  # atno 17370 bound_to 10713
  156.2681  130.7001  151.1790 LP  0  0  0  0  0  0  0  0  0  0  0  0  # atno 17371 bound_to 10713
  139.9125  134.8315  156.1480 LP  0  0  0  0  0  0  0  0  0  0  0  0  # atno 17394 bound_to 11000
  141.0691  133.6805  156.2104 LP  0  0  0  0  0  0  0  0  0  0  0  0  # atno 17395 bound_to 11000

$$$$
