AV-unprocessed.smi:2696|AV-procd|sdf|10414|dock4
  -GOLD-   2272014453D 1   1.00000     0.00000
 Structure written by MMmdl.
 43 44  0  0  0  0  0  0  0  0  1 V2000
  146.4604  138.9992  151.3836 C   0  0  0  0  0  0  0  0  0  0  0  0
  146.7715  138.4714  152.7933 C   0  0  0  0  0  0  0  0  0  0  0  0
  145.4926  138.2764  153.6218 C   0  0  0  0  0  0  0  0  0  0  0  0
  147.7752  139.3601  153.5159 C   0  0  0  0  0  0  0  0  0  0  0  0
  149.0508  138.9703  153.7533 C   0  0  0  0  0  0  0  0  0  0  0  0
  149.9798  139.8424  154.4712 C   0  0  0  0  0  0  0  0  0  0  0  0
  151.1519  139.5294  154.6788 O   0  0  0  0  0  0  0  0  0  0  0  0
  149.4461  141.0225  154.9023 N   0  0  0  0  0  0  0  0  0  0  0  0
  150.2463  141.9710  155.7062 C   0  0  0  0  0  0  0  0  0  0  0  0
  150.0540  141.8441  157.2495 C   0  0  2  0  0  0  0  0  0  0  0  0
  149.7066  140.3866  157.6205 C   0  0  0  0  0  0  0  0  0  0  0  0
  148.8608  142.5353  157.5749 O   0  0  0  0  0  0  0  0  0  0  0  0
  151.2649  142.3486  158.0506 C   0  0  0  0  0  0  0  0  0  0  0  0
  151.6815  143.6989  157.9737 C   0  0  0  0  0  0  0  0  0  0  0  0
  152.8162  144.1390  158.6799 C   0  0  0  0  0  0  0  0  0  0  0  0
  153.5512  143.2353  159.4680 C   0  0  0  0  0  0  0  0  0  0  0  0
  153.1579  141.8842  159.5524 C   0  0  0  0  0  0  0  0  0  0  0  0
  153.9702  140.9174  160.4012 C   0  0  0  0  0  0  0  0  0  0  0  0
  153.5157  139.6674  160.3036 F   0  0  0  0  0  0  0  0  0  0  0  0
  155.2443  140.9309  160.0093 F   0  0  0  0  0  0  0  0  0  0  0  0
  153.9095  141.2942  161.6778 F   0  0  0  0  0  0  0  0  0  0  0  0
  152.0137  141.4509  158.8474 C   0  0  0  0  0  0  0  0  0  0  0  0
  148.1215  141.3971  154.5935 C   0  0  0  0  0  0  0  0  0  0  0  0
  147.3234  140.6130  153.9422 N   0  0  0  0  0  0  0  0  0  0  0  0
  147.3738  139.1165  150.7994 H   0  0  0  0  0  0  0  0  0  0  0  0
  145.9589  139.9667  151.4165 H   0  0  0  0  0  0  0  0  0  0  0  0
  145.8109  138.3101  150.8432 H   0  0  0  0  0  0  0  0  0  0  0  0
  147.2308  137.4889  152.6729 H   0  0  0  0  0  0  0  0  0  0  0  0
  145.7233  137.8695  154.6069 H   0  0  0  0  0  0  0  0  0  0  0  0
  144.8109  137.5813  153.1308 H   0  0  0  0  0  0  0  0  0  0  0  0
  144.9592  139.2165  153.7656 H   0  0  0  0  0  0  0  0  0  0  0  0
  149.3922  138.0010  153.4209 H   0  0  0  0  0  0  0  0  0  0  0  0
  151.3030  141.9048  155.4389 H   0  0  0  0  0  0  0  0  0  0  0  0
  149.9750  142.9878  155.4155 H   0  0  0  0  0  0  0  0  0  0  0  0
  150.5053  139.6922  157.3615 H   0  0  0  0  0  0  0  0  0  0  0  0
  148.8135  140.0446  157.0955 H   0  0  0  0  0  0  0  0  0  0  0  0
  149.5181  140.2837  158.6902 H   0  0  0  0  0  0  0  0  0  0  0  0
  148.7302  143.2264  156.9437 H   0  0  0  0  0  0  0  0  0  0  0  0
  151.1466  144.4109  157.3631 H   0  0  0  0  0  0  0  0  0  0  0  0
  153.1263  145.1712  158.6118 H   0  0  0  0  0  0  0  0  0  0  0  0
  154.4228  143.5798  160.0049 H   0  0  0  0  0  0  0  0  0  0  0  0
  151.7206  140.4139  158.9000 H   0  0  0  0  0  0  0  0  0  0  0  0
  147.8141  142.3812  154.9506 H   0  0  0  0  0  0  0  0  0  0  0  0
  1  2  1  0  0  0  0
  1 25  1  0  0  0  0
  1 26  1  0  0  0  0
  1 27  1  0  0  0  0
  2  3  1  0  0  0  0
  2  4  1  0  0  0  0
  2 28  1  0  0  0  0
  3 29  1  0  0  0  0
  3 30  1  0  0  0  0
  3 31  1  0  0  0  0
  4 24  1  0  0  0  0
  4  5  2  0  0  0  0
  5  6  1  0  0  0  0
  5 32  1  0  0  0  0
  6  7  2  0  0  0  0
  6  8  1  0  0  0  0
  8  9  1  0  0  0  0
  8 23  1  0  0  0  0
  9 10  1  0  0  0  0
  9 33  1  0  0  0  0
  9 34  1  0  0  0  0
 10 11  1  0  0  0  0
 10 12  1  0  0  0  0
 10 13  1  0  0  0  0
 11 35  1  0  0  0  0
 11 36  1  0  0  0  0
 11 37  1  0  0  0  0
 12 38  1  0  0  0  0
 13 22  1  0  0  0  0
 13 14  2  0  0  0  0
 14 15  1  0  0  0  0
 14 39  1  0  0  0  0
 15 16  2  0  0  0  0
 15 40  1  0  0  0  0
 16 17  1  0  0  0  0
 16 41  1  0  0  0  0
 17 18  1  0  0  0  0
 17 22  2  0  0  0  0
 18 19  1  0  0  0  0
 18 20  1  0  0  0  0
 18 21  1  0  0  0  0
 22 42  1  0  0  0  0
 23 24  2  0  0  0  0
 23 43  1  0  0  0  0
M  END
> <s_m_source_file>
AV-unprocessed.smi

> <i_m_source_file_index>
2696

> <i_lp_mmshare_version>
43012

> <i_f3d_flags>
0

> <s_epik_input>
W0NIM11bQ0hdKFtDSDNdKWMxW2NIXWMoPU8pbihbY0hdbjEpW0NIMl1bQ0BAXShbQ0gzXSkoW09IXSljMltjSF1bY0hdW2NIXWMoQyhGKShGKUYpW2NIXTI=

> <s_epik_cmdline>
J2VwaWtfcHl0aG9uJywgJy1waCcsICc3LjAnLCAnLXRuJywgJzgnLCAnLW1hJywgJzIwMCcsICctbWV0YWxfYmluZGluZycsICctaW1hZScsICc8aW5maWxlLm1hZT4nLCAnLW9tYWUnLCAnPG91dGZpbGUubWFlPic=

> <r_lp_tautomer_probability>
1

> <r_epik_Ionization_Penalty>
2.71388e-05

> <r_epik_Ionization_Penalty_Charging>
4.19927e-06

> <r_epik_Ionization_Penalty_Neutral>
2.29395e-05

> <r_epik_State_Penalty>
-0

> <r_epik_Charging_Adjusted_Penalty>
4.19927e-06

> <i_epik_Tot_Q>
0

> <i_epik_Tot_abs_Q>
0

> <r_epik_Metal_State_Penalty>
-0

> <b_epik_Metal_Only>
0

> <s_lp_Force_Field>
OPLS_2005

> <r_lp_Energy>
19.4026

> <b_lp_Chiralities_Consistent>
1

> <s_lp_Variant>
AV-unprocessed.smi:2696-2

> <Gold.Version>
5.8.1

> <Gold.Id.Protein>
6NUR|6NUR_protein|mol2

> <Gold.PLP.Fitness>
55.0964

> <Gold.PLP.PLP>
-50.2859

> <Gold.PLP.part.hbond>
-2.0000

> <Gold.PLP.part.metal>
0.0000

> <Gold.PLP.part.buried>
3.8290

> <Gold.PLP.part.nonpolar>
-51.7076

> <Gold.PLP.part.repulsive>
0.2096

> <Gold.PLP.ligand.clash>
0.0339

> <Gold.PLP.ligand.torsion>
1.0476

> <Gold.PLP.Chemscore.Hbond>
1.4000

> <Gold.PLP.Chemscore.CHOScore>
0.7626

> <Gold.PLP.Chemscore.Metal>
0.0000

> <Gold.Chemscore.Hbonds>
donor molecule, donor type, donor heavy atom, donor atom, acceptor molecule, acceptor atom, score
      L1  H    12    38       P1  8028  1.00
      P1  H  7989  7998       L1     7  0.40
      L1  C    23    43       P1  8028  0.72

> <Gold.PLP.Chemscore.Internal.Correction>
0.4518

> <Gold.Rescore>
     Score         DG    S(hbond)    S(metal)    S(lipo)     H(rot)  DE(clash)    DE(int)     intcor
     16.03     -17.05       0.82        0.00     124.23       2.23       0.08       0.94       ----

> <Gold.Chemscore.Fitness>
16.0336

> <Gold.Chemscore.DG>
-17.0514

> <Gold.Chemscore.ZeroCoef>
-5.4800

> <Gold.Chemscore.Hbond>
0.8229

> <Gold.Chemscore.Metal>
0.0000

> <Gold.Chemscore.Lipo>
124.2296

> <Gold.Chemscore.Internal_Hbond>
0.0000

> <Gold.Chemscore.DEClash>
0.0782

> <Gold.Chemscore.DEInternal>
0.9397

> <Gold.Chemscore.Rot>
2.2312

> <Gold.Chemscore.Internal.Correction>
   9.000000E+99

> <Gold.Chemscore.Hbonds>
donor molecule, donor type, donor heavy atom, donor atom, acceptor molecule, acceptor atom, score
      L1  H    12    38       P1  8028  0.59
      P1  H  7989  7998       L1     7  0.01

> <Gold.Chemscore.Hbond.Weighted>
-2.7484

> <Gold.Chemscore.Metal.Weighted>
-0.0000

> <Gold.Chemscore.Lipo.Weighted>
-14.5349

> <Gold.Chemscore.Internal_Hbond.Weighted>
0.0000

> <Gold.Chemscore.DEClash.Weighted>
0.0782

> <Gold.Chemscore.DEInternal.Weighted>
0.9397

> <Gold.Chemscore.Rot.Weighted>
5.7118

> <Gold.Chemscore.Internal.Correction.Weighted>
   9.000000E+99

> <Gold.Protein.RotatedTorsions>
[ 6907 6896 6895 6894 ] final  -44.63 input  -60.11 | X-H torsion
[ 7974 7965 7964 7962 ] final  -82.26 input  175.53 | X-H torsion
[ 8008 7997 7996 7995 ] final -114.90 input   59.86 | X-H torsion
[ 10167 10162 10161 10158 ] final -166.87 input  -65.29 | X-H torsion
[ 10718 10713 10712 10709 ] final  -93.43 input   66.30 | X-H torsion
[ 10763 10752 10751 10750 ] final   95.35 input  -60.55 | X-H torsion
[ 11005 11000 10999 10996 ] final  -65.34 input  -57.11 | X-H torsion

> <Gold.Protein.ActiveResidues>
 VAL166  LYS551  ARG553  GLY616  TRP617  ASP618  TYR619  PRO620  LYS621  CYS622 
 ASP623  PHE694  ASN695  SER759  ASP760  ASP761  ALA762  ILE779  LEU786  VAL792 
 PHE793  MET794  SER795  GLU796  ALA797  LYS798  CYS799  TRP800  GLU811  SER814 

> <Gold.Protein.RotatedAtoms>
  150.9307  134.8722  159.7548 H   0  0  0  0  0  0  0  0  0  0  0  0  # atno 6907 bound_to 6896
  152.5036  134.4083  159.9450 H   0  0  0  0  0  0  0  0  0  0  0  0  # atno 6908 bound_to 6896
  151.4111  133.3687  159.2779 H   0  0  0  0  0  0  0  0  0  0  0  0  # atno 6909 bound_to 6896
  145.5357  140.9516  143.1579 H   0  0  0  0  0  0  0  0  0  0  0  0  # atno 7974 bound_to 7965
  155.0436  140.0392  157.2518 H   0  0  0  0  0  0  0  0  0  0  0  0  # atno 8008 bound_to 7997
  154.7196  140.2709  155.6530 H   0  0  0  0  0  0  0  0  0  0  0  0  # atno 8009 bound_to 7997
  156.2813  140.2705  156.1863 H   0  0  0  0  0  0  0  0  0  0  0  0  # atno 8010 bound_to 7997
  139.6086  144.0860  152.1819 H   0  0  0  0  0  0  0  0  0  0  0  0  # atno 10167 bound_to 10162
  156.0013  130.5027  150.5775 H   0  0  0  0  0  0  0  0  0  0  0  0  # atno 10718 bound_to 10713
  153.2521  135.4257  155.0808 H   0  0  0  0  0  0  0  0  0  0  0  0  # atno 10763 bound_to 10752
  154.8386  135.3428  154.6497 H   0  0  0  0  0  0  0  0  0  0  0  0  # atno 10764 bound_to 10752
  153.6918  135.7033  153.5144 H   0  0  0  0  0  0  0  0  0  0  0  0  # atno 10765 bound_to 10752
  141.1451  133.6680  156.5971 H   0  0  0  0  0  0  0  0  0  0  0  0  # atno 11005 bound_to 11000
  144.7603  139.6973  143.7237 LP  0  0  0  0  0  0  0  0  0  0  0  0  # atno 17320 bound_to 7965
  146.2015  139.5312  142.9740 LP  0  0  0  0  0  0  0  0  0  0  0  0  # atno 17321 bound_to 7965
  140.0474  144.5960  150.7363 LP  0  0  0  0  0  0  0  0  0  0  0  0  # atno 17342 bound_to 10162
  140.7303  143.2682  151.3975 LP  0  0  0  0  0  0  0  0  0  0  0  0  # atno 17343 bound_to 10162
  157.3660  131.0758  151.1597 LP  0  0  0  0  0  0  0  0  0  0  0  0  # atno 17370 bound_to 10713
  157.2366  130.6550  149.5872 LP  0  0  0  0  0  0  0  0  0  0  0  0  # atno 17371 bound_to 10713
  140.3717  134.7599  157.4603 LP  0  0  0  0  0  0  0  0  0  0  0  0  # atno 17394 bound_to 11000
  140.0705  134.5869  155.8647 LP  0  0  0  0  0  0  0  0  0  0  0  0  # atno 17395 bound_to 11000

$$$$
