AV-unprocessed.smi:2587|AV-procd|sdf|10147|dock10
  -GOLD-   2272014163D 1   1.00000     0.00000
 Structure written by MMmdl.
 40 41  0  0  0  0  0  0  0  0  2 V2000
  149.8008  141.7144  158.2978 C   0  0  0  0  0  0  0  0  0  0  0  0
  150.7918  141.5470  157.4097 C   0  0  0  0  0  0  0  0  0  0  0  0
  150.6383  141.7183  155.9119 C   0  0  0  0  0  0  0  0  0  0  0  0
  149.9829  140.5782  155.2754 N   0  0  0  0  0  0  0  0  0  0  0  0
  150.5243  139.2415  155.5234 C   0  0  0  0  0  0  0  0  0  0  0  0
  150.7606  138.4549  154.2252 C   0  0  0  0  0  0  0  0  0  0  0  0
  150.4427  137.0973  154.4362 O   0  0  0  0  0  0  0  0  0  0  0  0
  148.7218  140.7351  154.6490 C   0  0  0  0  0  0  0  0  0  0  0  0
  148.0183  141.9600  154.6696 C   0  0  0  0  0  0  0  0  0  0  0  0
  146.7630  142.0253  154.0186 C   0  0  0  0  0  0  0  0  0  0  0  0
  145.9748  143.1966  153.9578 N   0  0  0  0  0  0  0  0  0  0  0  0
  144.8497  143.3233  154.8808 C   0  0  0  0  0  0  0  0  0  0  0  0
  144.3182  144.7663  154.8924 C   0  0  0  0  0  0  0  0  0  0  0  0
  144.0032  145.1723  153.5658 O   0  0  0  0  0  0  0  0  0  0  0  0
  145.1536  145.1719  152.7287 C   0  0  0  0  0  0  0  0  0  0  0  0
  145.7206  143.7461  152.6265 C   0  0  0  0  0  0  0  0  0  0  0  0
  146.2880  140.9099  153.4055 N   0  3  0  0  0  0  0  0  0  0  0  0
  146.9982  139.7749  153.4146 C   0  0  0  0  0  0  0  0  0  0  0  0
  148.1863  139.6694  154.0134 N   0  0  0  0  0  0  0  0  0  0  0  0
  148.8059  141.9933  157.9831 H   0  0  0  0  0  0  0  0  0  0  0  0
  149.9739  141.5729  159.3547 H   0  0  0  0  0  0  0  0  0  0  0  0
  151.7730  141.2628  157.7615 H   0  0  0  0  0  0  0  0  0  0  0  0
  150.0379  142.6129  155.7435 H   0  0  0  0  0  0  0  0  0  0  0  0
  151.6043  141.9185  155.4471 H   0  0  0  0  0  0  0  0  0  0  0  0
  151.4423  139.3000  156.1094 H   0  0  0  0  0  0  0  0  0  0  0  0
  149.8156  138.6981  156.1497 H   0  0  0  0  0  0  0  0  0  0  0  0
  150.1405  138.8419  153.4160 H   0  0  0  0  0  0  0  0  0  0  0  0
  151.8003  138.5288  153.9055 H   0  0  0  0  0  0  0  0  0  0  0  0
  149.7993  136.8354  153.7955 H   0  0  0  0  0  0  0  0  0  0  0  0
  148.4287  142.8219  155.1690 H   0  0  0  0  0  0  0  0  0  0  0  0
  144.0594  142.6336  154.5818 H   0  0  0  0  0  0  0  0  0  0  0  0
  145.1561  143.0570  155.8928 H   0  0  0  0  0  0  0  0  0  0  0  0
  143.4199  144.8304  155.5065 H   0  0  0  0  0  0  0  0  0  0  0  0
  145.0504  145.4481  155.3282 H   0  0  0  0  0  0  0  0  0  0  0  0
  144.8735  145.5356  151.7401 H   0  0  0  0  0  0  0  0  0  0  0  0
  145.9030  145.8619  153.1201 H   0  0  0  0  0  0  0  0  0  0  0  0
  146.6278  143.7739  152.0231 H   0  0  0  0  0  0  0  0  0  0  0  0
  145.0119  143.0983  152.1090 H   0  0  0  0  0  0  0  0  0  0  0  0
  146.5667  138.9258  152.9052 H   0  0  0  0  0  0  0  0  0  0  0  0
  145.3864  140.9463  152.9294 H   0  0  0  0  0  0  0  0  0  0  0  0
  1  2  2  0  0  0  0
  1 20  1  0  0  0  0
  1 21  1  0  0  0  0
  2  3  1  0  0  0  0
  2 22  1  0  0  0  0
  3  4  1  0  0  0  0
  3 23  1  0  0  0  0
  3 24  1  0  0  0  0
  4  5  1  0  0  0  0
  4  8  1  0  0  0  0
  5  6  1  0  0  0  0
  5 25  1  0  0  0  0
  5 26  1  0  0  0  0
  6  7  1  0  0  0  0
  6 27  1  0  0  0  0
  6 28  1  0  0  0  0
  7 29  1  0  0  0  0
  8 19  1  0  0  0  0
  8  9  2  0  0  0  0
  9 10  1  0  0  0  0
  9 30  1  0  0  0  0
 10 11  1  0  0  0  0
 10 17  2  0  0  0  0
 11 16  1  0  0  0  0
 11 12  1  0  0  0  0
 12 13  1  0  0  0  0
 12 31  1  0  0  0  0
 12 32  1  0  0  0  0
 13 14  1  0  0  0  0
 13 33  1  0  0  0  0
 13 34  1  0  0  0  0
 14 15  1  0  0  0  0
 15 16  1  0  0  0  0
 15 35  1  0  0  0  0
 15 36  1  0  0  0  0
 16 37  1  0  0  0  0
 16 38  1  0  0  0  0
 17 18  1  0  0  0  0
 17 40  1  0  0  0  0
 18 19  2  0  0  0  0
 18 39  1  0  0  0  0
M  CHG  1  17   1
M  END
> <s_m_source_file>
AV-unprocessed.smi

> <i_m_source_file_index>
2587

> <i_lp_mmshare_version>
43012

> <i_f3d_flags>
0

> <s_epik_input>
W0NIMl09W0NIXVtDSDJdTihbQ0gyXVtDSDJdW09IXSljMVtjSF1jKG5bY0hdbjEpTjJbQ0gyXVtDSDJdT1tDSDJdW0NIMl0y

> <s_epik_cmdline>
J2VwaWtfcHl0aG9uJywgJy1waCcsICc3LjAnLCAnLXRuJywgJzgnLCAnLW1hJywgJzIwMCcsICctbWV0YWxfYmluZGluZycsICctaW1hZScsICc8aW5maWxlLm1hZT4nLCAnLW9tYWUnLCAnPG91dGZpbGUubWFlPic=

> <r_lp_tautomer_probability>
0.999336

> <r_epik_Ionization_Penalty>
3.67622

> <r_epik_Ionization_Penalty_Charging>
3.67622

> <r_epik_Ionization_Penalty_Neutral>
1.25637e-07

> <r_epik_State_Penalty>
2.4309

> <r_epik_Charging_Adjusted_Penalty>
6.10712

> <i_epik_Tot_Q>
1

> <i_epik_Tot_abs_Q>
1

> <r_epik_Metal_State_Penalty>
2.43203

> <b_epik_Metal_Only>
0

> <s_lp_Force_Field>
OPLS_2005

> <r_lp_Energy>
13.6673

> <b_lp_Chiralities_Consistent>
1

> <s_lp_Variant>
AV-unprocessed.smi:2587-2

> <Gold.Version>
5.8.1

> <Gold.Id.Protein>
6NUR|6NUR_protein|mol2

> <Gold.PLP.Fitness>
43.7499

> <Gold.PLP.PLP>
-35.6684

> <Gold.PLP.part.hbond>
-3.0000

> <Gold.PLP.part.metal>
0.0000

> <Gold.PLP.part.buried>
-6.0219

> <Gold.PLP.part.nonpolar>
-26.9658

> <Gold.PLP.part.repulsive>
0.8626

> <Gold.PLP.ligand.clash>
0.0000

> <Gold.PLP.ligand.torsion>
0.7896

> <Gold.PLP.Chemscore.Hbond>
3.0000

> <Gold.PLP.Chemscore.CHOScore>
0.0000

> <Gold.PLP.Chemscore.Metal>
0.0000

> <Gold.Chemscore.Hbonds>
donor molecule, donor type, donor heavy atom, donor atom, acceptor molecule, acceptor atom, score
      L1  H     7    29       P1  7948  0.67
      L1  H    17    40       P1 10175  2.00

> <Gold.PLP.Chemscore.Internal.Correction>
0.6607

> <Gold.Rescore>
     Score         DG    S(hbond)    S(metal)    S(lipo)     H(rot)  DE(clash)    DE(int)     intcor
      9.23     -11.77       1.62        0.00      63.48       2.57       0.33       2.20       ----

> <Gold.Chemscore.Fitness>
9.2300

> <Gold.Chemscore.DG>
-11.7670

> <Gold.Chemscore.ZeroCoef>
-5.4800

> <Gold.Chemscore.Hbond>
1.6247

> <Gold.Chemscore.Metal>
0.0000

> <Gold.Chemscore.Lipo>
63.4847

> <Gold.Chemscore.Internal_Hbond>
0.0000

> <Gold.Chemscore.DEClash>
0.3323

> <Gold.Chemscore.DEInternal>
2.2047

> <Gold.Chemscore.Rot>
2.5653

> <Gold.Chemscore.Internal.Correction>
   9.000000E+99

> <Gold.Chemscore.Hbonds>
donor molecule, donor type, donor heavy atom, donor atom, acceptor molecule, acceptor atom, score
      L1  H     7    29       P1  7948  0.40
      L1  H    17    40       P1 10175  0.30

> <Gold.Chemscore.Hbond.Weighted>
-5.4265

> <Gold.Chemscore.Metal.Weighted>
-0.0000

> <Gold.Chemscore.Lipo.Weighted>
-7.4277

> <Gold.Chemscore.Internal_Hbond.Weighted>
0.0000

> <Gold.Chemscore.DEClash.Weighted>
0.3323

> <Gold.Chemscore.DEInternal.Weighted>
2.2047

> <Gold.Chemscore.Rot.Weighted>
6.5671

> <Gold.Chemscore.Internal.Correction.Weighted>
   9.000000E+99

> <Gold.Protein.RotatedTorsions>
[ 6907 6896 6895 6894 ] final -151.01 input  -60.11 | X-H torsion
[ 7974 7965 7964 7962 ] final  -83.42 input  175.53 | X-H torsion
[ 8008 7997 7996 7995 ] final -174.54 input   59.86 | X-H torsion
[ 10167 10162 10161 10158 ] final  -42.64 input  -65.29 | X-H torsion
[ 10718 10713 10712 10709 ] final -100.14 input   66.30 | X-H torsion
[ 10763 10752 10751 10750 ] final -136.28 input  -60.55 | X-H torsion
[ 11005 11000 10999 10996 ] final   35.16 input  -57.11 | X-H torsion

> <Gold.Protein.ActiveResidues>
 VAL166  LYS551  ARG553  GLY616  TRP617  ASP618  TYR619  PRO620  LYS621  CYS622 
 ASP623  PHE694  ASN695  SER759  ASP760  ASP761  ALA762  ILE779  LEU786  VAL792 
 PHE793  MET794  SER795  GLU796  ALA797  LYS798  CYS799  TRP800  GLU811  SER814 

> <Gold.Protein.RotatedAtoms>
  151.2069  133.4578  159.2597 H   0  0  0  0  0  0  0  0  0  0  0  0  # atno 6907 bound_to 6896
  151.1014  134.9974  159.8461 H   0  0  0  0  0  0  0  0  0  0  0  0  # atno 6908 bound_to 6896
  152.5443  134.1995  159.8759 H   0  0  0  0  0  0  0  0  0  0  0  0  # atno 6909 bound_to 6896
  145.5202  140.9532  143.1659 H   0  0  0  0  0  0  0  0  0  0  0  0  # atno 7974 bound_to 7965
  155.9714  140.1163  157.0809 H   0  0  0  0  0  0  0  0  0  0  0  0  # atno 8008 bound_to 7997
  154.4157  140.1162  156.5379 H   0  0  0  0  0  0  0  0  0  0  0  0  # atno 8009 bound_to 7997
  155.6592  140.3473  155.4778 H   0  0  0  0  0  0  0  0  0  0  0  0  # atno 8010 bound_to 7997
  140.6962  143.3027  151.3237 H   0  0  0  0  0  0  0  0  0  0  0  0  # atno 10167 bound_to 10162
  156.0154  130.5314  150.6773 H   0  0  0  0  0  0  0  0  0  0  0  0  # atno 10718 bound_to 10713
  154.8687  135.3677  154.5035 H   0  0  0  0  0  0  0  0  0  0  0  0  # atno 10763 bound_to 10752
  153.5674  135.7021  153.5524 H   0  0  0  0  0  0  0  0  0  0  0  0  # atno 10764 bound_to 10752
  153.3572  135.4056  155.1654 H   0  0  0  0  0  0  0  0  0  0  0  0  # atno 10765 bound_to 10752
  140.2455  134.3365  155.7909 H   0  0  0  0  0  0  0  0  0  0  0  0  # atno 11005 bound_to 11000
  144.7680  139.6800  143.7206 LP  0  0  0  0  0  0  0  0  0  0  0  0  # atno 17320 bound_to 7965
  146.2111  139.5468  142.9680 LP  0  0  0  0  0  0  0  0  0  0  0  0  # atno 17321 bound_to 7965
  139.6421  144.0520  152.2562 LP  0  0  0  0  0  0  0  0  0  0  0  0  # atno 17342 bound_to 10162
  140.0029  144.6280  150.7714 LP  0  0  0  0  0  0  0  0  0  0  0  0  # atno 17343 bound_to 10162
  157.4483  131.0869  151.0872 LP  0  0  0  0  0  0  0  0  0  0  0  0  # atno 17370 bound_to 10713
  157.1396  130.6137  149.5551 LP  0  0  0  0  0  0  0  0  0  0  0  0  # atno 17371 bound_to 10713
  141.2206  133.7323  156.8953 LP  0  0  0  0  0  0  0  0  0  0  0  0  # atno 17394 bound_to 11000
  140.1610  134.9165  157.2715 LP  0  0  0  0  0  0  0  0  0  0  0  0  # atno 17395 bound_to 11000

$$$$
