AV-unprocessed.smi:1162|AV-procd|sdf|4919|dock7
  -GOLD-   22720 3503D 1   1.00000     0.00000
 Structure written by MMmdl.
 44 45  0  0  0  0  0  0  0  0  1 V2000
  142.4342  134.7250  152.7457 C   0  0  0  0  0  0  0  0  0  0  0  0
  143.4471  134.8550  151.7542 O   0  0  0  0  0  0  0  0  0  0  0  0
  144.3831  135.8580  151.9017 C   0  0  0  0  0  0  0  0  0  0  0  0
  145.3834  135.9967  150.9190 C   0  0  0  0  0  0  0  0  0  0  0  0
  146.3452  137.0148  151.0638 C   0  0  0  0  0  0  0  0  0  0  0  0
  146.2706  137.8707  152.1887 C   0  0  0  0  0  0  0  0  0  0  0  0
  147.1903  138.9187  152.4636 N   0  0  0  0  0  0  0  0  0  0  0  0
  147.1792  139.8039  153.4747 C   0  0  0  0  0  0  0  0  0  0  0  0
  146.3575  139.8321  154.3906 O   0  0  0  0  0  0  0  0  0  0  0  0
  148.2062  140.6606  153.3764 N   0  0  0  0  0  0  0  0  0  0  0  0
  148.5093  141.7244  154.3306 C   0  0  0  0  0  0  0  0  0  0  0  0
  149.7931  141.4666  155.1289 C   0  0  0  0  0  0  0  0  0  0  0  0
  150.4570  140.4449  154.9470 O   0  0  0  0  0  0  0  0  0  0  0  0
  150.1392  142.4229  156.0038 N   0  0  0  0  0  0  0  0  0  0  0  0
  151.3217  142.3986  156.8594 C   0  0  0  0  0  0  0  0  0  0  0  0
  151.2165  141.2658  157.9017 C   0  0  0  0  0  0  0  0  0  0  0  0
  152.4142  141.2746  158.8656 C   0  0  0  0  0  0  0  0  0  0  0  0
  152.5742  142.6423  159.5477 C   0  0  0  0  0  0  0  0  0  0  0  0
  152.6880  143.7692  158.5095 C   0  0  0  0  0  0  0  0  0  0  0  0
  151.4859  143.7652  157.5514 C   0  0  0  0  0  0  0  0  0  0  0  0
  145.2366  137.6417  153.1196 C   0  0  0  0  0  0  0  0  0  0  0  0
  144.3116  136.6681  152.9867 N   0  0  0  0  0  0  0  0  0  0  0  0
  141.7844  133.8881  152.4902 H   0  0  0  0  0  0  0  0  0  0  0  0
  141.8135  135.6205  152.8018 H   0  0  0  0  0  0  0  0  0  0  0  0
  142.8615  134.5229  153.7290 H   0  0  0  0  0  0  0  0  0  0  0  0
  145.4166  135.3292  150.0708 H   0  0  0  0  0  0  0  0  0  0  0  0
  147.1225  137.1054  150.3215 H   0  0  0  0  0  0  0  0  0  0  0  0
  147.9799  138.9738  151.8369 H   0  0  0  0  0  0  0  0  0  0  0  0
  148.8402  140.5558  152.5982 H   0  0  0  0  0  0  0  0  0  0  0  0
  148.6276  142.6560  153.7769 H   0  0  0  0  0  0  0  0  0  0  0  0
  147.6691  141.8699  155.0121 H   0  0  0  0  0  0  0  0  0  0  0  0
  149.5365  143.2290  156.0851 H   0  0  0  0  0  0  0  0  0  0  0  0
  152.2048  142.2268  156.2407 H   0  0  0  0  0  0  0  0  0  0  0  0
  150.2929  141.3735  158.4724 H   0  0  0  0  0  0  0  0  0  0  0  0
  151.1588  140.2978  157.4025 H   0  0  0  0  0  0  0  0  0  0  0  0
  152.2901  140.4962  159.6188 H   0  0  0  0  0  0  0  0  0  0  0  0
  153.3249  141.0315  158.3168 H   0  0  0  0  0  0  0  0  0  0  0  0
  151.7183  142.8296  160.1977 H   0  0  0  0  0  0  0  0  0  0  0  0
  153.4555  142.6372  160.1896 H   0  0  0  0  0  0  0  0  0  0  0  0
  152.7592  144.7334  159.0133 H   0  0  0  0  0  0  0  0  0  0  0  0
  153.6104  143.6499  157.9393 H   0  0  0  0  0  0  0  0  0  0  0  0
  151.6100  144.5504  156.8046 H   0  0  0  0  0  0  0  0  0  0  0  0
  150.5803  144.0091  158.1091 H   0  0  0  0  0  0  0  0  0  0  0  0
  145.1453  138.2608  154.0002 H   0  0  0  0  0  0  0  0  0  0  0  0
  1  2  1  0  0  0  0
  1 23  1  0  0  0  0
  1 24  1  0  0  0  0
  1 25  1  0  0  0  0
  2  3  1  0  0  0  0
  3 22  1  0  0  0  0
  3  4  2  0  0  0  0
  4  5  1  0  0  0  0
  4 26  1  0  0  0  0
  5  6  2  0  0  0  0
  5 27  1  0  0  0  0
  6  7  1  0  0  0  0
  6 21  1  0  0  0  0
  7  8  1  0  0  0  0
  7 28  1  0  0  0  0
  8  9  2  0  0  0  0
  8 10  1  0  0  0  0
 10 11  1  0  0  0  0
 10 29  1  0  0  0  0
 11 12  1  0  0  0  0
 11 30  1  0  0  0  0
 11 31  1  0  0  0  0
 12 13  2  0  0  0  0
 12 14  1  0  0  0  0
 14 15  1  0  0  0  0
 14 32  1  0  0  0  0
 15 20  1  0  0  0  0
 15 16  1  0  0  0  0
 15 33  1  0  0  0  0
 16 17  1  0  0  0  0
 16 34  1  0  0  0  0
 16 35  1  0  0  0  0
 17 18  1  0  0  0  0
 17 36  1  0  0  0  0
 17 37  1  0  0  0  0
 18 19  1  0  0  0  0
 18 38  1  0  0  0  0
 18 39  1  0  0  0  0
 19 20  1  0  0  0  0
 19 40  1  0  0  0  0
 19 41  1  0  0  0  0
 20 42  1  0  0  0  0
 20 43  1  0  0  0  0
 21 22  2  0  0  0  0
 21 44  1  0  0  0  0
M  END
> <s_m_source_file>
AV-unprocessed.smi

> <i_m_source_file_index>
1162

> <i_lp_mmshare_version>
43012

> <i_f3d_flags>
0

> <s_epik_input>
W0NIM11PYzFbY0hdW2NIXWMoW2NIXW4xKVtOSF1DKD1PKVtOSF1bQ0gyXUMoPU8pW05IXVtDSF0yW0NIMl1bQ0gyXVtDSDJdW0NIMl1bQ0gyXTI=

> <s_epik_cmdline>
J2VwaWtfcHl0aG9uJywgJy1waCcsICc3LjAnLCAnLXRuJywgJzgnLCAnLW1hJywgJzIwMCcsICctbWV0YWxfYmluZGluZycsICctaW1hZScsICc8aW5maWxlLm1hZT4nLCAnLW9tYWUnLCAnPG91dGZpbGUubWFlPic=

> <r_lp_tautomer_probability>
1

> <r_epik_Ionization_Penalty>
0.000141568

> <r_epik_Ionization_Penalty_Charging>
0

> <r_epik_Ionization_Penalty_Neutral>
0.000141568

> <r_epik_State_Penalty>
-0

> <r_epik_Charging_Adjusted_Penalty>
0

> <i_epik_Tot_Q>
0

> <i_epik_Tot_abs_Q>
0

> <r_epik_Metal_State_Penalty>
-0

> <b_epik_Metal_Only>
0

> <s_lp_Force_Field>
OPLS_2005

> <r_lp_Energy>
7.6567

> <b_lp_Chiralities_Consistent>
1

> <s_lp_Variant>
AV-unprocessed.smi:1162-1

> <Gold.Version>
5.8.1

> <Gold.Id.Protein>
6NUR|6NUR_protein|mol2

> <Gold.PLP.Fitness>
53.8377

> <Gold.PLP.PLP>
-41.9988

> <Gold.PLP.part.hbond>
-4.2785

> <Gold.PLP.part.metal>
0.0000

> <Gold.PLP.part.buried>
-1.5185

> <Gold.PLP.part.nonpolar>
-37.5050

> <Gold.PLP.part.repulsive>
0.8221

> <Gold.PLP.ligand.clash>
0.0000

> <Gold.PLP.ligand.torsion>
0.1013

> <Gold.PLP.Chemscore.Hbond>
4.0000

> <Gold.PLP.Chemscore.CHOScore>
0.0000

> <Gold.PLP.Chemscore.Metal>
0.0000

> <Gold.Chemscore.Hbonds>
donor molecule, donor type, donor heavy atom, donor atom, acceptor molecule, acceptor atom, score
      L1  H     7    28       P1  7957  0.99
      L1  H    10    29       P1  7957  1.00
      L1  H    14    32       P1  8028  1.00
      P1  H  7989  7998       L1    13  1.00

> <Gold.PLP.Chemscore.Internal.Correction>
0.0416

> <Gold.Rescore>
     Score         DG    S(hbond)    S(metal)    S(lipo)     H(rot)  DE(clash)    DE(int)     intcor
     21.88     -24.76       3.60        0.00     102.00       1.82       1.39       1.49       ----

> <Gold.Chemscore.Fitness>
21.8820

> <Gold.Chemscore.DG>
-24.7632

> <Gold.Chemscore.ZeroCoef>
-5.4800

> <Gold.Chemscore.Hbond>
3.5957

> <Gold.Chemscore.Metal>
0.0000

> <Gold.Chemscore.Lipo>
101.9955

> <Gold.Chemscore.Internal_Hbond>
0.0000

> <Gold.Chemscore.DEClash>
1.3911

> <Gold.Chemscore.DEInternal>
1.4900

> <Gold.Chemscore.Rot>
1.8204

> <Gold.Chemscore.Internal.Correction>
   9.000000E+99

> <Gold.Chemscore.Hbonds>
donor molecule, donor type, donor heavy atom, donor atom, acceptor molecule, acceptor atom, score
      L1  H     7    28       P1  7957  0.84
      L1  H    10    29       P1  7957  1.00
      L1  H    14    32       P1  8028  0.99
      P1  H  7989  7998       L1    13  0.43

> <Gold.Chemscore.Hbond.Weighted>
-12.0098

> <Gold.Chemscore.Metal.Weighted>
-0.0000

> <Gold.Chemscore.Lipo.Weighted>
-11.9335

> <Gold.Chemscore.Internal_Hbond.Weighted>
0.0000

> <Gold.Chemscore.DEClash.Weighted>
1.3911

> <Gold.Chemscore.DEInternal.Weighted>
1.4900

> <Gold.Chemscore.Rot.Weighted>
4.6601

> <Gold.Chemscore.Internal.Correction.Weighted>
   9.000000E+99

> <Gold.Protein.RotatedTorsions>
[ 6907 6896 6895 6894 ] final -101.49 input  -60.11 | X-H torsion
[ 7974 7965 7964 7962 ] final -124.69 input  175.53 | X-H torsion
[ 8008 7997 7996 7995 ] final   59.33 input   59.86 | X-H torsion
[ 10167 10162 10161 10158 ] final  136.40 input  -65.29 | X-H torsion
[ 10718 10713 10712 10709 ] final  165.92 input   66.30 | X-H torsion
[ 10763 10752 10751 10750 ] final   31.53 input  -60.55 | X-H torsion
[ 11005 11000 10999 10996 ] final  113.23 input  -57.11 | X-H torsion

> <Gold.Protein.ActiveResidues>
 VAL166  LYS551  ARG553  GLY616  TRP617  ASP618  TYR619  PRO620  LYS621  CYS622 
 ASP623  PHE694  ASN695  SER759  ASP760  ASP761  ALA762  ILE779  LEU786  VAL792 
 PHE793  MET794  SER795  GLU796  ALA797  LYS798  CYS799  TRP800  GLU811  SER814 

> <Gold.Protein.RotatedAtoms>
  150.7157  134.0726  159.3869 H   0  0  0  0  0  0  0  0  0  0  0  0  # atno 6907 bound_to 6896
  151.8708  135.0488  160.0488 H   0  0  0  0  0  0  0  0  0  0  0  0  # atno 6908 bound_to 6896
  152.2644  133.5290  159.5438 H   0  0  0  0  0  0  0  0  0  0  0  0  # atno 6909 bound_to 6896
  145.0054  140.7858  143.4471 H   0  0  0  0  0  0  0  0  0  0  0  0  # atno 7974 bound_to 7965
  155.5644  140.3489  155.4499 H   0  0  0  0  0  0  0  0  0  0  0  0  # atno 8008 bound_to 7997
  156.0490  140.1313  157.0097 H   0  0  0  0  0  0  0  0  0  0  0  0  # atno 8009 bound_to 7997
  154.4426  140.1008  156.6334 H   0  0  0  0  0  0  0  0  0  0  0  0  # atno 8010 bound_to 7997
  139.5181  144.6466  151.5421 H   0  0  0  0  0  0  0  0  0  0  0  0  # atno 10167 bound_to 10162
  157.0733  131.0372  151.2603 H   0  0  0  0  0  0  0  0  0  0  0  0  # atno 10718 bound_to 10713
  153.0311  135.6436  154.1214 H   0  0  0  0  0  0  0  0  0  0  0  0  # atno 10763 bound_to 10752
  154.0936  135.2864  155.3268 H   0  0  0  0  0  0  0  0  0  0  0  0  # atno 10764 bound_to 10752
  154.6448  135.5447  153.7895 H   0  0  0  0  0  0  0  0  0  0  0  0  # atno 10765 bound_to 10752
  139.8947  134.9546  156.6707 H   0  0  0  0  0  0  0  0  0  0  0  0  # atno 11005 bound_to 11000
  145.2096  139.2211  143.5150 LP  0  0  0  0  0  0  0  0  0  0  0  0  # atno 17320 bound_to 7965
  146.3460  140.1931  142.8589 LP  0  0  0  0  0  0  0  0  0  0  0  0  # atno 17321 bound_to 7965
  140.6254  143.9179  150.6560 LP  0  0  0  0  0  0  0  0  0  0  0  0  # atno 17342 bound_to 10162
  140.2466  143.3624  152.1441 LP  0  0  0  0  0  0  0  0  0  0  0  0  # atno 17343 bound_to 10162
  157.4860  130.7793  149.7460 LP  0  0  0  0  0  0  0  0  0  0  0  0  # atno 17370 bound_to 10713
  155.9944  130.3918  150.2860 LP  0  0  0  0  0  0  0  0  0  0  0  0  # atno 17371 bound_to 10713
  140.7375  133.9006  155.8255 LP  0  0  0  0  0  0  0  0  0  0  0  0  # atno 17394 bound_to 11000
  141.0104  134.1028  157.4227 LP  0  0  0  0  0  0  0  0  0  0  0  0  # atno 17395 bound_to 11000

$$$$
