AV-unprocessed.smi:136|AV-procd|sdf|1171|dock10
  -GOLD-   2262018313D 1   1.00000     0.00000
 Structure written by MMmdl.
 54 58  0  0  0  0  0  0  0  0  1 V2000
  148.7748  137.3695  160.1359 O   0  0  0  0  0  0  0  0  0  0  0  0
  148.9936  136.8650  159.0328 C   0  0  0  0  0  0  0  0  0  0  0  0
  150.3671  137.0644  158.3573 C   0  0  0  0  0  0  0  0  0  0  0  0
  151.0689  138.2876  158.8057 N   0  0  0  0  0  0  0  0  0  0  0  0
  152.3076  138.1491  159.4802 C   0  0  0  0  0  0  0  0  0  0  0  0
  152.8066  137.0403  159.6779 O   0  0  0  0  0  0  0  0  0  0  0  0
  152.9272  139.3936  159.9215 C   0  0  0  0  0  0  0  0  0  0  0  0
  154.1047  139.3575  160.5682 F   0  0  0  0  0  0  0  0  0  0  0  0
  152.3355  140.5841  159.6933 C   0  0  0  0  0  0  0  0  0  0  0  0
  151.1236  140.7041  159.0366 N   0  0  0  0  0  0  0  0  0  0  0  0
  150.4692  142.0475  158.7952 C   0  0  2  0  0  0  0  0  0  0  0  0
  151.1715  142.7910  157.6442 C   0  0  0  0  0  0  0  0  0  0  0  0
  151.4294  144.1595  158.2416 C   0  0  0  0  0  0  0  0  0  0  0  0
  151.5918  143.8316  159.7182 C   0  0  0  0  0  0  0  0  0  0  0  0
  150.5890  142.8479  159.9372 O   0  0  0  0  0  0  0  0  0  0  0  0
  150.4590  139.5446  158.5818 C   0  0  0  0  0  0  0  0  0  0  0  0
  149.3714  139.6302  158.0068 O   0  0  0  0  0  0  0  0  0  0  0  0
  148.0567  136.1401  158.3817 N   0  0  0  0  0  0  0  0  0  0  0  0
  148.2201  135.6720  157.1184 N   0  0  0  0  0  0  0  0  0  0  0  0
  147.1362  135.1159  156.7200 C   0  0  0  0  0  0  0  0  0  0  0  0
  146.9546  134.4835  155.3946 C   0  0  0  0  0  0  0  0  0  0  0  0
  148.0908  134.1267  154.6331 C   0  0  0  0  0  0  0  0  0  0  0  0
  147.9179  133.5181  153.3744 C   0  0  0  0  0  0  0  0  0  0  0  0
  146.6218  133.2694  152.8797 C   0  0  0  0  0  0  0  0  0  0  0  0
  146.4169  132.5218  151.3383 Cl  0  0  0  0  0  0  0  0  0  0  0  0
  145.4925  133.6298  153.6422 C   0  0  0  0  0  0  0  0  0  0  0  0
  145.6526  134.2381  154.9025 C   0  0  0  0  0  0  0  0  0  0  0  0
  146.0388  135.1432  157.7299 C   0  0  0  0  0  0  0  0  0  0  0  0
  146.7208  135.8380  158.9105 C   0  0  1  0  0  0  0  0  0  0  0  0
  146.7548  134.9914  160.1492 C   0  0  0  0  0  0  0  0  0  0  0  0
  147.7698  134.4436  160.8835 C   0  0  0  0  0  0  0  0  0  0  0  0
  147.1555  133.7470  161.9607 C   0  0  0  0  0  0  0  0  0  0  0  0
  145.8104  133.9272  161.8079 C   0  0  0  0  0  0  0  0  0  0  0  0
  145.5490  134.6881  160.7112 O   0  0  0  0  0  0  0  0  0  0  0  0
  150.9855  136.1846  158.5441 H   0  0  0  0  0  0  0  0  0  0  0  0
  150.2257  137.0670  157.2755 H   0  0  0  0  0  0  0  0  0  0  0  0
  152.8445  141.4667  160.0487 H   0  0  0  0  0  0  0  0  0  0  0  0
  149.4133  141.8383  158.6147 H   0  0  0  0  0  0  0  0  0  0  0  0
  152.1149  142.3004  157.3983 H   0  0  0  0  0  0  0  0  0  0  0  0
  150.5432  142.8191  156.7536 H   0  0  0  0  0  0  0  0  0  0  0  0
  152.3022  144.6549  157.8155 H   0  0  0  0  0  0  0  0  0  0  0  0
  150.5617  144.8039  158.0946 H   0  0  0  0  0  0  0  0  0  0  0  0
  152.5797  143.4134  159.9155 H   0  0  0  0  0  0  0  0  0  0  0  0
  151.4497  144.6995  160.3622 H   0  0  0  0  0  0  0  0  0  0  0  0
  149.0925  134.3074  154.9955 H   0  0  0  0  0  0  0  0  0  0  0  0
  148.7822  133.2404  152.7893 H   0  0  0  0  0  0  0  0  0  0  0  0
  144.4999  133.4385  153.2612 H   0  0  0  0  0  0  0  0  0  0  0  0
  144.7711  134.5040  155.4666 H   0  0  0  0  0  0  0  0  0  0  0  0
  145.1827  135.7146  157.3694 H   0  0  0  0  0  0  0  0  0  0  0  0
  145.7078  134.1336  157.9779 H   0  0  0  0  0  0  0  0  0  0  0  0
  146.2085  136.7776  159.1252 H   0  0  0  0  0  0  0  0  0  0  0  0
  148.8245  134.5301  160.6683 H   0  0  0  0  0  0  0  0  0  0  0  0
  147.6366  133.1856  162.7480 H   0  0  0  0  0  0  0  0  0  0  0  0
  144.9416  133.6015  162.3605 H   0  0  0  0  0  0  0  0  0  0  0  0
  1  2  2  0  0  0  0
  2  3  1  0  0  0  0
  2 18  1  0  0  0  0
  3  4  1  0  0  0  0
  3 35  1  0  0  0  0
  3 36  1  0  0  0  0
  4 16  1  0  0  0  0
  4  5  1  0  0  0  0
  5  6  2  0  0  0  0
  5  7  1  0  0  0  0
  7  8  1  0  0  0  0
  7  9  2  0  0  0  0
  9 10  1  0  0  0  0
  9 37  1  0  0  0  0
 10 11  1  0  0  0  0
 10 16  1  0  0  0  0
 11 15  1  0  0  0  0
 11 12  1  0  0  0  0
 11 38  1  0  0  0  0
 12 13  1  0  0  0  0
 12 39  1  0  0  0  0
 12 40  1  0  0  0  0
 13 14  1  0  0  0  0
 13 41  1  0  0  0  0
 13 42  1  0  0  0  0
 14 15  1  0  0  0  0
 14 43  1  0  0  0  0
 14 44  1  0  0  0  0
 16 17  2  0  0  0  0
 18 29  1  0  0  0  0
 18 19  1  0  0  0  0
 19 20  2  0  0  0  0
 20 21  1  0  0  0  0
 20 28  1  0  0  0  0
 21 27  1  0  0  0  0
 21 22  2  0  0  0  0
 22 23  1  0  0  0  0
 22 45  1  0  0  0  0
 23 24  2  0  0  0  0
 23 46  1  0  0  0  0
 24 25  1  0  0  0  0
 24 26  1  0  0  0  0
 26 27  2  0  0  0  0
 26 47  1  0  0  0  0
 27 48  1  0  0  0  0
 28 29  1  0  0  0  0
 28 49  1  0  0  0  0
 28 50  1  0  0  0  0
 29 30  1  0  0  0  0
 29 51  1  0  0  0  0
 30 34  1  0  0  0  0
 30 31  2  0  0  0  0
 31 32  1  0  0  0  0
 31 52  1  0  0  0  0
 32 33  2  0  0  0  0
 32 53  1  0  0  0  0
 33 34  1  0  0  0  0
 33 54  1  0  0  0  0
M  END
> <s_m_source_file>
AV-unprocessed.smi

> <i_m_source_file_index>
136

> <i_lp_mmshare_version>
43012

> <i_f3d_flags>
0

> <s_epik_input>
bzFbY0hdW2NIXVtjSF1jMVtDQEBIXTJbQ0gyXUMoYzNbY0hdW2NIXWMoQ2wpW2NIXVtjSF0zKT1OTjJDKD1PKVtDSDJdbjRjKD1PKWMoRilbY0hdbihjND1PKVtDQEBIXTVbQ0gyXVtDSDJdW0NIMl1PNQ==

> <s_epik_cmdline>
J2VwaWtfcHl0aG9uJywgJy1waCcsICc3LjAnLCAnLXRuJywgJzgnLCAnLW1hJywgJzIwMCcsICctbWV0YWxfYmluZGluZycsICctaW1hZScsICc8aW5maWxlLm1hZT4nLCAnLW9tYWUnLCAnPG91dGZpbGUubWFlPic=

> <r_lp_tautomer_probability>
1

> <r_epik_Ionization_Penalty>
2.55467e-08

> <r_epik_Ionization_Penalty_Charging>
4.85705e-09

> <r_epik_Ionization_Penalty_Neutral>
2.06897e-08

> <r_epik_State_Penalty>
-0

> <r_epik_Charging_Adjusted_Penalty>
4.85705e-09

> <i_epik_Tot_Q>
0

> <i_epik_Tot_abs_Q>
0

> <r_epik_Metal_State_Penalty>
-0

> <b_epik_Metal_Only>
0

> <s_epik_Chemistry_Notes>
This compound has an imine and may undergo hydrolysis. This compound contains an acetal/aminal-like group ( X-CH(R)-Y where X, Y are N, S, or O) that may be acid/base labile, releasing an aldehyde.

> <s_lp_Force_Field>
OPLS_2005

> <r_lp_Energy>
40.8333

> <b_lp_Chiralities_Consistent>
1

> <s_lp_Variant>
AV-unprocessed.smi:136-1

> <Gold.Version>
5.8.1

> <Gold.Id.Protein>
6NUR|6NUR_protein|mol2

> <Gold.PLP.Fitness>
47.8159

> <Gold.PLP.PLP>
-45.6896

> <Gold.PLP.part.hbond>
-3.8422

> <Gold.PLP.part.metal>
0.0000

> <Gold.PLP.part.buried>
-6.2900

> <Gold.PLP.part.nonpolar>
-36.7265

> <Gold.PLP.part.repulsive>
0.0108

> <Gold.PLP.ligand.clash>
0.0000

> <Gold.PLP.ligand.torsion>
0.9778

> <Gold.PLP.Chemscore.Hbond>
1.3420

> <Gold.PLP.Chemscore.CHOScore>
0.0000

> <Gold.PLP.Chemscore.Metal>
0.0000

> <Gold.Chemscore.Hbonds>
donor molecule, donor type, donor heavy atom, donor atom, acceptor molecule, acceptor atom, score
      P1  H  6896  6909       L1     6  0.68
      P1  H  6931  6943       L1     1  0.48
      P1  H  6934  6947       L1     1  0.02

> <Gold.PLP.Chemscore.Internal.Correction>
0.0560

> <Gold.Rescore>
     Score         DG    S(hbond)    S(metal)    S(lipo)     H(rot)  DE(clash)    DE(int)     intcor
     16.62     -18.27       1.79        0.00      97.82       1.81       0.04       1.61       ----

> <Gold.Chemscore.Fitness>
16.6179

> <Gold.Chemscore.DG>
-18.2669

> <Gold.Chemscore.ZeroCoef>
-5.4800

> <Gold.Chemscore.Hbond>
1.7855

> <Gold.Chemscore.Metal>
0.0000

> <Gold.Chemscore.Lipo>
97.8248

> <Gold.Chemscore.Internal_Hbond>
0.0000

> <Gold.Chemscore.DEClash>
0.0392

> <Gold.Chemscore.DEInternal>
1.6098

> <Gold.Chemscore.Rot>
1.8056

> <Gold.Chemscore.Internal.Correction>
   9.000000E+99

> <Gold.Chemscore.Hbonds>
donor molecule, donor type, donor heavy atom, donor atom, acceptor molecule, acceptor atom, score
      P1  H  6896  6909       L1     6  0.67
      P1  H  6931  6943       L1     1  0.47
      P1  H  6934  6947       L1     1  0.04

> <Gold.Chemscore.Hbond.Weighted>
-5.9637

> <Gold.Chemscore.Metal.Weighted>
-0.0000

> <Gold.Chemscore.Lipo.Weighted>
-11.4455

> <Gold.Chemscore.Internal_Hbond.Weighted>
0.0000

> <Gold.Chemscore.DEClash.Weighted>
0.0392

> <Gold.Chemscore.DEInternal.Weighted>
1.6098

> <Gold.Chemscore.Rot.Weighted>
4.6223

> <Gold.Chemscore.Internal.Correction.Weighted>
   9.000000E+99

> <Gold.Protein.RotatedTorsions>
[ 6907 6896 6895 6894 ] final  144.55 input  -60.11 | X-H torsion
[ 7974 7965 7964 7962 ] final -100.72 input  175.53 | X-H torsion
[ 8008 7997 7996 7995 ] final -104.17 input   59.86 | X-H torsion
[ 10167 10162 10161 10158 ] final  148.59 input  -65.29 | X-H torsion
[ 10718 10713 10712 10709 ] final -145.44 input   66.30 | X-H torsion
[ 10763 10752 10751 10750 ] final  -47.52 input  -60.55 | X-H torsion
[ 11005 11000 10999 10996 ] final  -40.31 input  -57.11 | X-H torsion

> <Gold.Protein.ActiveResidues>
 VAL166  LYS551  ARG553  GLY616  TRP617  ASP618  TYR619  PRO620  LYS621  CYS622 
 ASP623  PHE694  ASN695  SER759  ASP760  ASP761  ALA762  ILE779  LEU786  VAL792 
 PHE793  MET794  SER795  GLU796  ALA797  LYS798  CYS799  TRP800  GLU811  SER814 

> <Gold.Protein.RotatedAtoms>
  152.1922  133.4781  159.5013 H   0  0  0  0  0  0  0  0  0  0  0  0  # atno 6907 bound_to 6896
  150.6953  134.1698  159.4217 H   0  0  0  0  0  0  0  0  0  0  0  0  # atno 6908 bound_to 6896
  151.9613  135.0122  160.0598 H   0  0  0  0  0  0  0  0  0  0  0  0  # atno 6909 bound_to 6896
  145.2909  140.9352  143.2878 H   0  0  0  0  0  0  0  0  0  0  0  0  # atno 7974 bound_to 7965
  154.8814  140.0419  157.1785 H   0  0  0  0  0  0  0  0  0  0  0  0  # atno 8008 bound_to 7997
  154.8635  140.2947  155.5504 H   0  0  0  0  0  0  0  0  0  0  0  0  # atno 8009 bound_to 7997
  156.2998  140.2442  156.3613 H   0  0  0  0  0  0  0  0  0  0  0  0  # atno 8010 bound_to 7997
  139.4873  144.5668  151.7130 H   0  0  0  0  0  0  0  0  0  0  0  0  # atno 10167 bound_to 10162
  156.3825  130.7844  151.2038 H   0  0  0  0  0  0  0  0  0  0  0  0  # atno 10718 bound_to 10713
  154.0628  135.6615  153.4814 H   0  0  0  0  0  0  0  0  0  0  0  0  # atno 10763 bound_to 10752
  153.0420  135.5139  154.7643 H   0  0  0  0  0  0  0  0  0  0  0  0  # atno 10764 bound_to 10752
  154.6684  135.3025  154.9741 H   0  0  0  0  0  0  0  0  0  0  0  0  # atno 10765 bound_to 10752
  141.0165  133.6883  156.2303 H   0  0  0  0  0  0  0  0  0  0  0  0  # atno 11005 bound_to 11000
  144.9173  139.4454  143.6558 LP  0  0  0  0  0  0  0  0  0  0  0  0  # atno 17320 bound_to 7965
  146.3185  139.8015  142.8964 LP  0  0  0  0  0  0  0  0  0  0  0  0  # atno 17321 bound_to 7965
  140.5247  144.0824  150.6034 LP  0  0  0  0  0  0  0  0  0  0  0  0  # atno 17342 bound_to 10162
  140.3793  143.2811  152.0188 LP  0  0  0  0  0  0  0  0  0  0  0  0  # atno 17343 bound_to 10162
  157.7493  131.0340  150.4297 LP  0  0  0  0  0  0  0  0  0  0  0  0  # atno 17370 bound_to 10713
  156.4543  130.4018  149.6616 LP  0  0  0  0  0  0  0  0  0  0  0  0  # atno 17371 bound_to 10713
  140.6646  134.4932  157.5585 LP  0  0  0  0  0  0  0  0  0  0  0  0  # atno 17394 bound_to 11000
  139.9120  134.8325  156.1495 LP  0  0  0  0  0  0  0  0  0  0  0  0  # atno 17395 bound_to 11000

$$$$
