#       Name:                AV-unprocessed.smi:1
#       Creating user name   scv26
#       Creation time:       Thu Mar 26 15:08:58 2020


#       File generated by GOLD software.
#

@<TRIPOS>MOLECULE
AV-unprocessed.smi:1
    66    71     1
SMALL
NO_CHARGES


@<TRIPOS>ATOM
      1 ****        -4.9454   1.7315  -1.2487 O.2            1 S1                 0.0000
      2 ****        -5.1073   0.5668  -0.8827 C.2            1 S1                 0.0000
      3 ****        -4.0036  -0.3715  -0.7791 N.am           1 S1                 0.0000
      4 ****        -2.6843  -0.1361  -0.9710 C.ar           1 S1                 0.0000
      5 ****        -2.2035   1.0878  -1.3141 N.ar           1 S1                 0.0000
      6 ****        -0.8921   1.2694  -1.4929 C.ar           1 S1                 0.0000
      7 ****         0.0951   0.3785  -1.3822 N.ar           1 S1                 0.0000
      8 ****        -0.3770  -0.8530  -1.0342 C.ar           1 S1                 0.0000
      9 ****        -1.7428  -1.1864  -0.8127 C.ar           1 S1                 0.0000
     10 ****        -1.8505  -2.5287  -0.4750 N.2            1 S1                 0.0000
     11 ****        -0.6179  -2.9591  -0.4950 C.2            1 S1                 0.0000
     12 ****         0.3329  -2.0191  -0.8271 N.pl3          1 S1                 0.0000
     13 ****         1.8109  -2.2213  -0.9207 C.3            1 S1                 0.0000
     14 ****         2.4577  -1.2964  -0.0971 O.3            1 S1                 0.0000
     15 ****         3.2964  -0.4373  -0.8660 C.3            1 S1                 0.0000
     16 ****         4.5267  -0.0013  -0.0622 C.3            1 S1                 0.0000
     17 ****         4.1342   0.9774   0.8856 O.3            1 S1                 0.0000
     18 ****         5.0520   1.5421   1.6931 C.2            1 S1                 0.0000
     19 ****         6.2508   1.2556   1.6689 O.2            1 S1                 0.0000
     20 ****         4.4654   2.5547   2.6177 C.ar           1 S1                 0.0000
     21 ****         5.3140   3.2563   3.5057 C.ar           1 S1                 0.0000
     22 ****         4.7888   4.2199   4.3888 C.ar           1 S1                 0.0000
     23 ****         3.4086   4.4930   4.3953 C.ar           1 S1                 0.0000
     24 ****         2.5536   3.8008   3.5182 C.ar           1 S1                 0.0000
     25 ****         3.0769   2.8372   2.6337 C.ar           1 S1                 0.0000
     26 ****         3.6143  -1.2462  -2.1218 C.3            1 S1                 0.0000
     27 ****         4.6563  -2.1798  -1.8888 O.3            1 S1                 0.0000
     28 ****         4.2313  -3.6294  -2.6022 S.o2           1 S1                 0.0000
     29 ****         4.9671  -3.7548  -3.8693 O.2            1 S1                 0.0000
     30 ****         4.2494  -4.6741  -1.5669 O.2            1 S1                 0.0000
     31 ****         2.6383  -3.2678  -2.9569 O.3            1 S1                 0.0000
     32 ****         2.3182  -2.0253  -2.3566 C.3            1 S1                 0.0000
     33 ****        -6.4728   0.0121  -0.5980 C.ar           1 S1                 0.0000
     34 ****        -7.6072   0.5655  -1.2336 C.ar           1 S1                 0.0000
     35 ****        -8.8941   0.0630  -0.9599 C.ar           1 S1                 0.0000
     36 ****        -9.0588  -0.9925  -0.0433 C.ar           1 S1                 0.0000
     37 ****        -7.9359  -1.5422   0.6033 C.ar           1 S1                 0.0000
     38 ****        -6.6481  -1.0401   0.3310 C.ar           1 S1                 0.0000
     39 ****        -4.2493  -1.3142  -0.5138 H              1 S1                 0.0000
     40 ****        -0.5916   2.2709  -1.7631 H              1 S1                 0.0000
     41 ****        -0.3672  -3.9851  -0.2676 H              1 S1                 0.0000
     42 ****         1.9808  -3.2268  -0.5336 H              1 S1                 0.0000
     43 ****         2.7253   0.4422  -1.1623 H              1 S1                 0.0000
     44 ****         4.9890  -0.8558   0.4338 H              1 S1                 0.0000
     45 ****         5.2689   0.4339  -0.7330 H              1 S1                 0.0000
     46 ****         6.3774   3.0641   3.5185 H              1 S1                 0.0000
     47 ****         5.4467   4.7498   5.0617 H              1 S1                 0.0000
     48 ****         3.0062   5.2320   5.0723 H              1 S1                 0.0000
     49 ****         1.4937   4.0088   3.5225 H              1 S1                 0.0000
     50 ****         2.3926   2.3244   1.9737 H              1 S1                 0.0000
     51 ****         3.8823  -0.6149  -2.9697 H              1 S1                 0.0000
     52 ****         1.6088  -1.4503  -2.9526 H              1 S1                 0.0000
     53 ****        -7.4979   1.3769  -1.9388 H              1 S1                 0.0000
     54 ****        -9.7555   0.4888  -1.4531 H              1 S1                 0.0000
     55 ****       -10.0460  -1.3771   0.1666 H              1 S1                 0.0000
     56 ****        -8.0624  -2.3481   1.3114 H              1 S1                 0.0000
     57 ****        -5.8013  -1.4701   0.8460 H              1 S1                 0.0000
     58 ****        -4.0306   2.0584  -1.4862 LP             1 S1                 0.0000
     59 ****        -5.7286   2.3503  -1.3085 LP             1 S1                 0.0000
     60 ****        -2.8335   1.8552  -1.4332 LP             1 S1                 0.0000
     61 ****         1.0610   0.5877  -1.5354 LP             1 S1                 0.0000
     62 ****        -2.6800  -3.0461  -0.2651 LP             1 S1                 0.0000
     63 ****         3.0157  -1.7868   0.5723 LP             1 S1                 0.0000
     64 ****         1.7725  -0.7457   0.3795 LP             1 S1                 0.0000
     65 ****         6.5880   0.5696   1.0242 LP             1 S1                 0.0000
     66 ****         6.8860   1.7093   2.2939 LP             1 S1                 0.0000
@<TRIPOS>BOND
    1    1    2 2     
    2    2    3 am    
    3    2   33 1     
    4    3    4 1     
    5    3   39 1     
    6    4    9 ar    
    7    4    5 ar    
    8    5    6 ar    
    9    6    7 ar    
   10    6   40 1     
   11    7    8 ar    
   12    8   12 1     
   13    8    9 ar    
   14    9   10 1     
   15   10   11 2     
   16   11   12 1     
   17   11   41 1     
   18   12   13 1     
   19   13   32 1     
   20   13   14 1     
   21   13   42 1     
   22   14   15 1     
   23   15   16 1     
   24   15   26 1     
   25   15   43 1     
   26   16   17 1     
   27   16   44 1     
   28   16   45 1     
   29   17   18 1     
   30   18   19 2     
   31   18   20 1     
   32   20   25 ar    
   33   20   21 ar    
   34   21   22 ar    
   35   21   46 1     
   36   22   23 ar    
   37   22   47 1     
   38   23   24 ar    
   39   23   48 1     
   40   24   25 ar    
   41   24   49 1     
   42   25   50 1     
   43   26   32 1     
   44   26   27 1     
   45   26   51 1     
   46   27   28 1     
   47   28   29 2     
   48   28   30 2     
   49   28   31 1     
   50   31   32 1     
   51   32   52 1     
   52   33   38 ar    
   53   33   34 ar    
   54   34   35 ar    
   55   34   53 1     
   56   35   36 ar    
   57   35   54 1     
   58   36   37 ar    
   59   36   55 1     
   60   37   38 ar    
   61   37   56 1     
   62   38   57 1     
   63    1   58 1     
   64    1   59 1     
   65    5   60 1     
   66    7   61 1     
   67   10   62 1     
   68   14   63 1     
   69   14   64 1     
   70   19   65 1     
   71   19   66 1     
@<TRIPOS>SUBSTRUCTURE
      1 S1             1
@<TRIPOS>SET
LONE_PAIRS      STATIC     ATOMS    <user>   **** ""
11 58 59 60 61 62 63 64 65 66 29 30
DONOR_HYDROGENS      STATIC     ATOMS    <user>   **** ""
1 39
ATOM$BLUE        STATIC     ATOMS    COLORGROUP SYSTEM
11 58 59 60 61 62 63 64 65 66 29 30
ATOM$RED        STATIC     ATOMS    COLORGROUP SYSTEM
1 39
