AV-unprocessed.smi:69|AV-procd|sdf|648|dock3
  -GOLD-   2262016543D 1   1.00000     0.00000
 Structure written by MMmdl.
 32 34  0  0  0  0  0  0  0  0  1 V2000
  154.8129  140.0636  160.7496 N   0  0  0  0  0  0  0  0  0  0  0  0
  153.8243  140.9185  160.4529 C   0  0  0  0  0  0  0  0  0  0  0  0
  153.5594  141.9228  161.3216 N   0  0  0  0  0  0  0  0  0  0  0  0
  152.5757  142.7873  161.0499 C   0  0  0  0  0  0  0  0  0  0  0  0
  151.7594  142.8200  159.9924 N   0  0  0  0  0  0  0  0  0  0  0  0
  152.0323  141.8067  159.1192 C   0  0  0  0  0  0  0  0  0  0  0  0
  153.0423  140.8190  159.2745 C   0  0  0  0  0  0  0  0  0  0  0  0
  153.0237  139.9514  158.1905 N   0  0  0  0  0  0  0  0  0  0  0  0
  152.0534  140.4042  157.4412 C   0  0  0  0  0  0  0  0  0  0  0  0
  151.3978  141.5152  157.9317 N   0  0  0  0  0  0  0  0  0  0  0  0
  150.2520  142.2856  157.3445 C   0  0  1  0  0  0  0  0  0  0  0  0
  150.1514  141.9648  155.9895 O   0  0  0  0  0  0  0  0  0  0  0  0
  149.0882  141.0400  155.7919 C   0  0  2  0  0  0  0  0  0  0  0  0
  148.6313  141.0190  154.3235 C   0  0  0  0  0  0  0  0  0  0  0  0
  149.7299  140.7454  153.4803 O   0  0  0  0  0  0  0  0  0  0  0  0
  148.0427  141.5203  156.8063 C   0  0  2  0  0  0  0  0  0  0  0  0
  147.3202  142.6325  156.3086 O   0  0  0  0  0  0  0  0  0  0  0  0
  148.8952  141.9280  158.0022 C   0  0  1  0  0  0  0  0  0  0  0  0
  148.9635  140.8543  158.9258 O   0  0  0  0  0  0  0  0  0  0  0  0
  150.5351  143.3327  157.4600 H   0  0  0  0  0  0  0  0  0  0  0  0
  149.4191  140.0443  156.0936 H   0  0  0  0  0  0  0  0  0  0  0  0
  147.3244  140.7360  157.0503 H   0  0  0  0  0  0  0  0  0  0  0  0
  148.4947  142.8019  158.5182 H   0  0  0  0  0  0  0  0  0  0  0  0
  155.0272  139.3056  160.1174 H   0  0  0  0  0  0  0  0  0  0  0  0
  155.3389  140.1771  161.6038 H   0  0  0  0  0  0  0  0  0  0  0  0
  152.4198  143.5632  161.7848 H   0  0  0  0  0  0  0  0  0  0  0  0
  151.7923  139.9314  156.5056 H   0  0  0  0  0  0  0  0  0  0  0  0
  147.8977  140.2271  154.1701 H   0  0  0  0  0  0  0  0  0  0  0  0
  148.1612  141.9605  154.0376 H   0  0  0  0  0  0  0  0  0  0  0  0
  149.4671  140.0976  152.8444 H   0  0  0  0  0  0  0  0  0  0  0  0
  147.9366  143.2676  155.9772 H   0  0  0  0  0  0  0  0  0  0  0  0
  148.3622  140.1814  158.6437 H   0  0  0  0  0  0  0  0  0  0  0  0
  1  2  1  0  0  0  0
  1 24  1  0  0  0  0
  1 25  1  0  0  0  0
  2  7  1  0  0  0  0
  2  3  2  0  0  0  0
  3  4  1  0  0  0  0
  4  5  2  0  0  0  0
  4 26  1  0  0  0  0
  5  6  1  0  0  0  0
  6 10  1  0  0  0  0
  6  7  2  0  0  0  0
  7  8  1  0  0  0  0
  8  9  2  0  0  0  0
  9 10  1  0  0  0  0
  9 27  1  0  0  0  0
 10 11  1  0  0  0  0
 11 20  1  0  0  0  0
 11 18  1  0  0  0  0
 11 12  1  0  0  0  0
 12 13  1  0  0  0  0
 13 21  1  0  0  0  0
 13 14  1  0  0  0  0
 13 16  1  0  0  0  0
 14 15  1  0  0  0  0
 14 28  1  0  0  0  0
 14 29  1  0  0  0  0
 15 30  1  0  0  0  0
 16 22  1  0  0  0  0
 16 17  1  0  0  0  0
 16 18  1  0  0  0  0
 17 31  1  0  0  0  0
 18 23  1  0  0  0  0
 18 19  1  0  0  0  0
 19 32  1  0  0  0  0
M  END
> <s_m_source_file>
AV-unprocessed.smi

> <i_m_source_file_index>
69

> <i_lp_mmshare_version>
43012

> <i_f3d_flags>
0

> <s_epik_input>
bjFbY0hdbmMoW05IMl0pYyhjMTIpbltjSF1uMltDQEBIXTNPW0NASF0oW0NIMl1bT0hdKVtDQEBIXShbT0hdKVtDQEhdM1tPSF0=

> <s_epik_cmdline>
J2VwaWtfcHl0aG9uJywgJy1waCcsICc3LjAnLCAnLXRuJywgJzgnLCAnLW1hJywgJzIwMCcsICctbWV0YWxfYmluZGluZycsICctaW1hZScsICc8aW5maWxlLm1hZT4nLCAnLW9tYWUnLCAnPG91dGZpbGUubWFlPic=

> <r_lp_tautomer_probability>
1

> <r_epik_Ionization_Penalty>
0.000428445

> <r_epik_Ionization_Penalty_Charging>
0

> <r_epik_Ionization_Penalty_Neutral>
0.000428445

> <r_epik_State_Penalty>
-0

> <r_epik_Charging_Adjusted_Penalty>
0

> <i_epik_Tot_Q>
0

> <i_epik_Tot_abs_Q>
0

> <r_epik_Metal_State_Penalty>
-0

> <b_epik_Metal_Only>
0

> <s_epik_Chemistry_Notes>
This compound contains an acetal/aminal-like group ( X-CH(R)-Y where X, Y are N, S, or O) that may be acid/base labile, releasing an aldehyde.

> <s_lp_Force_Field>
OPLS_2005

> <r_lp_Energy>
38.9041

> <b_lp_Chiralities_Consistent>
1

> <s_lp_Variant>
AV-unprocessed.smi:69-6

> <Gold.Version>
5.8.1

> <Gold.Id.Protein>
6NUR|6NUR_protein|mol2

> <Gold.PLP.Fitness>
39.2767

> <Gold.PLP.PLP>
-28.1177

> <Gold.PLP.part.hbond>
-6.5499

> <Gold.PLP.part.metal>
0.0000

> <Gold.PLP.part.buried>
-1.1975

> <Gold.PLP.part.nonpolar>
-20.1221

> <Gold.PLP.part.repulsive>
0.7707

> <Gold.PLP.ligand.clash>
0.0000

> <Gold.PLP.ligand.torsion>
0.5277

> <Gold.PLP.Chemscore.Hbond>
4.0400

> <Gold.PLP.Chemscore.CHOScore>
0.0000

> <Gold.PLP.Chemscore.Metal>
0.0000

> <Gold.Chemscore.Hbonds>
donor molecule, donor type, donor heavy atom, donor atom, acceptor molecule, acceptor atom, score
      L1  H    15    30       P1  7957  0.64
      L1  H    17    31       P1  8028  1.00
      P1  H  7989  7998       L1    15  0.37
      P1  H  7997  8008       L1     8  0.90
      P1  H  8011  8017       L1    15  1.00

> <Gold.PLP.Chemscore.Internal.Correction>
0.0944

> <Gold.Rescore>
     Score         DG    S(hbond)    S(metal)    S(lipo)     H(rot)  DE(clash)    DE(int)     intcor
      3.94      -5.34       2.13        0.00      26.07       4.03       0.93       0.47       ----

> <Gold.Chemscore.Fitness>
3.9395

> <Gold.Chemscore.DG>
-5.3367

> <Gold.Chemscore.ZeroCoef>
-5.4800

> <Gold.Chemscore.Hbond>
2.1311

> <Gold.Chemscore.Metal>
0.0000

> <Gold.Chemscore.Lipo>
26.0671

> <Gold.Chemscore.Internal_Hbond>
0.0000

> <Gold.Chemscore.DEClash>
0.9256

> <Gold.Chemscore.DEInternal>
0.4716

> <Gold.Chemscore.Rot>
4.0277

> <Gold.Chemscore.Internal.Correction>
   9.000000E+99

> <Gold.Chemscore.Hbonds>
donor molecule, donor type, donor heavy atom, donor atom, acceptor molecule, acceptor atom, score
      L1  H    15    30       P1  7957  0.64
      L1  H    17    31       P1  8028  0.35
      P1  H  7989  7998       L1    15  0.25
      P1  H  7997  8008       L1     8  0.16
      P1  H  8011  8017       L1    15  0.10

> <Gold.Chemscore.Hbond.Weighted>
-7.1179

> <Gold.Chemscore.Metal.Weighted>
-0.0000

> <Gold.Chemscore.Lipo.Weighted>
-3.0499

> <Gold.Chemscore.Internal_Hbond.Weighted>
0.0000

> <Gold.Chemscore.DEClash.Weighted>
0.9256

> <Gold.Chemscore.DEInternal.Weighted>
0.4716

> <Gold.Chemscore.Rot.Weighted>
10.3110

> <Gold.Chemscore.Internal.Correction.Weighted>
   9.000000E+99

> <Gold.Protein.RotatedTorsions>
[ 6907 6896 6895 6894 ] final  -20.08 input  -60.11 | X-H torsion
[ 7974 7965 7964 7962 ] final   79.22 input  175.53 | X-H torsion
[ 8008 7997 7996 7995 ] final  -73.74 input   59.86 | X-H torsion
[ 10167 10162 10161 10158 ] final  142.84 input  -65.29 | X-H torsion
[ 10718 10713 10712 10709 ] final   -6.96 input   66.30 | X-H torsion
[ 10763 10752 10751 10750 ] final  157.06 input  -60.55 | X-H torsion
[ 11005 11000 10999 10996 ] final   18.84 input  -57.11 | X-H torsion

> <Gold.Protein.ActiveResidues>
 VAL166  LYS551  ARG553  GLY616  TRP617  ASP618  TYR619  PRO620  LYS621  CYS622 
 ASP623  PHE694  ASN695  SER759  ASP760  ASP761  ALA762  ILE779  LEU786  VAL792 
 PHE793  MET794  SER795  GLU796  ALA797  LYS798  CYS799  TRP800  GLU811  SER814 

> <Gold.Protein.RotatedAtoms>
  151.2535  135.0630  159.9070 H   0  0  0  0  0  0  0  0  0  0  0  0  # atno 6907 bound_to 6896
  152.5376  134.0307  159.8034 H   0  0  0  0  0  0  0  0  0  0  0  0  # atno 6908 bound_to 6896
  151.0519  133.5568  159.2673 H   0  0  0  0  0  0  0  0  0  0  0  0  # atno 6909 bound_to 6896
  145.6670  139.2486  143.1890 H   0  0  0  0  0  0  0  0  0  0  0  0  # atno 7974 bound_to 7965
  154.5272  140.0774  156.8280 H   0  0  0  0  0  0  0  0  0  0  0  0  # atno 8008 bound_to 7997
  155.3450  140.3409  155.4221 H   0  0  0  0  0  0  0  0  0  0  0  0  # atno 8009 bound_to 7997
  156.1744  140.1630  156.8376 H   0  0  0  0  0  0  0  0  0  0  0  0  # atno 8010 bound_to 7997
  139.4984  144.6080  151.6334 H   0  0  0  0  0  0  0  0  0  0  0  0  # atno 10167 bound_to 10162
  156.7242  130.5160  149.5861 H   0  0  0  0  0  0  0  0  0  0  0  0  # atno 10718 bound_to 10713
  154.1942  135.2793  155.3012 H   0  0  0  0  0  0  0  0  0  0  0  0  # atno 10763 bound_to 10752
  154.5905  135.5561  153.7277 H   0  0  0  0  0  0  0  0  0  0  0  0  # atno 10764 bound_to 10752
  153.0104  135.6367  154.2081 H   0  0  0  0  0  0  0  0  0  0  0  0  # atno 10765 bound_to 10752
  140.4203  134.1526  155.7672 H   0  0  0  0  0  0  0  0  0  0  0  0  # atno 11005 bound_to 11000
  146.1078  140.7466  142.9518 LP  0  0  0  0  0  0  0  0  0  0  0  0  # atno 17320 bound_to 7965
  144.7070  140.3890  143.7110 LP  0  0  0  0  0  0  0  0  0  0  0  0  # atno 17321 bound_to 7965
  140.5748  144.0048  150.6235 LP  0  0  0  0  0  0  0  0  0  0  0  0  # atno 17342 bound_to 10162
  140.3177  143.3157  152.0815 LP  0  0  0  0  0  0  0  0  0  0  0  0  # atno 17343 bound_to 10162
  156.1573  130.6350  151.0674 LP  0  0  0  0  0  0  0  0  0  0  0  0  # atno 17370 bound_to 10713
  157.6885  131.0817  150.7174 LP  0  0  0  0  0  0  0  0  0  0  0  0  # atno 17371 bound_to 10713
  141.1787  133.8460  157.1334 LP  0  0  0  0  0  0  0  0  0  0  0  0  # atno 17394 bound_to 11000
  140.0205  134.9948  157.0582 LP  0  0  0  0  0  0  0  0  0  0  0  0  # atno 17395 bound_to 11000

$$$$
