AV-unprocessed.smi:3138|AV-procd|sdf|11954|dock10
  -GOLD-   2272017353D 1   1.00000     0.00000
 Structure written by MMmdl.
 38 39  0  0  0  0  0  0  0  0  2 V2000
  149.3399  141.2639  154.1000 O   0  0  0  0  0  0  0  0  0  0  0  0
  149.9584  140.3983  154.7225 C   0  0  0  0  0  0  0  0  0  0  0  0
  149.7344  138.9232  154.3556 C   0  0  0  0  0  0  0  0  0  0  0  0
  148.8301  138.7599  153.1987 N   0  3  0  0  0  0  0  0  0  0  0  0
  147.4161  139.0702  153.4878 C   0  0  0  0  0  0  0  0  0  0  0  0
  146.5061  138.7121  152.2996 C   0  0  0  0  0  0  0  0  0  0  0  0
  146.0773  137.3234  152.3102 N   0  0  0  0  0  0  0  0  0  0  0  0
  145.4948  136.6005  151.2899 C   0  0  0  0  0  0  0  0  0  0  0  0
  145.2906  135.3328  151.7542 C   0  0  0  0  0  0  0  0  0  0  0  0
  145.7993  135.3724  153.0823 C   0  0  0  0  0  0  0  0  0  0  0  0
  146.2744  136.5634  153.4096 N   0  0  0  0  0  0  0  0  0  0  0  0
  150.8248  140.7032  155.7192 N   0  0  0  0  0  0  0  0  0  0  0  0
  151.5574  139.7296  156.5411 C   0  0  0  0  0  0  0  0  0  0  0  0
  150.9826  139.7547  157.9690 C   0  0  0  0  0  0  0  0  0  0  0  0
  151.0458  141.1755  158.5614 C   0  0  0  0  0  0  0  0  0  0  0  0
  150.4459  142.2203  157.6012 C   0  0  0  0  0  0  0  0  0  0  0  0
  151.0422  142.0782  156.1885 C   0  0  0  0  0  0  0  0  0  0  0  0
  150.6940  138.4600  154.1224 H   0  0  0  0  0  0  0  0  0  0  0  0
  149.3034  138.4001  155.2107 H   0  0  0  0  0  0  0  0  0  0  0  0
  149.1475  139.3734  152.4614 H   0  0  0  0  0  0  0  0  0  0  0  0
  147.1033  138.5089  154.3691 H   0  0  0  0  0  0  0  0  0  0  0  0
  147.3179  140.1275  153.7375 H   0  0  0  0  0  0  0  0  0  0  0  0
  145.6222  139.3513  152.2969 H   0  0  0  0  0  0  0  0  0  0  0  0
  147.0292  138.8977  151.3607 H   0  0  0  0  0  0  0  0  0  0  0  0
  145.2748  137.0421  150.3290 H   0  0  0  0  0  0  0  0  0  0  0  0
  144.8506  134.5009  151.2241 H   0  0  0  0  0  0  0  0  0  0  0  0
  145.8401  134.5765  153.8114 H   0  0  0  0  0  0  0  0  0  0  0  0
  151.5321  138.7141  156.1496 H   0  0  0  0  0  0  0  0  0  0  0  0
  152.6132  140.0036  156.5616 H   0  0  0  0  0  0  0  0  0  0  0  0
  149.9476  139.4105  157.9517 H   0  0  0  0  0  0  0  0  0  0  0  0
  151.5296  139.0607  158.6077 H   0  0  0  0  0  0  0  0  0  0  0  0
  150.5324  141.2073  159.5228 H   0  0  0  0  0  0  0  0  0  0  0  0
  152.0871  141.4320  158.7602 H   0  0  0  0  0  0  0  0  0  0  0  0
  149.3636  142.0935  157.5533 H   0  0  0  0  0  0  0  0  0  0  0  0
  150.6230  143.2254  157.9853 H   0  0  0  0  0  0  0  0  0  0  0  0
  152.1126  142.2883  156.2099 H   0  0  0  0  0  0  0  0  0  0  0  0
  150.6071  142.8279  155.5261 H   0  0  0  0  0  0  0  0  0  0  0  0
  148.8965  137.8063  152.8724 H   0  0  0  0  0  0  0  0  0  0  0  0
  1  2  2  0  0  0  0
  2  3  1  0  0  0  0
  2 12  1  0  0  0  0
  3  4  1  0  0  0  0
  3 18  1  0  0  0  0
  3 19  1  0  0  0  0
  4  5  1  0  0  0  0
  4 20  1  0  0  0  0
  4 38  1  0  0  0  0
  5  6  1  0  0  0  0
  5 21  1  0  0  0  0
  5 22  1  0  0  0  0
  6  7  1  0  0  0  0
  6 23  1  0  0  0  0
  6 24  1  0  0  0  0
  7 11  1  0  0  0  0
  7  8  1  0  0  0  0
  8  9  2  0  0  0  0
  8 25  1  0  0  0  0
  9 10  1  0  0  0  0
  9 26  1  0  0  0  0
 10 11  2  0  0  0  0
 10 27  1  0  0  0  0
 12 17  1  0  0  0  0
 12 13  1  0  0  0  0
 13 14  1  0  0  0  0
 13 28  1  0  0  0  0
 13 29  1  0  0  0  0
 14 15  1  0  0  0  0
 14 30  1  0  0  0  0
 14 31  1  0  0  0  0
 15 16  1  0  0  0  0
 15 32  1  0  0  0  0
 15 33  1  0  0  0  0
 16 17  1  0  0  0  0
 16 34  1  0  0  0  0
 16 35  1  0  0  0  0
 17 36  1  0  0  0  0
 17 37  1  0  0  0  0
M  CHG  1   4   1
M  END
> <s_m_source_file>
AV-unprocessed.smi

> <i_m_source_file_index>
3138

> <i_lp_mmshare_version>
43012

> <i_f3d_flags>
0

> <s_epik_input>
W0NIMl0xW0NIMl1bQ0gyXVtDSDJdW0NIMl1OMUMoPU8pW0NIMl1bTkhdW0NIMl1bQ0gyXW4yW2NIXVtjSF1bY0hdbjI=

> <s_epik_cmdline>
J2VwaWtfcHl0aG9uJywgJy1waCcsICc3LjAnLCAnLXRuJywgJzgnLCAnLW1hJywgJzIwMCcsICctbWV0YWxfYmluZGluZycsICctaW1hZScsICc8aW5maWxlLm1hZT4nLCAnLW9tYWUnLCAnPG91dGZpbGUubWFlPic=

> <r_lp_tautomer_probability>
1

> <r_epik_Ionization_Penalty>
0.202061

> <r_epik_Ionization_Penalty_Charging>
0.202058

> <r_epik_Ionization_Penalty_Neutral>
2.33614e-06

> <r_epik_State_Penalty>
0.191938

> <r_epik_Charging_Adjusted_Penalty>
0.393996

> <i_epik_Tot_Q>
1

> <i_epik_Tot_abs_Q>
1

> <r_epik_Metal_State_Penalty>
0.192416

> <b_epik_Metal_Only>
0

> <s_lp_Force_Field>
OPLS_2005

> <r_lp_Energy>
21.8037

> <b_lp_Chiralities_Consistent>
1

> <s_lp_Variant>
AV-unprocessed.smi:3138-1

> <Gold.Version>
5.8.1

> <Gold.Id.Protein>
6NUR|6NUR_protein|mol2

> <Gold.PLP.Fitness>
44.2335

> <Gold.PLP.PLP>
-31.3868

> <Gold.PLP.part.hbond>
-3.9591

> <Gold.PLP.part.metal>
0.0000

> <Gold.PLP.part.buried>
-0.9734

> <Gold.PLP.part.nonpolar>
-28.0885

> <Gold.PLP.part.repulsive>
0.6014

> <Gold.PLP.ligand.clash>
0.0000

> <Gold.PLP.ligand.torsion>
0.3612

> <Gold.PLP.Chemscore.Hbond>
3.5154

> <Gold.PLP.Chemscore.CHOScore>
0.9935

> <Gold.PLP.Chemscore.Metal>
0.0000

> <Gold.Chemscore.Hbonds>
donor molecule, donor type, donor heavy atom, donor atom, acceptor molecule, acceptor atom, score
      L1  H     4    20       P1  7957  0.99
      L1  H     4    38       P1  7948  2.00
      P1  H  8011  8017       L1     1  0.52
      L1  C     8    25       P1 10171  1.00

> <Gold.PLP.Chemscore.Internal.Correction>
0.0424

> <Gold.Rescore>
     Score         DG    S(hbond)    S(metal)    S(lipo)     H(rot)  DE(clash)    DE(int)     intcor
     15.24     -16.66       2.66        0.00      59.97       1.84       0.06       1.36       ----

> <Gold.Chemscore.Fitness>
15.2412

> <Gold.Chemscore.DG>
-16.6624

> <Gold.Chemscore.ZeroCoef>
-5.4800

> <Gold.Chemscore.Hbond>
2.6577

> <Gold.Chemscore.Metal>
0.0000

> <Gold.Chemscore.Lipo>
59.9714

> <Gold.Chemscore.Internal_Hbond>
0.0000

> <Gold.Chemscore.DEClash>
0.0616

> <Gold.Chemscore.DEInternal>
1.3596

> <Gold.Chemscore.Rot>
1.8402

> <Gold.Chemscore.Internal.Correction>
   9.000000E+99

> <Gold.Chemscore.Hbonds>
donor molecule, donor type, donor heavy atom, donor atom, acceptor molecule, acceptor atom, score
      L1  H     4    20       P1  7957  0.92
      L1  H     4    38       P1  7948  1.00
      P1  H  8011  8017       L1     1  0.52

> <Gold.Chemscore.Hbond.Weighted>
-8.8767

> <Gold.Chemscore.Metal.Weighted>
-0.0000

> <Gold.Chemscore.Lipo.Weighted>
-7.0167

> <Gold.Chemscore.Internal_Hbond.Weighted>
0.0000

> <Gold.Chemscore.DEClash.Weighted>
0.0616

> <Gold.Chemscore.DEInternal.Weighted>
1.3596

> <Gold.Chemscore.Rot.Weighted>
4.7110

> <Gold.Chemscore.Internal.Correction.Weighted>
   9.000000E+99

> <Gold.Protein.RotatedTorsions>
[ 6907 6896 6895 6894 ] final  -97.27 input  -60.11 | X-H torsion
[ 7974 7965 7964 7962 ] final  -98.73 input  175.53 | X-H torsion
[ 8008 7997 7996 7995 ] final -147.95 input   59.86 | X-H torsion
[ 10167 10162 10161 10158 ] final -173.93 input  -65.29 | X-H torsion
[ 10718 10713 10712 10709 ] final  -71.44 input   66.30 | X-H torsion
[ 10763 10752 10751 10750 ] final   82.78 input  -60.55 | X-H torsion
[ 11005 11000 10999 10996 ] final -128.90 input  -57.11 | X-H torsion

> <Gold.Protein.ActiveResidues>
 VAL166  LYS551  ARG553  GLY616  TRP617  ASP618  TYR619  PRO620  LYS621  CYS622 
 ASP623  PHE694  ASN695  SER759  ASP760  ASP761  ALA762  ILE779  LEU786  VAL792 
 PHE793  MET794  SER795  GLU796  ALA797  LYS798  CYS799  TRP800  GLU811  SER814 

> <Gold.Protein.RotatedAtoms>
  150.7012  134.1374  159.4091 H   0  0  0  0  0  0  0  0  0  0  0  0  # atno 6907 bound_to 6896
  151.9359  135.0233  160.0542 H   0  0  0  0  0  0  0  0  0  0  0  0  # atno 6908 bound_to 6896
  152.2136  133.4894  159.5160 H   0  0  0  0  0  0  0  0  0  0  0  0  # atno 6909 bound_to 6896
  145.3168  140.9413  143.2738 H   0  0  0  0  0  0  0  0  0  0  0  0  # atno 7974 bound_to 7965
  155.5839  140.0646  157.2776 H   0  0  0  0  0  0  0  0  0  0  0  0  # atno 8008 bound_to 7997
  154.4324  140.1847  156.1051 H   0  0  0  0  0  0  0  0  0  0  0  0  # atno 8009 bound_to 7997
  156.0284  140.3309  155.7117 H   0  0  0  0  0  0  0  0  0  0  0  0  # atno 8010 bound_to 7997
  139.5661  144.1752  152.1315 H   0  0  0  0  0  0  0  0  0  0  0  0  # atno 10167 bound_to 10162
  156.0363  130.4351  150.2444 H   0  0  0  0  0  0  0  0  0  0  0  0  # atno 10718 bound_to 10713
  153.1232  135.4716  154.9230 H   0  0  0  0  0  0  0  0  0  0  0  0  # atno 10763 bound_to 10752
  154.7596  135.3128  154.8407 H   0  0  0  0  0  0  0  0  0  0  0  0  # atno 10764 bound_to 10752
  153.8966  135.6879  153.4811 H   0  0  0  0  0  0  0  0  0  0  0  0  # atno 10765 bound_to 10752
  140.9477  134.1108  157.4092 H   0  0  0  0  0  0  0  0  0  0  0  0  # atno 11005 bound_to 11000
  144.8971  139.4698  143.6650 LP  0  0  0  0  0  0  0  0  0  0  0  0  # atno 17320 bound_to 7965
  146.3097  139.7704  142.9029 LP  0  0  0  0  0  0  0  0  0  0  0  0  # atno 17321 bound_to 7965
  140.1275  144.5318  150.6823 LP  0  0  0  0  0  0  0  0  0  0  0  0  # atno 17342 bound_to 10162
  140.6945  143.2395  151.5040 LP  0  0  0  0  0  0  0  0  0  0  0  0  # atno 17343 bound_to 10162
  157.0543  131.0072  151.3243 LP  0  0  0  0  0  0  0  0  0  0  0  0  # atno 17370 bound_to 10713
  157.5117  130.7943  149.7712 LP  0  0  0  0  0  0  0  0  0  0  0  0  # atno 17371 bound_to 10713
  139.8838  135.0056  156.6326 LP  0  0  0  0  0  0  0  0  0  0  0  0  # atno 17394 bound_to 11000
  140.7646  133.8789  155.8444 LP  0  0  0  0  0  0  0  0  0  0  0  0  # atno 17395 bound_to 11000

$$$$
