AV-unprocessed.smi:208|AV-procd|sdf|1605|dock2
  -GOLD-   2262019523D 1   1.00000     0.00000
 Structure written by MMmdl.
 50 53  0  0  0  0  0  0  0  0  1 V2000
  152.2311  144.0419  158.8563 C   0  0  0  0  0  0  0  0  0  0  0  0
  152.0785  143.2490  157.5477 C   0  0  0  0  0  0  0  0  0  0  0  0
  151.1387  142.0191  157.5976 C   0  0  2  0  0  0  0  0  0  0  0  0
  151.5380  141.0014  158.6942 C   0  0  0  0  0  0  0  0  0  0  0  0
  151.6636  141.4085  159.8501 O   0  0  0  0  0  0  0  0  0  0  0  0
  151.7253  139.7007  158.3639 N   0  0  0  0  0  0  0  0  0  0  0  0
  152.0737  138.7111  159.3840 C   0  0  0  0  0  0  0  0  0  0  0  0
  151.5768  139.1740  157.0017 C   0  0  0  0  0  0  0  0  0  0  0  0
  151.7759  140.2520  155.9288 C   0  0  0  0  0  0  0  0  0  0  0  0
  150.9930  141.4372  156.2562 N   0  0  0  0  0  0  0  0  0  0  0  0
  149.7664  141.4682  155.6855 C   0  0  0  0  0  0  0  0  0  0  0  0
  149.6783  141.0875  154.3871 N   0  0  0  0  0  0  0  0  0  0  0  0
  148.4929  141.0858  153.7701 C   0  0  0  0  0  0  0  0  0  0  0  0
  147.2959  141.4150  154.2602 N   0  0  0  0  0  0  0  0  0  0  0  0
  147.3793  141.7879  155.5693 C   0  0  0  0  0  0  0  0  0  0  0  0
  148.5651  141.8382  156.3550 C   0  0  0  0  0  0  0  0  0  0  0  0
  148.2587  142.2424  157.6488 N   0  0  0  0  0  0  0  0  0  0  0  0
  146.9675  142.4266  157.6276 C   0  0  0  0  0  0  0  0  0  0  0  0
  146.3594  142.1890  156.4152 N   0  0  0  0  0  0  0  0  0  0  0  0
  144.9409  142.3183  156.1175 C   0  0  0  0  0  0  0  0  0  0  0  0
  144.5545  143.6542  155.4487 C   0  0  0  0  0  0  0  0  0  0  0  0
  145.2354  143.7983  154.0758 C   0  0  0  0  0  0  0  0  0  0  0  0
  144.5497  144.7193  153.2515 O   0  0  0  0  0  0  0  0  0  0  0  0
  143.0582  143.9991  155.4488 C   0  0  0  0  0  0  0  0  0  0  0  0
  143.3065  145.3161  155.9839 O   0  0  0  0  0  0  0  0  0  0  0  0
  144.6408  144.8992  156.3428 C   0  0  0  0  0  0  0  0  0  0  0  0
  152.8358  144.9339  158.6921 H   0  0  0  0  0  0  0  0  0  0  0  0
  152.7325  143.4532  159.6236 H   0  0  0  0  0  0  0  0  0  0  0  0
  151.2683  144.3681  159.2496 H   0  0  0  0  0  0  0  0  0  0  0  0
  151.7228  143.9325  156.7756 H   0  0  0  0  0  0  0  0  0  0  0  0
  153.0663  142.9291  157.2134 H   0  0  0  0  0  0  0  0  0  0  0  0
  150.1725  142.4113  157.9188 H   0  0  0  0  0  0  0  0  0  0  0  0
  153.0902  138.8784  159.7425 H   0  0  0  0  0  0  0  0  0  0  0  0
  152.0172  137.6912  159.0017 H   0  0  0  0  0  0  0  0  0  0  0  0
  151.3953  138.7716  160.2364 H   0  0  0  0  0  0  0  0  0  0  0  0
  152.2854  138.3635  156.8267 H   0  0  0  0  0  0  0  0  0  0  0  0
  150.5797  138.7414  156.9124 H   0  0  0  0  0  0  0  0  0  0  0  0
  152.8294  140.5224  155.8745 H   0  0  0  0  0  0  0  0  0  0  0  0
  151.5155  139.8571  154.9451 H   0  0  0  0  0  0  0  0  0  0  0  0
  148.5053  140.7757  152.7356 H   0  0  0  0  0  0  0  0  0  0  0  0
  146.4195  142.7505  158.5007 H   0  0  0  0  0  0  0  0  0  0  0  0
  144.6560  141.4772  155.4845 H   0  0  0  0  0  0  0  0  0  0  0  0
  144.3855  142.1824  157.0462 H   0  0  0  0  0  0  0  0  0  0  0  0
  146.2761  144.1080  154.1712 H   0  0  0  0  0  0  0  0  0  0  0  0
  145.2549  142.8395  153.5564 H   0  0  0  0  0  0  0  0  0  0  0  0
  144.0812  144.2370  152.5872 H   0  0  0  0  0  0  0  0  0  0  0  0
  142.6057  144.0235  154.4569 H   0  0  0  0  0  0  0  0  0  0  0  0
  142.4597  143.3993  156.1353 H   0  0  0  0  0  0  0  0  0  0  0  0
  144.7221  144.6758  157.4080 H   0  0  0  0  0  0  0  0  0  0  0  0
  145.4025  145.6173  156.0368 H   0  0  0  0  0  0  0  0  0  0  0  0
  1  2  1  0  0  0  0
  1 27  1  0  0  0  0
  1 28  1  0  0  0  0
  1 29  1  0  0  0  0
  2  3  1  0  0  0  0
  2 30  1  0  0  0  0
  2 31  1  0  0  0  0
  3 10  1  0  0  0  0
  3  4  1  0  0  0  0
  3 32  1  0  0  0  0
  4  5  2  0  0  0  0
  4  6  1  0  0  0  0
  6  7  1  0  0  0  0
  6  8  1  0  0  0  0
  7 33  1  0  0  0  0
  7 34  1  0  0  0  0
  7 35  1  0  0  0  0
  8  9  1  0  0  0  0
  8 36  1  0  0  0  0
  8 37  1  0  0  0  0
  9 10  1  0  0  0  0
  9 38  1  0  0  0  0
  9 39  1  0  0  0  0
 10 11  1  0  0  0  0
 11 16  1  0  0  0  0
 11 12  2  0  0  0  0
 12 13  1  0  0  0  0
 13 14  2  0  0  0  0
 13 40  1  0  0  0  0
 14 15  1  0  0  0  0
 15 19  1  0  0  0  0
 15 16  2  0  0  0  0
 16 17  1  0  0  0  0
 17 18  2  0  0  0  0
 18 19  1  0  0  0  0
 18 41  1  0  0  0  0
 19 20  1  0  0  0  0
 20 21  1  0  0  0  0
 20 42  1  0  0  0  0
 20 43  1  0  0  0  0
 21 26  1  0  0  0  0
 21 22  1  0  0  0  0
 21 24  1  0  0  0  0
 22 23  1  0  0  0  0
 22 44  1  0  0  0  0
 22 45  1  0  0  0  0
 23 46  1  0  0  0  0
 24 25  1  0  0  0  0
 24 47  1  0  0  0  0
 24 48  1  0  0  0  0
 25 26  1  0  0  0  0
 26 49  1  0  0  0  0
 26 50  1  0  0  0  0
M  END
> <s_m_source_file>
AV-unprocessed.smi

> <i_m_source_file_index>
208

> <i_lp_mmshare_version>
43012

> <i_f3d_flags>
0

> <s_epik_input>
W0NIM11bQ0gyXVtDQEBIXTFDKD1PKU4oW0NIM10pW0NIMl1bQ0gyXU4xYyhuW2NIXW4yKWMoYzIzKW5bY0hdbjNbQ0gyXUM0KFtDSDJdW09IXSlbQ0gyXU9bQ0gyXTQ=

> <s_epik_cmdline>
J2VwaWtfcHl0aG9uJywgJy1waCcsICc3LjAnLCAnLXRuJywgJzgnLCAnLW1hJywgJzIwMCcsICctbWV0YWxfYmluZGluZycsICctaW1hZScsICc8aW5maWxlLm1hZT4nLCAnLW9tYWUnLCAnPG91dGZpbGUubWFlPic=

> <r_lp_tautomer_probability>
1

> <r_epik_Ionization_Penalty>
0.000581289

> <r_epik_Ionization_Penalty_Charging>
0

> <r_epik_Ionization_Penalty_Neutral>
0.000581289

> <r_epik_State_Penalty>
0.000280365

> <r_epik_Charging_Adjusted_Penalty>
0.000280365

> <i_epik_Tot_Q>
0

> <i_epik_Tot_abs_Q>
0

> <r_epik_Metal_State_Penalty>
-0

> <b_epik_Metal_Only>
0

> <s_lp_Force_Field>
OPLS_2005

> <r_lp_Energy>
41.1811

> <b_lp_Chiralities_Consistent>
1

> <s_lp_Variant>
AV-unprocessed.smi:208-1

> <Gold.Version>
5.8.1

> <Gold.Id.Protein>
6NUR|6NUR_protein|mol2

> <Gold.PLP.Fitness>
45.1121

> <Gold.PLP.PLP>
-39.6260

> <Gold.PLP.part.hbond>
-2.7789

> <Gold.PLP.part.metal>
0.0000

> <Gold.PLP.part.buried>
-4.5205

> <Gold.PLP.part.nonpolar>
-32.8014

> <Gold.PLP.part.repulsive>
0.4706

> <Gold.PLP.ligand.clash>
0.0000

> <Gold.PLP.ligand.torsion>
1.1564

> <Gold.PLP.Chemscore.Hbond>
1.3827

> <Gold.PLP.Chemscore.CHOScore>
1.0000

> <Gold.PLP.Chemscore.Metal>
0.0000

> <Gold.Chemscore.Hbonds>
donor molecule, donor type, donor heavy atom, donor atom, acceptor molecule, acceptor atom, score
      L1  H    23    46       P1 10174  0.39
      P1  H  7989  7998       L1    12  0.37
      L1  C    13    40       P1  7957  1.00

> <Gold.PLP.Chemscore.Internal.Correction>
0.6508

> <Gold.Rescore>
     Score         DG    S(hbond)    S(metal)    S(lipo)     H(rot)  DE(clash)    DE(int)     intcor
      6.37     -10.89       1.20        0.00      65.73       2.46       0.02       4.50       ----

> <Gold.Chemscore.Fitness>
6.3676

> <Gold.Chemscore.DG>
-10.8938

> <Gold.Chemscore.ZeroCoef>
-5.4800

> <Gold.Chemscore.Hbond>
1.2036

> <Gold.Chemscore.Metal>
0.0000

> <Gold.Chemscore.Lipo>
65.7348

> <Gold.Chemscore.Internal_Hbond>
0.0000

> <Gold.Chemscore.DEClash>
0.0221

> <Gold.Chemscore.DEInternal>
4.5040

> <Gold.Chemscore.Rot>
2.4598

> <Gold.Chemscore.Internal.Correction>
   9.000000E+99

> <Gold.Chemscore.Hbonds>
donor molecule, donor type, donor heavy atom, donor atom, acceptor molecule, acceptor atom, score
      L1  H    23    46       P1 10174  0.27
      P1  H  7989  7998       L1    12  0.31

> <Gold.Chemscore.Hbond.Weighted>
-4.0200

> <Gold.Chemscore.Metal.Weighted>
-0.0000

> <Gold.Chemscore.Lipo.Weighted>
-7.6910

> <Gold.Chemscore.Internal_Hbond.Weighted>
0.0000

> <Gold.Chemscore.DEClash.Weighted>
0.0221

> <Gold.Chemscore.DEInternal.Weighted>
4.5040

> <Gold.Chemscore.Rot.Weighted>
6.2972

> <Gold.Chemscore.Internal.Correction.Weighted>
   9.000000E+99

> <Gold.Protein.RotatedTorsions>
[ 6907 6896 6895 6894 ] final   48.48 input  -60.11 | X-H torsion
[ 7974 7965 7964 7962 ] final   30.59 input  175.53 | X-H torsion
[ 8008 7997 7996 7995 ] final  159.59 input   59.86 | X-H torsion
[ 10167 10162 10161 10158 ] final  -84.36 input  -65.29 | X-H torsion
[ 10718 10713 10712 10709 ] final  106.61 input   66.30 | X-H torsion
[ 10763 10752 10751 10750 ] final  -97.52 input  -60.55 | X-H torsion
[ 11005 11000 10999 10996 ] final    2.48 input  -57.11 | X-H torsion

> <Gold.Protein.ActiveResidues>
 VAL166  LYS551  ARG553  GLY616  TRP617  ASP618  TYR619  PRO620  LYS621  CYS622 
 ASP623  PHE694  ASN695  SER759  ASP760  ASP761  ALA762  ILE779  LEU786  VAL792 
 PHE793  MET794  SER795  GLU796  ALA797  LYS798  CYS799  TRP800  GLU811  SER814 

> <Gold.Protein.RotatedAtoms>
  152.2799  134.7840  160.0398 H   0  0  0  0  0  0  0  0  0  0  0  0  # atno 6907 bound_to 6896
  151.8422  133.3420  159.3655 H   0  0  0  0  0  0  0  0  0  0  0  0  # atno 6908 bound_to 6896
  150.7185  134.5308  159.5743 H   0  0  0  0  0  0  0  0  0  0  0  0  # atno 6909 bound_to 6896
  146.1602  139.6769  142.9038 H   0  0  0  0  0  0  0  0  0  0  0  0  # atno 7974 bound_to 7965
  156.2229  140.1827  156.7434 H   0  0  0  0  0  0  0  0  0  0  0  0  # atno 8008 bound_to 7997
  154.5894  140.0653  156.9245 H   0  0  0  0  0  0  0  0  0  0  0  0  # atno 8009 bound_to 7997
  155.2363  140.3318  155.4300 H   0  0  0  0  0  0  0  0  0  0  0  0  # atno 8010 bound_to 7997
  140.4140  143.2611  151.8980 H   0  0  0  0  0  0  0  0  0  0  0  0  # atno 10167 bound_to 10162
  157.6661  131.0854  150.6033 H   0  0  0  0  0  0  0  0  0  0  0  0  # atno 10718 bound_to 10713
  154.7335  135.5043  153.9003 H   0  0  0  0  0  0  0  0  0  0  0  0  # atno 10763 bound_to 10752
  153.0973  135.6675  153.9748 H   0  0  0  0  0  0  0  0  0  0  0  0  # atno 10764 bound_to 10752
  153.9543  135.3054  155.3416 H   0  0  0  0  0  0  0  0  0  0  0  0  # atno 10765 bound_to 10752
  140.6038  133.9811  155.8144 H   0  0  0  0  0  0  0  0  0  0  0  0  # atno 11005 bound_to 11000
  145.4606  141.0432  143.2753 LP  0  0  0  0  0  0  0  0  0  0  0  0  # atno 17320 bound_to 7965
  144.8017  139.6128  143.7068 LP  0  0  0  0  0  0  0  0  0  0  0  0  # atno 17321 bound_to 7965
  139.4782  144.5507  151.8389 LP  0  0  0  0  0  0  0  0  0  0  0  0  # atno 17342 bound_to 10162
  140.4607  144.1726  150.5906 LP  0  0  0  0  0  0  0  0  0  0  0  0  # atno 17343 bound_to 10162
  156.6334  130.4438  149.5778 LP  0  0  0  0  0  0  0  0  0  0  0  0  # atno 17370 bound_to 10713
  156.2264  130.6768  151.1420 LP  0  0  0  0  0  0  0  0  0  0  0  0  # atno 17371 bound_to 10713
  141.0854  133.9998  157.3321 LP  0  0  0  0  0  0  0  0  0  0  0  0  # atno 17394 bound_to 11000
  139.9221  135.0201  156.8102 LP  0  0  0  0  0  0  0  0  0  0  0  0  # atno 17395 bound_to 11000

$$$$
