AV-unprocessed.smi:281|AV-procd|sdf|2101|dock7
  -GOLD-   2262021393D 1   1.00000     0.00000
 Structure written by MMmdl.
 55 59  0  0  0  0  0  0  0  0  1 V2000
  147.6072  133.4227  157.7037 C   0  0  0  0  0  0  0  0  0  0  0  0
  147.6079  134.7353  158.4935 C   0  0  2  0  0  0  0  0  0  0  0  0
  148.9050  135.5326  158.2842 C   0  0  0  0  0  0  0  0  0  0  0  0
  148.8944  136.7148  159.1319 N   0  0  0  0  0  0  0  0  0  0  0  0
  149.9123  137.5647  158.8821 C   0  0  0  0  0  0  0  0  0  0  0  0
  151.1946  137.1827  159.1208 N   0  0  0  0  0  0  0  0  0  0  0  0
  152.1984  138.0288  158.8699 C   0  0  0  0  0  0  0  0  0  0  0  0
  152.1416  139.2732  158.3892 N   0  0  0  0  0  0  0  0  0  0  0  0
  150.8540  139.6537  158.1462 C   0  0  0  0  0  0  0  0  0  0  0  0
  149.6895  138.8666  158.3646 C   0  0  0  0  0  0  0  0  0  0  0  0
  148.5536  139.5822  158.0098 N   0  0  0  0  0  0  0  0  0  0  0  0
  149.0209  140.7317  157.6040 C   0  0  0  0  0  0  0  0  0  0  0  0
  150.3919  140.8578  157.6443 N   0  0  0  0  0  0  0  0  0  0  0  0
  151.1739  142.0189  157.2490 C   0  0  0  0  0  0  0  0  0  0  0  0
  151.6290  142.8893  158.4436 C   0  0  1  0  0  0  0  0  0  0  0  0
  152.3886  142.0922  159.3354 O   0  0  0  0  0  0  0  0  0  0  0  0
  152.4663  144.1032  158.0485 C   0  0  0  0  0  0  0  0  0  0  0  0
  152.0809  145.1389  159.0952 C   0  0  0  0  0  0  0  0  0  0  0  0
  150.6897  144.9170  159.2468 O   0  0  0  0  0  0  0  0  0  0  0  0
  150.4545  143.5130  159.2243 C   0  0  0  0  0  0  0  0  0  0  0  0
  148.7233  136.3887  160.5414 C   0  0  0  0  0  0  0  0  0  0  0  0
  147.4452  135.5477  160.7646 C   0  0  2  0  0  0  0  0  0  0  0  0
  146.1446  136.3476  160.5985 C   0  0  0  0  0  0  0  0  0  0  0  0
  145.5965  136.4827  162.0133 C   0  0  0  0  0  0  0  0  0  0  0  0
  146.0123  135.2748  162.6220 O   0  0  0  0  0  0  0  0  0  0  0  0
  147.3611  135.0648  162.2327 C   0  0  1  0  0  0  0  0  0  0  0  0
  147.7763  133.6091  162.4883 C   0  0  0  0  0  0  0  0  0  0  0  0
  147.4627  134.4195  159.8793 O   0  0  0  0  0  0  0  0  0  0  0  0
  147.7062  133.6087  156.6339 H   0  0  0  0  0  0  0  0  0  0  0  0
  146.6783  132.8741  157.8610 H   0  0  0  0  0  0  0  0  0  0  0  0
  148.4311  132.7772  158.0095 H   0  0  0  0  0  0  0  0  0  0  0  0
  146.7595  135.3344  158.1612 H   0  0  0  0  0  0  0  0  0  0  0  0
  149.7706  134.9142  158.5271 H   0  0  0  0  0  0  0  0  0  0  0  0
  148.9999  135.8266  157.2377 H   0  0  0  0  0  0  0  0  0  0  0  0
  153.1889  137.6554  159.0841 H   0  0  0  0  0  0  0  0  0  0  0  0
  148.3726  141.5234  157.2579 H   0  0  0  0  0  0  0  0  0  0  0  0
  152.0417  141.6666  156.6896 H   0  0  0  0  0  0  0  0  0  0  0  0
  150.5827  142.6137  156.5512 H   0  0  0  0  0  0  0  0  0  0  0  0
  153.3060  142.2447  159.1675 H   0  0  0  0  0  0  0  0  0  0  0  0
  153.5389  143.9070  158.0099 H   0  0  0  0  0  0  0  0  0  0  0  0
  152.1600  144.4698  157.0680 H   0  0  0  0  0  0  0  0  0  0  0  0
  152.5910  144.9531  160.0417 H   0  0  0  0  0  0  0  0  0  0  0  0
  152.2948  146.1602  158.7791 H   0  0  0  0  0  0  0  0  0  0  0  0
  149.4905  143.3186  158.7529 H   0  0  0  0  0  0  0  0  0  0  0  0
  150.3973  143.1387  160.2478 H   0  0  0  0  0  0  0  0  0  0  0  0
  149.5924  135.8261  160.8864 H   0  0  0  0  0  0  0  0  0  0  0  0
  148.6819  137.3057  161.1312 H   0  0  0  0  0  0  0  0  0  0  0  0
  146.2835  137.3142  160.1130 H   0  0  0  0  0  0  0  0  0  0  0  0
  145.4249  135.7824  160.0054 H   0  0  0  0  0  0  0  0  0  0  0  0
  146.0456  137.3327  162.5297 H   0  0  0  0  0  0  0  0  0  0  0  0
  144.5125  136.5951  162.0374 H   0  0  0  0  0  0  0  0  0  0  0  0
  147.9705  135.7148  162.8639 H   0  0  0  0  0  0  0  0  0  0  0  0
  148.8045  133.4345  162.1709 H   0  0  0  0  0  0  0  0  0  0  0  0
  147.1339  132.9097  161.9528 H   0  0  0  0  0  0  0  0  0  0  0  0
  147.7104  133.3692  163.5497 H   0  0  0  0  0  0  0  0  0  0  0  0
  1  2  1  0  0  0  0
  1 29  1  0  0  0  0
  1 30  1  0  0  0  0
  1 31  1  0  0  0  0
  2 28  1  0  0  0  0
  2  3  1  0  0  0  0
  2 32  1  0  0  0  0
  3  4  1  0  0  0  0
  3 33  1  0  0  0  0
  3 34  1  0  0  0  0
  4  5  1  0  0  0  0
  4 21  1  0  0  0  0
  5 10  1  0  0  0  0
  5  6  2  0  0  0  0
  6  7  1  0  0  0  0
  7  8  2  0  0  0  0
  7 35  1  0  0  0  0
  8  9  1  0  0  0  0
  9 13  1  0  0  0  0
  9 10  2  0  0  0  0
 10 11  1  0  0  0  0
 11 12  2  0  0  0  0
 12 13  1  0  0  0  0
 12 36  1  0  0  0  0
 13 14  1  0  0  0  0
 14 15  1  0  0  0  0
 14 37  1  0  0  0  0
 14 38  1  0  0  0  0
 15 20  1  0  0  0  0
 15 16  1  0  0  0  0
 15 17  1  0  0  0  0
 16 39  1  0  0  0  0
 17 18  1  0  0  0  0
 17 40  1  0  0  0  0
 17 41  1  0  0  0  0
 18 19  1  0  0  0  0
 18 42  1  0  0  0  0
 18 43  1  0  0  0  0
 19 20  1  0  0  0  0
 20 44  1  0  0  0  0
 20 45  1  0  0  0  0
 21 22  1  0  0  0  0
 21 46  1  0  0  0  0
 21 47  1  0  0  0  0
 22 26  1  0  0  0  0
 22 23  1  0  0  0  0
 22 28  1  0  0  0  0
 23 24  1  0  0  0  0
 23 48  1  0  0  0  0
 23 49  1  0  0  0  0
 24 25  1  0  0  0  0
 24 50  1  0  0  0  0
 24 51  1  0  0  0  0
 25 26  1  0  0  0  0
 26 27  1  0  0  0  0
 26 52  1  0  0  0  0
 27 53  1  0  0  0  0
 27 54  1  0  0  0  0
 27 55  1  0  0  0  0
M  END
> <s_m_source_file>
AV-unprocessed.smi

> <i_m_source_file_index>
281

> <i_lp_mmshare_version>
43012

> <i_f3d_flags>
0

> <s_epik_input>
W0NIM11bQ0BASF0xT1tDSDJdW0NIMl1bQ0BAXTEyW0NIMl1OKFtDSDJdW0NASF0oTzIpW0NIM10pYyhuW2NIXW4zKWMoYzM0KW5bY0hdbjRbQ0gyXVtDQEBdNShbT0hdKVtDSDJdW0NIMl1PW0NIMl01

> <s_epik_cmdline>
J2VwaWtfcHl0aG9uJywgJy1waCcsICc3LjAnLCAnLXRuJywgJzgnLCAnLW1hJywgJzIwMCcsICctbWV0YWxfYmluZGluZycsICctaW1hZScsICc8aW5maWxlLm1hZT4nLCAnLW9tYWUnLCAnPG91dGZpbGUubWFlPic=

> <r_lp_tautomer_probability>
1

> <r_epik_Ionization_Penalty>
0.00571331

> <r_epik_Ionization_Penalty_Charging>
0

> <r_epik_Ionization_Penalty_Neutral>
0.00571331

> <r_epik_State_Penalty>
0.00399586

> <r_epik_Charging_Adjusted_Penalty>
0.00399586

> <i_epik_Tot_Q>
0

> <i_epik_Tot_abs_Q>
0

> <r_epik_Metal_State_Penalty>
-0

> <b_epik_Metal_Only>
0

> <s_lp_Force_Field>
OPLS_2005

> <r_lp_Energy>
53.2983

> <b_lp_Chiralities_Consistent>
1

> <s_lp_Variant>
AV-unprocessed.smi:281-1

> <Gold.Version>
5.8.1

> <Gold.Id.Protein>
6NUR|6NUR_protein|mol2

> <Gold.PLP.Fitness>
42.4921

> <Gold.PLP.PLP>
-41.3444

> <Gold.PLP.part.hbond>
-0.8938

> <Gold.PLP.part.metal>
0.0000

> <Gold.PLP.part.buried>
-9.1735

> <Gold.PLP.part.nonpolar>
-31.6093

> <Gold.PLP.part.repulsive>
0.1521

> <Gold.PLP.ligand.clash>
0.0000

> <Gold.PLP.ligand.torsion>
0.3378

> <Gold.PLP.Chemscore.Hbond>
0.5688

> <Gold.PLP.Chemscore.CHOScore>
0.0000

> <Gold.PLP.Chemscore.Metal>
0.0000

> <Gold.Chemscore.Hbonds>
donor molecule, donor type, donor heavy atom, donor atom, acceptor molecule, acceptor atom, score
      P1  H  6896  6908       L1     6  0.60

> <Gold.PLP.Chemscore.Internal.Correction>
0.1170

> <Gold.Rescore>
     Score         DG    S(hbond)    S(metal)    S(lipo)     H(rot)  DE(clash)    DE(int)     intcor
     14.91     -15.38       0.87        0.00     105.49       2.09       0.08       0.39       ----

> <Gold.Chemscore.Fitness>
14.9089

> <Gold.Chemscore.DG>
-15.3777

> <Gold.Chemscore.ZeroCoef>
-5.4800

> <Gold.Chemscore.Hbond>
0.8720

> <Gold.Chemscore.Metal>
0.0000

> <Gold.Chemscore.Lipo>
105.4915

> <Gold.Chemscore.Internal_Hbond>
0.0000

> <Gold.Chemscore.DEClash>
0.0836

> <Gold.Chemscore.DEInternal>
0.3851

> <Gold.Chemscore.Rot>
2.0927

> <Gold.Chemscore.Internal.Correction>
   9.000000E+99

> <Gold.Chemscore.Hbonds>
donor molecule, donor type, donor heavy atom, donor atom, acceptor molecule, acceptor atom, score
      P1  H  6896  6908       L1     6  0.47

> <Gold.Chemscore.Hbond.Weighted>
-2.9125

> <Gold.Chemscore.Metal.Weighted>
-0.0000

> <Gold.Chemscore.Lipo.Weighted>
-12.3425

> <Gold.Chemscore.Internal_Hbond.Weighted>
0.0000

> <Gold.Chemscore.DEClash.Weighted>
0.0836

> <Gold.Chemscore.DEInternal.Weighted>
0.3851

> <Gold.Chemscore.Rot.Weighted>
5.3573

> <Gold.Chemscore.Internal.Correction.Weighted>
   9.000000E+99

> <Gold.Protein.RotatedTorsions>
[ 6907 6896 6895 6894 ] final -137.68 input  -60.11 | X-H torsion
[ 7974 7965 7964 7962 ] final  -19.35 input  175.53 | X-H torsion
[ 8008 7997 7996 7995 ] final  -74.44 input   59.86 | X-H torsion
[ 10167 10162 10161 10158 ] final   48.57 input  -65.29 | X-H torsion
[ 10718 10713 10712 10709 ] final  129.29 input   66.30 | X-H torsion
[ 10763 10752 10751 10750 ] final -170.72 input  -60.55 | X-H torsion
[ 11005 11000 10999 10996 ] final   74.98 input  -57.11 | X-H torsion

> <Gold.Protein.ActiveResidues>
 VAL166  LYS551  ARG553  GLY616  TRP617  ASP618  TYR619  PRO620  LYS621  CYS622 
 ASP623  PHE694  ASN695  SER759  ASP760  ASP761  ALA762  ILE779  LEU786  VAL792 
 PHE793  MET794  SER795  GLU796  ALA797  LYS798  CYS799  TRP800  GLU811  SER814 

> <Gold.Protein.RotatedAtoms>
  151.0255  133.5838  159.2666 H   0  0  0  0  0  0  0  0  0  0  0  0  # atno 6907 bound_to 6896
  151.2939  135.0749  159.9224 H   0  0  0  0  0  0  0  0  0  0  0  0  # atno 6908 bound_to 6896
  152.5333  133.9948  159.7922 H   0  0  0  0  0  0  0  0  0  0  0  0  # atno 6909 bound_to 6896
  146.1846  140.4049  142.8481 H   0  0  0  0  0  0  0  0  0  0  0  0  # atno 7974 bound_to 7965
  154.5331  140.0761  156.8380 H   0  0  0  0  0  0  0  0  0  0  0  0  # atno 8008 bound_to 7997
  155.3334  140.3403  155.4221 H   0  0  0  0  0  0  0  0  0  0  0  0  # atno 8009 bound_to 7997
  156.1801  140.1649  156.8276 H   0  0  0  0  0  0  0  0  0  0  0  0  # atno 8010 bound_to 7997
  140.2919  144.3035  150.6238 H   0  0  0  0  0  0  0  0  0  0  0  0  # atno 10167 bound_to 10162
  157.5168  131.1097  150.9213 H   0  0  0  0  0  0  0  0  0  0  0  0  # atno 10718 bound_to 10713
  154.6384  135.2895  155.0133 H   0  0  0  0  0  0  0  0  0  0  0  0  # atno 10763 bound_to 10752
  154.1268  135.6539  153.4918 H   0  0  0  0  0  0  0  0  0  0  0  0  # atno 10764 bound_to 10752
  153.0314  135.5301  154.7241 H   0  0  0  0  0  0  0  0  0  0  0  0  # atno 10765 bound_to 10752
  139.9365  134.7478  156.1214 H   0  0  0  0  0  0  0  0  0  0  0  0  # atno 11005 bound_to 11000
  144.8374  140.6804  143.6251 LP  0  0  0  0  0  0  0  0  0  0  0  0  # atno 17320 bound_to 7965
  145.3977  139.1604  143.4194 LP  0  0  0  0  0  0  0  0  0  0  0  0  # atno 17321 bound_to 7965
  140.5725  143.2179  151.7574 LP  0  0  0  0  0  0  0  0  0  0  0  0  # atno 17342 bound_to 10162
  139.4936  144.4197  151.9991 LP  0  0  0  0  0  0  0  0  0  0  0  0  # atno 17343 bound_to 10162
  156.9836  130.5536  149.5298 LP  0  0  0  0  0  0  0  0  0  0  0  0  # atno 17370 bound_to 10713
  156.0326  130.5416  150.8572 LP  0  0  0  0  0  0  0  0  0  0  0  0  # atno 17371 bound_to 10713
  141.0981  133.6687  156.2692 LP  0  0  0  0  0  0  0  0  0  0  0  0  # atno 17394 bound_to 11000
  140.6062  134.5505  157.5526 LP  0  0  0  0  0  0  0  0  0  0  0  0  # atno 17395 bound_to 11000

$$$$
