#       Name:                AV-unprocessed.smi:287
#       Creating user name   scv26
#       Creation time:       Thu Mar 26 22:02:21 2020


#       File generated by GOLD software.
#

@<TRIPOS>MOLECULE
AV-unprocessed.smi:287
    70    73     1
SMALL
NO_CHARGES


@<TRIPOS>ATOM
      1 ****         0.1332   4.7070   3.9254 C.3            1 S1                 0.0000
      2 ****        -0.2925   4.6460   2.4985 C.2            1 S1                 0.0000
      3 ****        -0.9761   3.7284   1.7553 C.2            1 S1                 0.0000
      4 ****        -1.0713   4.2408   0.4269 C.2            1 S1                 0.0000
      5 ****        -1.7568   3.5563  -0.7480 C.3            1 S1                 0.0000
      6 ****        -3.2830   3.6329  -0.5756 C.3            1 S1                 0.0000
      7 ****        -1.4882   4.1875  -1.9850 O.3            1 S1                 0.0000
      8 ****        -1.3143   2.0845  -0.9159 C.3            1 S1                 0.0000
      9 ****         0.1268   1.9072  -0.7933 N.pl3          1 S1                 0.0000
     10 ****         0.6869   0.6803  -0.8454 C.ar           1 S1                 0.0000
     11 ****         2.0307   0.6508  -0.6856 N.ar           1 S1                 0.0000
     12 ****         2.6852  -0.5115  -0.7273 C.ar           1 S1                 0.0000
     13 ****         2.1938  -1.7365  -0.9124 N.ar           1 S1                 0.0000
     14 ****         0.8370  -1.7254  -1.0656 C.ar           1 S1                 0.0000
     15 ****         0.0128  -0.5611  -1.0513 C.ar           1 S1                 0.0000
     16 ****        -1.3099  -0.9341  -1.2580 N.2            1 S1                 0.0000
     17 ****        -1.2645  -2.2305  -1.3893 C.2            1 S1                 0.0000
     18 ****        -0.0164  -2.7991  -1.2606 N.pl3          1 S1                 0.0000
     19 ****         0.3279  -4.2596  -1.3948 C.3            1 S1                 0.0000
     20 ****         1.6450  -4.4666  -0.9860 O.3            1 S1                 0.0000
     21 ****         1.6617  -4.8139   0.3928 C.3            1 S1                 0.0000
     22 ****         3.0230  -5.4003   0.8052 C.3            1 S1                 0.0000
     23 ****         3.9275  -4.3583   1.1037 O.3            1 S1                 0.0000
     24 ****         0.4678  -5.7718   0.4748 C.3            1 S1                 0.0000
     25 ****         0.8391  -7.0690   0.0360 O.3            1 S1                 0.0000
     26 ****        -0.5535  -5.1035  -0.4487 C.3            1 S1                 0.0000
     27 ****        -1.3748  -6.0353  -1.1283 O.3            1 S1                 0.0000
     28 ****        -0.4333   5.4574   0.4741 C.2            1 S1                 0.0000
     29 ****        -0.1662   6.5292  -0.5310 C.3            1 S1                 0.0000
     30 ****         0.0438   5.7087   1.7251 O.3            1 S1                 0.0000
     31 ****         0.2004  -4.4746  -2.4562 H              1 S1                 0.0000
     32 ****         1.4375  -3.9286   0.9919 H              1 S1                 0.0000
     33 ****         0.0897  -5.8559   1.4942 H              1 S1                 0.0000
     34 ****        -1.1894  -4.4479   0.1476 H              1 S1                 0.0000
     35 ****         0.0242   3.7344   4.4055 H              1 S1                 0.0000
     36 ****        -0.4715   5.4263   4.4778 H              1 S1                 0.0000
     37 ****         1.1777   5.0082   4.0071 H              1 S1                 0.0000
     38 ****        -1.3631   2.7892   2.1219 H              1 S1                 0.0000
     39 ****        -3.6037   3.1333   0.3393 H              1 S1                 0.0000
     40 ****        -3.8049   3.1576  -1.4071 H              1 S1                 0.0000
     41 ****        -3.6237   4.6675  -0.5200 H              1 S1                 0.0000
     42 ****        -1.9422   3.7162  -2.6666 H              1 S1                 0.0000
     43 ****        -1.7772   1.4915  -0.1260 H              1 S1                 0.0000
     44 ****        -1.6688   1.6811  -1.8655 H              1 S1                 0.0000
     45 ****         0.6600   2.7537  -0.6534 H              1 S1                 0.0000
     46 ****         3.7551  -0.4527  -0.5926 H              1 S1                 0.0000
     47 ****        -2.1525  -2.8147  -1.5821 H              1 S1                 0.0000
     48 ****         2.9140  -6.0062   1.7052 H              1 S1                 0.0000
     49 ****         3.4327  -6.0438   0.0259 H              1 S1                 0.0000
     50 ****         4.7567  -4.7414   1.3461 H              1 S1                 0.0000
     51 ****         0.0567  -7.5953  -0.0304 H              1 S1                 0.0000
     52 ****        -1.9608  -5.5607  -1.6977 H              1 S1                 0.0000
     53 ****        -1.0969   6.8857  -0.9721 H              1 S1                 0.0000
     54 ****         0.4690   6.1558  -1.3339 H              1 S1                 0.0000
     55 ****         0.3370   7.3824  -0.0756 H              1 S1                 0.0000
     56 ****        -0.5043   4.1746  -2.1637 LP             1 S1                 0.0000
     57 ****        -1.8096   5.1340  -1.9576 LP             1 S1                 0.0000
     58 ****         2.5342   1.5017  -0.5360 LP             1 S1                 0.0000
     59 ****         2.7526  -2.5655  -0.9362 LP             1 S1                 0.0000
     60 ****        -2.1147  -0.3419  -1.2972 LP             1 S1                 0.0000
     61 ****         2.1734  -3.6292  -1.1257 LP             1 S1                 0.0000
     62 ****         2.0482  -5.2084  -1.5219 LP             1 S1                 0.0000
     63 ****         3.5738  -3.8116   1.8626 LP             1 S1                 0.0000
     64 ****         4.0474  -3.7751   0.3003 LP             1 S1                 0.0000
     65 ****         1.4690  -7.4812   0.6943 LP             1 S1                 0.0000
     66 ****         1.2833  -7.0093  -0.8579 LP             1 S1                 0.0000
     67 ****        -1.9042  -6.5645  -0.4652 LP             1 S1                 0.0000
     68 ****        -0.8057  -6.6538  -1.6701 LP             1 S1                 0.0000
     69 ****         1.0380   5.8135   1.6989 LP             1 S1                 0.0000
     70 ****        -0.3698   6.5431   2.0893 LP             1 S1                 0.0000
@<TRIPOS>BOND
    1    1    2 1     
    2    1   35 1     
    3    1   36 1     
    4    1   37 1     
    5    2   30 1     
    6    2    3 2     
    7    3    4 1     
    8    3   38 1     
    9    4    5 1     
   10    4   28 2     
   11    5    6 1     
   12    5    7 1     
   13    5    8 1     
   14    6   39 1     
   15    6   40 1     
   16    6   41 1     
   17    7   42 1     
   18    8    9 1     
   19    8   43 1     
   20    8   44 1     
   21    9   10 1     
   22    9   45 1     
   23   10   15 ar    
   24   10   11 ar    
   25   11   12 ar    
   26   12   13 ar    
   27   12   46 1     
   28   13   14 ar    
   29   14   18 1     
   30   14   15 ar    
   31   15   16 1     
   32   16   17 2     
   33   17   18 1     
   34   17   47 1     
   35   18   19 1     
   36   19   31 1     
   37   19   26 1     
   38   19   20 1     
   39   20   21 1     
   40   21   32 1     
   41   21   22 1     
   42   21   24 1     
   43   22   23 1     
   44   22   48 1     
   45   22   49 1     
   46   23   50 1     
   47   24   33 1     
   48   24   25 1     
   49   24   26 1     
   50   25   51 1     
   51   26   34 1     
   52   26   27 1     
   53   27   52 1     
   54   28   29 1     
   55   28   30 1     
   56   29   53 1     
   57   29   54 1     
   58   29   55 1     
   59    7   56 1     
   60    7   57 1     
   61   11   58 1     
   62   13   59 1     
   63   16   60 1     
   64   20   61 1     
   65   20   62 1     
   66   23   63 1     
   67   23   64 1     
   68   25   65 1     
   69   25   66 1     
   70   27   67 1     
   71   27   68 1     
   72   30   69 1     
   73   30   70 1     
@<TRIPOS>SUBSTRUCTURE
      1 S1             1
@<TRIPOS>SET
LONE_PAIRS      STATIC     ATOMS    <user>   **** ""
15 56 57 58 59 60 61 62 63 64 65 66 67 68 69 70
DONOR_HYDROGENS      STATIC     ATOMS    <user>   **** ""
5 42 45 50 51 52
ATOM$BLUE        STATIC     ATOMS    COLORGROUP SYSTEM
15 56 57 58 59 60 61 62 63 64 65 66 67 68 69 70
ATOM$RED        STATIC     ATOMS    COLORGROUP SYSTEM
5 42 45 50 51 52
