AV-unprocessed.smi:1301|AV-procd|sdf|5421|dock7
  -GOLD-   22720 4583D 1   1.00000     0.00000
 Structure written by MMmdl.
 45 46  0  0  0  0  0  0  0  0  2 V2000
  146.7513  130.3182  152.6874 C   0  0  0  0  0  0  0  0  0  0  0  0
  147.5883  131.3957  153.2865 C   0  0  0  0  0  0  0  0  0  0  0  0
  147.8668  132.6782  152.9053 C   0  0  0  0  0  0  0  0  0  0  0  0
  148.7330  133.1362  153.9335 C   0  0  0  0  0  0  0  0  0  0  0  0
  149.2611  134.4523  153.9090 N   0  0  0  0  0  0  0  0  0  0  0  0
  150.1193  135.0052  154.7833 C   0  0  0  0  0  0  0  0  0  0  0  0
  150.5960  134.4339  155.7644 O   0  0  0  0  0  0  0  0  0  0  0  0
  150.4008  136.2747  154.4532 N   0  0  0  0  0  0  0  0  0  0  0  0
  151.2993  137.1643  155.1853 C   0  0  2  0  0  0  0  0  0  0  0  0
  151.0347  137.0588  156.6951 C   0  0  0  0  0  0  0  0  0  0  0  0
  151.9026  138.0564  157.4803 C   0  0  0  0  0  0  0  0  0  0  0  0
  151.6880  139.4484  157.0068 N   0  3  1  0  0  0  0  0  0  0  0  0
  152.4162  140.4426  157.8368 C   0  0  0  0  0  0  0  0  0  0  0  0
  151.5720  141.6950  158.1567 C   0  0  0  0  0  0  0  0  0  0  0  0
  151.0108  142.3108  156.8665 C   0  0  0  0  0  0  0  0  0  0  0  0
  152.3772  142.7420  158.9449 C   0  0  0  0  0  0  0  0  0  0  0  0
  151.9681  139.5805  155.5517 C   0  0  0  0  0  0  0  0  0  0  0  0
  151.0974  138.6172  154.7275 C   0  0  0  0  0  0  0  0  0  0  0  0
  148.9607  132.2171  154.8593 N   0  0  0  0  0  0  0  0  0  0  0  0
  148.2282  131.0969  154.4495 O   0  0  0  0  0  0  0  0  0  0  0  0
  146.3604  130.6235  151.7166 H   0  0  0  0  0  0  0  0  0  0  0  0
  145.9059  130.0816  153.3337 H   0  0  0  0  0  0  0  0  0  0  0  0
  147.3351  129.4087  152.5459 H   0  0  0  0  0  0  0  0  0  0  0  0
  147.5077  133.1999  152.0307 H   0  0  0  0  0  0  0  0  0  0  0  0
  148.9521  135.0330  153.1438 H   0  0  0  0  0  0  0  0  0  0  0  0
  149.9577  136.6557  153.6298 H   0  0  0  0  0  0  0  0  0  0  0  0
  152.3403  136.8906  155.0032 H   0  0  0  0  0  0  0  0  0  0  0  0
  149.9814  137.2528  156.9041 H   0  0  0  0  0  0  0  0  0  0  0  0
  151.2365  136.0440  157.0403 H   0  0  0  0  0  0  0  0  0  0  0  0
  151.6532  137.9851  158.5398 H   0  0  0  0  0  0  0  0  0  0  0  0
  152.9580  137.7962  157.3839 H   0  0  0  0  0  0  0  0  0  0  0  0
  152.7133  139.9848  158.7816 H   0  0  0  0  0  0  0  0  0  0  0  0
  153.3433  140.7196  157.3325 H   0  0  0  0  0  0  0  0  0  0  0  0
  150.7150  141.4057  158.7644 H   0  0  0  0  0  0  0  0  0  0  0  0
  151.8106  142.6365  156.2004 H   0  0  0  0  0  0  0  0  0  0  0  0
  150.3856  143.1775  157.0832 H   0  0  0  0  0  0  0  0  0  0  0  0
  150.3963  141.5931  156.3223 H   0  0  0  0  0  0  0  0  0  0  0  0
  153.2563  143.0686  158.3884 H   0  0  0  0  0  0  0  0  0  0  0  0
  152.7169  142.3473  159.9029 H   0  0  0  0  0  0  0  0  0  0  0  0
  151.7720  143.6243  159.1552 H   0  0  0  0  0  0  0  0  0  0  0  0
  151.7779  140.5998  155.2182 H   0  0  0  0  0  0  0  0  0  0  0  0
  153.0244  139.3808  155.3634 H   0  0  0  0  0  0  0  0  0  0  0  0
  151.3424  138.7135  153.6689 H   0  0  0  0  0  0  0  0  0  0  0  0
  150.0481  138.8989  154.8293 H   0  0  0  0  0  0  0  0  0  0  0  0
  150.7045  139.6381  157.1375 H   0  0  0  0  0  0  0  0  0  0  0  0
  1  2  1  0  0  0  0
  1 21  1  0  0  0  0
  1 22  1  0  0  0  0
  1 23  1  0  0  0  0
  2 20  1  0  0  0  0
  2  3  2  0  0  0  0
  3  4  1  0  0  0  0
  3 24  1  0  0  0  0
  4  5  1  0  0  0  0
  4 19  2  0  0  0  0
  5  6  1  0  0  0  0
  5 25  1  0  0  0  0
  6  7  2  0  0  0  0
  6  8  1  0  0  0  0
  8  9  1  0  0  0  0
  8 26  1  0  0  0  0
  9 18  1  0  0  0  0
  9 10  1  0  0  0  0
  9 27  1  0  0  0  0
 10 11  1  0  0  0  0
 10 28  1  0  0  0  0
 10 29  1  0  0  0  0
 11 12  1  0  0  0  0
 11 30  1  0  0  0  0
 11 31  1  0  0  0  0
 12 13  1  0  0  0  0
 12 17  1  0  0  0  0
 12 45  1  0  0  0  0
 13 14  1  0  0  0  0
 13 32  1  0  0  0  0
 13 33  1  0  0  0  0
 14 15  1  0  0  0  0
 14 16  1  0  0  0  0
 14 34  1  0  0  0  0
 15 35  1  0  0  0  0
 15 36  1  0  0  0  0
 15 37  1  0  0  0  0
 16 38  1  0  0  0  0
 16 39  1  0  0  0  0
 16 40  1  0  0  0  0
 17 18  1  0  0  0  0
 17 41  1  0  0  0  0
 17 42  1  0  0  0  0
 18 43  1  0  0  0  0
 18 44  1  0  0  0  0
 19 20  1  0  0  0  0
M  CHG  1  12   1
M  END
> <s_m_source_file>
AV-unprocessed.smi

> <i_m_source_file_index>
1301

> <i_lp_mmshare_version>
43012

> <i_f3d_flags>
0

> <s_epik_input>
W0NIM11jMVtjSF1jKG5vMSlbTkhdQyg9TylbTkhdW0NIXTJbQ0gyXVtDSDJdTihbQ0gyXVtDSDJdMilbQ0gyXVtDSF0oW0NIM10pW0NIM10=

> <s_epik_cmdline>
J2VwaWtfcHl0aG9uJywgJy1waCcsICc3LjAnLCAnLXRuJywgJzgnLCAnLW1hJywgJzIwMCcsICctbWV0YWxfYmluZGluZycsICctaW1hZScsICc8aW5maWxlLm1hZT4nLCAnLW9tYWUnLCAnPG91dGZpbGUubWFlPic=

> <r_epik_Ionization_Penalty>
0.0020743

> <r_epik_Ionization_Penalty_Charging>
0.0020412

> <r_epik_Ionization_Penalty_Neutral>
3.31029e-05

> <r_epik_State_Penalty>
0.00139626

> <r_epik_Charging_Adjusted_Penalty>
0.00343746

> <i_epik_Tot_Q>
1

> <i_epik_Tot_abs_Q>
1

> <r_epik_Metal_State_Penalty>
0.0141509

> <b_epik_Metal_Only>
0

> <s_lp_Force_Field>
OPLS_2005

> <r_lp_Energy>
17.3221

> <b_lp_Chiralities_Consistent>
1

> <s_lp_Variant>
AV-unprocessed.smi:1301-1

> <Gold.Version>
5.8.1

> <Gold.Id.Protein>
6NUR|6NUR_protein|mol2

> <Gold.PLP.Fitness>
36.8036

> <Gold.PLP.PLP>
-32.5349

> <Gold.PLP.part.hbond>
-2.9262

> <Gold.PLP.part.metal>
0.0000

> <Gold.PLP.part.buried>
-2.3590

> <Gold.PLP.part.nonpolar>
-27.0559

> <Gold.PLP.part.repulsive>
0.2684

> <Gold.PLP.ligand.clash>
0.0000

> <Gold.PLP.ligand.torsion>
0.7440

> <Gold.PLP.Chemscore.Hbond>
1.9120

> <Gold.PLP.Chemscore.CHOScore>
0.0000

> <Gold.PLP.Chemscore.Metal>
0.0000

> <Gold.Chemscore.Hbonds>
donor molecule, donor type, donor heavy atom, donor atom, acceptor molecule, acceptor atom, score
      L1  H     5    25       P1  7948  1.00
      L1  H     8    26       P1  7948  0.90

> <Gold.PLP.Chemscore.Internal.Correction>
0.0208

> <Gold.Rescore>
     Score         DG    S(hbond)    S(metal)    S(lipo)     H(rot)  DE(clash)    DE(int)     intcor
     11.84     -15.24       1.35        0.00      76.29       1.43       0.00       3.40       ----

> <Gold.Chemscore.Fitness>
11.8385

> <Gold.Chemscore.DG>
-15.2431

> <Gold.Chemscore.ZeroCoef>
-5.4800

> <Gold.Chemscore.Hbond>
1.3466

> <Gold.Chemscore.Metal>
0.0000

> <Gold.Chemscore.Lipo>
76.2895

> <Gold.Chemscore.Internal_Hbond>
0.0000

> <Gold.Chemscore.DEClash>
0.0029

> <Gold.Chemscore.DEInternal>
3.4017

> <Gold.Chemscore.Rot>
1.4298

> <Gold.Chemscore.Internal.Correction>
   9.000000E+99

> <Gold.Chemscore.Hbonds>
donor molecule, donor type, donor heavy atom, donor atom, acceptor molecule, acceptor atom, score
      L1  H     5    25       P1  7948  0.25
      L1  H     8    26       P1  7948  0.21

> <Gold.Chemscore.Hbond.Weighted>
-4.4976

> <Gold.Chemscore.Metal.Weighted>
-0.0000

> <Gold.Chemscore.Lipo.Weighted>
-8.9259

> <Gold.Chemscore.Internal_Hbond.Weighted>
0.0000

> <Gold.Chemscore.DEClash.Weighted>
0.0029

> <Gold.Chemscore.DEInternal.Weighted>
3.4017

> <Gold.Chemscore.Rot.Weighted>
3.6604

> <Gold.Chemscore.Internal.Correction.Weighted>
   9.000000E+99

> <Gold.Protein.RotatedTorsions>
[ 6907 6896 6895 6894 ] final -133.89 input  -60.11 | X-H torsion
[ 7974 7965 7964 7962 ] final  118.21 input  175.53 | X-H torsion
[ 8008 7997 7996 7995 ] final -108.65 input   59.86 | X-H torsion
[ 10167 10162 10161 10158 ] final  129.80 input  -65.29 | X-H torsion
[ 10718 10713 10712 10709 ] final  142.27 input   66.30 | X-H torsion
[ 10763 10752 10751 10750 ] final  148.96 input  -60.55 | X-H torsion
[ 11005 11000 10999 10996 ] final   20.35 input  -57.11 | X-H torsion

> <Gold.Protein.ActiveResidues>
 VAL166  LYS551  ARG553  GLY616  TRP617  ASP618  TYR619  PRO620  LYS621  CYS622 
 ASP623  PHE694  ASN695  SER759  ASP760  ASP761  ALA762  ILE779  LEU786  VAL792 
 PHE793  MET794  SER795  GLU796  ALA797  LYS798  CYS799  TRP800  GLU811  SER814 

> <Gold.Protein.RotatedAtoms>
  150.9793  133.6262  159.2724 H   0  0  0  0  0  0  0  0  0  0  0  0  # atno 6907 bound_to 6896
  151.3522  135.0886  159.9416 H   0  0  0  0  0  0  0  0  0  0  0  0  # atno 6908 bound_to 6896
  152.5210  133.9384  159.7669 H   0  0  0  0  0  0  0  0  0  0  0  0  # atno 6909 bound_to 6896
  145.1580  139.3172  143.4532 H   0  0  0  0  0  0  0  0  0  0  0  0  # atno 7974 bound_to 7965
  154.9475  140.0401  157.2127 H   0  0  0  0  0  0  0  0  0  0  0  0  # atno 8008 bound_to 7997
  154.8010  140.2852  155.5899 H   0  0  0  0  0  0  0  0  0  0  0  0  # atno 8009 bound_to 7997
  156.2961  140.2555  156.2878 H   0  0  0  0  0  0  0  0  0  0  0  0  # atno 8010 bound_to 7997
  139.5460  144.6773  151.4472 H   0  0  0  0  0  0  0  0  0  0  0  0  # atno 10167 bound_to 10162
  157.3825  131.0994  151.0725 H   0  0  0  0  0  0  0  0  0  0  0  0  # atno 10718 bound_to 10713
  154.0633  135.2872  155.3321 H   0  0  0  0  0  0  0  0  0  0  0  0  # atno 10763 bound_to 10752
  154.6794  135.5269  153.8246 H   0  0  0  0  0  0  0  0  0  0  0  0  # atno 10764 bound_to 10752
  153.0514  135.6577  154.0820 H   0  0  0  0  0  0  0  0  0  0  0  0  # atno 10765 bound_to 10752
  140.4036  134.1692  155.7664 H   0  0  0  0  0  0  0  0  0  0  0  0  # atno 11005 bound_to 11000
  146.3486  140.1679  142.8590 LP  0  0  0  0  0  0  0  0  0  0  0  0  # atno 17320 bound_to 7965
  145.0361  140.8909  143.5080 LP  0  0  0  0  0  0  0  0  0  0  0  0  # atno 17321 bound_to 7965
  140.6708  143.8298  150.6997 LP  0  0  0  0  0  0  0  0  0  0  0  0  # atno 17342 bound_to 10162
  140.1721  143.4185  152.1993 LP  0  0  0  0  0  0  0  0  0  0  0  0  # atno 17343 bound_to 10162
  157.1789  130.6300  149.5665 LP  0  0  0  0  0  0  0  0  0  0  0  0  # atno 17370 bound_to 10713
  155.9779  130.4760  150.6621 LP  0  0  0  0  0  0  0  0  0  0  0  0  # atno 17371 bound_to 10713
  141.1847  133.8337  157.1129 LP  0  0  0  0  0  0  0  0  0  0  0  0  # atno 17394 bound_to 11000
  140.0318  134.9897  157.0795 LP  0  0  0  0  0  0  0  0  0  0  0  0  # atno 17395 bound_to 11000

$$$$
