AV-unprocessed.smi:1328|AV-procd|sdf|5480|dock2
  -GOLD-   22720 5 53D 1   1.00000     0.00000
 Structure written by MMmdl.
 38 39  0  0  0  0  0  0  0  0  1 V2000
  152.1854  138.9117  158.3393 C   0  0  0  0  0  0  0  0  0  0  0  0
  151.6089  139.4795  157.0740 C   0  0  0  0  0  0  0  0  0  0  0  0
  152.3809  139.6120  156.0086 N   0  0  0  0  0  0  0  0  0  0  0  0
  151.5662  140.1542  155.0103 O   0  0  0  0  0  0  0  0  0  0  0  0
  150.3206  140.3302  155.5199 C   0  0  0  0  0  0  0  0  0  0  0  0
  149.2967  140.9001  154.5965 C   0  0  0  0  0  0  0  0  0  0  0  0
  150.2792  139.9272  156.8271 C   0  0  0  0  0  0  0  0  0  0  0  0
  149.1141  139.9394  157.7835 C   0  0  0  0  0  0  0  0  0  0  0  0
  148.4497  138.5634  157.7919 C   0  0  0  0  0  0  0  0  0  0  0  0
  147.9114  138.1299  156.7734 O   0  0  0  0  0  0  0  0  0  0  0  0
  148.4816  137.8991  158.9567 N   0  0  0  0  0  0  0  0  0  0  0  0
  147.8207  136.6285  159.2330 C   0  0  1  0  0  0  0  0  0  0  0  0
  148.3468  135.5485  158.2727 C   0  0  0  0  0  0  0  0  0  0  0  0
  148.0550  136.2658  160.7115 C   0  0  2  0  0  0  0  0  0  0  0  0
  147.3402  135.0014  161.1863 C   0  0  0  0  0  0  0  0  0  0  0  0
  147.2229  135.2083  162.6880 C   0  0  0  0  0  0  0  0  0  0  0  0
  147.4324  136.7140  162.8756 C   0  0  0  0  0  0  0  0  0  0  0  0
  147.4920  137.2533  161.5623 O   0  0  0  0  0  0  0  0  0  0  0  0
  151.4496  138.3076  158.8702 H   0  0  0  0  0  0  0  0  0  0  0  0
  152.5092  139.7070  159.0108 H   0  0  0  0  0  0  0  0  0  0  0  0
  153.0468  138.2743  158.1370 H   0  0  0  0  0  0  0  0  0  0  0  0
  148.3251  140.4324  154.7539 H   0  0  0  0  0  0  0  0  0  0  0  0
  149.5778  140.7424  153.5552 H   0  0  0  0  0  0  0  0  0  0  0  0
  149.1860  141.9721  154.7591 H   0  0  0  0  0  0  0  0  0  0  0  0
  149.4334  140.1879  158.7963 H   0  0  0  0  0  0  0  0  0  0  0  0
  148.3767  140.6934  157.5053 H   0  0  0  0  0  0  0  0  0  0  0  0
  148.9502  138.3405  159.7345 H   0  0  0  0  0  0  0  0  0  0  0  0
  146.7466  136.7442  159.0753 H   0  0  0  0  0  0  0  0  0  0  0  0
  147.8404  134.5964  158.4312 H   0  0  0  0  0  0  0  0  0  0  0  0
  149.4162  135.3838  158.4084 H   0  0  0  0  0  0  0  0  0  0  0  0
  148.1830  135.8318  157.2326 H   0  0  0  0  0  0  0  0  0  0  0  0
  149.1238  136.1894  160.9225 H   0  0  0  0  0  0  0  0  0  0  0  0
  146.3432  134.9445  160.7469 H   0  0  0  0  0  0  0  0  0  0  0  0
  147.8763  134.0885  160.9261 H   0  0  0  0  0  0  0  0  0  0  0  0
  146.2502  134.8810  163.0569 H   0  0  0  0  0  0  0  0  0  0  0  0
  147.9911  134.6489  163.2231 H   0  0  0  0  0  0  0  0  0  0  0  0
  146.6304  137.1796  163.4489 H   0  0  0  0  0  0  0  0  0  0  0  0
  148.3751  136.9099  163.3881 H   0  0  0  0  0  0  0  0  0  0  0  0
  1  2  1  0  0  0  0
  1 19  1  0  0  0  0
  1 20  1  0  0  0  0
  1 21  1  0  0  0  0
  2  7  1  0  0  0  0
  2  3  2  0  0  0  0
  3  4  1  0  0  0  0
  4  5  1  0  0  0  0
  5  6  1  0  0  0  0
  5  7  2  0  0  0  0
  6 22  1  0  0  0  0
  6 23  1  0  0  0  0
  6 24  1  0  0  0  0
  7  8  1  0  0  0  0
  8  9  1  0  0  0  0
  8 25  1  0  0  0  0
  8 26  1  0  0  0  0
  9 10  2  0  0  0  0
  9 11  1  0  0  0  0
 11 12  1  0  0  0  0
 11 27  1  0  0  0  0
 12 13  1  0  0  0  0
 12 14  1  0  0  0  0
 12 28  1  0  0  0  0
 13 29  1  0  0  0  0
 13 30  1  0  0  0  0
 13 31  1  0  0  0  0
 14 18  1  0  0  0  0
 14 15  1  0  0  0  0
 14 32  1  0  0  0  0
 15 16  1  0  0  0  0
 15 33  1  0  0  0  0
 15 34  1  0  0  0  0
 16 17  1  0  0  0  0
 16 35  1  0  0  0  0
 16 36  1  0  0  0  0
 17 18  1  0  0  0  0
 17 37  1  0  0  0  0
 17 38  1  0  0  0  0
M  END
> <s_m_source_file>
AV-unprocessed.smi

> <i_m_source_file_index>
1328

> <i_lp_mmshare_version>
43012

> <i_f3d_flags>
0

> <s_epik_input>
W0NIM11jMW5vYyhbQ0gzXSljMVtDSDJdQyg9TylbTkhdW0NASF0oW0NIM10pW0NAQEhdMltDSDJdW0NIMl1bQ0gyXU8y

> <s_epik_cmdline>
J2VwaWtfcHl0aG9uJywgJy1waCcsICc3LjAnLCAnLXRuJywgJzgnLCAnLW1hJywgJzIwMCcsICctbWV0YWxfYmluZGluZycsICctaW1hZScsICc8aW5maWxlLm1hZT4nLCAnLW9tYWUnLCAnPG91dGZpbGUubWFlPic=

> <r_lp_tautomer_probability>
1

> <r_epik_Ionization_Penalty>
2.66156e-08

> <r_epik_Ionization_Penalty_Charging>
0

> <r_epik_Ionization_Penalty_Neutral>
2.66156e-08

> <r_epik_State_Penalty>
-0

> <r_epik_Charging_Adjusted_Penalty>
0

> <i_epik_Tot_Q>
0

> <i_epik_Tot_abs_Q>
0

> <r_epik_Metal_State_Penalty>
-0

> <b_epik_Metal_Only>
0

> <s_lp_Force_Field>
OPLS_2005

> <r_lp_Energy>
11.7374

> <b_lp_Chiralities_Consistent>
1

> <s_lp_Variant>
AV-unprocessed.smi:1328-2

> <Gold.Version>
5.8.1

> <Gold.Id.Protein>
6NUR|6NUR_protein|mol2

> <Gold.PLP.Fitness>
41.4356

> <Gold.PLP.PLP>
-31.6614

> <Gold.PLP.part.hbond>
-4.0000

> <Gold.PLP.part.metal>
0.0000

> <Gold.PLP.part.buried>
-4.2054

> <Gold.PLP.part.nonpolar>
-23.9709

> <Gold.PLP.part.repulsive>
0.2427

> <Gold.PLP.ligand.clash>
0.0000

> <Gold.PLP.ligand.torsion>
0.3636

> <Gold.PLP.Chemscore.Hbond>
3.4880

> <Gold.PLP.Chemscore.CHOScore>
0.0000

> <Gold.PLP.Chemscore.Metal>
0.0000

> <Gold.Chemscore.Hbonds>
donor molecule, donor type, donor heavy atom, donor atom, acceptor molecule, acceptor atom, score
      P1  H  6931  6943       L1    18  0.64
      P1  H  6934  6947       L1    18  0.83
      P1  H  7989  7998       L1     4  1.00
      P1  H  7997  8010       L1     3  0.98

> <Gold.PLP.Chemscore.Internal.Correction>
0.0375

> <Gold.Rescore>
     Score         DG    S(hbond)    S(metal)    S(lipo)     H(rot)  DE(clash)    DE(int)     intcor
     18.37     -18.82       2.70        0.00      70.08       1.52       0.02       0.43       ----

> <Gold.Chemscore.Fitness>
18.3713

> <Gold.Chemscore.DG>
-18.8222

> <Gold.Chemscore.ZeroCoef>
-5.4800

> <Gold.Chemscore.Hbond>
2.7018

> <Gold.Chemscore.Metal>
0.0000

> <Gold.Chemscore.Lipo>
70.0762

> <Gold.Chemscore.Internal_Hbond>
0.0000

> <Gold.Chemscore.DEClash>
0.0239

> <Gold.Chemscore.DEInternal>
0.4270

> <Gold.Chemscore.Rot>
1.5159

> <Gold.Chemscore.Internal.Correction>
   9.000000E+99

> <Gold.Chemscore.Hbonds>
donor molecule, donor type, donor heavy atom, donor atom, acceptor molecule, acceptor atom, score
      P1  H  6931  6943       L1    18  0.02
      P1  H  6934  6947       L1    18  0.80
      P1  H  7989  7998       L1     4  0.67
      P1  H  7997  8010       L1     3  0.88

> <Gold.Chemscore.Hbond.Weighted>
-9.0240

> <Gold.Chemscore.Metal.Weighted>
-0.0000

> <Gold.Chemscore.Lipo.Weighted>
-8.1989

> <Gold.Chemscore.Internal_Hbond.Weighted>
0.0000

> <Gold.Chemscore.DEClash.Weighted>
0.0239

> <Gold.Chemscore.DEInternal.Weighted>
0.4270

> <Gold.Chemscore.Rot.Weighted>
3.8807

> <Gold.Chemscore.Internal.Correction.Weighted>
   9.000000E+99

> <Gold.Protein.RotatedTorsions>
[ 6907 6896 6895 6894 ] final  -21.74 input  -60.11 | X-H torsion
[ 7974 7965 7964 7962 ] final   98.11 input  175.53 | X-H torsion
[ 8008 7997 7996 7995 ] final   80.72 input   59.86 | X-H torsion
[ 10167 10162 10161 10158 ] final  -12.50 input  -65.29 | X-H torsion
[ 10718 10713 10712 10709 ] final -134.69 input   66.30 | X-H torsion
[ 10763 10752 10751 10750 ] final    0.73 input  -60.55 | X-H torsion
[ 11005 11000 10999 10996 ] final -128.16 input  -57.11 | X-H torsion

> <Gold.Protein.ActiveResidues>
 VAL166  LYS551  ARG553  GLY616  TRP617  ASP618  TYR619  PRO620  LYS621  CYS622 
 ASP623  PHE694  ASN695  SER759  ASP760  ASP761  ALA762  ILE779  LEU786  VAL792 
 PHE793  MET794  SER795  GLU796  ALA797  LYS798  CYS799  TRP800  GLU811  SER814 

> <Gold.Protein.RotatedAtoms>
  151.2289  135.0547  159.8979 H   0  0  0  0  0  0  0  0  0  0  0  0  # atno 6907 bound_to 6896
  152.5407  134.0559  159.8140 H   0  0  0  0  0  0  0  0  0  0  0  0  # atno 6908 bound_to 6896
  151.0736  133.5398  159.2657 H   0  0  0  0  0  0  0  0  0  0  0  0  # atno 6909 bound_to 6896
  145.4165  139.2327  143.3219 H   0  0  0  0  0  0  0  0  0  0  0  0  # atno 7974 bound_to 7965
  155.8874  140.3441  155.5931 H   0  0  0  0  0  0  0  0  0  0  0  0  # atno 8008 bound_to 7997
  155.7651  140.0838  157.2155 H   0  0  0  0  0  0  0  0  0  0  0  0  # atno 8009 bound_to 7997
  154.4030  140.1528  156.2864 H   0  0  0  0  0  0  0  0  0  0  0  0  # atno 8010 bound_to 7997
  140.7162  143.5526  150.9284 H   0  0  0  0  0  0  0  0  0  0  0  0  # atno 10167 bound_to 10162
  156.2581  130.7193  151.1117 H   0  0  0  0  0  0  0  0  0  0  0  0  # atno 10718 bound_to 10713
  153.3170  135.6966  153.7065 H   0  0  0  0  0  0  0  0  0  0  0  0  # atno 10763 bound_to 10752
  153.5920  135.3478  155.2915 H   0  0  0  0  0  0  0  0  0  0  0  0  # atno 10764 bound_to 10752
  154.8589  135.4320  154.2323 H   0  0  0  0  0  0  0  0  0  0  0  0  # atno 10765 bound_to 10752
  140.9539  134.1028  157.4035 H   0  0  0  0  0  0  0  0  0  0  0  0  # atno 11005 bound_to 11000
  146.2678  140.4884  142.8827 LP  0  0  0  0  0  0  0  0  0  0  0  0  # atno 17320 bound_to 7965
  144.8273  140.6650  143.6313 LP  0  0  0  0  0  0  0  0  0  0  0  0  # atno 17321 bound_to 7965
  139.9251  143.6560  152.3088 LP  0  0  0  0  0  0  0  0  0  0  0  0  # atno 17342 bound_to 10162
  139.6991  144.7637  151.1305 LP  0  0  0  0  0  0  0  0  0  0  0  0  # atno 17343 bound_to 10162
  157.7240  131.0662  150.6013 LP  0  0  0  0  0  0  0  0  0  0  0  0  # atno 17370 bound_to 10713
  156.6098  130.4377  149.5863 LP  0  0  0  0  0  0  0  0  0  0  0  0  # atno 17371 bound_to 10713
  139.8856  135.0074  156.6445 LP  0  0  0  0  0  0  0  0  0  0  0  0  # atno 17394 bound_to 11000
  140.7563  133.8855  155.8385 LP  0  0  0  0  0  0  0  0  0  0  0  0  # atno 17395 bound_to 11000

$$$$
