AV-unprocessed.smi:763|AV-procd|sdf|3635|dock4
  -GOLD-   22720 1 33D 1   1.00000     0.00000
 Structure written by MMmdl.
 44 45  0  0  0  0  0  0  0  0  1 V2000
  143.8801  132.7312  150.0008 C   0  0  0  0  0  0  0  0  0  0  0  0
  145.2885  132.6249  149.8658 O   0  0  0  0  0  0  0  0  0  0  0  0
  146.0164  133.5125  150.7033 C   0  0  0  0  0  0  0  0  0  0  0  0
  146.1717  132.9618  152.1278 C   0  0  0  0  0  0  0  0  0  0  0  0
  147.0786  133.8060  152.8269 O   0  0  0  0  0  0  0  0  0  0  0  0
  147.8171  133.2876  153.8708 C   0  0  0  0  0  0  0  0  0  0  0  0
  147.8427  131.9382  154.0183 N   0  0  0  0  0  0  0  0  0  0  0  0
  148.5345  131.4116  155.0491 C   0  0  0  0  0  0  0  0  0  0  0  0
  149.2303  132.1941  155.9880 C   0  0  0  0  0  0  0  0  0  0  0  0
  149.2072  133.5923  155.8366 C   0  0  0  0  0  0  0  0  0  0  0  0
  148.4990  134.1610  154.7581 C   0  0  0  0  0  0  0  0  0  0  0  0
  148.5027  135.5563  154.6299 N   0  0  0  0  0  0  0  0  0  0  0  0
  149.2782  136.7547  155.6192 S   0  0  0  0  0  0  0  0  0  0  0  0
  148.1971  137.4091  156.3734 O   0  0  0  0  0  0  0  0  0  0  0  0
  150.3602  136.0426  156.3161 O   0  0  0  0  0  0  0  0  0  0  0  0
  149.9572  137.9313  154.3370 C   0  0  1  0  0  0  0  0  0  0  0  0
  149.4630  139.3694  154.5957 C   0  0  0  0  0  0  0  0  0  0  0  0
  150.1344  139.9944  155.8313 C   0  0  0  0  0  0  0  0  0  0  0  0
  151.6650  139.9944  155.6862 C   0  0  0  0  0  0  0  0  0  0  0  0
  152.2081  138.5798  155.4260 C   0  0  0  0  0  0  0  0  0  0  0  0
  151.5020  137.9243  154.2207 C   0  0  1  0  0  0  0  0  0  0  0  0
  151.9904  136.6167  154.0039 O   0  0  0  0  0  0  0  0  0  0  0  0
  143.3984  131.9831  149.3715 H   0  0  0  0  0  0  0  0  0  0  0  0
  143.5151  133.7094  149.6885 H   0  0  0  0  0  0  0  0  0  0  0  0
  143.5672  132.5529  151.0302 H   0  0  0  0  0  0  0  0  0  0  0  0
  146.9863  133.7586  150.2682 H   0  0  0  0  0  0  0  0  0  0  0  0
  145.4538  134.4456  150.7474 H   0  0  0  0  0  0  0  0  0  0  0  0
  145.2016  132.9569  152.6275 H   0  0  0  0  0  0  0  0  0  0  0  0
  146.5509  131.9396  152.1047 H   0  0  0  0  0  0  0  0  0  0  0  0
  148.5297  130.3347  155.1299 H   0  0  0  0  0  0  0  0  0  0  0  0
  149.7693  131.7332  156.8023 H   0  0  0  0  0  0  0  0  0  0  0  0
  149.7349  134.2201  156.5397 H   0  0  0  0  0  0  0  0  0  0  0  0
  147.8063  135.9175  153.9949 H   0  0  0  0  0  0  0  0  0  0  0  0
  149.5339  137.6104  153.3849 H   0  0  0  0  0  0  0  0  0  0  0  0
  149.6830  139.9858  153.7232 H   0  0  0  0  0  0  0  0  0  0  0  0
  148.3787  139.3892  154.7050 H   0  0  0  0  0  0  0  0  0  0  0  0
  149.7776  141.0156  155.9684 H   0  0  0  0  0  0  0  0  0  0  0  0
  149.8492  139.4466  156.7301 H   0  0  0  0  0  0  0  0  0  0  0  0
  151.9510  140.6500  154.8628 H   0  0  0  0  0  0  0  0  0  0  0  0
  152.1243  140.4094  156.5839 H   0  0  0  0  0  0  0  0  0  0  0  0
  153.2815  138.6331  155.2410 H   0  0  0  0  0  0  0  0  0  0  0  0
  152.0924  137.9798  156.3267 H   0  0  0  0  0  0  0  0  0  0  0  0
  151.7695  138.4985  153.3326 H   0  0  0  0  0  0  0  0  0  0  0  0
  151.5628  136.2585  153.2412 H   0  0  0  0  0  0  0  0  0  0  0  0
  1  2  1  0  0  0  0
  1 23  1  0  0  0  0
  1 24  1  0  0  0  0
  1 25  1  0  0  0  0
  2  3  1  0  0  0  0
  3  4  1  0  0  0  0
  3 26  1  0  0  0  0
  3 27  1  0  0  0  0
  4  5  1  0  0  0  0
  4 28  1  0  0  0  0
  4 29  1  0  0  0  0
  5  6  1  0  0  0  0
  6 11  1  0  0  0  0
  6  7  2  0  0  0  0
  7  8  1  0  0  0  0
  8  9  2  0  0  0  0
  8 30  1  0  0  0  0
  9 10  1  0  0  0  0
  9 31  1  0  0  0  0
 10 11  2  0  0  0  0
 10 32  1  0  0  0  0
 11 12  1  0  0  0  0
 12 13  1  0  0  0  0
 12 33  1  0  0  0  0
 13 14  2  0  0  0  0
 13 15  2  0  0  0  0
 13 16  1  0  0  0  0
 16 21  1  0  0  0  0
 16 17  1  0  0  0  0
 16 34  1  0  0  0  0
 17 18  1  0  0  0  0
 17 35  1  0  0  0  0
 17 36  1  0  0  0  0
 18 19  1  0  0  0  0
 18 37  1  0  0  0  0
 18 38  1  0  0  0  0
 19 20  1  0  0  0  0
 19 39  1  0  0  0  0
 19 40  1  0  0  0  0
 20 21  1  0  0  0  0
 20 41  1  0  0  0  0
 20 42  1  0  0  0  0
 21 22  1  0  0  0  0
 21 43  1  0  0  0  0
 22 44  1  0  0  0  0
M  END
> <s_m_source_file>
AV-unprocessed.smi

> <i_m_source_file_index>
763

> <i_lp_mmshare_version>
43012

> <i_f3d_flags>
0

> <s_epik_input>
W0NIM11PW0NIMl1bQ0gyXU9jMW5bY0hdW2NIXVtjSF1jMVtOSF1TKD1PKSg9TylbQ0BASF0yW0NIMl1bQ0gyXVtDSDJdW0NIMl1bQ0BIXTJbT0hd

> <s_epik_cmdline>
J2VwaWtfcHl0aG9uJywgJy1waCcsICc3LjAnLCAnLXRuJywgJzgnLCAnLW1hJywgJzIwMCcsICctbWV0YWxfYmluZGluZycsICctaW1hZScsICc8aW5maWxlLm1hZT4nLCAnLW9tYWUnLCAnPG91dGZpbGUubWFlPic=

> <r_epik_Ionization_Penalty>
0.124685

> <r_epik_Ionization_Penalty_Charging>
0

> <r_epik_Ionization_Penalty_Neutral>
0.124685

> <r_epik_State_Penalty>
0.114154

> <r_epik_Charging_Adjusted_Penalty>
0.114154

> <i_epik_Tot_Q>
0

> <i_epik_Tot_abs_Q>
0

> <r_epik_Metal_State_Penalty>
0.443785

> <b_epik_Metal_Only>
0

> <s_lp_Force_Field>
OPLS_2005

> <r_lp_Energy>
7.3887

> <b_lp_Chiralities_Consistent>
1

> <s_lp_Variant>
AV-unprocessed.smi:763-2

> <Gold.Version>
5.8.1

> <Gold.Id.Protein>
6NUR|6NUR_protein|mol2

> <Gold.PLP.Fitness>
44.2275

> <Gold.PLP.PLP>
-39.3147

> <Gold.PLP.part.hbond>
-2.8182

> <Gold.PLP.part.metal>
0.0000

> <Gold.PLP.part.buried>
-7.0168

> <Gold.PLP.part.nonpolar>
-31.5415

> <Gold.PLP.part.repulsive>
1.3418

> <Gold.PLP.ligand.clash>
0.0000

> <Gold.PLP.ligand.torsion>
1.2596

> <Gold.PLP.Chemscore.Hbond>
2.0291

> <Gold.PLP.Chemscore.CHOScore>
0.0000

> <Gold.PLP.Chemscore.Metal>
0.0000

> <Gold.Chemscore.Hbonds>
donor molecule, donor type, donor heavy atom, donor atom, acceptor molecule, acceptor atom, score
      L1  H    22    44       P1  7949  1.00
      P1  H 10752 10765       L1    22  0.51

> <Gold.PLP.Chemscore.Internal.Correction>
1.3448

> <Gold.Rescore>
     Score         DG    S(hbond)    S(metal)    S(lipo)     H(rot)  DE(clash)    DE(int)     intcor
     11.15     -14.35       1.63        0.00      81.86       2.41       0.09       3.11       ----

> <Gold.Chemscore.Fitness>
11.1469

> <Gold.Chemscore.DG>
-14.3458

> <Gold.Chemscore.ZeroCoef>
-5.4800

> <Gold.Chemscore.Hbond>
1.6303

> <Gold.Chemscore.Metal>
0.0000

> <Gold.Chemscore.Lipo>
81.8644

> <Gold.Chemscore.Internal_Hbond>
0.0000

> <Gold.Chemscore.DEClash>
0.0868

> <Gold.Chemscore.DEInternal>
3.1121

> <Gold.Chemscore.Rot>
2.4052

> <Gold.Chemscore.Internal.Correction>
   9.000000E+99

> <Gold.Chemscore.Hbonds>
donor molecule, donor type, donor heavy atom, donor atom, acceptor molecule, acceptor atom, score
      L1  H    12    33       P1  7948  0.01
      L1  H    22    44       P1  7949  0.92
      P1  H 10752 10765       L1    22  0.10

> <Gold.Chemscore.Hbond.Weighted>
-5.4451

> <Gold.Chemscore.Metal.Weighted>
-0.0000

> <Gold.Chemscore.Lipo.Weighted>
-9.5781

> <Gold.Chemscore.Internal_Hbond.Weighted>
0.0000

> <Gold.Chemscore.DEClash.Weighted>
0.0868

> <Gold.Chemscore.DEInternal.Weighted>
3.1121

> <Gold.Chemscore.Rot.Weighted>
6.1574

> <Gold.Chemscore.Internal.Correction.Weighted>
   9.000000E+99

> <Gold.Protein.RotatedTorsions>
[ 6907 6896 6895 6894 ] final  -41.77 input  -60.11 | X-H torsion
[ 7974 7965 7964 7962 ] final  -42.44 input  175.53 | X-H torsion
[ 8008 7997 7996 7995 ] final   30.66 input   59.86 | X-H torsion
[ 10167 10162 10161 10158 ] final  -63.80 input  -65.29 | X-H torsion
[ 10718 10713 10712 10709 ] final -110.49 input   66.30 | X-H torsion
[ 10763 10752 10751 10750 ] final  151.87 input  -60.55 | X-H torsion
[ 11005 11000 10999 10996 ] final -115.56 input  -57.11 | X-H torsion

> <Gold.Protein.ActiveResidues>
 VAL166  LYS551  ARG553  GLY616  TRP617  ASP618  TYR619  PRO620  LYS621  CYS622 
 ASP623  PHE694  ASN695  SER759  ASP760  ASP761  ALA762  ILE779  LEU786  VAL792 
 PHE793  MET794  SER795  GLU796  ALA797  LYS798  CYS799  TRP800  GLU811  SER814 

> <Gold.Protein.RotatedAtoms>
  150.9629  134.9014  159.7740 H   0  0  0  0  0  0  0  0  0  0  0  0  # atno 6907 bound_to 6896
  152.5162  134.3648  159.9307 H   0  0  0  0  0  0  0  0  0  0  0  0  # atno 6908 bound_to 6896
  151.3660  133.3831  159.2729 H   0  0  0  0  0  0  0  0  0  0  0  0  # atno 6909 bound_to 6896
  146.0115  140.6958  142.9222 H   0  0  0  0  0  0  0  0  0  0  0  0  # atno 7974 bound_to 7965
  155.0940  140.3223  155.4566 H   0  0  0  0  0  0  0  0  0  0  0  0  # atno 8008 bound_to 7997
  156.2735  140.2073  156.6013 H   0  0  0  0  0  0  0  0  0  0  0  0  # atno 8009 bound_to 7997
  154.6881  140.0519  157.0323 H   0  0  0  0  0  0  0  0  0  0  0  0  # atno 8010 bound_to 7997
  140.5845  143.2332  151.6271 H   0  0  0  0  0  0  0  0  0  0  0  0  # atno 10167 bound_to 10162
  156.0594  130.5818  150.8244 H   0  0  0  0  0  0  0  0  0  0  0  0  # atno 10718 bound_to 10713
  154.1108  135.2839  155.3231 H   0  0  0  0  0  0  0  0  0  0  0  0  # atno 10763 bound_to 10752
  154.6491  135.5375  153.7883 H   0  0  0  0  0  0  0  0  0  0  0  0  # atno 10764 bound_to 10752
  153.0346  135.6505  154.1266 H   0  0  0  0  0  0  0  0  0  0  0  0  # atno 10765 bound_to 10752
  141.0480  133.9732  157.2885 H   0  0  0  0  0  0  0  0  0  0  0  0  # atno 11005 bound_to 11000
  144.6955  140.3407  143.7199 LP  0  0  0  0  0  0  0  0  0  0  0  0  # atno 17320 bound_to 7965
  145.7334  139.1743  143.2417 LP  0  0  0  0  0  0  0  0  0  0  0  0  # atno 17321 bound_to 7965
  139.5189  144.3269  152.0861 LP  0  0  0  0  0  0  0  0  0  0  0  0  # atno 17342 bound_to 10162
  140.2424  144.4256  150.6255 LP  0  0  0  0  0  0  0  0  0  0  0  0  # atno 17343 bound_to 10162
  157.5590  131.0945  150.9586 LP  0  0  0  0  0  0  0  0  0  0  0  0  # atno 17370 bound_to 10713
  156.9828  130.5533  149.5297 LP  0  0  0  0  0  0  0  0  0  0  0  0  # atno 17371 bound_to 10713
  139.9327  135.0199  156.8454 LP  0  0  0  0  0  0  0  0  0  0  0  0  # atno 17394 bound_to 11000
  140.6110  134.0082  155.7577 LP  0  0  0  0  0  0  0  0  0  0  0  0  # atno 17395 bound_to 11000

$$$$
