AV-unprocessed.smi:3277|AV-procd|sdf|12536|dock8
  -GOLD-   2272018453D 1   1.00000     0.00000
 Structure written by MMmdl.
 35 37  0  0  0  0  0  0  0  0  1 V2000
  150.1292  136.0872  157.6268 C   0  0  0  0  0  0  0  0  0  0  0  0
  150.9563  137.2262  157.2603 N   0  0  0  0  0  0  0  0  0  0  0  0
  151.4776  137.4197  156.0397 C   0  0  0  0  0  0  0  0  0  0  0  0
  151.3003  136.6465  155.0986 O   0  0  0  0  0  0  0  0  0  0  0  0
  152.3236  138.6795  155.8466 C   0  0  0  0  0  0  0  0  0  0  0  0
  151.5401  139.8478  156.3532 C   0  0  0  0  0  0  0  0  0  0  0  0
  151.8526  140.5205  157.4640 N   0  0  0  0  0  0  0  0  0  0  0  0
  150.9715  141.5752  157.7296 C   0  0  0  0  0  0  0  0  0  0  0  0
  151.1521  142.4504  158.9423 C   0  0  2  0  0  0  0  0  0  0  0  0
  150.2078  143.6699  159.0154 C   0  0  0  0  0  0  0  0  0  0  0  0
  151.1789  144.8257  159.3264 C   0  0  1  0  0  0  0  0  0  0  0  0
  151.7709  144.6511  160.7394 C   0  0  0  0  0  0  0  0  0  0  0  0
  152.7630  143.4844  160.5550 C   0  0  0  0  0  0  0  0  0  0  0  0
  152.5518  143.0948  159.0790 C   0  0  2  0  0  0  0  0  0  0  0  0
  152.3689  144.4718  158.4437 C   0  0  0  0  0  0  0  0  0  0  0  0
  149.9810  141.6931  156.7861 C   0  0  0  0  0  0  0  0  0  0  0  0
  150.1198  140.4891  155.5351 S   0  0  0  0  0  0  0  0  0  0  0  0
  149.8798  136.1343  158.6867 H   0  0  0  0  0  0  0  0  0  0  0  0
  150.6531  135.1489  157.4414 H   0  0  0  0  0  0  0  0  0  0  0  0
  149.1992  136.0864  157.0575 H   0  0  0  0  0  0  0  0  0  0  0  0
  151.1482  137.9086  157.9793 H   0  0  0  0  0  0  0  0  0  0  0  0
  153.2623  138.5949  156.3957 H   0  0  0  0  0  0  0  0  0  0  0  0
  152.5667  138.8261  154.7936 H   0  0  0  0  0  0  0  0  0  0  0  0
  150.9728  141.8293  159.8215 H   0  0  0  0  0  0  0  0  0  0  0  0
  149.7133  143.8506  158.0600 H   0  0  0  0  0  0  0  0  0  0  0  0
  149.4313  143.5530  159.7719 H   0  0  0  0  0  0  0  0  0  0  0  0
  150.7522  145.8131  159.1486 H   0  0  0  0  0  0  0  0  0  0  0  0
  152.2952  145.5526  161.0584 H   0  0  0  0  0  0  0  0  0  0  0  0
  151.0022  144.4299  161.4807 H   0  0  0  0  0  0  0  0  0  0  0  0
  153.7865  143.8236  160.7202 H   0  0  0  0  0  0  0  0  0  0  0  0
  152.5735  142.6597  161.2430 H   0  0  0  0  0  0  0  0  0  0  0  0
  153.3650  142.4912  158.6745 H   0  0  0  0  0  0  0  0  0  0  0  0
  152.1245  144.4394  157.3814 H   0  0  0  0  0  0  0  0  0  0  0  0
  153.2259  145.1324  158.5875 H   0  0  0  0  0  0  0  0  0  0  0  0
  149.1792  142.4159  156.7510 H   0  0  0  0  0  0  0  0  0  0  0  0
  1  2  1  0  0  0  0
  1 18  1  0  0  0  0
  1 19  1  0  0  0  0
  1 20  1  0  0  0  0
  2  3  1  0  0  0  0
  2 21  1  0  0  0  0
  3  4  2  0  0  0  0
  3  5  1  0  0  0  0
  5  6  1  0  0  0  0
  5 22  1  0  0  0  0
  5 23  1  0  0  0  0
  6 17  1  0  0  0  0
  6  7  2  0  0  0  0
  7  8  1  0  0  0  0
  8  9  1  0  0  0  0
  8 16  2  0  0  0  0
  9 14  1  0  0  0  0
  9 10  1  0  0  0  0
  9 24  1  0  0  0  0
 10 11  1  0  0  0  0
 10 25  1  0  0  0  0
 10 26  1  0  0  0  0
 11 15  1  0  0  0  0
 11 12  1  0  0  0  0
 11 27  1  0  0  0  0
 12 13  1  0  0  0  0
 12 28  1  0  0  0  0
 12 29  1  0  0  0  0
 13 14  1  0  0  0  0
 13 30  1  0  0  0  0
 13 31  1  0  0  0  0
 14 15  1  0  0  0  0
 14 32  1  0  0  0  0
 15 33  1  0  0  0  0
 15 34  1  0  0  0  0
 16 17  1  0  0  0  0
 16 35  1  0  0  0  0
M  END
> <s_m_source_file>
AV-unprocessed.smi

> <i_m_source_file_index>
3277

> <i_lp_mmshare_version>
43012

> <i_f3d_flags>
0

> <s_epik_input>
W0NIM11bTkhdQyg9TylbQ0gyXWMxbmMoW2NIXXMxKVtDQEhdKFtDSDJdW0NAQEhdMjMpW0NAQEhdKFtDSDJdMylbQ0gyXVtDSDJdMg==

> <s_epik_cmdline>
J2VwaWtfcHl0aG9uJywgJy1waCcsICc3LjAnLCAnLXRuJywgJzgnLCAnLW1hJywgJzIwMCcsICctbWV0YWxfYmluZGluZycsICctaW1hZScsICc8aW5maWxlLm1hZT4nLCAnLW9tYWUnLCAnPG91dGZpbGUubWFlPic=

> <r_lp_tautomer_probability>
1

> <r_epik_Ionization_Penalty>
8.50008e-05

> <r_epik_Ionization_Penalty_Charging>
0

> <r_epik_Ionization_Penalty_Neutral>
8.50008e-05

> <r_epik_State_Penalty>
-0

> <r_epik_Charging_Adjusted_Penalty>
0

> <i_epik_Tot_Q>
0

> <i_epik_Tot_abs_Q>
0

> <r_epik_Metal_State_Penalty>
-0

> <b_epik_Metal_Only>
0

> <s_lp_Force_Field>
OPLS_2005

> <r_lp_Energy>
44.9061

> <b_lp_Chiralities_Consistent>
1

> <s_lp_Variant>
AV-unprocessed.smi:3277-1

> <Gold.Version>
5.8.1

> <Gold.Id.Protein>
6NUR|6NUR_protein|mol2

> <Gold.PLP.Fitness>
45.2214

> <Gold.PLP.PLP>
-39.7530

> <Gold.PLP.part.hbond>
-1.1529

> <Gold.PLP.part.metal>
0.0000

> <Gold.PLP.part.buried>
-3.8349

> <Gold.PLP.part.nonpolar>
-35.7169

> <Gold.PLP.part.repulsive>
0.6769

> <Gold.PLP.ligand.clash>
0.0000

> <Gold.PLP.ligand.torsion>
0.2667

> <Gold.PLP.Chemscore.Hbond>
1.0000

> <Gold.PLP.Chemscore.CHOScore>
1.0000

> <Gold.PLP.Chemscore.Metal>
0.0000

> <Gold.Chemscore.Hbonds>
donor molecule, donor type, donor heavy atom, donor atom, acceptor molecule, acceptor atom, score
      P1  H 10752 10763       L1     4  1.00
      L1  C    16    35       P1  8028  0.92

> <Gold.PLP.Chemscore.Internal.Correction>
0.0017

> <Gold.Rescore>
     Score         DG    S(hbond)    S(metal)    S(lipo)     H(rot)  DE(clash)    DE(int)     intcor
     17.85     -19.83       0.99        0.00     125.36       1.41       1.44       0.54       ----

> <Gold.Chemscore.Fitness>
17.8494

> <Gold.Chemscore.DG>
-19.8341

> <Gold.Chemscore.ZeroCoef>
-5.4800

> <Gold.Chemscore.Hbond>
0.9886

> <Gold.Chemscore.Metal>
0.0000

> <Gold.Chemscore.Lipo>
125.3614

> <Gold.Chemscore.Internal_Hbond>
0.0000

> <Gold.Chemscore.DEClash>
1.4418

> <Gold.Chemscore.DEInternal>
0.5429

> <Gold.Chemscore.Rot>
1.4122

> <Gold.Chemscore.Internal.Correction>
   9.000000E+99

> <Gold.Chemscore.Hbonds>
donor molecule, donor type, donor heavy atom, donor atom, acceptor molecule, acceptor atom, score
      P1  H 10752 10763       L1     4  0.81

> <Gold.Chemscore.Hbond.Weighted>
-3.3019

> <Gold.Chemscore.Metal.Weighted>
-0.0000

> <Gold.Chemscore.Lipo.Weighted>
-14.6673

> <Gold.Chemscore.Internal_Hbond.Weighted>
0.0000

> <Gold.Chemscore.DEClash.Weighted>
1.4418

> <Gold.Chemscore.DEInternal.Weighted>
0.5429

> <Gold.Chemscore.Rot.Weighted>
3.6151

> <Gold.Chemscore.Internal.Correction.Weighted>
   9.000000E+99

> <Gold.Protein.RotatedTorsions>
[ 6907 6896 6895 6894 ] final   10.77 input  -60.11 | X-H torsion
[ 7974 7965 7964 7962 ] final  -62.61 input  175.53 | X-H torsion
[ 8008 7997 7996 7995 ] final   94.54 input   59.86 | X-H torsion
[ 10167 10162 10161 10158 ] final  -32.31 input  -65.29 | X-H torsion
[ 10718 10713 10712 10709 ] final  -21.35 input   66.30 | X-H torsion
[ 10763 10752 10751 10750 ] final   62.36 input  -60.55 | X-H torsion
[ 11005 11000 10999 10996 ] final  -99.95 input  -57.11 | X-H torsion

> <Gold.Protein.ActiveResidues>
 VAL166  LYS551  ARG553  GLY616  TRP617  ASP618  TYR619  PRO620  LYS621  CYS622 
 ASP623  PHE694  ASN695  SER759  ASP760  ASP761  ALA762  ILE779  LEU786  VAL792 
 PHE793  MET794  SER795  GLU796  ALA797  LYS798  CYS799  TRP800  GLU811  SER814 

> <Gold.Protein.RotatedAtoms>
  151.7436  135.0848  160.0319 H   0  0  0  0  0  0  0  0  0  0  0  0  # atno 6907 bound_to 6896
  152.3463  133.6121  159.5921 H   0  0  0  0  0  0  0  0  0  0  0  0  # atno 6908 bound_to 6896
  150.7511  133.9560  159.3542 H   0  0  0  0  0  0  0  0  0  0  0  0  # atno 6909 bound_to 6896
  145.7892  140.8719  143.0290 H   0  0  0  0  0  0  0  0  0  0  0  0  # atno 7974 bound_to 7965
  156.0591  140.3298  155.7440 H   0  0  0  0  0  0  0  0  0  0  0  0  # atno 8008 bound_to 7997
  155.5483  140.0608  157.2873 H   0  0  0  0  0  0  0  0  0  0  0  0  # atno 8009 bound_to 7997
  154.4472  140.1898  156.0649 H   0  0  0  0  0  0  0  0  0  0  0  0  # atno 8010 bound_to 7997
  140.7223  143.3704  151.1788 H   0  0  0  0  0  0  0  0  0  0  0  0  # atno 10167 bound_to 10162
  156.5193  130.4628  149.6605 H   0  0  0  0  0  0  0  0  0  0  0  0  # atno 10718 bound_to 10713
  152.9980  135.5468  154.6180 H   0  0  0  0  0  0  0  0  0  0  0  0  # atno 10763 bound_to 10752
  154.5486  135.2825  155.1032 H   0  0  0  0  0  0  0  0  0  0  0  0  # atno 10764 bound_to 10752
  154.2280  135.6438  153.5219 H   0  0  0  0  0  0  0  0  0  0  0  0  # atno 10765 bound_to 10752
  141.1289  133.8361  157.1039 H   0  0  0  0  0  0  0  0  0  0  0  0  # atno 11005 bound_to 11000
  144.6784  140.0099  143.7484 LP  0  0  0  0  0  0  0  0  0  0  0  0  # atno 17320 bound_to 7965
  145.9995  139.3079  143.0936 LP  0  0  0  0  0  0  0  0  0  0  0  0  # atno 17321 bound_to 7965
  139.7275  143.9126  152.3008 LP  0  0  0  0  0  0  0  0  0  0  0  0  # atno 17342 bound_to 10162
  139.8903  144.6969  150.8778 LP  0  0  0  0  0  0  0  0  0  0  0  0  # atno 17343 bound_to 10162
  156.3165  130.7257  151.2160 LP  0  0  0  0  0  0  0  0  0  0  0  0  # atno 17370 bound_to 10713
  157.7439  131.0467  150.4907 LP  0  0  0  0  0  0  0  0  0  0  0  0  # atno 17371 bound_to 10713
  140.0316  134.9898  157.0792 LP  0  0  0  0  0  0  0  0  0  0  0  0  # atno 17394 bound_to 11000
  140.4276  134.1815  155.7166 LP  0  0  0  0  0  0  0  0  0  0  0  0  # atno 17395 bound_to 11000

$$$$
