#       Name:                AV-unprocessed.smi:3036
#       Creating user name   scv26
#       Creation time:       Fri Mar 27 16:55:43 2020


#       File generated by GOLD software.
#

@<TRIPOS>MOLECULE
AV-unprocessed.smi:3036
    47    48     1
SMALL
NO_CHARGES


@<TRIPOS>ATOM
      1 ****        -3.3466  -0.8115   1.2634 C.3            1 S1                 0.0000
      2 ****        -2.9012  -0.3667  -0.1409 C.3            1 S1                 0.0000
      3 ****        -3.3372  -1.3922  -1.2071 C.3            1 S1                 0.0000
      4 ****        -3.0596  -0.9488  -2.5626 N.pl3          1 S1                 0.0000
      5 ****        -2.1606  -1.4727  -3.4679 C.2            1 S1                 0.0000
      6 ****        -2.2579  -0.7333  -4.6117 C.2            1 S1                 0.0000
      7 ****        -3.2608   0.2292  -4.3075 C.2            1 S1                 0.0000
      8 ****        -3.7415   0.0953  -3.0820 N.2            1 S1                 0.0000
      9 ****        -1.4487  -0.2323  -0.1813 N.3            1 S1                 0.0000
     10 ****        -1.0045   1.0381   0.3810 C.3            1 S1                 0.0000
     11 ****         0.5350   1.1397   0.3926 C.3            1 S1                 0.0000
     12 ****         1.2525   0.1357   1.3178 C.2            1 S1                 0.0000
     13 ****         0.5808  -0.5689   2.0734 O.2            1 S1                 0.0000
     14 ****         2.6050   0.0590   1.2802 N.am           1 S1                 0.0000
     15 ****         3.3785  -0.8574   2.1239 C.3            1 S1                 0.0000
     16 ****         4.2288  -0.0238   3.0989 C.3            1 S1                 0.0000
     17 ****         5.0764   0.8540   2.3624 O.3            1 S1                 0.0000
     18 ****         4.3552   1.7430   1.5133 C.3            1 S1                 0.0000
     19 ****         3.5006   0.9364   0.5184 C.3            1 S1                 0.0000
     20 ****        -4.4249  -0.9688   1.2954 H              1 S1                 0.0000
     21 ****        -3.1105  -0.0678   2.0240 H              1 S1                 0.0000
     22 ****        -2.8680  -1.7478   1.5538 H              1 S1                 0.0000
     23 ****        -3.3633   0.5931  -0.3769 H              1 S1                 0.0000
     24 ****        -2.8446  -2.3518  -1.0427 H              1 S1                 0.0000
     25 ****        -4.4096  -1.5784  -1.1313 H              1 S1                 0.0000
     26 ****        -1.5328  -2.3175  -3.2250 H              1 S1                 0.0000
     27 ****        -1.6997  -0.8616  -5.5271 H              1 S1                 0.0000
     28 ****        -3.6527   1.0146  -4.9369 H              1 S1                 0.0000
     29 ****        -1.1398  -0.2837  -1.1415 H              1 S1                 0.0000
     30 ****        -1.4178   1.8525  -0.2154 H              1 S1                 0.0000
     31 ****        -1.3851   1.1646   1.3942 H              1 S1                 0.0000
     32 ****         0.8959   1.0076  -0.6281 H              1 S1                 0.0000
     33 ****         0.8173   2.1465   0.7024 H              1 S1                 0.0000
     34 ****         2.7528  -1.5538   2.6834 H              1 S1                 0.0000
     35 ****         4.0225  -1.4721   1.4933 H              1 S1                 0.0000
     36 ****         3.5942   0.5501   3.7761 H              1 S1                 0.0000
     37 ****         4.8467  -0.6766   3.7156 H              1 S1                 0.0000
     38 ****         3.7303   2.4068   2.1132 H              1 S1                 0.0000
     39 ****         5.0662   2.3719   0.9773 H              1 S1                 0.0000
     40 ****         4.1428   0.3265  -0.1187 H              1 S1                 0.0000
     41 ****         2.9851   1.6240  -0.1492 H              1 S1                 0.0000
     42 ****        -4.4507   0.6441  -2.6395 LP             1 S1                 0.0000
     43 ****        -1.0572  -0.9726   0.3653 LP             1 S1                 0.0000
     44 ****        -0.4156  -0.4853   2.0810 LP             1 S1                 0.0000
     45 ****         1.0322  -1.2244   2.6789 LP             1 S1                 0.0000
     46 ****         5.6918   0.3036   1.7982 LP             1 S1                 0.0000
     47 ****         5.6127   1.3961   3.0093 LP             1 S1                 0.0000
@<TRIPOS>BOND
    1    1    2 1     
    2    1   20 1     
    3    1   21 1     
    4    1   22 1     
    5    2    3 1     
    6    2    9 1     
    7    2   23 1     
    8    3    4 1     
    9    3   24 1     
   10    3   25 1     
   11    4    8 1     
   12    4    5 1     
   13    5    6 2     
   14    5   26 1     
   15    6    7 1     
   16    6   27 1     
   17    7    8 2     
   18    7   28 1     
   19    9   10 1     
   20    9   29 1     
   21   10   11 1     
   22   10   30 1     
   23   10   31 1     
   24   11   12 1     
   25   11   32 1     
   26   11   33 1     
   27   12   13 2     
   28   12   14 am    
   29   14   19 1     
   30   14   15 1     
   31   15   16 1     
   32   15   34 1     
   33   15   35 1     
   34   16   17 1     
   35   16   36 1     
   36   16   37 1     
   37   17   18 1     
   38   18   19 1     
   39   18   38 1     
   40   18   39 1     
   41   19   40 1     
   42   19   41 1     
   43    8   42 1     
   44    9   43 1     
   45   13   44 1     
   46   13   45 1     
   47   17   46 1     
   48   17   47 1     
@<TRIPOS>SUBSTRUCTURE
      1 S1             1
@<TRIPOS>SET
LONE_PAIRS      STATIC     ATOMS    <user>   **** ""
6 42 43 44 45 46 47
DONOR_HYDROGENS      STATIC     ATOMS    <user>   **** ""
1 29
ATOM$BLUE        STATIC     ATOMS    COLORGROUP SYSTEM
6 42 43 44 45 46 47
ATOM$RED        STATIC     ATOMS    COLORGROUP SYSTEM
1 29
