#       Name:                AV-unprocessed.smi:1898
#       Creating user name   scv26
#       Creation time:       Fri Mar 27 09:44:25 2020


#       File generated by GOLD software.
#

@<TRIPOS>MOLECULE
AV-unprocessed.smi:1898
    54    55     1
SMALL
NO_CHARGES


@<TRIPOS>ATOM
      1 ****        -3.2043  -4.9844   3.1754 C.3            1 S1                 0.0000
      2 ****        -2.4650  -4.4023   2.0612 N.pl3          1 S1                -1.0000
      3 ****        -3.0409  -4.0514   0.8802 C.2            1 S1                 0.0000
      4 ****        -4.2163  -4.1192   0.5054 O.2            1 S1                 0.0000
      5 ****        -2.0069  -3.4656  -0.0884 C.3            1 S1                 0.0000
      6 ****        -2.3020  -2.0336  -0.3425 N.4            1 S1                 1.0000
      7 ****        -1.8199  -1.5849  -1.6730 C.3            1 S1                 0.0000
      8 ****        -2.2739  -0.1449  -1.9736 C.3            1 S1                 0.0000
      9 ****        -1.8376   0.8407  -0.8759 C.3            1 S1                 0.0000
     10 ****        -0.3934   1.0650  -0.9334 N.am           1 S1                 0.0000
     11 ****         0.2418   2.1537  -0.4762 C.2            1 S1                 0.0000
     12 ****        -0.3325   3.0934   0.0730 O.2            1 S1                 0.0000
     13 ****         1.5664   2.0636  -0.6836 N.am           1 S1                 0.0000
     14 ****         2.5847   3.0035  -0.3619 C.ar           1 S1                 0.0000
     15 ****         2.3468   4.3857  -0.1647 C.ar           1 S1                 0.0000
     16 ****         3.4326   5.2305   0.1302 C.ar           1 S1                 0.0000
     17 ****         4.7187   4.6662   0.2099 C.ar           1 S1                 0.0000
     18 ****         4.9632   3.3549   0.0109 N.ar           1 S1                 0.0000
     19 ****         3.9179   2.5382  -0.2740 C.ar           1 S1                 0.0000
     20 ****         4.1713   1.1956  -0.4828 O.3            1 S1                 0.0000
     21 ****         5.5158   0.7359  -0.3947 C.3            1 S1                 0.0000
     22 ****        -2.2805   0.3153   0.5039 C.3            1 S1                 0.0000
     23 ****        -1.8269  -1.1357   0.7442 C.3            1 S1                 0.0000
     24 ****        -2.5710  -5.1285   4.0504 H              1 S1                 0.0000
     25 ****        -3.6223  -5.9613   2.9314 H              1 S1                 0.0000
     26 ****        -4.0359  -4.3565   3.4969 H              1 S1                 0.0000
     27 ****        -0.9781  -3.5898   0.2573 H              1 S1                 0.0000
     28 ****        -2.0894  -4.0347  -1.0154 H              1 S1                 0.0000
     29 ****        -0.7320  -1.6594  -1.7110 H              1 S1                 0.0000
     30 ****        -2.2089  -2.2473  -2.4473 H              1 S1                 0.0000
     31 ****        -1.8920   0.1746  -2.9440 H              1 S1                 0.0000
     32 ****        -3.3615  -0.1272  -2.0564 H              1 S1                 0.0000
     33 ****        -2.3354   1.7937  -1.0645 H              1 S1                 0.0000
     34 ****         0.1627   0.3420  -1.3658 H              1 S1                 0.0000
     35 ****         1.8969   1.1918  -1.0709 H              1 S1                 0.0000
     36 ****         1.3618   4.8175  -0.2477 H              1 S1                 0.0000
     37 ****         3.2828   6.2885   0.2864 H              1 S1                 0.0000
     38 ****         5.5750   5.2854   0.4328 H              1 S1                 0.0000
     39 ****         5.5429  -0.3370  -0.5847 H              1 S1                 0.0000
     40 ****         5.9319   0.9060   0.5993 H              1 S1                 0.0000
     41 ****         6.1522   1.2191  -1.1375 H              1 S1                 0.0000
     42 ****        -1.9065   0.9613   1.2992 H              1 S1                 0.0000
     43 ****        -3.3685   0.3598   0.5689 H              1 S1                 0.0000
     44 ****        -2.2145  -1.4720   1.7061 H              1 S1                 0.0000
     45 ****        -0.7391  -1.1859   0.8113 H              1 S1                 0.0000
     46 ****        -3.3095  -1.9623  -0.3650 H              1 S1                 0.0000
     47 ****        -1.4824  -4.2532   2.1715 LP             1 S1                 0.0000
     48 ****        -4.9169  -4.4822   1.1198 LP             1 S1                 0.0000
     49 ****        -4.4671  -3.8110  -0.4123 LP             1 S1                 0.0000
     50 ****        -1.3244   3.0693   0.1975 LP             1 S1                 0.0000
     51 ****         0.1927   3.8812   0.3948 LP             1 S1                 0.0000
     52 ****         5.8934   2.9930   0.0719 LP             1 S1                 0.0000
     53 ****         3.8426   0.9725  -1.4005 LP             1 S1                 0.0000
     54 ****         3.6403   0.6863   0.1944 LP             1 S1                 0.0000
@<TRIPOS>BOND
    1    1    2 1     
    2    1   24 1     
    3    1   25 1     
    4    1   26 1     
    5    2    3 1     
    6    3    4 2     
    7    3    5 1     
    8    5    6 1     
    9    5   27 1     
   10    5   28 1     
   11    6   23 1     
   12    6    7 1     
   13    6   46 1     
   14    7    8 1     
   15    7   29 1     
   16    7   30 1     
   17    8    9 1     
   18    8   31 1     
   19    8   32 1     
   20    9   10 1     
   21    9   22 1     
   22    9   33 1     
   23   10   11 am    
   24   10   34 1     
   25   11   12 2     
   26   11   13 am    
   27   13   14 1     
   28   13   35 1     
   29   14   19 ar    
   30   14   15 ar    
   31   15   16 ar    
   32   15   36 1     
   33   16   17 ar    
   34   16   37 1     
   35   17   18 ar    
   36   17   38 1     
   37   18   19 ar    
   38   19   20 1     
   39   20   21 1     
   40   21   39 1     
   41   21   40 1     
   42   21   41 1     
   43   22   23 1     
   44   22   42 1     
   45   22   43 1     
   46   23   44 1     
   47   23   45 1     
   48    2   47 1     
   49    4   48 1     
   50    4   49 1     
   51   12   50 1     
   52   12   51 1     
   53   18   52 1     
   54   20   53 1     
   55   20   54 1     
@<TRIPOS>SUBSTRUCTURE
      1 S1             1
@<TRIPOS>SET
LONE_PAIRS      STATIC     ATOMS    <user>   **** ""
8 47 48 49 50 51 52 53 54
DONOR_HYDROGENS      STATIC     ATOMS    <user>   **** ""
3 46 34 35
ATOM$BLUE        STATIC     ATOMS    COLORGROUP SYSTEM
8 47 48 49 50 51 52 53 54
ATOM$RED        STATIC     ATOMS    COLORGROUP SYSTEM
3 46 34 35
