#       Name:                AV-unprocessed.smi:242
#       Creating user name   scv26
#       Creation time:       Thu Mar 26 20:46:35 2020


#       File generated by GOLD software.
#

@<TRIPOS>MOLECULE
AV-unprocessed.smi:242
    66    69     1
SMALL
NO_CHARGES


@<TRIPOS>ATOM
      1 ****        -6.6465  -1.2662  -1.0052 C.3            1 S1                 0.0000
      2 ****        -5.1387  -1.2930  -0.6918 C.3            1 S1                 0.0000
      3 ****        -4.9320  -1.3241   0.8350 C.3            1 S1                 0.0000
      4 ****        -4.4418  -0.1373  -1.3240 N.4            1 S1                 1.0000
      5 ****        -4.5187  -0.0882  -2.8069 C.3            1 S1                 0.0000
      6 ****        -3.1266   0.3056  -3.3177 C.3            1 S1                 0.0000
      7 ****        -2.4248   0.8838  -2.0903 C.3            1 S1                 0.0000
      8 ****        -0.9632   0.8503  -2.1742 N.3            1 S1                 0.0000
      9 ****        -0.3582   1.5657  -3.2918 C.3            1 S1                 0.0000
     10 ****        -0.3307   1.1359  -1.0142 C.ar           1 S1                 0.0000
     11 ****        -0.4916   2.3555  -0.4367 N.ar           1 S1                 0.0000
     12 ****         0.1415   2.6379   0.7065 C.ar           1 S1                 0.0000
     13 ****         0.9612   1.8627   1.4206 N.ar           1 S1                 0.0000
     14 ****         1.1203   0.6385   0.8398 C.ar           1 S1                 0.0000
     15 ****         0.5098   0.1950  -0.3657 C.ar           1 S1                 0.0000
     16 ****         0.8877  -1.1119  -0.6431 N.2            1 S1                 0.0000
     17 ****         1.6864  -1.4228   0.3417 C.2            1 S1                 0.0000
     18 ****         1.8939  -0.4255   1.2691 N.pl3          1 S1                 0.0000
     19 ****         2.7436  -0.4945   2.4480 C.3            1 S1                 0.0000
     20 ****         4.2034  -0.0394   2.1971 C.3            1 S1                 0.0000
     21 ****         4.1738   1.3279   1.8260 O.3            1 S1                 0.0000
     22 ****         5.0368  -0.1736   3.4873 C.3            1 S1                 0.0000
     23 ****         6.5311   0.1034   3.2448 C.3            1 S1                 0.0000
     24 ****         7.0240  -0.7515   2.2204 O.3            1 S1                 0.0000
     25 ****         6.3933  -0.5261   0.9656 C.3            1 S1                 0.0000
     26 ****         4.8891  -0.8355   1.0646 C.3            1 S1                 0.0000
     27 ****        -3.0144   0.0204  -0.9707 C.3            1 S1                 0.0000
     28 ****        -7.1579  -2.1074  -0.5362 H              1 S1                 0.0000
     29 ****        -6.8468  -1.3307  -2.0745 H              1 S1                 0.0000
     30 ****        -7.1105  -0.3513  -0.6350 H              1 S1                 0.0000
     31 ****        -4.7171  -2.2104  -1.1061 H              1 S1                 0.0000
     32 ****        -5.4893  -2.1454   1.2863 H              1 S1                 0.0000
     33 ****        -5.2732  -0.3995   1.3019 H              1 S1                 0.0000
     34 ****        -3.8860  -1.4707   1.1044 H              1 S1                 0.0000
     35 ****        -4.8140  -1.0452  -3.2390 H              1 S1                 0.0000
     36 ****        -5.2665   0.6514  -3.0944 H              1 S1                 0.0000
     37 ****        -2.6021  -0.5877  -3.6612 H              1 S1                 0.0000
     38 ****        -3.1686   1.0073  -4.1513 H              1 S1                 0.0000
     39 ****        -2.7531   1.9158  -1.9536 H              1 S1                 0.0000
     40 ****         0.7284   1.6061  -3.1988 H              1 S1                 0.0000
     41 ****        -0.7349   2.5876  -3.3484 H              1 S1                 0.0000
     42 ****        -0.5879   1.0642  -4.2318 H              1 S1                 0.0000
     43 ****        -0.0300   3.6271   1.1046 H              1 S1                 0.0000
     44 ****         2.1597  -2.3914   0.4135 H              1 S1                 0.0000
     45 ****         2.2882   0.1080   3.2353 H              1 S1                 0.0000
     46 ****         2.7309  -1.5238   2.8093 H              1 S1                 0.0000
     47 ****         5.0612   1.6225   1.6896 H              1 S1                 0.0000
     48 ****         4.6537   0.4925   4.2614 H              1 S1                 0.0000
     49 ****         4.9346  -1.1864   3.8797 H              1 S1                 0.0000
     50 ****         6.7005   1.1475   2.9774 H              1 S1                 0.0000
     51 ****         7.0967  -0.0828   4.1578 H              1 S1                 0.0000
     52 ****         6.5626   0.5011   0.6394 H              1 S1                 0.0000
     53 ****         6.8566  -1.1724   0.2200 H              1 S1                 0.0000
     54 ****         4.7660  -1.9031   1.2511 H              1 S1                 0.0000
     55 ****         4.4140  -0.6346   0.1037 H              1 S1                 0.0000
     56 ****        -2.8938   0.4772   0.0124 H              1 S1                 0.0000
     57 ****        -2.5295  -0.9578  -0.9564 H              1 S1                 0.0000
     58 ****        -4.8998   0.7004  -0.9943 H              1 S1                 0.0000
     59 ****        -0.8092  -0.1175  -2.3733 LP             1 S1                 0.0000
     60 ****        -1.0817   3.0396  -0.8655 LP             1 S1                 0.0000
     61 ****         1.4024   2.1437   2.2728 LP             1 S1                 0.0000
     62 ****         0.6122  -1.6822  -1.4170 LP             1 S1                 0.0000
     63 ****         3.7485   1.8655   2.5541 LP             1 S1                 0.0000
     64 ****         3.6492   1.4365   0.9816 LP             1 S1                 0.0000
     65 ****         6.8653  -1.7007   2.4921 LP             1 S1                 0.0000
     66 ****         8.0061  -0.5940   2.1175 LP             1 S1                 0.0000
@<TRIPOS>BOND
    1    1    2 1     
    2    1   28 1     
    3    1   29 1     
    4    1   30 1     
    5    2    3 1     
    6    2    4 1     
    7    2   31 1     
    8    3   32 1     
    9    3   33 1     
   10    3   34 1     
   11    4   27 1     
   12    4    5 1     
   13    4   58 1     
   14    5    6 1     
   15    5   35 1     
   16    5   36 1     
   17    6    7 1     
   18    6   37 1     
   19    6   38 1     
   20    7    8 1     
   21    7   27 1     
   22    7   39 1     
   23    8    9 1     
   24    8   10 1     
   25    9   40 1     
   26    9   41 1     
   27    9   42 1     
   28   10   15 ar    
   29   10   11 ar    
   30   11   12 ar    
   31   12   13 ar    
   32   12   43 1     
   33   13   14 ar    
   34   14   18 1     
   35   14   15 ar    
   36   15   16 1     
   37   16   17 2     
   38   17   18 1     
   39   17   44 1     
   40   18   19 1     
   41   19   20 1     
   42   19   45 1     
   43   19   46 1     
   44   20   26 1     
   45   20   21 1     
   46   20   22 1     
   47   21   47 1     
   48   22   23 1     
   49   22   48 1     
   50   22   49 1     
   51   23   24 1     
   52   23   50 1     
   53   23   51 1     
   54   24   25 1     
   55   25   26 1     
   56   25   52 1     
   57   25   53 1     
   58   26   54 1     
   59   26   55 1     
   60   27   56 1     
   61   27   57 1     
   62    8   59 1     
   63   11   60 1     
   64   13   61 1     
   65   16   62 1     
   66   21   63 1     
   67   21   64 1     
   68   24   65 1     
   69   24   66 1     
@<TRIPOS>SUBSTRUCTURE
      1 S1             1
@<TRIPOS>SET
LONE_PAIRS      STATIC     ATOMS    <user>   **** ""
8 59 60 61 62 63 64 65 66
DONOR_HYDROGENS      STATIC     ATOMS    <user>   **** ""
2 58 47
ATOM$BLUE        STATIC     ATOMS    COLORGROUP SYSTEM
8 59 60 61 62 63 64 65 66
ATOM$RED        STATIC     ATOMS    COLORGROUP SYSTEM
2 58 47
