AV-unprocessed.smi:1602|AV-procd|sdf|6439|dock4
  -GOLD-   22720 7 83D 1   1.00000     0.00000
 Structure written by MMmdl.
 36 37  0  0  0  0  0  0  0  0  1 V2000
  151.6178  140.6419  158.8373 C   0  0  0  0  0  0  0  0  0  0  0  0
  151.1929  141.4190  157.5851 C   0  0  2  0  0  0  0  0  0  0  0  0
  150.2899  142.6222  157.9181 C   0  0  0  0  0  0  0  0  0  0  0  0
  150.9315  143.5577  158.8250 N   0  0  0  0  0  0  0  0  0  0  0  0
  150.4322  144.7387  159.3325 C   0  0  0  0  0  0  0  0  0  0  0  0
  151.4032  145.2845  160.1219 C   0  0  0  0  0  0  0  0  0  0  0  0
  152.4728  144.3498  160.0359 C   0  0  0  0  0  0  0  0  0  0  0  0
  152.1862  143.3156  159.2617 N   0  0  0  0  0  0  0  0  0  0  0  0
  150.4994  140.5137  156.6653 N   0  0  0  0  0  0  0  0  0  0  0  0
  151.4048  139.2964  155.8469 S   0  0  0  0  0  0  0  0  0  0  0  0
  151.0655  139.3342  154.4161 O   0  0  0  0  0  0  0  0  0  0  0  0
  152.8017  139.3914  156.2976 O   0  0  0  0  0  0  0  0  0  0  0  0
  150.6815  137.8877  156.5448 N   0  0  0  0  0  0  0  0  0  0  0  0
  151.3317  136.5916  156.2772 C   0  0  0  0  0  0  0  0  0  0  0  0
  150.4679  135.4221  156.7759 C   0  0  0  0  0  0  0  0  0  0  0  0
  150.1440  135.6034  158.1456 O   0  0  0  0  0  0  0  0  0  0  0  0
  149.3751  136.7797  158.3433 C   0  0  0  0  0  0  0  0  0  0  0  0
  150.1845  138.0178  157.9243 C   0  0  0  0  0  0  0  0  0  0  0  0
  152.1663  141.2830  159.5277 H   0  0  0  0  0  0  0  0  0  0  0  0
  152.2680  139.8053  158.5784 H   0  0  0  0  0  0  0  0  0  0  0  0
  150.7540  140.2421  159.3696 H   0  0  0  0  0  0  0  0  0  0  0  0
  152.0972  141.7877  157.0982 H   0  0  0  0  0  0  0  0  0  0  0  0
  150.0077  143.1543  157.0086 H   0  0  0  0  0  0  0  0  0  0  0  0
  149.3624  142.2809  158.3803 H   0  0  0  0  0  0  0  0  0  0  0  0
  149.4417  145.0916  159.0859 H   0  0  0  0  0  0  0  0  0  0  0  0
  151.3579  146.2112  160.6743 H   0  0  0  0  0  0  0  0  0  0  0  0
  153.4424  144.3922  160.5095 H   0  0  0  0  0  0  0  0  0  0  0  0
  149.6254  140.1535  157.0473 H   0  0  0  0  0  0  0  0  0  0  0  0
  151.5189  136.4784  155.2100 H   0  0  0  0  0  0  0  0  0  0  0  0
  152.3028  136.5758  156.7734 H   0  0  0  0  0  0  0  0  0  0  0  0
  149.5563  135.3332  156.1826 H   0  0  0  0  0  0  0  0  0  0  0  0
  151.0102  134.4833  156.6634 H   0  0  0  0  0  0  0  0  0  0  0  0
  148.4421  136.7177  157.7807 H   0  0  0  0  0  0  0  0  0  0  0  0
  149.1039  136.8505  159.3969 H   0  0  0  0  0  0  0  0  0  0  0  0
  151.0352  138.1536  158.5931 H   0  0  0  0  0  0  0  0  0  0  0  0
  149.5639  138.9101  158.0098 H   0  0  0  0  0  0  0  0  0  0  0  0
  1  2  1  0  0  0  0
  1 19  1  0  0  0  0
  1 20  1  0  0  0  0
  1 21  1  0  0  0  0
  2  3  1  0  0  0  0
  2  9  1  0  0  0  0
  2 22  1  0  0  0  0
  3  4  1  0  0  0  0
  3 23  1  0  0  0  0
  3 24  1  0  0  0  0
  4  8  1  0  0  0  0
  4  5  1  0  0  0  0
  5  6  2  0  0  0  0
  5 25  1  0  0  0  0
  6  7  1  0  0  0  0
  6 26  1  0  0  0  0
  7  8  2  0  0  0  0
  7 27  1  0  0  0  0
  9 10  1  0  0  0  0
  9 28  1  0  0  0  0
 10 11  2  0  0  0  0
 10 12  2  0  0  0  0
 10 13  1  0  0  0  0
 13 18  1  0  0  0  0
 13 14  1  0  0  0  0
 14 15  1  0  0  0  0
 14 29  1  0  0  0  0
 14 30  1  0  0  0  0
 15 16  1  0  0  0  0
 15 31  1  0  0  0  0
 15 32  1  0  0  0  0
 16 17  1  0  0  0  0
 17 18  1  0  0  0  0
 17 33  1  0  0  0  0
 17 34  1  0  0  0  0
 18 35  1  0  0  0  0
 18 36  1  0  0  0  0
M  END
> <s_m_source_file>
AV-unprocessed.smi

> <i_m_source_file_index>
1602

> <i_lp_mmshare_version>
43012

> <i_f3d_flags>
0

> <s_epik_input>
bjFbY0hdW2NIXVtjSF1uMVtDSDJdW0NAQEhdKFtDSDNdKVtOSF1TKD1PKSg9TylOMltDSDJdW0NIMl1PW0NIMl1bQ0gyXTI=

> <s_epik_cmdline>
J2VwaWtfcHl0aG9uJywgJy1waCcsICc3LjAnLCAnLXRuJywgJzgnLCAnLW1hJywgJzIwMCcsICctbWV0YWxfYmluZGluZycsICctaW1hZScsICc8aW5maWxlLm1hZT4nLCAnLW9tYWUnLCAnPG91dGZpbGUubWFlPic=

> <r_lp_tautomer_probability>
1

> <r_epik_Ionization_Penalty>
0.114248

> <r_epik_Ionization_Penalty_Charging>
0

> <r_epik_Ionization_Penalty_Neutral>
0.114248

> <r_epik_State_Penalty>
0.103909

> <r_epik_Charging_Adjusted_Penalty>
0.103909

> <i_epik_Tot_Q>
0

> <i_epik_Tot_abs_Q>
0

> <r_epik_Metal_State_Penalty>
0.436178

> <b_epik_Metal_Only>
0

> <s_lp_Force_Field>
OPLS_2005

> <r_lp_Energy>
7.48288

> <b_lp_Chiralities_Consistent>
1

> <s_lp_Variant>
AV-unprocessed.smi:1602-1

> <Gold.Version>
5.8.1

> <Gold.Id.Protein>
6NUR|6NUR_protein|mol2

> <Gold.PLP.Fitness>
40.5512

> <Gold.PLP.PLP>
-29.7123

> <Gold.PLP.part.hbond>
-3.0000

> <Gold.PLP.part.metal>
0.0000

> <Gold.PLP.part.buried>
-6.6393

> <Gold.PLP.part.nonpolar>
-20.4093

> <Gold.PLP.part.repulsive>
0.1359

> <Gold.PLP.ligand.clash>
0.0000

> <Gold.PLP.ligand.torsion>
0.8231

> <Gold.PLP.Chemscore.Hbond>
2.9120

> <Gold.PLP.Chemscore.CHOScore>
1.0000

> <Gold.PLP.Chemscore.Metal>
0.0000

> <Gold.Chemscore.Hbonds>
donor molecule, donor type, donor heavy atom, donor atom, acceptor molecule, acceptor atom, score
      P1  H  6896  6909       L1    16  0.86
      P1  H  7989  7998       L1    11  1.00
      P1  H  7997  8010       L1    12  1.00
      L1  C     5    25       P1  8029  1.00

> <Gold.PLP.Chemscore.Internal.Correction>
0.7491

> <Gold.Rescore>
     Score         DG    S(hbond)    S(metal)    S(lipo)     H(rot)  DE(clash)    DE(int)     intcor
     15.26     -17.72       2.88        0.00      65.35       1.97       0.05       2.41       ----

> <Gold.Chemscore.Fitness>
15.2597

> <Gold.Chemscore.DG>
-17.7168

> <Gold.Chemscore.ZeroCoef>
-5.4800

> <Gold.Chemscore.Hbond>
2.8811

> <Gold.Chemscore.Metal>
0.0000

> <Gold.Chemscore.Lipo>
65.3456

> <Gold.Chemscore.Internal_Hbond>
0.0000

> <Gold.Chemscore.DEClash>
0.0489

> <Gold.Chemscore.DEInternal>
2.4082

> <Gold.Chemscore.Rot>
1.9654

> <Gold.Chemscore.Internal.Correction>
   9.000000E+99

> <Gold.Chemscore.Hbonds>
donor molecule, donor type, donor heavy atom, donor atom, acceptor molecule, acceptor atom, score
      P1  H  6896  6909       L1    16  0.83
      P1  H  7989  7998       L1    11  0.93
      P1  H  7997  8010       L1    12  1.00

> <Gold.Chemscore.Hbond.Weighted>
-9.6229

> <Gold.Chemscore.Metal.Weighted>
-0.0000

> <Gold.Chemscore.Lipo.Weighted>
-7.6454

> <Gold.Chemscore.Internal_Hbond.Weighted>
0.0000

> <Gold.Chemscore.DEClash.Weighted>
0.0489

> <Gold.Chemscore.DEInternal.Weighted>
2.4082

> <Gold.Chemscore.Rot.Weighted>
5.0315

> <Gold.Chemscore.Internal.Correction.Weighted>
   9.000000E+99

> <Gold.Protein.RotatedTorsions>
[ 6907 6896 6895 6894 ] final   52.44 input  -60.11 | X-H torsion
[ 7974 7965 7964 7962 ] final  -92.57 input  175.53 | X-H torsion
[ 8008 7997 7996 7995 ] final   80.22 input   59.86 | X-H torsion
[ 10167 10162 10161 10158 ] final  108.97 input  -65.29 | X-H torsion
[ 10718 10713 10712 10709 ] final -122.61 input   66.30 | X-H torsion
[ 10763 10752 10751 10750 ] final  179.05 input  -60.55 | X-H torsion
[ 11005 11000 10999 10996 ] final -120.87 input  -57.11 | X-H torsion

> <Gold.Protein.ActiveResidues>
 VAL166  LYS551  ARG553  GLY616  TRP617  ASP618  TYR619  PRO620  LYS621  CYS622 
 ASP623  PHE694  ASN695  SER759  ASP760  ASP761  ALA762  ILE779  LEU786  VAL792 
 PHE793  MET794  SER795  GLU796  ALA797  LYS798  CYS799  TRP800  GLU811  SER814 

> <Gold.Protein.RotatedAtoms>
  152.3233  134.7352  160.0307 H   0  0  0  0  0  0  0  0  0  0  0  0  # atno 6907 bound_to 6896
  151.7793  133.3343  159.3475 H   0  0  0  0  0  0  0  0  0  0  0  0  # atno 6908 bound_to 6896
  150.7382  134.5877  159.6016 H   0  0  0  0  0  0  0  0  0  0  0  0  # atno 6909 bound_to 6896
  145.3980  140.9535  143.2303 H   0  0  0  0  0  0  0  0  0  0  0  0  # atno 7974 bound_to 7965
  155.8805  140.3444  155.5884 H   0  0  0  0  0  0  0  0  0  0  0  0  # atno 8008 bound_to 7997
  155.7725  140.0847  157.2119 H   0  0  0  0  0  0  0  0  0  0  0  0  # atno 8009 bound_to 7997
  154.4024  140.1515  156.2946 H   0  0  0  0  0  0  0  0  0  0  0  0  # atno 8010 bound_to 7997
  139.6803  144.7119  151.1527 H   0  0  0  0  0  0  0  0  0  0  0  0  # atno 10167 bound_to 10162
  156.1433  130.6482  150.9804 H   0  0  0  0  0  0  0  0  0  0  0  0  # atno 10718 bound_to 10713
  154.5156  135.2791  155.1305 H   0  0  0  0  0  0  0  0  0  0  0  0  # atno 10763 bound_to 10752
  154.2883  135.6272  153.5378 H   0  0  0  0  0  0  0  0  0  0  0  0  # atno 10764 bound_to 10752
  152.9927  135.5668  154.5633 H   0  0  0  0  0  0  0  0  0  0  0  0  # atno 10765 bound_to 10752
  141.0112  134.0262  157.3411 H   0  0  0  0  0  0  0  0  0  0  0  0  # atno 11005 bound_to 11000
  144.8393  139.5498  143.6907 LP  0  0  0  0  0  0  0  0  0  0  0  0  # atno 17320 bound_to 7965
  146.2765  139.6767  142.9259 LP  0  0  0  0  0  0  0  0  0  0  0  0  # atno 17321 bound_to 7965
  140.7650  143.5709  150.8997 LP  0  0  0  0  0  0  0  0  0  0  0  0  # atno 17342 bound_to 10162
  139.9380  143.6415  152.3060 LP  0  0  0  0  0  0  0  0  0  0  0  0  # atno 17343 bound_to 10162
  157.6595  131.0883  150.7871 LP  0  0  0  0  0  0  0  0  0  0  0  0  # atno 17370 bound_to 10713
  156.7945  130.4901  149.5379 LP  0  0  0  0  0  0  0  0  0  0  0  0  # atno 17371 bound_to 10713
  139.9091  135.0186  156.7614 LP  0  0  0  0  0  0  0  0  0  0  0  0  # atno 17394 bound_to 11000
  140.6731  133.9542  155.7867 LP  0  0  0  0  0  0  0  0  0  0  0  0  # atno 17395 bound_to 11000

$$$$
