#       Name:                AV-unprocessed.smi:213
#       Creating user name   scv26
#       Creation time:       Thu Mar 26 20:00:01 2020


#       File generated by GOLD software.
#

@<TRIPOS>MOLECULE
AV-unprocessed.smi:213
    68    71     1
SMALL
NO_CHARGES


@<TRIPOS>ATOM
      1 ****        -4.3104  -0.3645  -0.8056 C.3            1 S1                 0.0000
      2 ****        -3.1371  -0.2628   0.1825 C.3            1 S1                 0.0000
      3 ****        -3.6221  -0.3908   1.6473 C.3            1 S1                 0.0000
      4 ****        -2.5122  -0.3539   2.6333 N.4            1 S1                 1.0000
      5 ****        -2.9556   0.0206   3.9953 C.3            1 S1                 0.0000
      6 ****        -1.7401   0.1403   4.9299 C.3            1 S1                 0.0000
      7 ****        -1.0242  -1.0890   4.9417 O.3            1 S1                 0.0000
      8 ****        -0.5275  -1.4304   3.6533 C.3            1 S1                 0.0000
      9 ****        -1.7017  -1.5957   2.6742 C.3            1 S1                 0.0000
     10 ****        -2.3434   0.9541  -0.0479 N.pl3          1 S1                 0.0000
     11 ****        -2.9606   2.2652   0.1501 C.3            1 S1                 0.0000
     12 ****        -1.0096   0.8615   0.1983 C.ar           1 S1                 0.0000
     13 ****        -0.4456   1.6772   1.1295 N.ar           1 S1                 0.0000
     14 ****         0.8521   1.5681   1.4267 C.ar           1 S1                 0.0000
     15 ****         1.7526   0.7217   0.9261 N.ar           1 S1                 0.0000
     16 ****         1.2007  -0.0874  -0.0221 C.ar           1 S1                 0.0000
     17 ****        -0.1601  -0.0854  -0.4414 C.ar           1 S1                 0.0000
     18 ****        -0.3539  -1.0528  -1.4201 N.2            1 S1                 0.0000
     19 ****         0.8219  -1.5983  -1.5677 C.2            1 S1                 0.0000
     20 ****         1.8168  -1.0721  -0.7749 N.pl3          1 S1                 0.0000
     21 ****         3.2090  -1.4918  -0.7444 C.3            1 S1                 0.0000
     22 ****         4.1683  -0.5827  -1.5472 C.3            1 S1                 0.0000
     23 ****         4.3680   0.6260  -0.8422 O.3            1 S1                 0.0000
     24 ****         3.7248  -0.3068  -3.0055 C.3            1 S1                 0.0000
     25 ****         2.7463   0.8486  -3.2689 C.3            1 S1                 0.0000
     26 ****         3.0663   1.2706  -4.6964 C.3            1 S1                 0.0000
     27 ****         4.3398   0.4976  -5.0504 C.3            1 S1                 0.0000
     28 ****         4.8445   0.0290  -3.8087 O.3            1 S1                 0.0000
     29 ****        -4.8210  -1.3223  -0.7033 H              1 S1                 0.0000
     30 ****        -3.9609  -0.2895  -1.8359 H              1 S1                 0.0000
     31 ****        -5.0528   0.4168  -0.6440 H              1 S1                 0.0000
     32 ****        -2.5166  -1.1318  -0.0255 H              1 S1                 0.0000
     33 ****        -4.3138   0.4261   1.8568 H              1 S1                 0.0000
     34 ****        -4.1932  -1.3106   1.7820 H              1 S1                 0.0000
     35 ****        -3.4881   0.9720   3.9649 H              1 S1                 0.0000
     36 ****        -3.6524  -0.7284   4.3747 H              1 S1                 0.0000
     37 ****        -1.0848   0.9537   4.6133 H              1 S1                 0.0000
     38 ****        -2.0667   0.3694   5.9444 H              1 S1                 0.0000
     39 ****         0.1678  -0.6660   3.3031 H              1 S1                 0.0000
     40 ****         0.0346  -2.3615   3.7260 H              1 S1                 0.0000
     41 ****        -2.3290  -2.4343   2.9804 H              1 S1                 0.0000
     42 ****        -1.3115  -1.8334   1.6854 H              1 S1                 0.0000
     43 ****        -2.3318   3.0562  -0.2607 H              1 S1                 0.0000
     44 ****        -3.1159   2.4672   1.2103 H              1 S1                 0.0000
     45 ****        -3.9250   2.3279  -0.3523 H              1 S1                 0.0000
     46 ****         1.2203   2.2510   2.1783 H              1 S1                 0.0000
     47 ****         0.9996  -2.3975  -2.2727 H              1 S1                 0.0000
     48 ****         3.5288  -1.5611   0.2963 H              1 S1                 0.0000
     49 ****         3.2593  -2.5060  -1.1425 H              1 S1                 0.0000
     50 ****         5.1332  -1.0903  -1.5769 H              1 S1                 0.0000
     51 ****         5.0039   1.1433  -1.3128 H              1 S1                 0.0000
     52 ****         3.3115  -1.2264  -3.4250 H              1 S1                 0.0000
     53 ****         1.7046   0.5518  -3.1525 H              1 S1                 0.0000
     54 ****         2.9226   1.6936  -2.6038 H              1 S1                 0.0000
     55 ****         2.2568   1.0252  -5.3847 H              1 S1                 0.0000
     56 ****         3.2326   2.3473  -4.7471 H              1 S1                 0.0000
     57 ****         4.1042  -0.3579  -5.6852 H              1 S1                 0.0000
     58 ****         5.0744   1.1136  -5.5694 H              1 S1                 0.0000
     59 ****        -1.8953   0.3873   2.3310 H              1 S1                 0.0000
     60 ****        -1.6360  -1.8156   5.2546 LP             1 S1                 0.0000
     61 ****        -0.2533  -1.0073   5.5734 LP             1 S1                 0.0000
     62 ****        -1.0060   2.3627   1.5944 LP             1 S1                 0.0000
     63 ****         2.7107   0.6851   1.2101 LP             1 S1                 0.0000
     64 ****        -1.2009  -1.2790  -1.9011 LP             1 S1                 0.0000
     65 ****         4.7069   0.4286   0.0777 LP             1 S1                 0.0000
     66 ****         3.5048   1.1270  -0.7790 LP             1 S1                 0.0000
     67 ****         5.4175  -0.7777  -3.9534 LP             1 S1                 0.0000
     68 ****         5.3830   0.7451  -3.3647 LP             1 S1                 0.0000
@<TRIPOS>BOND
    1    1    2 1     
    2    1   29 1     
    3    1   30 1     
    4    1   31 1     
    5    2    3 1     
    6    2   10 1     
    7    2   32 1     
    8    3    4 1     
    9    3   33 1     
   10    3   34 1     
   11    4    9 1     
   12    4    5 1     
   13    4   59 1     
   14    5    6 1     
   15    5   35 1     
   16    5   36 1     
   17    6    7 1     
   18    6   37 1     
   19    6   38 1     
   20    7    8 1     
   21    8    9 1     
   22    8   39 1     
   23    8   40 1     
   24    9   41 1     
   25    9   42 1     
   26   10   11 1     
   27   10   12 1     
   28   11   43 1     
   29   11   44 1     
   30   11   45 1     
   31   12   17 ar    
   32   12   13 ar    
   33   13   14 ar    
   34   14   15 ar    
   35   14   46 1     
   36   15   16 ar    
   37   16   20 1     
   38   16   17 ar    
   39   17   18 1     
   40   18   19 2     
   41   19   20 1     
   42   19   47 1     
   43   20   21 1     
   44   21   22 1     
   45   21   48 1     
   46   21   49 1     
   47   22   23 1     
   48   22   24 1     
   49   22   50 1     
   50   23   51 1     
   51   24   28 1     
   52   24   25 1     
   53   24   52 1     
   54   25   26 1     
   55   25   53 1     
   56   25   54 1     
   57   26   27 1     
   58   26   55 1     
   59   26   56 1     
   60   27   28 1     
   61   27   57 1     
   62   27   58 1     
   63    7   60 1     
   64    7   61 1     
   65   13   62 1     
   66   15   63 1     
   67   18   64 1     
   68   23   65 1     
   69   23   66 1     
   70   28   67 1     
   71   28   68 1     
@<TRIPOS>SUBSTRUCTURE
      1 S1             1
@<TRIPOS>SET
LONE_PAIRS      STATIC     ATOMS    <user>   **** ""
9 60 61 62 63 64 65 66 67 68
DONOR_HYDROGENS      STATIC     ATOMS    <user>   **** ""
2 59 51
ATOM$BLUE        STATIC     ATOMS    COLORGROUP SYSTEM
9 60 61 62 63 64 65 66 67 68
ATOM$RED        STATIC     ATOMS    COLORGROUP SYSTEM
2 59 51
