AV-unprocessed.smi:1648|AV-procd|sdf|6632|dock3
  -GOLD-   22720 7333D 1   1.00000     0.00000
 Structure written by MMmdl.
 41 41  0  0  0  0  0  0  0  0  1 V2000
  147.3101  132.3964  157.7821 C   0  0  0  0  0  0  0  0  0  0  0  0
  148.0808  133.2884  158.7573 C   0  0  0  0  0  0  0  0  0  0  0  0
  149.2996  133.3950  158.6426 O   0  0  0  0  0  0  0  0  0  0  0  0
  147.4116  133.9429  159.7227 N   0  0  0  0  0  0  0  0  0  0  0  0
  147.9623  134.8377  160.7460 C   0  0  1  0  0  0  0  0  0  0  0  0
  148.2776  136.2022  160.1002 C   0  0  0  0  0  0  0  0  0  0  0  0
  147.8327  137.2428  160.5866 O   0  0  0  0  0  0  0  0  0  0  0  0
  149.0502  136.1740  159.0023 N   0  0  0  0  0  0  0  0  0  0  0  0
  149.4248  137.3272  158.1854 C   0  0  2  0  0  0  0  0  0  0  0  0
  148.1483  137.9405  157.5940 C   0  0  0  0  0  0  0  0  0  0  0  0
  150.4200  136.9321  157.0722 C   0  0  0  0  0  0  0  0  0  0  0  0
  150.3979  137.8362  155.9358 N   0  0  0  0  0  0  0  0  0  0  0  0
  150.0023  137.5431  154.6368 C   0  0  0  0  0  0  0  0  0  0  0  0
  150.1601  138.6989  153.9063 C   0  0  0  0  0  0  0  0  0  0  0  0
  150.6705  139.7039  154.7242 N   0  0  0  0  0  0  0  0  0  0  0  0
  150.7940  139.1162  155.9069 C   0  0  0  0  0  0  0  0  0  0  0  0
  146.9081  135.0157  161.8791 C   0  0  0  0  0  0  0  0  0  0  0  0
  147.3792  135.9761  162.9902 C   0  0  0  0  0  0  0  0  0  0  0  0
  146.5102  133.6714  162.5216 C   0  0  0  0  0  0  0  0  0  0  0  0
  146.8007  131.5910  158.3113 H   0  0  0  0  0  0  0  0  0  0  0  0
  147.9901  131.9424  157.0605 H   0  0  0  0  0  0  0  0  0  0  0  0
  146.5720  132.9751  157.2269 H   0  0  0  0  0  0  0  0  0  0  0  0
  146.4098  133.8187  159.7436 H   0  0  0  0  0  0  0  0  0  0  0  0
  148.8702  134.4038  161.1685 H   0  0  0  0  0  0  0  0  0  0  0  0
  149.3781  135.2730  158.6857 H   0  0  0  0  0  0  0  0  0  0  0  0
  149.8796  138.0915  158.8185 H   0  0  0  0  0  0  0  0  0  0  0  0
  148.3759  138.8312  157.0075 H   0  0  0  0  0  0  0  0  0  0  0  0
  147.4527  138.2356  158.3805 H   0  0  0  0  0  0  0  0  0  0  0  0
  147.6339  137.2347  156.9407 H   0  0  0  0  0  0  0  0  0  0  0  0
  151.4358  136.8798  157.4672 H   0  0  0  0  0  0  0  0  0  0  0  0
  150.1816  135.9363  156.6968 H   0  0  0  0  0  0  0  0  0  0  0  0
  149.6418  136.5665  154.3496 H   0  0  0  0  0  0  0  0  0  0  0  0
  149.9547  138.8805  152.8617 H   0  0  0  0  0  0  0  0  0  0  0  0
  151.1809  139.6316  156.7737 H   0  0  0  0  0  0  0  0  0  0  0  0
  146.0014  135.4416  161.4448 H   0  0  0  0  0  0  0  0  0  0  0  0
  148.3021  135.6235  163.4517 H   0  0  0  0  0  0  0  0  0  0  0  0
  146.6292  136.0642  163.7766 H   0  0  0  0  0  0  0  0  0  0  0  0
  147.5597  136.9817  162.6156 H   0  0  0  0  0  0  0  0  0  0  0  0
  147.3787  133.1626  162.9413 H   0  0  0  0  0  0  0  0  0  0  0  0
  146.0422  132.9961  161.8053 H   0  0  0  0  0  0  0  0  0  0  0  0
  145.7922  133.8196  163.3288 H   0  0  0  0  0  0  0  0  0  0  0  0
  1  2  1  0  0  0  0
  1 20  1  0  0  0  0
  1 21  1  0  0  0  0
  1 22  1  0  0  0  0
  2  3  2  0  0  0  0
  2  4  1  0  0  0  0
  4  5  1  0  0  0  0
  4 23  1  0  0  0  0
  5  6  1  0  0  0  0
  5 17  1  0  0  0  0
  5 24  1  0  0  0  0
  6  7  2  0  0  0  0
  6  8  1  0  0  0  0
  8  9  1  0  0  0  0
  8 25  1  0  0  0  0
  9 10  1  0  0  0  0
  9 11  1  0  0  0  0
  9 26  1  0  0  0  0
 10 27  1  0  0  0  0
 10 28  1  0  0  0  0
 10 29  1  0  0  0  0
 11 12  1  0  0  0  0
 11 30  1  0  0  0  0
 11 31  1  0  0  0  0
 12 16  1  0  0  0  0
 12 13  1  0  0  0  0
 13 14  2  0  0  0  0
 13 32  1  0  0  0  0
 14 15  1  0  0  0  0
 14 33  1  0  0  0  0
 15 16  2  0  0  0  0
 16 34  1  0  0  0  0
 17 18  1  0  0  0  0
 17 19  1  0  0  0  0
 17 35  1  0  0  0  0
 18 36  1  0  0  0  0
 18 37  1  0  0  0  0
 18 38  1  0  0  0  0
 19 39  1  0  0  0  0
 19 40  1  0  0  0  0
 19 41  1  0  0  0  0
M  END
> <s_m_source_file>
AV-unprocessed.smi

> <i_m_source_file_index>
1648

> <i_lp_mmshare_version>
43012

> <i_f3d_flags>
0

> <s_epik_input>
W0NIM11DKD1PKVtOSF1bQ0BASF0oW0NIXShbQ0gzXSlbQ0gzXSlDKD1PKVtOSF1bQ0BIXShbQ0gzXSlbQ0gyXW4xW2NIXVtjSF1uW2NIXTE=

> <s_epik_cmdline>
J2VwaWtfcHl0aG9uJywgJy1waCcsICc3LjAnLCAnLXRuJywgJzgnLCAnLW1hJywgJzIwMCcsICctbWV0YWxfYmluZGluZycsICctaW1hZScsICc8aW5maWxlLm1hZT4nLCAnLW9tYWUnLCAnPG91dGZpbGUubWFlPic=

> <r_lp_tautomer_probability>
1

> <r_epik_Ionization_Penalty>
0.628885

> <r_epik_Ionization_Penalty_Charging>
0.628884

> <r_epik_Ionization_Penalty_Neutral>
4.35155e-07

> <r_epik_State_Penalty>
0.64556

> <r_epik_Charging_Adjusted_Penalty>
1.27444

> <i_epik_Tot_Q>
0

> <i_epik_Tot_abs_Q>
0

> <r_epik_Metal_State_Penalty>
0.30874

> <b_epik_Metal_Only>
0

> <s_lp_Force_Field>
OPLS_2005

> <r_lp_Energy>
9.77282

> <b_lp_Chiralities_Consistent>
1

> <s_lp_Variant>
AV-unprocessed.smi:1648-6

> <Gold.Version>
5.8.1

> <Gold.Id.Protein>
6NUR|6NUR_protein|mol2

> <Gold.PLP.Fitness>
42.4246

> <Gold.PLP.PLP>
-27.9465

> <Gold.PLP.part.hbond>
-4.0000

> <Gold.PLP.part.metal>
0.0000

> <Gold.PLP.part.buried>
-3.0366

> <Gold.PLP.part.nonpolar>
-21.4528

> <Gold.PLP.part.repulsive>
0.2514

> <Gold.PLP.ligand.clash>
0.0000

> <Gold.PLP.ligand.torsion>
0.6655

> <Gold.PLP.Chemscore.Hbond>
3.4080

> <Gold.PLP.Chemscore.CHOScore>
1.8386

> <Gold.PLP.Chemscore.Metal>
0.0000

> <Gold.Chemscore.Hbonds>
donor molecule, donor type, donor heavy atom, donor atom, acceptor molecule, acceptor atom, score
      P1  H  6896  6908       L1     3  1.00
      P1  H  6931  6943       L1     7  0.73
      P1  H  6934  6947       L1     7  0.83
      P1  H  7989  7998       L1    15  1.00
      L1  C    13    32       P1  7948  0.66
      L1  C    14    33       P1  7957  1.00

> <Gold.PLP.Chemscore.Internal.Correction>
0.0693

> <Gold.Rescore>
     Score         DG    S(hbond)    S(metal)    S(lipo)     H(rot)  DE(clash)    DE(int)     intcor
     10.53     -14.07       2.57        0.00      55.23       2.52       0.03       3.50       ----

> <Gold.Chemscore.Fitness>
10.5332

> <Gold.Chemscore.DG>
-14.0698

> <Gold.Chemscore.ZeroCoef>
-5.4800

> <Gold.Chemscore.Hbond>
2.5700

> <Gold.Chemscore.Metal>
0.0000

> <Gold.Chemscore.Lipo>
55.2259

> <Gold.Chemscore.Internal_Hbond>
0.0000

> <Gold.Chemscore.DEClash>
0.0318

> <Gold.Chemscore.DEInternal>
3.5048

> <Gold.Chemscore.Rot>
2.5216

> <Gold.Chemscore.Internal.Correction>
   9.000000E+99

> <Gold.Chemscore.Hbonds>
donor molecule, donor type, donor heavy atom, donor atom, acceptor molecule, acceptor atom, score
      P1  H  6896  6908       L1     3  0.99
      P1  H  6931  6943       L1     7  0.65
      P1  H  6934  6947       L1     7  0.83
      P1  H  7989  7998       L1    15  0.44

> <Gold.Chemscore.Hbond.Weighted>
-8.5837

> <Gold.Chemscore.Metal.Weighted>
-0.0000

> <Gold.Chemscore.Lipo.Weighted>
-6.4614

> <Gold.Chemscore.Internal_Hbond.Weighted>
0.0000

> <Gold.Chemscore.DEClash.Weighted>
0.0318

> <Gold.Chemscore.DEInternal.Weighted>
3.5048

> <Gold.Chemscore.Rot.Weighted>
6.4553

> <Gold.Chemscore.Internal.Correction.Weighted>
   9.000000E+99

> <Gold.Protein.RotatedTorsions>
[ 6907 6896 6895 6894 ] final  118.78 input  -60.11 | X-H torsion
[ 7974 7965 7964 7962 ] final  -42.60 input  175.53 | X-H torsion
[ 8008 7997 7996 7995 ] final  -65.59 input   59.86 | X-H torsion
[ 10167 10162 10161 10158 ] final  123.43 input  -65.29 | X-H torsion
[ 10718 10713 10712 10709 ] final  -84.08 input   66.30 | X-H torsion
[ 10763 10752 10751 10750 ] final  -58.03 input  -60.55 | X-H torsion
[ 11005 11000 10999 10996 ] final -157.58 input  -57.11 | X-H torsion

> <Gold.Protein.ActiveResidues>
 VAL166  LYS551  ARG553  GLY616  TRP617  ASP618  TYR619  PRO620  LYS621  CYS622 
 ASP623  PHE694  ASN695  SER759  ASP760  ASP761  ALA762  ILE779  LEU786  VAL792 
 PHE793  MET794  SER795  GLU796  ALA797  LYS798  CYS799  TRP800  GLU811  SER814 

> <Gold.Protein.RotatedAtoms>
  152.4519  133.7646  159.6765 H   0  0  0  0  0  0  0  0  0  0  0  0  # atno 6907 bound_to 6896
  150.8433  133.7891  159.3058 H   0  0  0  0  0  0  0  0  0  0  0  0  # atno 6908 bound_to 6896
  151.5509  135.1070  160.0001 H   0  0  0  0  0  0  0  0  0  0  0  0  # atno 6909 bound_to 6896
  146.0100  140.6975  142.9229 H   0  0  0  0  0  0  0  0  0  0  0  0  # atno 7974 bound_to 7965
  154.4681  140.0930  156.7073 H   0  0  0  0  0  0  0  0  0  0  0  0  # atno 8008 bound_to 7997
  155.4801  140.3467  155.4320 H   0  0  0  0  0  0  0  0  0  0  0  0  # atno 8009 bound_to 7997
  156.0991  140.1417  156.9479 H   0  0  0  0  0  0  0  0  0  0  0  0  # atno 8010 bound_to 7997
  139.5800  144.6981  151.3553 H   0  0  0  0  0  0  0  0  0  0  0  0  # atno 10167 bound_to 10162
  156.0010  130.4686  150.4355 H   0  0  0  0  0  0  0  0  0  0  0  0  # atno 10718 bound_to 10713
  154.2317  135.6359  153.5177 H   0  0  0  0  0  0  0  0  0  0  0  0  # atno 10763 bound_to 10752
  152.9948  135.5521  154.6006 H   0  0  0  0  0  0  0  0  0  0  0  0  # atno 10764 bound_to 10752
  154.5490  135.2900  155.1000 H   0  0  0  0  0  0  0  0  0  0  0  0  # atno 10765 bound_to 10752
  140.6631  134.4328  157.5234 H   0  0  0  0  0  0  0  0  0  0  0  0  # atno 11005 bound_to 11000
  144.6949  140.3382  143.7204 LP  0  0  0  0  0  0  0  0  0  0  0  0  # atno 17320 bound_to 7965
  145.7357  139.1749  143.2405 LP  0  0  0  0  0  0  0  0  0  0  0  0  # atno 17321 bound_to 7965
  140.7079  143.7466  150.7514 LP  0  0  0  0  0  0  0  0  0  0  0  0  # atno 17342 bound_to 10162
  140.0996  143.4800  152.2433 LP  0  0  0  0  0  0  0  0  0  0  0  0  # atno 17343 bound_to 10162
  157.2400  131.0523  151.2442 LP  0  0  0  0  0  0  0  0  0  0  0  0  # atno 17370 bound_to 10713
  157.3629  130.7140  149.6513 LP  0  0  0  0  0  0  0  0  0  0  0  0  # atno 17371 bound_to 10713
  139.9006  134.8564  156.1911 LP  0  0  0  0  0  0  0  0  0  0  0  0  # atno 17394 bound_to 11000
  141.0450  133.6918  156.1667 LP  0  0  0  0  0  0  0  0  0  0  0  0  # atno 17395 bound_to 11000

$$$$
