#       Name:                AV-unprocessed.smi:3009
#       Creating user name   scv26
#       Creation time:       Fri Mar 27 16:38:31 2020


#       File generated by GOLD software.
#

@<TRIPOS>MOLECULE
AV-unprocessed.smi:3009
    49    50     1
SMALL
NO_CHARGES


@<TRIPOS>ATOM
      1 ****        -3.4492   2.6652   1.3315 C.3            1 S1                 0.0000
      2 ****        -3.9566   2.2942  -0.0719 C.3            1 S1                 0.0000
      3 ****        -5.4890   2.3847  -0.1286 C.3            1 S1                 0.0000
      4 ****        -3.4801   0.8898  -0.5022 C.3            1 S1                 0.0000
      5 ****        -2.0029   0.7813  -0.6193 N.4            1 S1                 1.0000
      6 ****        -1.4539   1.4281  -1.8368 C.3            1 S1                 0.0000
      7 ****         0.0768   1.2929  -1.8744 C.3            1 S1                 0.0000
      8 ****         0.4339  -0.0812  -1.8071 O.3            1 S1                 0.0000
      9 ****         0.0053  -0.6904  -0.5936 C.3            1 S1                 0.0000
     10 ****         0.5145  -2.1427  -0.5765 C.3            1 S1                 0.0000
     11 ****         1.9718  -2.2095  -0.5743 N.am           1 S1                 0.0000
     12 ****         2.7486  -2.0012   0.4977 C.2            1 S1                 0.0000
     13 ****         2.3067  -1.7177   1.6114 O.2            1 S1                 0.0000
     14 ****         4.0491  -2.1353   0.1919 N.am           1 S1                 0.0000
     15 ****         5.1570  -2.0117   1.0677 C.2            1 S1                 0.0000
     16 ****         6.5169  -2.1399   0.6747 C.2            1 S1                 0.0000
     17 ****         7.3351  -1.9791   1.7047 N.2            1 S1                 0.0000
     18 ****         6.5104  -1.7519   2.7519 N.pl3          1 S1                 0.0000
     19 ****         5.1758  -1.7634   2.4116 C.2            1 S1                 0.0000
     20 ****        -1.5327  -0.6217  -0.5233 C.3            1 S1                 0.0000
     21 ****         6.8693  -1.5926   3.6825 H              1 S1                 0.0000
     22 ****        -3.7997   1.9543   2.0804 H              1 S1                 0.0000
     23 ****        -3.7992   3.6549   1.6260 H              1 S1                 0.0000
     24 ****        -2.3600   2.6818   1.3715 H              1 S1                 0.0000
     25 ****        -3.5748   3.0347  -0.7736 H              1 S1                 0.0000
     26 ****        -5.9549   1.6726   0.5533 H              1 S1                 0.0000
     27 ****        -5.8585   2.1748  -1.1328 H              1 S1                 0.0000
     28 ****        -5.8349   3.3820   0.1447 H              1 S1                 0.0000
     29 ****        -3.8383   0.1687   0.2343 H              1 S1                 0.0000
     30 ****        -3.9353   0.6031  -1.4516 H              1 S1                 0.0000
     31 ****        -1.8883   0.9659  -2.7247 H              1 S1                 0.0000
     32 ****        -1.7196   2.4840  -1.8641 H              1 S1                 0.0000
     33 ****         0.4678   1.7136  -2.8009 H              1 S1                 0.0000
     34 ****         0.5396   1.8444  -1.0544 H              1 S1                 0.0000
     35 ****         0.4281  -0.1483   0.2546 H              1 S1                 0.0000
     36 ****         0.1241  -2.6723   0.2941 H              1 S1                 0.0000
     37 ****         0.1484  -2.6785  -1.4526 H              1 S1                 0.0000
     38 ****         2.4191  -2.4338  -1.4513 H              1 S1                 0.0000
     39 ****         4.2713  -2.3567  -0.7676 H              1 S1                 0.0000
     40 ****         6.9292  -2.3397  -0.3035 H              1 S1                 0.0000
     41 ****         4.3930  -1.5999   3.1373 H              1 S1                 0.0000
     42 ****        -1.8742  -1.0577   0.4165 H              1 S1                 0.0000
     43 ****        -1.9752  -1.2093  -1.3295 H              1 S1                 0.0000
     44 ****        -1.6133   1.2652   0.1773 H              1 S1                 0.0000
     45 ****         1.4287  -0.1588  -1.8724 LP             1 S1                 0.0000
     46 ****         0.0109  -0.5617  -2.5754 LP             1 S1                 0.0000
     47 ****         1.3202  -1.6322   1.7509 LP             1 S1                 0.0000
     48 ****         2.9343  -1.5730   2.3763 LP             1 S1                 0.0000
     49 ****         8.3343  -2.0172   1.7069 LP             1 S1                 0.0000
@<TRIPOS>BOND
    1    1    2 1     
    2    1   22 1     
    3    1   23 1     
    4    1   24 1     
    5    2    3 1     
    6    2    4 1     
    7    2   25 1     
    8    3   26 1     
    9    3   27 1     
   10    3   28 1     
   11    4    5 1     
   12    4   29 1     
   13    4   30 1     
   14    5   20 1     
   15    5    6 1     
   16    5   44 1     
   17    6    7 1     
   18    6   31 1     
   19    6   32 1     
   20    7    8 1     
   21    7   33 1     
   22    7   34 1     
   23    8    9 1     
   24    9   10 1     
   25    9   20 1     
   26    9   35 1     
   27   10   11 1     
   28   10   36 1     
   29   10   37 1     
   30   11   12 am    
   31   11   38 1     
   32   12   13 2     
   33   12   14 am    
   34   14   15 1     
   35   14   39 1     
   36   15   19 2     
   37   15   16 1     
   38   16   17 2     
   39   16   40 1     
   40   17   18 1     
   41   18   21 1     
   42   18   19 1     
   43   19   41 1     
   44   20   42 1     
   45   20   43 1     
   46    8   45 1     
   47    8   46 1     
   48   13   47 1     
   49   13   48 1     
   50   17   49 1     
@<TRIPOS>SUBSTRUCTURE
      1 S1             1
@<TRIPOS>SET
LONE_PAIRS      STATIC     ATOMS    <user>   **** ""
5 45 46 47 48 49
DONOR_HYDROGENS      STATIC     ATOMS    <user>   **** ""
4 44 38 39 21
ATOM$BLUE        STATIC     ATOMS    COLORGROUP SYSTEM
5 45 46 47 48 49
ATOM$RED        STATIC     ATOMS    COLORGROUP SYSTEM
4 44 38 39 21
