AV-unprocessed.smi:285|AV-procd|sdf|2165|dock5
  -GOLD-   2262021523D 1   1.00000     0.00000
 Structure written by MMmdl.
 31 33  0  0  0  0  0  0  0  0  1 V2000
  152.9049  142.2973  161.9883 N   0  0  0  0  0  0  0  0  0  0  0  0
  152.4992  142.6000  160.7473 C   0  0  0  0  0  0  0  0  0  0  0  0
  152.2618  143.8984  160.4478 N   0  0  0  0  0  0  0  0  0  0  0  0
  151.8557  144.2276  159.2174 C   0  0  0  0  0  0  0  0  0  0  0  0
  151.6309  143.4296  158.1702 N   0  0  0  0  0  0  0  0  0  0  0  0
  151.8687  142.1192  158.4727 C   0  0  0  0  0  0  0  0  0  0  0  0
  152.3077  141.6249  159.7361 C   0  0  0  0  0  0  0  0  0  0  0  0
  152.4551  140.2444  159.6870 N   0  0  0  0  0  0  0  0  0  0  0  0
  152.1155  139.9630  158.4600 C   0  0  0  0  0  0  0  0  0  0  0  0
  152.1558  138.1628  157.8393 Br  0  0  0  0  0  0  0  0  0  0  0  0
  151.7426  141.0144  157.6531 N   0  0  0  0  0  0  0  0  0  0  0  0
  151.2988  140.9939  156.2250 C   0  0  2  0  0  0  0  0  0  0  0  0
  149.7839  141.1702  156.1193 C   0  0  0  0  0  0  0  0  0  0  0  0
  149.4665  140.3310  154.8996 C   0  0  1  0  0  0  0  0  0  0  0  0
  149.6588  141.0770  153.7117 O   0  0  0  0  0  0  0  0  0  0  0  0
  150.4750  139.1799  155.0446 C   0  0  1  0  0  0  0  0  0  0  0  0
  150.8671  138.4289  153.7607 C   0  0  0  0  0  0  0  0  0  0  0  0
  151.5515  137.2358  154.0793 O   0  0  0  0  0  0  0  0  0  0  0  0
  151.6214  139.7540  155.6703 O   0  0  0  0  0  0  0  0  0  0  0  0
  153.0888  141.3359  162.2373 H   0  0  0  0  0  0  0  0  0  0  0  0
  153.0212  143.0300  162.6732 H   0  0  0  0  0  0  0  0  0  0  0  0
  151.6862  145.2806  159.0473 H   0  0  0  0  0  0  0  0  0  0  0  0
  151.8619  141.7772  155.7185 H   0  0  0  0  0  0  0  0  0  0  0  0
  149.2979  140.7480  157.0000 H   0  0  0  0  0  0  0  0  0  0  0  0
  149.5085  142.2220  156.0326 H   0  0  0  0  0  0  0  0  0  0  0  0
  148.4377  139.9698  154.9145 H   0  0  0  0  0  0  0  0  0  0  0  0
  149.3677  141.9630  153.8655 H   0  0  0  0  0  0  0  0  0  0  0  0
  150.0686  138.4628  155.7597 H   0  0  0  0  0  0  0  0  0  0  0  0
  149.9959  138.2030  153.1458 H   0  0  0  0  0  0  0  0  0  0  0  0
  151.5277  139.0510  153.1562 H   0  0  0  0  0  0  0  0  0  0  0  0
  151.5926  136.6972  153.3038 H   0  0  0  0  0  0  0  0  0  0  0  0
  1  2  1  0  0  0  0
  1 20  1  0  0  0  0
  1 21  1  0  0  0  0
  2  7  1  0  0  0  0
  2  3  2  0  0  0  0
  3  4  1  0  0  0  0
  4  5  2  0  0  0  0
  4 22  1  0  0  0  0
  5  6  1  0  0  0  0
  6 11  1  0  0  0  0
  6  7  2  0  0  0  0
  7  8  1  0  0  0  0
  8  9  2  0  0  0  0
  9 10  1  0  0  0  0
  9 11  1  0  0  0  0
 11 12  1  0  0  0  0
 12 19  1  0  0  0  0
 12 13  1  0  0  0  0
 12 23  1  0  0  0  0
 13 14  1  0  0  0  0
 13 24  1  0  0  0  0
 13 25  1  0  0  0  0
 14 15  1  0  0  0  0
 14 16  1  0  0  0  0
 14 26  1  0  0  0  0
 15 27  1  0  0  0  0
 16 17  1  0  0  0  0
 16 19  1  0  0  0  0
 16 28  1  0  0  0  0
 17 18  1  0  0  0  0
 17 29  1  0  0  0  0
 17 30  1  0  0  0  0
 18 31  1  0  0  0  0
M  END
> <s_m_source_file>
AV-unprocessed.smi

> <i_m_source_file_index>
285

> <i_lp_mmshare_version>
43012

> <i_f3d_flags>
0

> <s_epik_input>
bjFbY0hdbmMoW05IMl0pYyhjMTIpbmMoQnIpbjJbQ0BASF0zW0NIMl1bQ0BASF0oW09IXSlbQ0BIXShPMylbQ0gyXVtPSF0=

> <s_epik_cmdline>
J2VwaWtfcHl0aG9uJywgJy1waCcsICc3LjAnLCAnLXRuJywgJzgnLCAnLW1hJywgJzIwMCcsICctbWV0YWxfYmluZGluZycsICctaW1hZScsICc8aW5maWxlLm1hZT4nLCAnLW9tYWUnLCAnPG91dGZpbGUubWFlPic=

> <r_lp_tautomer_probability>
1

> <r_epik_Ionization_Penalty>
0.000103242

> <r_epik_Ionization_Penalty_Charging>
0

> <r_epik_Ionization_Penalty_Neutral>
0.000103242

> <r_epik_State_Penalty>
-0

> <r_epik_Charging_Adjusted_Penalty>
0

> <i_epik_Tot_Q>
0

> <i_epik_Tot_abs_Q>
0

> <r_epik_Metal_State_Penalty>
-0

> <b_epik_Metal_Only>
0

> <s_epik_Chemistry_Notes>
This compound contains an acetal/aminal-like group ( X-CH(R)-Y where X, Y are N, S, or O) that may be acid/base labile, releasing an aldehyde.

> <s_lp_Force_Field>
OPLS_2005

> <r_lp_Energy>
33.7508

> <b_lp_Chiralities_Consistent>
1

> <s_lp_Variant>
AV-unprocessed.smi:285-1

> <Gold.Version>
5.8.1

> <Gold.Id.Protein>
6NUR|6NUR_protein|mol2

> <Gold.PLP.Fitness>
40.3151

> <Gold.PLP.PLP>
-37.1964

> <Gold.PLP.part.hbond>
-5.0971

> <Gold.PLP.part.metal>
0.0000

> <Gold.PLP.part.buried>
-8.0390

> <Gold.PLP.part.nonpolar>
-23.6818

> <Gold.PLP.part.repulsive>
0.1667

> <Gold.PLP.ligand.clash>
0.0000

> <Gold.PLP.ligand.torsion>
0.4657

> <Gold.PLP.Chemscore.Hbond>
1.3489

> <Gold.PLP.Chemscore.CHOScore>
0.0000

> <Gold.PLP.Chemscore.Metal>
0.0000

> <Gold.Chemscore.Hbonds>
donor molecule, donor type, donor heavy atom, donor atom, acceptor molecule, acceptor atom, score
      L1  H    18    31       P1  7949  1.00
      P1  H  7989  7998       L1    15  0.30

> <Gold.PLP.Chemscore.Internal.Correction>
0.0032

> <Gold.Rescore>
     Score         DG    S(hbond)    S(metal)    S(lipo)     H(rot)  DE(clash)    DE(int)     intcor
      3.95      -5.63       0.95        0.00      41.12       3.06       0.05       1.63       ----

> <Gold.Chemscore.Fitness>
3.9470

> <Gold.Chemscore.DG>
-5.6281

> <Gold.Chemscore.ZeroCoef>
-5.4800

> <Gold.Chemscore.Hbond>
0.9499

> <Gold.Chemscore.Metal>
0.0000

> <Gold.Chemscore.Lipo>
41.1193

> <Gold.Chemscore.Internal_Hbond>
0.0000

> <Gold.Chemscore.DEClash>
0.0535

> <Gold.Chemscore.DEInternal>
1.6276

> <Gold.Chemscore.Rot>
3.0607

> <Gold.Chemscore.Internal.Correction>
   9.000000E+99

> <Gold.Chemscore.Hbonds>
donor molecule, donor type, donor heavy atom, donor atom, acceptor molecule, acceptor atom, score
      L1  H    18    31       P1  7949  0.91
      P1  H  7989  7998       L1    15  0.08

> <Gold.Chemscore.Hbond.Weighted>
-3.1725

> <Gold.Chemscore.Metal.Weighted>
-0.0000

> <Gold.Chemscore.Lipo.Weighted>
-4.8110

> <Gold.Chemscore.Internal_Hbond.Weighted>
0.0000

> <Gold.Chemscore.DEClash.Weighted>
0.0535

> <Gold.Chemscore.DEInternal.Weighted>
1.6276

> <Gold.Chemscore.Rot.Weighted>
7.8354

> <Gold.Chemscore.Internal.Correction.Weighted>
   9.000000E+99

> <Gold.Protein.RotatedTorsions>
[ 6907 6896 6895 6894 ] final   51.80 input  -60.11 | X-H torsion
[ 7974 7965 7964 7962 ] final  174.21 input  175.53 | X-H torsion
[ 8008 7997 7996 7995 ] final   71.99 input   59.86 | X-H torsion
[ 10167 10162 10161 10158 ] final  173.64 input  -65.29 | X-H torsion
[ 10718 10713 10712 10709 ] final  132.10 input   66.30 | X-H torsion
[ 10763 10752 10751 10750 ] final  172.12 input  -60.55 | X-H torsion
[ 11005 11000 10999 10996 ] final   64.94 input  -57.11 | X-H torsion

> <Gold.Protein.ActiveResidues>
 VAL166  LYS551  ARG553  GLY616  TRP617  ASP618  TYR619  PRO620  LYS621  CYS622 
 ASP623  PHE694  ASN695  SER759  ASP760  ASP761  ALA762  ILE779  LEU786  VAL792 
 PHE793  MET794  SER795  GLU796  ALA797  LYS798  CYS799  TRP800  GLU811  SER814 

> <Gold.Protein.RotatedAtoms>
  152.3166  134.7433  160.0323 H   0  0  0  0  0  0  0  0  0  0  0  0  # atno 6907 bound_to 6896
  151.7895  133.3352  159.3503 H   0  0  0  0  0  0  0  0  0  0  0  0  # atno 6908 bound_to 6896
  150.7347  134.5786  159.5971 H   0  0  0  0  0  0  0  0  0  0  0  0  # atno 6909 bound_to 6896
  144.7226  139.9763  143.6438 H   0  0  0  0  0  0  0  0  0  0  0  0  # atno 7974 bound_to 7965
  155.7621  140.3486  155.5203 H   0  0  0  0  0  0  0  0  0  0  0  0  # atno 8008 bound_to 7997
  155.8904  140.1017  157.1444 H   0  0  0  0  0  0  0  0  0  0  0  0  # atno 8009 bound_to 7997
  154.4033  140.1305  156.4295 H   0  0  0  0  0  0  0  0  0  0  0  0  # atno 8010 bound_to 7997
  139.5115  144.3238  152.0177 H   0  0  0  0  0  0  0  0  0  0  0  0  # atno 10167 bound_to 10162
  157.4904  131.1090  150.9564 H   0  0  0  0  0  0  0  0  0  0  0  0  # atno 10718 bound_to 10713
  154.4215  135.2758  155.1972 H   0  0  0  0  0  0  0  0  0  0  0  0  # atno 10763 bound_to 10752
  154.3915  135.6065  153.5850 H   0  0  0  0  0  0  0  0  0  0  0  0  # atno 10764 bound_to 10752
  152.9833  135.5904  154.4512 H   0  0  0  0  0  0  0  0  0  0  0  0  # atno 10765 bound_to 10752
  139.9926  134.6567  156.0064 H   0  0  0  0  0  0  0  0  0  0  0  0  # atno 11005 bound_to 11000
  146.0523  139.3523  143.0632 LP  0  0  0  0  0  0  0  0  0  0  0  0  # atno 17320 bound_to 7965
  145.8199  140.9684  143.0904 LP  0  0  0  0  0  0  0  0  0  0  0  0  # atno 17321 bound_to 7965
  140.2679  144.3996  150.6162 LP  0  0  0  0  0  0  0  0  0  0  0  0  # atno 17342 bound_to 10162
  140.6110  143.2169  151.6887 LP  0  0  0  0  0  0  0  0  0  0  0  0  # atno 17343 bound_to 10162
  157.0268  130.5695  149.5338 LP  0  0  0  0  0  0  0  0  0  0  0  0  # atno 17370 bound_to 10713
  156.0170  130.5264  150.8164 LP  0  0  0  0  0  0  0  0  0  0  0  0  # atno 17371 bound_to 10713
  141.1578  133.6541  156.4220 LP  0  0  0  0  0  0  0  0  0  0  0  0  # atno 17394 bound_to 11000
  140.4879  134.6603  157.5198 LP  0  0  0  0  0  0  0  0  0  0  0  0  # atno 17395 bound_to 11000

$$$$
