AV-unprocessed.smi:2729|AV-procd|sdf|10527|dock4
  -GOLD-   2272014573D 1   1.00000     0.00000
 Structure written by MMmdl.
 33 34  0  0  0  0  0  0  0  0  1 V2000
  149.2966  137.9330  157.6145 C   0  0  0  0  0  0  0  0  0  0  0  0
  150.0026  138.7471  156.5099 C   0  0  2  0  0  0  0  0  0  0  0  0
  150.0578  140.1697  156.8753 N   0  0  0  0  0  0  0  0  0  0  0  0
  150.7722  140.7533  157.8515 C   0  0  0  0  0  0  0  0  0  0  0  0
  151.5346  140.1464  158.6027 O   0  0  0  0  0  0  0  0  0  0  0  0
  150.5516  142.0786  157.8786 N   0  0  0  0  0  0  0  0  0  0  0  0
  151.0915  143.0471  158.7669 C   0  0  0  0  0  0  0  0  0  0  0  0
  152.2019  142.8185  159.6157 C   0  0  0  0  0  0  0  0  0  0  0  0
  152.6294  143.8540  160.4687 C   0  0  0  0  0  0  0  0  0  0  0  0
  151.9288  145.0754  160.4474 C   0  0  0  0  0  0  0  0  0  0  0  0
  150.8611  145.3026  159.6539 N   0  0  0  0  0  0  0  0  0  0  0  0
  150.4563  144.3050  158.8394 C   0  0  0  0  0  0  0  0  0  0  0  0
  149.3205  138.5511  155.1294 C   0  0  0  0  0  0  0  0  0  0  0  0
  150.2599  139.0366  154.0191 C   0  0  0  0  0  0  0  0  0  0  0  0
  151.9533  138.6967  154.6236 S   0  0  0  0  0  0  0  0  0  0  0  0
  152.4857  137.4977  153.9587 O   0  0  0  0  0  0  0  0  0  0  0  0
  152.7144  139.9553  154.6404 O   0  0  0  0  0  0  0  0  0  0  0  0
  151.4560  138.2620  156.3353 C   0  0  0  0  0  0  0  0  0  0  0  0
  149.3144  136.8659  157.3909 H   0  0  0  0  0  0  0  0  0  0  0  0
  148.2500  138.2157  157.7261 H   0  0  0  0  0  0  0  0  0  0  0  0
  149.7836  138.0727  158.5803 H   0  0  0  0  0  0  0  0  0  0  0  0
  149.4707  140.7786  156.3243 H   0  0  0  0  0  0  0  0  0  0  0  0
  149.9646  142.4464  157.1440 H   0  0  0  0  0  0  0  0  0  0  0  0
  152.7212  141.8733  159.6415 H   0  0  0  0  0  0  0  0  0  0  0  0
  153.4726  143.7131  161.1284 H   0  0  0  0  0  0  0  0  0  0  0  0
  152.2303  145.8897  161.0896 H   0  0  0  0  0  0  0  0  0  0  0  0
  149.5972  144.5219  158.2212 H   0  0  0  0  0  0  0  0  0  0  0  0
  149.1453  137.4851  154.9775 H   0  0  0  0  0  0  0  0  0  0  0  0
  148.3426  139.0267  155.0591 H   0  0  0  0  0  0  0  0  0  0  0  0
  150.0895  138.5346  153.0666 H   0  0  0  0  0  0  0  0  0  0  0  0
  150.1618  140.1122  153.8705 H   0  0  0  0  0  0  0  0  0  0  0  0
  152.1553  138.6932  157.0528 H   0  0  0  0  0  0  0  0  0  0  0  0
  151.5161  137.1762  156.4202 H   0  0  0  0  0  0  0  0  0  0  0  0
  1  2  1  0  0  0  0
  1 19  1  0  0  0  0
  1 20  1  0  0  0  0
  1 21  1  0  0  0  0
  2 18  1  0  0  0  0
  2  3  1  0  0  0  0
  2 13  1  0  0  0  0
  3  4  1  0  0  0  0
  3 22  1  0  0  0  0
  4  5  2  0  0  0  0
  4  6  1  0  0  0  0
  6  7  1  0  0  0  0
  6 23  1  0  0  0  0
  7 12  1  0  0  0  0
  7  8  2  0  0  0  0
  8  9  1  0  0  0  0
  8 24  1  0  0  0  0
  9 10  2  0  0  0  0
  9 25  1  0  0  0  0
 10 11  1  0  0  0  0
 10 26  1  0  0  0  0
 11 12  2  0  0  0  0
 12 27  1  0  0  0  0
 13 14  1  0  0  0  0
 13 28  1  0  0  0  0
 13 29  1  0  0  0  0
 14 15  1  0  0  0  0
 14 30  1  0  0  0  0
 14 31  1  0  0  0  0
 15 16  2  0  0  0  0
 15 17  2  0  0  0  0
 15 18  1  0  0  0  0
 18 32  1  0  0  0  0
 18 33  1  0  0  0  0
M  END
> <s_m_source_file>
AV-unprocessed.smi

> <i_m_source_file_index>
2729

> <i_lp_mmshare_version>
43012

> <i_f3d_flags>
0

> <s_epik_input>
Tz1TKD1PKShbQ0gyXTEpW0NIMl1bQ0gyXVtDQEBdMShbQ0gzXSlbTkhdQyg9TylbTkhdYzJbY0hdW2NIXVtjSF1uW2NIXTI=

> <s_epik_cmdline>
J2VwaWtfcHl0aG9uJywgJy1waCcsICc3LjAnLCAnLXRuJywgJzgnLCAnLW1hJywgJzIwMCcsICctbWV0YWxfYmluZGluZycsICctaW1hZScsICc8aW5maWxlLm1hZT4nLCAnLW9tYWUnLCAnPG91dGZpbGUubWFlPic=

> <r_epik_Ionization_Penalty>
0.00438887

> <r_epik_Ionization_Penalty_Charging>
0

> <r_epik_Ionization_Penalty_Neutral>
0.00438887

> <r_epik_State_Penalty>
0.00314315

> <r_epik_Charging_Adjusted_Penalty>
0.00314315

> <i_epik_Tot_Q>
0

> <i_epik_Tot_abs_Q>
0

> <r_epik_Metal_State_Penalty>
-0

> <b_epik_Metal_Only>
0

> <s_lp_Force_Field>
OPLS_2005

> <r_lp_Energy>
5.04322

> <b_lp_Chiralities_Consistent>
1

> <s_lp_Variant>
AV-unprocessed.smi:2729-2

> <Gold.Version>
5.8.1

> <Gold.Id.Protein>
6NUR|6NUR_protein|mol2

> <Gold.PLP.Fitness>
38.8213

> <Gold.PLP.PLP>
-29.2805

> <Gold.PLP.part.hbond>
-2.8457

> <Gold.PLP.part.metal>
0.0000

> <Gold.PLP.part.buried>
-6.4763

> <Gold.PLP.part.nonpolar>
-21.1095

> <Gold.PLP.part.repulsive>
0.4070

> <Gold.PLP.ligand.clash>
0.0000

> <Gold.PLP.ligand.torsion>
0.2063

> <Gold.PLP.Chemscore.Hbond>
2.1719

> <Gold.PLP.Chemscore.CHOScore>
1.1409

> <Gold.PLP.Chemscore.Metal>
0.0000

> <Gold.Chemscore.Hbonds>
donor molecule, donor type, donor heavy atom, donor atom, acceptor molecule, acceptor atom, score
      P1  H  7989  7998       L1    17  0.37
      P1  H  7997  8009       L1    17  0.71
      P1  H 10752 10765       L1    16  0.69
      L1  C    12    27       P1  8028  0.27
      L1  C    12    27       P1  8029  0.87

> <Gold.PLP.Chemscore.Internal.Correction>
0.0150

> <Gold.Rescore>
     Score         DG    S(hbond)    S(metal)    S(lipo)     H(rot)  DE(clash)    DE(int)     intcor
     14.86     -17.62       1.72        0.00      76.66       1.00       0.02       2.74       ----

> <Gold.Chemscore.Fitness>
14.8593

> <Gold.Chemscore.DG>
-17.6203

> <Gold.Chemscore.ZeroCoef>
-5.4800

> <Gold.Chemscore.Hbond>
1.7157

> <Gold.Chemscore.Metal>
0.0000

> <Gold.Chemscore.Lipo>
76.6637

> <Gold.Chemscore.Internal_Hbond>
0.0000

> <Gold.Chemscore.DEClash>
0.0183

> <Gold.Chemscore.DEInternal>
2.7426

> <Gold.Chemscore.Rot>
1.0000

> <Gold.Chemscore.Internal.Correction>
   9.000000E+99

> <Gold.Chemscore.Hbonds>
donor molecule, donor type, donor heavy atom, donor atom, acceptor molecule, acceptor atom, score
      P1  H  7989  7998       L1    17  0.08
      P1  H  7997  8009       L1    17  0.70
      P1  H 10752 10765       L1    16  0.70

> <Gold.Chemscore.Hbond.Weighted>
-5.7306

> <Gold.Chemscore.Metal.Weighted>
-0.0000

> <Gold.Chemscore.Lipo.Weighted>
-8.9697

> <Gold.Chemscore.Internal_Hbond.Weighted>
0.0000

> <Gold.Chemscore.DEClash.Weighted>
0.0183

> <Gold.Chemscore.DEInternal.Weighted>
2.7426

> <Gold.Chemscore.Rot.Weighted>
2.5600

> <Gold.Chemscore.Internal.Correction.Weighted>
   9.000000E+99

> <Gold.Protein.RotatedTorsions>
[ 6907 6896 6895 6894 ] final  -55.05 input  -60.11 | X-H torsion
[ 7974 7965 7964 7962 ] final   64.28 input  175.53 | X-H torsion
[ 8008 7997 7996 7995 ] final -133.86 input   59.86 | X-H torsion
[ 10167 10162 10161 10158 ] final  -63.49 input  -65.29 | X-H torsion
[ 10718 10713 10712 10709 ] final    4.09 input   66.30 | X-H torsion
[ 10763 10752 10751 10750 ] final  156.43 input  -60.55 | X-H torsion
[ 11005 11000 10999 10996 ] final -178.98 input  -57.11 | X-H torsion

> <Gold.Protein.ActiveResidues>
 VAL166  LYS551  ARG553  GLY616  TRP617  ASP618  TYR619  PRO620  LYS621  CYS622 
 ASP623  PHE694  ASN695  SER759  ASP760  ASP761  ALA762  ILE779  LEU786  VAL792 
 PHE793  MET794  SER795  GLU796  ALA797  LYS798  CYS799  TRP800  GLU811  SER814 

> <Gold.Protein.RotatedAtoms>
  150.8285  134.7527  159.6832 H   0  0  0  0  0  0  0  0  0  0  0  0  # atno 6907 bound_to 6896
  152.4392  134.5621  159.9907 H   0  0  0  0  0  0  0  0  0  0  0  0  # atno 6908 bound_to 6896
  151.5788  133.3343  159.3040 H   0  0  0  0  0  0  0  0  0  0  0  0  # atno 6909 bound_to 6896
  145.8521  139.3260  143.0869 H   0  0  0  0  0  0  0  0  0  0  0  0  # atno 7974 bound_to 7965
  155.3525  140.0478  157.3046 H   0  0  0  0  0  0  0  0  0  0  0  0  # atno 8008 bound_to 7997
  154.5219  140.2228  155.8924 H   0  0  0  0  0  0  0  0  0  0  0  0  # atno 8009 bound_to 7997
  156.1699  140.3098  155.8961 H   0  0  0  0  0  0  0  0  0  0  0  0  # atno 8010 bound_to 7997
  140.5867  143.2335  151.6228 H   0  0  0  0  0  0  0  0  0  0  0  0  # atno 10167 bound_to 10162
  156.8874  130.5675  149.5651 H   0  0  0  0  0  0  0  0  0  0  0  0  # atno 10718 bound_to 10713
  154.1843  135.2798  155.3042 H   0  0  0  0  0  0  0  0  0  0  0  0  # atno 10763 bound_to 10752
  154.5979  135.5539  153.7347 H   0  0  0  0  0  0  0  0  0  0  0  0  # atno 10764 bound_to 10752
  153.0129  135.6384  154.1981 H   0  0  0  0  0  0  0  0  0  0  0  0  # atno 10765 bound_to 10752
  140.4237  134.6582  157.4677 H   0  0  0  0  0  0  0  0  0  0  0  0  # atno 11005 bound_to 11000
  145.9346  140.9024  143.0339 LP  0  0  0  0  0  0  0  0  0  0  0  0  # atno 17320 bound_to 7965
  144.6729  140.1465  143.7433 LP  0  0  0  0  0  0  0  0  0  0  0  0  # atno 17321 bound_to 7965
  139.5202  144.3231  152.0893 LP  0  0  0  0  0  0  0  0  0  0  0  0  # atno 17342 bound_to 10162
  140.2389  144.4290  150.6268 LP  0  0  0  0  0  0  0  0  0  0  0  0  # atno 17343 bound_to 10162
  156.0646  130.5692  150.9262 LP  0  0  0  0  0  0  0  0  0  0  0  0  # atno 17370 bound_to 10713
  157.6104  131.0936  150.8805 LP  0  0  0  0  0  0  0  0  0  0  0  0  # atno 17371 bound_to 10713
  140.0182  134.6587  155.9278 LP  0  0  0  0  0  0  0  0  0  0  0  0  # atno 17394 bound_to 11000
  141.1774  133.6542  156.4881 LP  0  0  0  0  0  0  0  0  0  0  0  0  # atno 17395 bound_to 11000

$$$$
