AV-unprocessed.smi:3228|AV-procd|sdf|12319|dock2
  -GOLD-   2272018163D 1   1.00000     0.00000
 Structure written by MMmdl.
 31 32  0  0  0  0  0  0  0  0  1 V2000
  145.2221  137.7413  153.4282 O   0  0  0  0  0  0  0  0  0  0  0  0
  146.3391  137.2950  153.1642 C   0  0  0  0  0  0  0  0  0  0  0  0
  146.5546  136.0358  152.7573 N   0  0  0  0  0  0  0  0  0  0  0  0
  145.5173  135.0266  152.5703 C   0  0  0  0  0  0  0  0  0  0  0  0
  145.6606  134.2869  151.2248 C   0  0  2  0  0  0  0  0  0  0  0  0
  144.3288  134.0386  150.4991 C   0  0  0  0  0  0  0  0  0  0  0  0
  144.5196  132.7605  149.6665 C   0  0  0  0  0  0  0  0  0  0  0  0
  145.9040  132.2094  150.0291 C   0  0  0  0  0  0  0  0  0  0  0  0
  146.2660  132.8856  151.3521 C   0  0  1  0  0  0  0  0  0  0  0  0
  147.6641  132.9211  151.5500 O   0  0  0  0  0  0  0  0  0  0  0  0
  147.4909  137.9842  153.2430 N   0  0  0  0  0  0  0  0  0  0  0  0
  147.6807  139.3361  153.6324 C   0  0  0  0  0  0  0  0  0  0  0  0
  146.7828  140.3102  153.4419 N   0  0  0  0  0  0  0  0  0  0  0  0
  147.2352  141.5416  153.9229 C   0  0  0  0  0  0  0  0  0  0  0  0
  148.4885  141.4863  154.4802 C   0  0  0  0  0  0  0  0  0  0  0  0
  149.1541  139.8758  154.4238 S   0  0  0  0  0  0  0  0  0  0  0  0
  147.5039  135.7531  152.5625 H   0  0  0  0  0  0  0  0  0  0  0  0
  145.5404  134.3155  153.3977 H   0  0  0  0  0  0  0  0  0  0  0  0
  144.5490  135.5251  152.6220 H   0  0  0  0  0  0  0  0  0  0  0  0
  146.2981  134.8717  150.5590 H   0  0  0  0  0  0  0  0  0  0  0  0
  143.5277  133.8794  151.2222 H   0  0  0  0  0  0  0  0  0  0  0  0
  144.0425  134.8907  149.8817 H   0  0  0  0  0  0  0  0  0  0  0  0
  143.7428  132.0360  149.9137 H   0  0  0  0  0  0  0  0  0  0  0  0
  144.4482  132.9621  148.5972 H   0  0  0  0  0  0  0  0  0  0  0  0
  145.9174  131.1212  150.0981 H   0  0  0  0  0  0  0  0  0  0  0  0
  146.6162  132.4989  149.2545 H   0  0  0  0  0  0  0  0  0  0  0  0
  145.7979  132.3473  152.1775 H   0  0  0  0  0  0  0  0  0  0  0  0
  148.0608  132.2505  151.0150 H   0  0  0  0  0  0  0  0  0  0  0  0
  148.3313  137.4832  152.9944 H   0  0  0  0  0  0  0  0  0  0  0  0
  146.5984  142.4088  153.8276 H   0  0  0  0  0  0  0  0  0  0  0  0
  149.0577  142.2922  154.9190 H   0  0  0  0  0  0  0  0  0  0  0  0
  1  2  2  0  0  0  0
  2  3  1  0  0  0  0
  2 11  1  0  0  0  0
  3  4  1  0  0  0  0
  3 17  1  0  0  0  0
  4  5  1  0  0  0  0
  4 18  1  0  0  0  0
  4 19  1  0  0  0  0
  5  9  1  0  0  0  0
  5  6  1  0  0  0  0
  5 20  1  0  0  0  0
  6  7  1  0  0  0  0
  6 21  1  0  0  0  0
  6 22  1  0  0  0  0
  7  8  1  0  0  0  0
  7 23  1  0  0  0  0
  7 24  1  0  0  0  0
  8  9  1  0  0  0  0
  8 25  1  0  0  0  0
  8 26  1  0  0  0  0
  9 10  1  0  0  0  0
  9 27  1  0  0  0  0
 10 28  1  0  0  0  0
 11 12  1  0  0  0  0
 11 29  1  0  0  0  0
 12 16  1  0  0  0  0
 12 13  2  0  0  0  0
 13 14  1  0  0  0  0
 14 15  2  0  0  0  0
 14 30  1  0  0  0  0
 15 16  1  0  0  0  0
 15 31  1  0  0  0  0
M  END
> <s_m_source_file>
AV-unprocessed.smi

> <i_m_source_file_index>
3228

> <i_lp_mmshare_version>
43012

> <i_f3d_flags>
0

> <s_epik_input>
czFbY0hdW2NIXW5jMVtOSF1DKD1PKVtOSF1bQ0gyXVtDQEBIXTJbQ0gyXVtDSDJdW0NIMl1bQ0BIXTJbT0hd

> <s_epik_cmdline>
J2VwaWtfcHl0aG9uJywgJy1waCcsICc3LjAnLCAnLXRuJywgJzgnLCAnLW1hJywgJzIwMCcsICctbWV0YWxfYmluZGluZycsICctaW1hZScsICc8aW5maWxlLm1hZT4nLCAnLW9tYWUnLCAnPG91dGZpbGUubWFlPic=

> <r_lp_tautomer_probability>
0.999

> <r_epik_Ionization_Penalty>
0.000399498

> <r_epik_Ionization_Penalty_Charging>
0

> <r_epik_Ionization_Penalty_Neutral>
0.000399498

> <r_epik_State_Penalty>
0.000177984

> <r_epik_Charging_Adjusted_Penalty>
0.000177984

> <i_epik_Tot_Q>
0

> <i_epik_Tot_abs_Q>
0

> <r_epik_Metal_State_Penalty>
0.0060793

> <b_epik_Metal_Only>
0

> <s_lp_Force_Field>
OPLS_2005

> <r_lp_Energy>
20.7116

> <b_lp_Chiralities_Consistent>
1

> <s_lp_Variant>
AV-unprocessed.smi:3228-1

> <Gold.Version>
5.8.1

> <Gold.Id.Protein>
6NUR|6NUR_protein|mol2

> <Gold.PLP.Fitness>
38.7051

> <Gold.PLP.PLP>
-29.2411

> <Gold.PLP.part.hbond>
-3.0000

> <Gold.PLP.part.metal>
0.0000

> <Gold.PLP.part.buried>
-3.3283

> <Gold.PLP.part.nonpolar>
-22.7111

> <Gold.PLP.part.repulsive>
0.4303

> <Gold.PLP.ligand.clash>
0.0000

> <Gold.PLP.ligand.torsion>
0.8608

> <Gold.PLP.Chemscore.Hbond>
2.7280

> <Gold.PLP.Chemscore.CHOScore>
1.0000

> <Gold.PLP.Chemscore.Metal>
0.0000

> <Gold.Chemscore.Hbonds>
donor molecule, donor type, donor heavy atom, donor atom, acceptor molecule, acceptor atom, score
      L1  H     3    17       P1  7948  0.90
      L1  H    10    28       P1 10747  1.00
      L1  H    11    29       P1  7948  0.85
      L1  C    15    31       P1  8028  0.99

> <Gold.PLP.Chemscore.Internal.Correction>
0.0015

> <Gold.Rescore>
     Score         DG    S(hbond)    S(metal)    S(lipo)     H(rot)  DE(clash)    DE(int)     intcor
     15.70     -17.94       2.83        0.00      66.80       1.88       0.29       1.95       ----

> <Gold.Chemscore.Fitness>
15.7008

> <Gold.Chemscore.DG>
-17.9377

> <Gold.Chemscore.ZeroCoef>
-5.4800

> <Gold.Chemscore.Hbond>
2.8296

> <Gold.Chemscore.Metal>
0.0000

> <Gold.Chemscore.Lipo>
66.8038

> <Gold.Chemscore.Internal_Hbond>
0.0000

> <Gold.Chemscore.DEClash>
0.2894

> <Gold.Chemscore.DEInternal>
1.9475

> <Gold.Chemscore.Rot>
1.8786

> <Gold.Chemscore.Internal.Correction>
   9.000000E+99

> <Gold.Chemscore.Hbonds>
donor molecule, donor type, donor heavy atom, donor atom, acceptor molecule, acceptor atom, score
      L1  H     3    17       P1  7948  0.88
      L1  H    10    28       P1 10747  1.00
      L1  H    11    29       P1  7948  0.83

> <Gold.Chemscore.Hbond.Weighted>
-9.4508

> <Gold.Chemscore.Metal.Weighted>
-0.0000

> <Gold.Chemscore.Lipo.Weighted>
-7.8160

> <Gold.Chemscore.Internal_Hbond.Weighted>
0.0000

> <Gold.Chemscore.DEClash.Weighted>
0.2894

> <Gold.Chemscore.DEInternal.Weighted>
1.9475

> <Gold.Chemscore.Rot.Weighted>
4.8091

> <Gold.Chemscore.Internal.Correction.Weighted>
   9.000000E+99

> <Gold.Protein.RotatedTorsions>
[ 6907 6896 6895 6894 ] final -169.82 input  -60.11 | X-H torsion
[ 7974 7965 7964 7962 ] final -170.44 input  175.53 | X-H torsion
[ 8008 7997 7996 7995 ] final    0.13 input   59.86 | X-H torsion
[ 10167 10162 10161 10158 ] final -146.09 input  -65.29 | X-H torsion
[ 10718 10713 10712 10709 ] final -127.99 input   66.30 | X-H torsion
[ 10763 10752 10751 10750 ] final  -39.26 input  -60.55 | X-H torsion
[ 11005 11000 10999 10996 ] final  -48.63 input  -57.11 | X-H torsion

> <Gold.Protein.ActiveResidues>
 VAL166  LYS551  ARG553  GLY616  TRP617  ASP618  TYR619  PRO620  LYS621  CYS622 
 ASP623  PHE694  ASN695  SER759  ASP760  ASP761  ALA762  ILE779  LEU786  VAL792 
 PHE793  MET794  SER795  GLU796  ALA797  LYS798  CYS799  TRP800  GLU811  SER814 

> <Gold.Protein.RotatedAtoms>
  151.4978  133.3511  159.2863 H   0  0  0  0  0  0  0  0  0  0  0  0  # atno 6907 bound_to 6896
  150.8793  134.8183  159.7224 H   0  0  0  0  0  0  0  0  0  0  0  0  # atno 6908 bound_to 6896
  152.4751  134.4873  159.9736 H   0  0  0  0  0  0  0  0  0  0  0  0  # atno 6909 bound_to 6896
  144.7170  140.2071  143.6332 H   0  0  0  0  0  0  0  0  0  0  0  0  # atno 7974 bound_to 7965
  154.6645  140.2598  155.7073 H   0  0  0  0  0  0  0  0  0  0  0  0  # atno 8008 bound_to 7997
  156.2633  140.2842  156.1052 H   0  0  0  0  0  0  0  0  0  0  0  0  # atno 8009 bound_to 7997
  155.1259  140.0378  157.2752 H   0  0  0  0  0  0  0  0  0  0  0  0  # atno 8010 bound_to 7997
  139.7745  143.8190  152.2630 H   0  0  0  0  0  0  0  0  0  0  0  0  # atno 10167 bound_to 10162
  156.1909  130.6794  151.0422 H   0  0  0  0  0  0  0  0  0  0  0  0  # atno 10718 bound_to 10713
  153.9265  135.6776  153.4746 H   0  0  0  0  0  0  0  0  0  0  0  0  # atno 10763 bound_to 10752
  153.1001  135.4832  154.8849 H   0  0  0  0  0  0  0  0  0  0  0  0  # atno 10764 bound_to 10752
  154.7450  135.3170  154.8617 H   0  0  0  0  0  0  0  0  0  0  0  0  # atno 10765 bound_to 10752
  141.0712  133.6678  156.3469 H   0  0  0  0  0  0  0  0  0  0  0  0  # atno 11005 bound_to 11000
  145.8626  139.2230  143.1708 LP  0  0  0  0  0  0  0  0  0  0  0  0  # atno 17320 bound_to 7965
  146.0159  140.8392  142.9947 LP  0  0  0  0  0  0  0  0  0  0  0  0  # atno 17321 bound_to 7965
  139.8234  144.7286  150.9543 LP  0  0  0  0  0  0  0  0  0  0  0  0  # atno 17342 bound_to 10162
  140.7815  143.4137  151.0951 LP  0  0  0  0  0  0  0  0  0  0  0  0  # atno 17343 bound_to 10162
  157.6928  131.0804  150.7057 LP  0  0  0  0  0  0  0  0  0  0  0  0  # atno 17370 bound_to 10713
  156.7114  130.4653  149.5546 LP  0  0  0  0  0  0  0  0  0  0  0  0  # atno 17371 bound_to 10713
  140.5669  134.5879  157.5448 LP  0  0  0  0  0  0  0  0  0  0  0  0  # atno 17394 bound_to 11000
  139.9525  134.7591  156.0415 LP  0  0  0  0  0  0  0  0  0  0  0  0  # atno 17395 bound_to 11000

$$$$
