AV-unprocessed.smi:951|AV-procd|sdf|4254|dock10
  -GOLD-   22720 2163D 1   1.00000     0.00000
 Structure written by MMmdl.
 52 54  0  0  0  0  0  0  0  0  2 V2000
  147.1502  138.3226  155.1646 O   0  0  0  0  0  0  0  0  0  0  0  0
  147.3304  138.6703  153.9968 C   0  0  0  0  0  0  0  0  0  0  0  0
  146.8317  138.0046  152.9432 N   0  0  0  0  0  0  0  0  0  0  0  0
  146.0122  136.7973  153.0140 C   0  0  0  0  0  0  0  0  0  0  0  0
  145.5168  136.3343  151.6296 C   0  0  0  0  0  0  0  0  0  0  0  0
  145.5781  134.8301  151.4222 C   0  0  0  0  0  0  0  0  0  0  0  0
  144.4540  134.0862  151.0034 C   0  0  0  0  0  0  0  0  0  0  0  0
  144.5844  132.6966  150.7991 C   0  0  0  0  0  0  0  0  0  0  0  0
  145.8341  132.0807  151.0175 C   0  0  0  0  0  0  0  0  0  0  0  0
  146.9239  132.8709  151.4351 C   0  0  0  0  0  0  0  0  0  0  0  0
  146.7590  134.1989  151.6199 N   0  3  0  0  0  0  0  0  0  0  0  0
  148.1176  139.9560  153.6791 C   0  0  1  0  0  0  0  0  0  0  0  0
  147.2345  141.1798  153.9732 C   0  0  0  0  0  0  0  0  0  0  0  0
  148.2078  142.2722  154.3669 C   0  0  0  0  0  0  0  0  0  0  0  0
  149.3857  141.5321  154.9974 C   0  0  0  0  0  0  0  0  0  0  0  0
  149.3401  140.1591  154.4837 N   0  0  0  0  0  0  0  0  0  0  0  0
  150.3321  139.2450  154.6484 C   0  0  0  0  0  0  0  0  0  0  0  0
  150.2993  138.1492  154.0877 O   0  0  0  0  0  0  0  0  0  0  0  0
  151.5441  139.5874  155.5509 C   0  0  0  0  0  0  0  0  0  0  0  0
  152.5670  138.4284  155.6077 C   0  0  0  0  0  0  0  0  0  0  0  0
  152.1168  137.2677  156.5116 C   0  0  0  0  0  0  0  0  0  0  0  0
  151.8172  137.7637  157.9329 C   0  0  0  0  0  0  0  0  0  0  0  0
  150.7521  138.8699  157.9213 C   0  0  0  0  0  0  0  0  0  0  0  0
  151.1436  140.0300  156.9825 C   0  0  0  0  0  0  0  0  0  0  0  0
  147.0362  138.3617  152.0209 H   0  0  0  0  0  0  0  0  0  0  0  0
  146.6124  136.0081  153.4675 H   0  0  0  0  0  0  0  0  0  0  0  0
  145.1619  136.9480  153.6812 H   0  0  0  0  0  0  0  0  0  0  0  0
  144.4888  136.6680  151.4800 H   0  0  0  0  0  0  0  0  0  0  0  0
  146.1061  136.8198  150.8511 H   0  0  0  0  0  0  0  0  0  0  0  0
  143.5053  134.5742  150.8319 H   0  0  0  0  0  0  0  0  0  0  0  0
  143.7363  132.1105  150.4766 H   0  0  0  0  0  0  0  0  0  0  0  0
  145.9549  131.0182  150.8648 H   0  0  0  0  0  0  0  0  0  0  0  0
  147.9155  132.4853  151.6223 H   0  0  0  0  0  0  0  0  0  0  0  0
  148.4143  139.9618  152.6284 H   0  0  0  0  0  0  0  0  0  0  0  0
  146.6160  141.4630  153.1208 H   0  0  0  0  0  0  0  0  0  0  0  0
  146.5648  140.9934  154.8152 H   0  0  0  0  0  0  0  0  0  0  0  0
  148.5469  142.7900  153.4686 H   0  0  0  0  0  0  0  0  0  0  0  0
  147.7686  143.0158  155.0325 H   0  0  0  0  0  0  0  0  0  0  0  0
  150.3264  142.0336  154.7672 H   0  0  0  0  0  0  0  0  0  0  0  0
  149.2658  141.5092  156.0814 H   0  0  0  0  0  0  0  0  0  0  0  0
  152.0498  140.4512  155.1232 H   0  0  0  0  0  0  0  0  0  0  0  0
  152.7699  138.0492  154.6054 H   0  0  0  0  0  0  0  0  0  0  0  0
  153.5183  138.8149  155.9756 H   0  0  0  0  0  0  0  0  0  0  0  0
  151.2323  136.7859  156.0936 H   0  0  0  0  0  0  0  0  0  0  0  0
  152.8943  136.5040  156.5438 H   0  0  0  0  0  0  0  0  0  0  0  0
  151.4830  136.9329  158.5548 H   0  0  0  0  0  0  0  0  0  0  0  0
  152.7331  138.1424  158.3883 H   0  0  0  0  0  0  0  0  0  0  0  0
  149.7919  138.4470  157.6279 H   0  0  0  0  0  0  0  0  0  0  0  0
  150.6103  139.2515  158.9327 H   0  0  0  0  0  0  0  0  0  0  0  0
  151.9856  140.5622  157.4268 H   0  0  0  0  0  0  0  0  0  0  0  0
  150.3294  140.7548  156.9386 H   0  0  0  0  0  0  0  0  0  0  0  0
  147.5631  134.7525  151.9159 H   0  0  0  0  0  0  0  0  0  0  0  0
  1  2  2  0  0  0  0
  2  3  1  0  0  0  0
  2 12  1  0  0  0  0
  3  4  1  0  0  0  0
  3 25  1  0  0  0  0
  4  5  1  0  0  0  0
  4 26  1  0  0  0  0
  4 27  1  0  0  0  0
  5  6  1  0  0  0  0
  5 28  1  0  0  0  0
  5 29  1  0  0  0  0
  6 11  1  0  0  0  0
  6  7  2  0  0  0  0
  7  8  1  0  0  0  0
  7 30  1  0  0  0  0
  8  9  2  0  0  0  0
  8 31  1  0  0  0  0
  9 10  1  0  0  0  0
  9 32  1  0  0  0  0
 10 11  2  0  0  0  0
 10 33  1  0  0  0  0
 11 52  1  0  0  0  0
 12 16  1  0  0  0  0
 12 13  1  0  0  0  0
 12 34  1  0  0  0  0
 13 14  1  0  0  0  0
 13 35  1  0  0  0  0
 13 36  1  0  0  0  0
 14 15  1  0  0  0  0
 14 37  1  0  0  0  0
 14 38  1  0  0  0  0
 15 16  1  0  0  0  0
 15 39  1  0  0  0  0
 15 40  1  0  0  0  0
 16 17  1  0  0  0  0
 17 18  2  0  0  0  0
 17 19  1  0  0  0  0
 19 24  1  0  0  0  0
 19 20  1  0  0  0  0
 19 41  1  0  0  0  0
 20 21  1  0  0  0  0
 20 42  1  0  0  0  0
 20 43  1  0  0  0  0
 21 22  1  0  0  0  0
 21 44  1  0  0  0  0
 21 45  1  0  0  0  0
 22 23  1  0  0  0  0
 22 46  1  0  0  0  0
 22 47  1  0  0  0  0
 23 24  1  0  0  0  0
 23 48  1  0  0  0  0
 23 49  1  0  0  0  0
 24 50  1  0  0  0  0
 24 51  1  0  0  0  0
M  CHG  1  11   1
M  END
> <s_m_source_file>
AV-unprocessed.smi

> <i_m_source_file_index>
951

> <i_lp_mmshare_version>
43012

> <i_f3d_flags>
0

> <s_epik_input>
bjFbY0hdW2NIXVtjSF1bY0hdYzFbQ0gyXVtDSDJdW05IXUMoPU8pW0NAQEhdMltDSDJdW0NIMl1bQ0gyXU4yQyg9TylbQ0hdM1tDSDJdW0NIMl1bQ0gyXVtDSDJdW0NIMl0z

> <s_epik_cmdline>
J2VwaWtfcHl0aG9uJywgJy1waCcsICc3LjAnLCAnLXRuJywgJzgnLCAnLW1hJywgJzIwMCcsICctbWV0YWxfYmluZGluZycsICctaW1hZScsICc8aW5maWxlLm1hZT4nLCAnLW9tYWUnLCAnPG91dGZpbGUubWFlPic=

> <r_epik_Ionization_Penalty>
1.85306

> <r_epik_Ionization_Penalty_Charging>
1.85306

> <r_epik_Ionization_Penalty_Neutral>
5.78903e-08

> <r_epik_State_Penalty>
1.97071

> <r_epik_Charging_Adjusted_Penalty>
3.82377

> <i_epik_Tot_Q>
1

> <i_epik_Tot_abs_Q>
1

> <r_epik_Metal_State_Penalty>
1.99634

> <b_epik_Metal_Only>
0

> <s_lp_Force_Field>
OPLS_2005

> <r_lp_Energy>
29.0494

> <b_lp_Chiralities_Consistent>
1

> <s_lp_Variant>
AV-unprocessed.smi:951-4

> <Gold.Version>
5.8.1

> <Gold.Id.Protein>
6NUR|6NUR_protein|mol2

> <Gold.PLP.Fitness>
43.7735

> <Gold.PLP.PLP>
-39.3824

> <Gold.PLP.part.hbond>
-2.0000

> <Gold.PLP.part.metal>
0.0000

> <Gold.PLP.part.buried>
0.1095

> <Gold.PLP.part.nonpolar>
-38.9773

> <Gold.PLP.part.repulsive>
0.3824

> <Gold.PLP.ligand.clash>
0.0000

> <Gold.PLP.ligand.torsion>
0.8457

> <Gold.PLP.Chemscore.Hbond>
2.0000

> <Gold.PLP.Chemscore.CHOScore>
0.0000

> <Gold.PLP.Chemscore.Metal>
0.0000

> <Gold.Chemscore.Hbonds>
donor molecule, donor type, donor heavy atom, donor atom, acceptor molecule, acceptor atom, score
      L1  H    11    52       P1  7948  2.00

> <Gold.PLP.Chemscore.Internal.Correction>
0.0825

> <Gold.Rescore>
     Score         DG    S(hbond)    S(metal)    S(lipo)     H(rot)  DE(clash)    DE(int)     intcor
     12.81     -16.32       0.91        0.00     102.99       1.65       1.67       1.84       ----

> <Gold.Chemscore.Fitness>
12.8071

> <Gold.Chemscore.DG>
-16.3181

> <Gold.Chemscore.ZeroCoef>
-5.4800

> <Gold.Chemscore.Hbond>
0.9057

> <Gold.Chemscore.Metal>
0.0000

> <Gold.Chemscore.Lipo>
102.9852

> <Gold.Chemscore.Internal_Hbond>
0.0000

> <Gold.Chemscore.DEClash>
1.6680

> <Gold.Chemscore.DEInternal>
1.8430

> <Gold.Chemscore.Rot>
1.6548

> <Gold.Chemscore.Internal.Correction>
   9.000000E+99

> <Gold.Chemscore.Hbonds>
donor molecule, donor type, donor heavy atom, donor atom, acceptor molecule, acceptor atom, score
      L1  H    11    52       P1  7948  0.63

> <Gold.Chemscore.Hbond.Weighted>
-3.0250

> <Gold.Chemscore.Metal.Weighted>
-0.0000

> <Gold.Chemscore.Lipo.Weighted>
-12.0493

> <Gold.Chemscore.Internal_Hbond.Weighted>
0.0000

> <Gold.Chemscore.DEClash.Weighted>
1.6680

> <Gold.Chemscore.DEInternal.Weighted>
1.8430

> <Gold.Chemscore.Rot.Weighted>
4.2362

> <Gold.Chemscore.Internal.Correction.Weighted>
   9.000000E+99

> <Gold.Protein.RotatedTorsions>
[ 6907 6896 6895 6894 ] final -128.42 input  -60.11 | X-H torsion
[ 7974 7965 7964 7962 ] final   45.03 input  175.53 | X-H torsion
[ 8008 7997 7996 7995 ] final   27.84 input   59.86 | X-H torsion
[ 10167 10162 10161 10158 ] final -179.64 input  -65.29 | X-H torsion
[ 10718 10713 10712 10709 ] final    7.16 input   66.30 | X-H torsion
[ 10763 10752 10751 10750 ] final  160.99 input  -60.55 | X-H torsion
[ 11005 11000 10999 10996 ] final   59.00 input  -57.11 | X-H torsion

> <Gold.Protein.ActiveResidues>
 VAL166  LYS551  ARG553  GLY616  TRP617  ASP618  TYR619  PRO620  LYS621  CYS622 
 ASP623  PHE694  ASN695  SER759  ASP760  ASP761  ALA762  ILE779  LEU786  VAL792 
 PHE793  MET794  SER795  GLU796  ALA797  LYS798  CYS799  TRP800  GLU811  SER814 

> <Gold.Protein.RotatedAtoms>
  150.9178  133.6918  159.2839 H   0  0  0  0  0  0  0  0  0  0  0  0  # atno 6907 bound_to 6896
  151.4383  135.1016  159.9672 H   0  0  0  0  0  0  0  0  0  0  0  0  # atno 6908 bound_to 6896
  152.4963  133.8592  159.7296 H   0  0  0  0  0  0  0  0  0  0  0  0  # atno 6909 bound_to 6896
  146.0516  139.5009  142.9714 H   0  0  0  0  0  0  0  0  0  0  0  0  # atno 7974 bound_to 7965
  155.0493  140.3178  155.4697 H   0  0  0  0  0  0  0  0  0  0  0  0  # atno 8008 bound_to 7997
  156.2838  140.2149  156.5562 H   0  0  0  0  0  0  0  0  0  0  0  0  # atno 8009 bound_to 7997
  154.7224  140.0488  157.0639 H   0  0  0  0  0  0  0  0  0  0  0  0  # atno 8010 bound_to 7997
  139.5377  144.2450  152.0830 H   0  0  0  0  0  0  0  0  0  0  0  0  # atno 10167 bound_to 10162
  156.9327  130.5832  149.5650 H   0  0  0  0  0  0  0  0  0  0  0  0  # atno 10718 bound_to 10713
  154.2560  135.2770  155.2797 H   0  0  0  0  0  0  0  0  0  0  0  0  # atno 10763 bound_to 10752
  154.5425  135.5698  153.6855 H   0  0  0  0  0  0  0  0  0  0  0  0  # atno 10764 bound_to 10752
  152.9971  135.6254  154.2708 H   0  0  0  0  0  0  0  0  0  0  0  0  # atno 10765 bound_to 10752
  140.0336  134.5976  155.9474 H   0  0  0  0  0  0  0  0  0  0  0  0  # atno 11005 bound_to 11000
  145.6714  141.0215  143.1655 LP  0  0  0  0  0  0  0  0  0  0  0  0  # atno 17320 bound_to 7965
  144.7126  139.8315  143.7409 LP  0  0  0  0  0  0  0  0  0  0  0  0  # atno 17321 bound_to 7965
  140.1924  144.4739  150.6472 LP  0  0  0  0  0  0  0  0  0  0  0  0  # atno 17342 bound_to 10162
  140.6592  143.2247  151.5896 LP  0  0  0  0  0  0  0  0  0  0  0  0  # atno 17343 bound_to 10162
  156.0439  130.5518  150.8836 LP  0  0  0  0  0  0  0  0  0  0  0  0  # atno 17370 bound_to 10713
  157.5836  131.0946  150.9232 LP  0  0  0  0  0  0  0  0  0  0  0  0  # atno 17371 bound_to 10713
  141.1845  133.6553  156.5158 LP  0  0  0  0  0  0  0  0  0  0  0  0  # atno 17394 bound_to 11000
  140.4185  134.7209  157.4876 LP  0  0  0  0  0  0  0  0  0  0  0  0  # atno 17395 bound_to 11000

$$$$
