#       Name:                AV-unprocessed.smi:62
#       Creating user name   scv26
#       Creation time:       Thu Mar 26 16:49:35 2020


#       File generated by GOLD software.
#

@<TRIPOS>MOLECULE
AV-unprocessed.smi:62
    38    39     1
SMALL
NO_CHARGES


@<TRIPOS>ATOM
      1 ****        -4.3860   0.9779   1.3996 C.3            1 S1                 0.0000
      2 ****        -3.1043   0.3158   1.2867 N.pl3          1 S1                 0.0000
      3 ****        -1.8441   0.8674   1.3157 C.2            1 S1                 0.0000
      4 ****        -0.9364  -0.1461   1.1760 C.2            1 S1                 0.0000
      5 ****         0.5669   0.0020   1.1562 C.3            1 S1                 0.0000
      6 ****         1.1184  -0.2625  -0.1928 N.4            1 S1                 1.0000
      7 ****         0.6731   0.6628  -1.2633 C.3            1 S1                 0.0000
      8 ****         1.9198   1.0264  -2.0804 C.3            1 S1                 0.0000
      9 ****         2.9409  -0.0436  -1.7018 C.3            1 S1                 0.0000
     10 ****         4.2692   0.4111  -1.8525 O.3            1 S1                 0.0000
     11 ****         2.5915  -0.3396  -0.2458 C.3            1 S1                 0.0000
     12 ****        -1.7672  -1.3125   1.0625 C.2            1 S1                 0.0000
     13 ****        -1.1985  -2.6944   0.8741 C.2            1 S1                 0.0000
     14 ****         0.0386  -2.8545   0.7814 O.co2          1 S1                 0.0000
     15 ****        -1.9993  -3.6520   0.8045 O.co2          1 S1                -1.0000
     16 ****        -3.0590  -1.0202   1.1311 N.2            1 S1                 0.0000
     17 ****        -4.2437   2.0534   1.5081 H              1 S1                 0.0000
     18 ****        -4.9201   0.6009   2.2724 H              1 S1                 0.0000
     19 ****        -4.9804   0.7868   0.5056 H              1 S1                 0.0000
     20 ****        -1.6952   1.9305   1.4347 H              1 S1                 0.0000
     21 ****         0.8672   1.0030   1.4693 H              1 S1                 0.0000
     22 ****         1.0308  -0.6807   1.8690 H              1 S1                 0.0000
     23 ****        -0.0650   0.1487  -1.8798 H              1 S1                 0.0000
     24 ****         0.2027   1.5625  -0.8640 H              1 S1                 0.0000
     25 ****         1.7266   1.0666  -3.1528 H              1 S1                 0.0000
     26 ****         2.2754   2.0105  -1.7702 H              1 S1                 0.0000
     27 ****         2.7869  -0.9369  -2.3089 H              1 S1                 0.0000
     28 ****         4.4279   0.5832  -2.7684 H              1 S1                 0.0000
     29 ****         3.0187   0.4254   0.4056 H              1 S1                 0.0000
     30 ****         2.9564  -1.3117   0.0875 H              1 S1                 0.0000
     31 ****         0.7882  -1.1803  -0.4593 H              1 S1                 0.0000
     32 ****         4.9039  -0.2896  -1.5267 LP             1 S1                 0.0000
     33 ****         4.3997   1.2504  -1.3247 LP             1 S1                 0.0000
     34 ****         0.4155  -3.7710   0.6472 LP             1 S1                 0.0000
     35 ****         0.6507  -2.0660   0.8415 LP             1 S1                 0.0000
     36 ****        -1.6564  -4.5818   0.6707 LP             1 S1                 0.0000
     37 ****        -2.9827  -3.4881   0.8827 LP             1 S1                 0.0000
     38 ****        -3.8307  -1.6540   1.0787 LP             1 S1                 0.0000
@<TRIPOS>BOND
    1    1    2 1     
    2    1   17 1     
    3    1   18 1     
    4    1   19 1     
    5    2   16 1     
    6    2    3 1     
    7    3    4 2     
    8    3   20 1     
    9    4    5 1     
   10    4   12 1     
   11    5    6 1     
   12    5   21 1     
   13    5   22 1     
   14    6   11 1     
   15    6    7 1     
   16    6   31 1     
   17    7    8 1     
   18    7   23 1     
   19    7   24 1     
   20    8    9 1     
   21    8   25 1     
   22    8   26 1     
   23    9   10 1     
   24    9   11 1     
   25    9   27 1     
   26   10   28 1     
   27   11   29 1     
   28   11   30 1     
   29   12   13 1     
   30   12   16 2     
   31   13   14 ar    
   32   13   15 ar    
   33   10   32 1     
   34   10   33 1     
   35   14   34 1     
   36   14   35 1     
   37   15   36 1     
   38   15   37 1     
   39   16   38 1     
@<TRIPOS>SUBSTRUCTURE
      1 S1             1
@<TRIPOS>SET
LONE_PAIRS      STATIC     ATOMS    <user>   **** ""
7 32 33 34 35 36 37 38
DONOR_HYDROGENS      STATIC     ATOMS    <user>   **** ""
2 31 28
ATOM$BLUE        STATIC     ATOMS    COLORGROUP SYSTEM
7 32 33 34 35 36 37 38
ATOM$RED        STATIC     ATOMS    COLORGROUP SYSTEM
2 31 28
