AV-unprocessed.smi:1254|AV-procd|sdf|5275|dock9
  -GOLD-   22720 4393D 1   1.00000     0.00000
 Structure written by MMmdl.
 45 46  0  0  0  0  0  0  0  0  3 V2000
  151.6477  140.6375  158.3817 C   0  0  0  0  0  0  0  0  0  0  0  0
  151.0215  140.7693  157.0357 C   0  0  0  0  0  0  0  0  0  0  0  0
  150.1294  141.6603  156.5100 C   0  0  0  0  0  0  0  0  0  0  0  0
  149.9592  141.2006  155.1755 C   0  0  0  0  0  0  0  0  0  0  0  0
  149.1773  141.7639  154.2415 N   0  5  0  0  0  0  0  0  0  0  0  0
  147.9462  141.2636  153.9908 C   0  0  0  0  0  0  0  0  0  0  0  0
  146.9203  141.4833  154.6393 O   0  0  0  0  0  0  0  0  0  0  0  0
  147.8981  140.4645  152.9157 N   0  0  0  0  0  0  0  0  0  0  0  0
  146.7035  139.8110  152.3924 C   0  0  0  0  0  0  0  0  0  0  0  0
  146.7686  138.2836  152.5673 C   0  0  2  0  0  0  0  0  0  0  0  0
  145.8567  137.5476  151.5679 C   0  0  0  0  0  0  0  0  0  0  0  0
  145.9132  136.0829  151.7999 N   0  3  2  0  0  0  0  0  0  0  0  0
  145.1022  135.2913  150.8393 C   0  0  0  0  0  0  0  0  0  0  0  0
  145.1532  133.7702  151.1021 C   0  0  0  0  0  0  0  0  0  0  0  0
  146.6003  133.2604  151.0317 C   0  0  0  0  0  0  0  0  0  0  0  0
  144.2606  132.9863  150.1253 C   0  0  0  0  0  0  0  0  0  0  0  0
  145.5796  135.7710  153.2101 C   0  0  0  0  0  0  0  0  0  0  0  0
  146.4781  136.5719  154.1669 C   0  0  0  0  0  0  0  0  0  0  0  0
  146.3467  137.9594  153.8884 O   0  0  0  0  0  0  0  0  0  0  0  0
  150.6957  140.1345  154.9099 N   0  0  0  0  0  0  0  0  0  0  0  0
  151.3757  139.8481  156.0997 O   0  0  0  0  0  0  0  0  0  0  0  0
  152.5217  141.2838  158.4636 H   0  0  0  0  0  0  0  0  0  0  0  0
  151.9663  139.6115  158.5668 H   0  0  0  0  0  0  0  0  0  0  0  0
  150.9437  140.9184  159.1653 H   0  0  0  0  0  0  0  0  0  0  0  0
  149.6693  142.5044  157.0010 H   0  0  0  0  0  0  0  0  0  0  0  0
  148.7611  140.3089  152.4153 H   0  0  0  0  0  0  0  0  0  0  0  0
  145.8346  140.2130  152.9140 H   0  0  0  0  0  0  0  0  0  0  0  0
  146.5801  140.0700  151.3395 H   0  0  0  0  0  0  0  0  0  0  0  0
  147.7970  137.9474  152.4223 H   0  0  0  0  0  0  0  0  0  0  0  0
  144.8275  137.8963  151.6677 H   0  0  0  0  0  0  0  0  0  0  0  0
  146.1776  137.7835  150.5542 H   0  0  0  0  0  0  0  0  0  0  0  0
  144.0611  135.6129  150.8993 H   0  0  0  0  0  0  0  0  0  0  0  0
  145.4312  135.5166  149.8236 H   0  0  0  0  0  0  0  0  0  0  0  0
  144.8015  133.5687  152.1135 H   0  0  0  0  0  0  0  0  0  0  0  0
  147.0290  133.4171  150.0413 H   0  0  0  0  0  0  0  0  0  0  0  0
  146.6529  132.1936  151.2514 H   0  0  0  0  0  0  0  0  0  0  0  0
  147.2349  133.7746  151.7542 H   0  0  0  0  0  0  0  0  0  0  0  0
  144.5659  133.1483  149.0910 H   0  0  0  0  0  0  0  0  0  0  0  0
  143.2146  133.2807  150.2144 H   0  0  0  0  0  0  0  0  0  0  0  0
  144.3115  131.9148  150.3218 H   0  0  0  0  0  0  0  0  0  0  0  0
  144.5309  136.0066  153.3982 H   0  0  0  0  0  0  0  0  0  0  0  0
  145.7079  134.7041  153.3960 H   0  0  0  0  0  0  0  0  0  0  0  0
  146.1831  136.3899  155.2004 H   0  0  0  0  0  0  0  0  0  0  0  0
  147.5212  136.2650  154.0746 H   0  0  0  0  0  0  0  0  0  0  0  0
  146.8741  135.8005  151.6679 H   0  0  0  0  0  0  0  0  0  0  0  0
  1  2  1  0  0  0  0
  1 22  1  0  0  0  0
  1 23  1  0  0  0  0
  1 24  1  0  0  0  0
  2 21  1  0  0  0  0
  2  3  2  0  0  0  0
  3  4  1  0  0  0  0
  3 25  1  0  0  0  0
  4  5  1  0  0  0  0
  4 20  2  0  0  0  0
  5  6  1  0  0  0  0
  6  7  2  0  0  0  0
  6  8  1  0  0  0  0
  8  9  1  0  0  0  0
  8 26  1  0  0  0  0
  9 10  1  0  0  0  0
  9 27  1  0  0  0  0
  9 28  1  0  0  0  0
 10 19  1  0  0  0  0
 10 11  1  0  0  0  0
 10 29  1  0  0  0  0
 11 12  1  0  0  0  0
 11 30  1  0  0  0  0
 11 31  1  0  0  0  0
 12 13  1  0  0  0  0
 12 17  1  0  0  0  0
 12 45  1  0  0  0  0
 13 14  1  0  0  0  0
 13 32  1  0  0  0  0
 13 33  1  0  0  0  0
 14 15  1  0  0  0  0
 14 16  1  0  0  0  0
 14 34  1  0  0  0  0
 15 35  1  0  0  0  0
 15 36  1  0  0  0  0
 15 37  1  0  0  0  0
 16 38  1  0  0  0  0
 16 39  1  0  0  0  0
 16 40  1  0  0  0  0
 17 18  1  0  0  0  0
 17 41  1  0  0  0  0
 17 42  1  0  0  0  0
 18 19  1  0  0  0  0
 18 43  1  0  0  0  0
 18 44  1  0  0  0  0
 20 21  1  0  0  0  0
M  CHG  1   5  -1
M  CHG  1  12   1
M  END
> <s_m_source_file>
AV-unprocessed.smi

> <i_m_source_file_index>
1254

> <i_lp_mmshare_version>
43012

> <i_f3d_flags>
0

> <s_epik_input>
W0NIM11jMVtjSF1jKG5vMSlbTkhdQyg9TylbTkhdW0NIMl1bQ0BASF0yW0NIMl1OKFtDSDJdW0NIMl1PMilbQ0gyXVtDSF0oW0NIM10pW0NIM10=

> <s_epik_cmdline>
J2VwaWtfcHl0aG9uJywgJy1waCcsICc3LjAnLCAnLXRuJywgJzgnLCAnLW1hJywgJzIwMCcsICctbWV0YWxfYmluZGluZycsICctaW1hZScsICc8aW5maWxlLm1hZT4nLCAnLW9tYWUnLCAnPG91dGZpbGUubWFlPic=

> <r_epik_Ionization_Penalty>
6.33139

> <r_epik_Ionization_Penalty_Charging>
6.33128

> <r_epik_Ionization_Penalty_Neutral>
0.000104968

> <r_epik_State_Penalty>
6.32522

> <r_epik_Charging_Adjusted_Penalty>
12.6565

> <i_epik_Tot_Q>
0

> <i_epik_Tot_abs_Q>
2

> <r_epik_Metal_State_Penalty>
2.26285

> <b_epik_Metal_Only>
1

> <s_lp_Force_Field>
OPLS_2005

> <r_lp_Energy>
5.65212

> <b_lp_Chiralities_Consistent>
1

> <s_lp_Variant>
AV-unprocessed.smi:1254-7

> <Gold.Version>
5.8.1

> <Gold.Id.Protein>
6NUR|6NUR_protein|mol2

> <Gold.PLP.Fitness>
44.5534

> <Gold.PLP.PLP>
-34.5458

> <Gold.PLP.part.hbond>
-4.3578

> <Gold.PLP.part.metal>
0.0000

> <Gold.PLP.part.buried>
0.2505

> <Gold.PLP.part.nonpolar>
-31.0367

> <Gold.PLP.part.repulsive>
0.7084

> <Gold.PLP.ligand.clash>
0.0000

> <Gold.PLP.ligand.torsion>
1.7550

> <Gold.PLP.Chemscore.Hbond>
4.4281

> <Gold.PLP.Chemscore.CHOScore>
0.0000

> <Gold.PLP.Chemscore.Metal>
0.0000

> <Gold.Chemscore.Hbonds>
donor molecule, donor type, donor heavy atom, donor atom, acceptor molecule, acceptor atom, score
      L1  H     8    26       P1  7957  1.00
      L1  H    12    45       P1  7948  1.66
      P1  H  7989  7998       L1    20  0.80
      P1  H  8011  8017       L1     5  0.40

> <Gold.PLP.Chemscore.Internal.Correction>
0.2335

> <Gold.Rescore>
     Score         DG    S(hbond)    S(metal)    S(lipo)     H(rot)  DE(clash)    DE(int)     intcor
     16.05     -19.35       2.86        0.00      73.82       1.69       1.45       1.85       ----

> <Gold.Chemscore.Fitness>
16.0450

> <Gold.Chemscore.DG>
-19.3456

> <Gold.Chemscore.ZeroCoef>
-5.4800

> <Gold.Chemscore.Hbond>
2.8628

> <Gold.Chemscore.Metal>
0.0000

> <Gold.Chemscore.Lipo>
73.8191

> <Gold.Chemscore.Internal_Hbond>
0.0000

> <Gold.Chemscore.DEClash>
1.4506

> <Gold.Chemscore.DEInternal>
1.8499

> <Gold.Chemscore.Rot>
1.6926

> <Gold.Chemscore.Internal.Correction>
   9.000000E+99

> <Gold.Chemscore.Hbonds>
donor molecule, donor type, donor heavy atom, donor atom, acceptor molecule, acceptor atom, score
      L1  H     8    26       P1  7957  0.91
      L1  H    12    45       P1  7948  0.78
      P1  H  7989  7998       L1    20  0.11
      P1  H  8011  8017       L1     5  0.16

> <Gold.Chemscore.Hbond.Weighted>
-9.5618

> <Gold.Chemscore.Metal.Weighted>
-0.0000

> <Gold.Chemscore.Lipo.Weighted>
-8.6368

> <Gold.Chemscore.Internal_Hbond.Weighted>
0.0000

> <Gold.Chemscore.DEClash.Weighted>
1.4506

> <Gold.Chemscore.DEInternal.Weighted>
1.8499

> <Gold.Chemscore.Rot.Weighted>
4.3330

> <Gold.Chemscore.Internal.Correction.Weighted>
   9.000000E+99

> <Gold.Protein.RotatedTorsions>
[ 6907 6896 6895 6894 ] final   67.98 input  -60.11 | X-H torsion
[ 7974 7965 7964 7962 ] final   35.51 input  175.53 | X-H torsion
[ 8008 7997 7996 7995 ] final   39.18 input   59.86 | X-H torsion
[ 10167 10162 10161 10158 ] final   41.43 input  -65.29 | X-H torsion
[ 10718 10713 10712 10709 ] final  144.46 input   66.30 | X-H torsion
[ 10763 10752 10751 10750 ] final  -28.55 input  -60.55 | X-H torsion
[ 11005 11000 10999 10996 ] final  -40.61 input  -57.11 | X-H torsion

> <Gold.Protein.ActiveResidues>
 VAL166  LYS551  ARG553  GLY616  TRP617  ASP618  TYR619  PRO620  LYS621  CYS622 
 ASP623  PHE694  ASN695  SER759  ASP760  ASP761  ALA762  ILE779  LEU786  VAL792 
 PHE793  MET794  SER795  GLU796  ALA797  LYS798  CYS799  TRP800  GLU811  SER814 

> <Gold.Protein.RotatedAtoms>
  152.4589  134.5229  159.9787 H   0  0  0  0  0  0  0  0  0  0  0  0  # atno 6907 bound_to 6896
  151.5283  133.3448  159.2921 H   0  0  0  0  0  0  0  0  0  0  0  0  # atno 6908 bound_to 6896
  150.8544  134.7908  159.7096 H   0  0  0  0  0  0  0  0  0  0  0  0  # atno 6909 bound_to 6896
  146.1278  139.6134  142.9247 H   0  0  0  0  0  0  0  0  0  0  0  0  # atno 7974 bound_to 7965
  155.2324  140.3339  155.4302 H   0  0  0  0  0  0  0  0  0  0  0  0  # atno 8008 bound_to 7997
  156.2289  140.1842  156.7338 H   0  0  0  0  0  0  0  0  0  0  0  0  # atno 8009 bound_to 7997
  154.5945  140.0633  156.9270 H   0  0  0  0  0  0  0  0  0  0  0  0  # atno 8010 bound_to 7997
  140.3644  144.2187  150.6136 H   0  0  0  0  0  0  0  0  0  0  0  0  # atno 10167 bound_to 10162
  157.3570  131.0959  151.0950 H   0  0  0  0  0  0  0  0  0  0  0  0  # atno 10718 bound_to 10713
  153.7502  135.6926  153.4947 H   0  0  0  0  0  0  0  0  0  0  0  0  # atno 10763 bound_to 10752
  153.2008  135.4437  155.0263 H   0  0  0  0  0  0  0  0  0  0  0  0  # atno 10764 bound_to 10752
  154.8190  135.3412  154.7023 H   0  0  0  0  0  0  0  0  0  0  0  0  # atno 10765 bound_to 10752
  141.0187  133.6873  156.2345 H   0  0  0  0  0  0  0  0  0  0  0  0  # atno 11005 bound_to 11000
  145.5327  141.0426  143.2374 LP  0  0  0  0  0  0  0  0  0  0  0  0  # atno 17320 bound_to 7965
  144.7660  139.6845  143.7215 LP  0  0  0  0  0  0  0  0  0  0  0  0  # atno 17321 bound_to 7965
  140.5096  143.2294  151.8556 LP  0  0  0  0  0  0  0  0  0  0  0  0  # atno 17342 bound_to 10162
  139.4810  144.4966  151.9116 LP  0  0  0  0  0  0  0  0  0  0  0  0  # atno 17343 bound_to 10162
  157.2104  130.6435  149.5772 LP  0  0  0  0  0  0  0  0  0  0  0  0  # atno 17370 bound_to 10713
  155.9731  130.4662  150.6280 LP  0  0  0  0  0  0  0  0  0  0  0  0  # atno 17371 bound_to 10713
  140.6610  134.4967  157.5583 LP  0  0  0  0  0  0  0  0  0  0  0  0  # atno 17394 bound_to 11000
  139.9133  134.8300  156.1454 LP  0  0  0  0  0  0  0  0  0  0  0  0  # atno 17395 bound_to 11000

$$$$
