AV-unprocessed.smi:40|AV-procd|sdf|380|dock10
  -GOLD-   2262016233D 1   1.00000     0.00000
 Structure written by MMmdl.
 47 48  0  0  0  0  0  0  0  0  1 V2000
  151.8768  144.1811  159.4966 C   0  0  0  0  0  0  0  0  0  0  0  0
  152.7464  143.2052  160.2965 C   0  0  0  0  0  0  0  0  0  0  0  0
  152.2842  141.7494  160.1468 C   0  0  0  0  0  0  0  0  0  0  0  0
  153.3443  140.7398  160.6161 C   0  0  0  0  0  0  0  0  0  0  0  0
  152.8178  139.2996  160.6796 C   0  0  0  0  0  0  0  0  0  0  0  0
  152.4119  138.8947  159.3829 O   0  0  0  0  0  0  0  0  0  0  0  0
  151.8363  137.6954  159.1870 C   0  0  0  0  0  0  0  0  0  0  0  0
  151.6203  136.8808  160.0840 O   0  0  0  0  0  0  0  0  0  0  0  0
  151.4717  137.4990  157.7928 N   0  0  0  0  0  0  0  0  0  0  0  0
  150.8770  136.4316  157.2034 C   0  0  0  0  0  0  0  0  0  0  0  0
  150.4618  135.3764  157.8840 N   0  0  0  0  0  0  0  0  0  0  0  0
  149.8459  134.2887  157.3260 C   0  0  0  0  0  0  0  0  0  0  0  0
  149.5782  133.3183  158.0320 O   0  0  0  0  0  0  0  0  0  0  0  0
  149.5573  134.3388  155.9340 N   0  0  0  0  0  0  0  0  0  0  0  0
  148.9303  133.1453  155.2119 C   0  0  1  0  0  0  0  0  0  0  0  0
  147.8329  133.5668  154.4499 O   0  0  0  0  0  0  0  0  0  0  0  0
  148.2271  133.8116  153.1101 C   0  0  2  0  0  0  0  0  0  0  0  0
  147.0164  133.9658  152.1777 C   0  0  0  0  0  0  0  0  0  0  0  0
  149.1509  132.6251  152.8456 C   0  0  2  0  0  0  0  0  0  0  0  0
  148.3998  131.4588  152.5489 O   0  0  0  0  0  0  0  0  0  0  0  0
  149.9061  132.5254  154.1708 C   0  0  2  0  0  0  0  0  0  0  0  0
  150.2922  131.1991  154.4806 O   0  0  0  0  0  0  0  0  0  0  0  0
  150.0421  135.4156  155.1994 C   0  0  0  0  0  0  0  0  0  0  0  0
  150.6661  136.4660  155.7746 C   0  0  0  0  0  0  0  0  0  0  0  0
  151.0901  137.5035  155.0322 F   0  0  0  0  0  0  0  0  0  0  0  0
  148.6201  132.4689  156.0093 H   0  0  0  0  0  0  0  0  0  0  0  0
  148.8107  134.7341  153.0898 H   0  0  0  0  0  0  0  0  0  0  0  0
  149.8258  132.8165  152.0106 H   0  0  0  0  0  0  0  0  0  0  0  0
  150.7990  133.1409  154.0668 H   0  0  0  0  0  0  0  0  0  0  0  0
  152.2257  145.2061  159.6232 H   0  0  0  0  0  0  0  0  0  0  0  0
  150.8373  144.1407  159.8242 H   0  0  0  0  0  0  0  0  0  0  0  0
  151.9027  143.9496  158.4315 H   0  0  0  0  0  0  0  0  0  0  0  0
  153.7837  143.2965  159.9724 H   0  0  0  0  0  0  0  0  0  0  0  0
  152.7251  143.4889  161.3495 H   0  0  0  0  0  0  0  0  0  0  0  0
  151.3669  141.6102  160.7195 H   0  0  0  0  0  0  0  0  0  0  0  0
  152.0285  141.5520  159.1053 H   0  0  0  0  0  0  0  0  0  0  0  0
  154.1971  140.7739  159.9376 H   0  0  0  0  0  0  0  0  0  0  0  0
  153.7218  141.0292  161.5975 H   0  0  0  0  0  0  0  0  0  0  0  0
  153.5890  138.6263  161.0558 H   0  0  0  0  0  0  0  0  0  0  0  0
  151.9706  139.2461  161.3650 H   0  0  0  0  0  0  0  0  0  0  0  0
  151.7135  138.2736  157.1922 H   0  0  0  0  0  0  0  0  0  0  0  0
  147.3335  134.0832  151.1413 H   0  0  0  0  0  0  0  0  0  0  0  0
  146.4333  134.8459  152.4489 H   0  0  0  0  0  0  0  0  0  0  0  0
  146.3508  133.1041  152.2317 H   0  0  0  0  0  0  0  0  0  0  0  0
  148.6266  131.1733  151.6769 H   0  0  0  0  0  0  0  0  0  0  0  0
  149.5674  130.6225  154.2932 H   0  0  0  0  0  0  0  0  0  0  0  0
  149.9361  135.4353  154.1251 H   0  0  0  0  0  0  0  0  0  0  0  0
  1  2  1  0  0  0  0
  1 30  1  0  0  0  0
  1 31  1  0  0  0  0
  1 32  1  0  0  0  0
  2  3  1  0  0  0  0
  2 33  1  0  0  0  0
  2 34  1  0  0  0  0
  3  4  1  0  0  0  0
  3 35  1  0  0  0  0
  3 36  1  0  0  0  0
  4  5  1  0  0  0  0
  4 37  1  0  0  0  0
  4 38  1  0  0  0  0
  5  6  1  0  0  0  0
  5 39  1  0  0  0  0
  5 40  1  0  0  0  0
  6  7  1  0  0  0  0
  7  8  2  0  0  0  0
  7  9  1  0  0  0  0
  9 10  1  0  0  0  0
  9 41  1  0  0  0  0
 10 24  1  0  0  0  0
 10 11  2  0  0  0  0
 11 12  1  0  0  0  0
 12 13  2  0  0  0  0
 12 14  1  0  0  0  0
 14 15  1  0  0  0  0
 14 23  1  0  0  0  0
 15 26  1  0  0  0  0
 15 21  1  0  0  0  0
 15 16  1  0  0  0  0
 16 17  1  0  0  0  0
 17 27  1  0  0  0  0
 17 18  1  0  0  0  0
 17 19  1  0  0  0  0
 18 42  1  0  0  0  0
 18 43  1  0  0  0  0
 18 44  1  0  0  0  0
 19 28  1  0  0  0  0
 19 20  1  0  0  0  0
 19 21  1  0  0  0  0
 20 45  1  0  0  0  0
 21 29  1  0  0  0  0
 21 22  1  0  0  0  0
 22 46  1  0  0  0  0
 23 24  2  0  0  0  0
 23 47  1  0  0  0  0
 24 25  1  0  0  0  0
M  END
> <s_m_source_file>
AV-unprocessed.smi

> <i_m_source_file_index>
40

> <i_lp_mmshare_version>
43012

> <i_f3d_flags>
0

> <s_epik_input>
W0NIM11bQ0gyXVtDSDJdW0NIMl1bQ0gyXU9DKD1PKVtOSF1jMW5jKD1PKW4oW2NIXWMxRilbQ0BASF0yT1tDQEhdKFtDSDNdKVtDQEBIXShbT0hdKVtDQEhdMltPSF0=

> <s_epik_cmdline>
J2VwaWtfcHl0aG9uJywgJy1waCcsICc3LjAnLCAnLXRuJywgJzgnLCAnLW1hJywgJzIwMCcsICctbWV0YWxfYmluZGluZycsICctaW1hZScsICc8aW5maWxlLm1hZT4nLCAnLW9tYWUnLCAnPG91dGZpbGUubWFlPic=

> <r_lp_tautomer_probability>
1

> <r_epik_Ionization_Penalty>
2.29506e-06

> <r_epik_Ionization_Penalty_Charging>
8.26867e-09

> <r_epik_Ionization_Penalty_Neutral>
2.2868e-06

> <r_epik_State_Penalty>
-0

> <r_epik_Charging_Adjusted_Penalty>
8.26867e-09

> <i_epik_Tot_Q>
0

> <i_epik_Tot_abs_Q>
0

> <r_epik_Metal_State_Penalty>
-0

> <b_epik_Metal_Only>
0

> <s_epik_Chemistry_Notes>
This compound has an ester and may undergo hydrolysis at high or low pH. This compound contains an acetal/aminal-like group ( X-CH(R)-Y where X, Y are N, S, or O) that may be acid/base labile, releasing an aldehyde.

> <s_lp_Force_Field>
OPLS_2005

> <r_lp_Energy>
41.2702

> <b_lp_Chiralities_Consistent>
1

> <s_lp_Variant>
AV-unprocessed.smi:40-14

> <Gold.Version>
5.8.1

> <Gold.Id.Protein>
6NUR|6NUR_protein|mol2

> <Gold.PLP.Fitness>
50.6862

> <Gold.PLP.PLP>
-39.2558

> <Gold.PLP.part.hbond>
-4.0000

> <Gold.PLP.part.metal>
0.0000

> <Gold.PLP.part.buried>
-3.2217

> <Gold.PLP.part.nonpolar>
-33.6093

> <Gold.PLP.part.repulsive>
0.1122

> <Gold.PLP.ligand.clash>
0.0000

> <Gold.PLP.ligand.torsion>
0.1648

> <Gold.PLP.Chemscore.Hbond>
3.0000

> <Gold.PLP.Chemscore.CHOScore>
0.8724

> <Gold.PLP.Chemscore.Metal>
0.0000

> <Gold.Chemscore.Hbonds>
donor molecule, donor type, donor heavy atom, donor atom, acceptor molecule, acceptor atom, score
      L1  H    20    45       P1 10747  0.83
      P1  H  6896  6907       L1     8  1.00
      P1  H  6896  6909       L1    13  0.65
      L1  C    23    47       P1  7948  0.67

> <Gold.PLP.Chemscore.Internal.Correction>
0.1431

> <Gold.Rescore>
     Score         DG    S(hbond)    S(metal)    S(lipo)     H(rot)  DE(clash)    DE(int)     intcor
     11.33     -13.13       2.24        0.00      82.37       3.70       0.11       1.69       ----

> <Gold.Chemscore.Fitness>
11.3268

> <Gold.Chemscore.DG>
-13.1294

> <Gold.Chemscore.ZeroCoef>
-5.4800

> <Gold.Chemscore.Hbond>
2.2373

> <Gold.Chemscore.Metal>
0.0000

> <Gold.Chemscore.Lipo>
82.3735

> <Gold.Chemscore.Internal_Hbond>
0.0000

> <Gold.Chemscore.DEClash>
0.1123

> <Gold.Chemscore.DEInternal>
1.6903

> <Gold.Chemscore.Rot>
3.6957

> <Gold.Chemscore.Internal.Correction>
   9.000000E+99

> <Gold.Chemscore.Hbonds>
donor molecule, donor type, donor heavy atom, donor atom, acceptor molecule, acceptor atom, score
      L1  H    20    45       P1 10747  0.81
      P1  H  6896  6907       L1     8  1.00
      P1  H  6896  6909       L1    13  0.06

> <Gold.Chemscore.Hbond.Weighted>
-7.4727

> <Gold.Chemscore.Metal.Weighted>
-0.0000

> <Gold.Chemscore.Lipo.Weighted>
-9.6377

> <Gold.Chemscore.Internal_Hbond.Weighted>
0.0000

> <Gold.Chemscore.DEClash.Weighted>
0.1123

> <Gold.Chemscore.DEInternal.Weighted>
1.6903

> <Gold.Chemscore.Rot.Weighted>
9.4610

> <Gold.Chemscore.Internal.Correction.Weighted>
   9.000000E+99

> <Gold.Protein.RotatedTorsions>
[ 6907 6896 6895 6894 ] final   -2.82 input  -60.11 | X-H torsion
[ 7974 7965 7964 7962 ] final  100.39 input  175.53 | X-H torsion
[ 8008 7997 7996 7995 ] final    0.08 input   59.86 | X-H torsion
[ 10167 10162 10161 10158 ] final  -77.37 input  -65.29 | X-H torsion
[ 10718 10713 10712 10709 ] final   28.33 input   66.30 | X-H torsion
[ 10763 10752 10751 10750 ] final  -70.25 input  -60.55 | X-H torsion
[ 11005 11000 10999 10996 ] final  124.39 input  -57.11 | X-H torsion

> <Gold.Protein.ActiveResidues>
 VAL166  LYS551  ARG553  GLY616  TRP617  ASP618  TYR619  PRO620  LYS621  CYS622 
 ASP623  PHE694  ASN695  SER759  ASP760  ASP761  ALA762  ILE779  LEU786  VAL792 
 PHE793  MET794  SER795  GLU796  ALA797  LYS798  CYS799  TRP800  GLU811  SER814 

> <Gold.Protein.RotatedAtoms>
  151.5237  135.1067  159.9884 H   0  0  0  0  0  0  0  0  0  0  0  0  # atno 6907 bound_to 6896
  152.4609  133.7816  159.6864 H   0  0  0  0  0  0  0  0  0  0  0  0  # atno 6908 bound_to 6896
  150.8571  133.7634  159.3030 H   0  0  0  0  0  0  0  0  0  0  0  0  # atno 6909 bound_to 6896
  145.3862  139.2371  143.3376 H   0  0  0  0  0  0  0  0  0  0  0  0  # atno 7974 bound_to 7965
  154.6639  140.2597  155.7079 H   0  0  0  0  0  0  0  0  0  0  0  0  # atno 8008 bound_to 7997
  156.2630  140.2843  156.1044 H   0  0  0  0  0  0  0  0  0  0  0  0  # atno 8009 bound_to 7997
  155.1267  140.0378  157.2754 H   0  0  0  0  0  0  0  0  0  0  0  0  # atno 8010 bound_to 7997
  140.4776  143.2410  151.8109 H   0  0  0  0  0  0  0  0  0  0  0  0  # atno 10167 bound_to 10162
  157.2320  130.7028  149.6318 H   0  0  0  0  0  0  0  0  0  0  0  0  # atno 10718 bound_to 10713
  154.4149  135.6000  153.5975 H   0  0  0  0  0  0  0  0  0  0  0  0  # atno 10763 bound_to 10752
  152.9791  135.5938  154.4025 H   0  0  0  0  0  0  0  0  0  0  0  0  # atno 10764 bound_to 10752
  154.3842  135.2841  155.2171 H   0  0  0  0  0  0  0  0  0  0  0  0  # atno 10765 bound_to 10752
  139.9356  134.9639  156.8402 H   0  0  0  0  0  0  0  0  0  0  0  0  # atno 11005 bound_to 11000
  146.2819  140.4538  142.8773 LP  0  0  0  0  0  0  0  0  0  0  0  0  # atno 17320 bound_to 7965
  144.8472  140.6947  143.6191 LP  0  0  0  0  0  0  0  0  0  0  0  0  # atno 17321 bound_to 7965
  139.4828  144.4814  151.9302 LP  0  0  0  0  0  0  0  0  0  0  0  0  # atno 17342 bound_to 10162
  140.3899  144.2629  150.5900 LP  0  0  0  0  0  0  0  0  0  0  0  0  # atno 17343 bound_to 10162
  155.9675  130.4486  150.5625 LP  0  0  0  0  0  0  0  0  0  0  0  0  # atno 17370 bound_to 10713
  157.3468  131.0726  151.1744 LP  0  0  0  0  0  0  0  0  0  0  0  0  # atno 17371 bound_to 10713
  140.6084  134.0106  155.7566 LP  0  0  0  0  0  0  0  0  0  0  0  0  # atno 17394 bound_to 11000
  141.0968  133.9830  157.3146 LP  0  0  0  0  0  0  0  0  0  0  0  0  # atno 17395 bound_to 11000

$$$$
