AV-unprocessed.smi:1184|AV-procd|sdf|4972|dock3
  -GOLD-   22720 3563D 1   1.00000     0.00000
 Structure written by MMmdl.
 43 44  0  0  0  0  0  0  0  0  2 V2000
  145.9459  131.9664  151.2105 C   0  0  0  0  0  0  0  0  0  0  0  0
  146.6441  131.1443  152.3037 C   0  0  0  0  0  0  0  0  0  0  0  0
  148.0267  131.6116  152.5589 N   0  3  2  0  0  0  0  0  0  0  0  0
  148.8577  130.6766  153.3544 C   0  0  0  0  0  0  0  0  0  0  0  0
  149.6383  131.5246  154.3701 C   0  0  0  0  0  0  0  0  0  0  0  0
  149.5062  132.9583  153.8588 C   0  0  2  0  0  0  0  0  0  0  0  0
  149.6986  134.0409  154.9393 C   0  0  0  0  0  0  0  0  0  0  0  0
  149.3552  135.3573  154.4129 N   0  0  0  0  0  0  0  0  0  0  0  0
  149.2784  136.4827  155.1403 C   0  0  0  0  0  0  0  0  0  0  0  0
  149.6707  136.5723  156.3034 O   0  0  0  0  0  0  0  0  0  0  0  0
  148.5724  137.6646  154.4804 C   0  0  0  0  0  0  0  0  0  0  0  0
  149.4361  138.8884  154.6584 C   0  0  0  0  0  0  0  0  0  0  0  0
  149.0256  140.2124  154.9871 C   0  0  0  0  0  0  0  0  0  0  0  0
  147.6345  140.7301  155.2162 C   0  0  0  0  0  0  0  0  0  0  0  0
  150.0552  141.0338  155.1046 N   0  0  0  0  0  0  0  0  0  0  0  0
  151.1929  140.2626  154.8492 O   0  0  0  0  0  0  0  0  0  0  0  0
  150.7989  138.9912  154.5850 C   0  0  0  0  0  0  0  0  0  0  0  0
  151.8799  138.0025  154.3067 C   0  0  0  0  0  0  0  0  0  0  0  0
  148.1265  132.9379  153.1984 C   0  0  0  0  0  0  0  0  0  0  0  0
  144.9593  131.5567  150.9924 H   0  0  0  0  0  0  0  0  0  0  0  0
  146.5195  131.9593  150.2831 H   0  0  0  0  0  0  0  0  0  0  0  0
  145.8077  133.0051  151.5122 H   0  0  0  0  0  0  0  0  0  0  0  0
  146.0646  131.1733  153.2275 H   0  0  0  0  0  0  0  0  0  0  0  0
  146.6823  130.1008  151.9886 H   0  0  0  0  0  0  0  0  0  0  0  0
  148.2531  129.9278  153.8686 H   0  0  0  0  0  0  0  0  0  0  0  0
  149.5336  130.1495  152.6805 H   0  0  0  0  0  0  0  0  0  0  0  0
  149.1720  131.4331  155.3521 H   0  0  0  0  0  0  0  0  0  0  0  0
  150.6781  131.2106  154.4679 H   0  0  0  0  0  0  0  0  0  0  0  0
  150.2509  133.1093  153.0753 H   0  0  0  0  0  0  0  0  0  0  0  0
  149.1103  133.8078  155.8285 H   0  0  0  0  0  0  0  0  0  0  0  0
  150.7408  134.0618  155.2588 H   0  0  0  0  0  0  0  0  0  0  0  0
  149.0261  135.3916  153.4588 H   0  0  0  0  0  0  0  0  0  0  0  0
  148.4057  137.4420  153.4260 H   0  0  0  0  0  0  0  0  0  0  0  0
  147.5856  137.7959  154.9259 H   0  0  0  0  0  0  0  0  0  0  0  0
  147.0569  140.0415  155.8328 H   0  0  0  0  0  0  0  0  0  0  0  0
  147.1056  140.8536  154.2713 H   0  0  0  0  0  0  0  0  0  0  0  0
  147.6413  141.6962  155.7221 H   0  0  0  0  0  0  0  0  0  0  0  0
  151.5187  137.2009  153.6622 H   0  0  0  0  0  0  0  0  0  0  0  0
  152.2377  137.5543  155.2336 H   0  0  0  0  0  0  0  0  0  0  0  0
  152.7262  138.4778  153.8104 H   0  0  0  0  0  0  0  0  0  0  0  0
  148.0020  133.7376  152.4680 H   0  0  0  0  0  0  0  0  0  0  0  0
  147.3476  133.0438  153.9557 H   0  0  0  0  0  0  0  0  0  0  0  0
  148.4856  131.6935  151.6627 H   0  0  0  0  0  0  0  0  0  0  0  0
  1  2  1  0  0  0  0
  1 20  1  0  0  0  0
  1 21  1  0  0  0  0
  1 22  1  0  0  0  0
  2  3  1  0  0  0  0
  2 23  1  0  0  0  0
  2 24  1  0  0  0  0
  3 19  1  0  0  0  0
  3  4  1  0  0  0  0
  3 43  1  0  0  0  0
  4  5  1  0  0  0  0
  4 25  1  0  0  0  0
  4 26  1  0  0  0  0
  5  6  1  0  0  0  0
  5 27  1  0  0  0  0
  5 28  1  0  0  0  0
  6  7  1  0  0  0  0
  6 19  1  0  0  0  0
  6 29  1  0  0  0  0
  7  8  1  0  0  0  0
  7 30  1  0  0  0  0
  7 31  1  0  0  0  0
  8  9  1  0  0  0  0
  8 32  1  0  0  0  0
  9 10  2  0  0  0  0
  9 11  1  0  0  0  0
 11 12  1  0  0  0  0
 11 33  1  0  0  0  0
 11 34  1  0  0  0  0
 12 17  2  0  0  0  0
 12 13  1  0  0  0  0
 13 14  1  0  0  0  0
 13 15  2  0  0  0  0
 14 35  1  0  0  0  0
 14 36  1  0  0  0  0
 14 37  1  0  0  0  0
 15 16  1  0  0  0  0
 16 17  1  0  0  0  0
 17 18  1  0  0  0  0
 18 38  1  0  0  0  0
 18 39  1  0  0  0  0
 18 40  1  0  0  0  0
 19 41  1  0  0  0  0
 19 42  1  0  0  0  0
M  CHG  1   3   1
M  END
> <s_m_source_file>
AV-unprocessed.smi

> <i_m_source_file_index>
1184

> <i_lp_mmshare_version>
43012

> <i_f3d_flags>
0

> <s_epik_input>
W0NIM11bQ0gyXU4xW0NIMl1bQ0gyXVtDQEhdKFtDSDJdMSlbQ0gyXVtOSF1DKD1PKVtDSDJdYzJjKFtDSDNdKW5vYzJbQ0gzXQ==

> <s_epik_cmdline>
J2VwaWtfcHl0aG9uJywgJy1waCcsICc3LjAnLCAnLXRuJywgJzgnLCAnLW1hJywgJzIwMCcsICctbWV0YWxfYmluZGluZycsICctaW1hZScsICc8aW5maWxlLm1hZT4nLCAnLW9tYWUnLCAnPG91dGZpbGUubWFlPic=

> <r_epik_Ionization_Penalty>
0.000590726

> <r_epik_Ionization_Penalty_Charging>
0.000590692

> <r_epik_Ionization_Penalty_Neutral>
3.44741e-08

> <r_epik_State_Penalty>
0.000371644

> <r_epik_Charging_Adjusted_Penalty>
0.000962336

> <i_epik_Tot_Q>
1

> <i_epik_Tot_abs_Q>
1

> <r_epik_Metal_State_Penalty>
-0

> <b_epik_Metal_Only>
0

> <s_lp_Force_Field>
OPLS_2005

> <r_lp_Energy>
20.136

> <b_lp_Chiralities_Consistent>
1

> <s_lp_Variant>
AV-unprocessed.smi:1184-4

> <Gold.Version>
5.8.1

> <Gold.Id.Protein>
6NUR|6NUR_protein|mol2

> <Gold.PLP.Fitness>
40.1716

> <Gold.PLP.PLP>
-32.1422

> <Gold.PLP.part.hbond>
-3.9357

> <Gold.PLP.part.metal>
0.0000

> <Gold.PLP.part.buried>
-3.5715

> <Gold.PLP.part.nonpolar>
-26.0803

> <Gold.PLP.part.repulsive>
0.2135

> <Gold.PLP.ligand.clash>
0.0000

> <Gold.PLP.ligand.torsion>
0.5018

> <Gold.PLP.Chemscore.Hbond>
2.9920

> <Gold.PLP.Chemscore.CHOScore>
0.0000

> <Gold.PLP.Chemscore.Metal>
0.0000

> <Gold.Chemscore.Hbonds>
donor molecule, donor type, donor heavy atom, donor atom, acceptor molecule, acceptor atom, score
      L1  H     3    43       P1 10747  0.91
      L1  H     8    32       P1  7948  0.99
      P1  H  7989  7998       L1    16  1.00

> <Gold.PLP.Chemscore.Internal.Correction>
0.0570

> <Gold.Rescore>
     Score         DG    S(hbond)    S(metal)    S(lipo)     H(rot)  DE(clash)    DE(int)     intcor
     16.40     -17.03       2.00        0.00      78.04       1.67       0.17       0.47       ----

> <Gold.Chemscore.Fitness>
16.3957

> <Gold.Chemscore.DG>
-17.0348

> <Gold.Chemscore.ZeroCoef>
-5.4800

> <Gold.Chemscore.Hbond>
2.0044

> <Gold.Chemscore.Metal>
0.0000

> <Gold.Chemscore.Lipo>
78.0441

> <Gold.Chemscore.Internal_Hbond>
0.0000

> <Gold.Chemscore.DEClash>
0.1716

> <Gold.Chemscore.DEInternal>
0.4675

> <Gold.Chemscore.Rot>
1.6684

> <Gold.Chemscore.Internal.Correction>
   9.000000E+99

> <Gold.Chemscore.Hbonds>
donor molecule, donor type, donor heavy atom, donor atom, acceptor molecule, acceptor atom, score
      L1  H     3    43       P1 10747  0.88
      L1  H     8    32       P1  7948  0.57
      P1  H  7989  7998       L1    16  0.14

> <Gold.Chemscore.Hbond.Weighted>
-6.6948

> <Gold.Chemscore.Metal.Weighted>
-0.0000

> <Gold.Chemscore.Lipo.Weighted>
-9.1312

> <Gold.Chemscore.Internal_Hbond.Weighted>
0.0000

> <Gold.Chemscore.DEClash.Weighted>
0.1716

> <Gold.Chemscore.DEInternal.Weighted>
0.4675

> <Gold.Chemscore.Rot.Weighted>
4.2712

> <Gold.Chemscore.Internal.Correction.Weighted>
   9.000000E+99

> <Gold.Protein.RotatedTorsions>
[ 6907 6896 6895 6894 ] final   -1.39 input  -60.11 | X-H torsion
[ 7974 7965 7964 7962 ] final  -40.93 input  175.53 | X-H torsion
[ 8008 7997 7996 7995 ] final   34.84 input   59.86 | X-H torsion
[ 10167 10162 10161 10158 ] final   32.31 input  -65.29 | X-H torsion
[ 10718 10713 10712 10709 ] final  -49.69 input   66.30 | X-H torsion
[ 10763 10752 10751 10750 ] final   97.04 input  -60.55 | X-H torsion
[ 11005 11000 10999 10996 ] final   36.19 input  -57.11 | X-H torsion

> <Gold.Protein.ActiveResidues>
 VAL166  LYS551  ARG553  GLY616  TRP617  ASP618  TYR619  PRO620  LYS621  CYS622 
 ASP623  PHE694  ASN695  SER759  ASP760  ASP761  ALA762  ILE779  LEU786  VAL792 
 PHE793  MET794  SER795  GLU796  ALA797  LYS798  CYS799  TRP800  GLU811  SER814 

> <Gold.Protein.RotatedAtoms>
  151.5469  135.1068  159.9939 H   0  0  0  0  0  0  0  0  0  0  0  0  # atno 6907 bound_to 6896
  152.4510  133.7624  159.6764 H   0  0  0  0  0  0  0  0  0  0  0  0  # atno 6908 bound_to 6896
  150.8438  133.7827  159.3075 H   0  0  0  0  0  0  0  0  0  0  0  0  # atno 6909 bound_to 6896
  146.0258  140.6793  142.9156 H   0  0  0  0  0  0  0  0  0  0  0  0  # atno 7974 bound_to 7965
  155.1614  140.3283  155.4410 H   0  0  0  0  0  0  0  0  0  0  0  0  # atno 8008 bound_to 7997
  156.2541  140.1959  156.6672 H   0  0  0  0  0  0  0  0  0  0  0  0  # atno 8009 bound_to 7997
  154.6402  140.0571  156.9823 H   0  0  0  0  0  0  0  0  0  0  0  0  # atno 8010 bound_to 7997
  140.4510  144.1048  150.6192 H   0  0  0  0  0  0  0  0  0  0  0  0  # atno 10167 bound_to 10162
  156.1870  130.4152  149.9425 H   0  0  0  0  0  0  0  0  0  0  0  0  # atno 10718 bound_to 10713
  153.2722  135.4197  155.0998 H   0  0  0  0  0  0  0  0  0  0  0  0  # atno 10763 bound_to 10752
  154.8460  135.3475  154.6228 H   0  0  0  0  0  0  0  0  0  0  0  0  # atno 10764 bound_to 10752
  153.6648  135.7046  153.5223 H   0  0  0  0  0  0  0  0  0  0  0  0  # atno 10765 bound_to 10752
  140.2351  134.3481  155.7948 H   0  0  0  0  0  0  0  0  0  0  0  0  # atno 11005 bound_to 11000
  144.7009  140.3647  143.7157 LP  0  0  0  0  0  0  0  0  0  0  0  0  # atno 17320 bound_to 7965
  145.7120  139.1687  143.2533 LP  0  0  0  0  0  0  0  0  0  0  0  0  # atno 17321 bound_to 7965
  140.4207  143.2613  151.9719 LP  0  0  0  0  0  0  0  0  0  0  0  0  # atno 17342 bound_to 10162
  139.4796  144.5833  151.7896 LP  0  0  0  0  0  0  0  0  0  0  0  0  # atno 17343 bound_to 10162
  156.7178  130.8995  151.3615 LP  0  0  0  0  0  0  0  0  0  0  0  0  # atno 17370 bound_to 10713
  157.6905  130.9228  150.0501 LP  0  0  0  0  0  0  0  0  0  0  0  0  # atno 17371 bound_to 10713
  141.2215  133.7267  156.8794 LP  0  0  0  0  0  0  0  0  0  0  0  0  # atno 17394 bound_to 11000
  140.1711  134.9099  157.2834 LP  0  0  0  0  0  0  0  0  0  0  0  0  # atno 17395 bound_to 11000

$$$$
