#       Name:                AV-unprocessed.smi:960
#       Creating user name   scv26
#       Creation time:       Fri Mar 27 02:18:05 2020


#       File generated by GOLD software.
#

@<TRIPOS>MOLECULE
AV-unprocessed.smi:960
    51    52     1
SMALL
NO_CHARGES


@<TRIPOS>ATOM
      1 ****        -3.7041  -4.4009   0.0875 C.2            1 S1                 0.0000
      2 ****        -2.4053  -4.0697   0.0006 C.2            1 S1                 0.0000
      3 ****        -1.3584  -4.6850   0.9125 C.3            1 S1                 0.0000
      4 ****        -1.8999  -3.0815  -1.0397 C.3            1 S1                 0.0000
      5 ****        -2.1379  -1.6623  -0.6641 N.4            1 S1                 1.0000
      6 ****        -1.8797  -0.7513  -1.8100 C.3            1 S1                 0.0000
      7 ****        -2.2477   0.7055  -1.4755 C.3            1 S1                 0.0000
      8 ****        -1.5200   1.2071  -0.2179 C.3            1 S1                 0.0000
      9 ****        -0.0923   1.3818  -0.4850 N.am           1 S1                 0.0000
     10 ****         0.7513   2.1107   0.2596 C.2            1 S1                 0.0000
     11 ****         0.4083   2.7369   1.2615 O.2            1 S1                 0.0000
     12 ****         1.9968   2.0798  -0.2382 N.am           1 S1                 0.0000
     13 ****         3.1482   2.6983   0.3107 C.2            1 S1                 0.0000
     14 ****         3.5414   2.8378   1.6745 C.2            1 S1                 0.0000
     15 ****         2.8805   2.3830   2.9460 C.3            1 S1                 0.0000
     16 ****         4.7140   3.4505   1.7446 N.2            1 S1                 0.0000
     17 ****         5.1229   3.6920   0.4242 O.3            1 S1                 0.0000
     18 ****         4.1749   3.2148  -0.4235 C.2            1 S1                 0.0000
     19 ****         4.4384   3.3588  -1.8842 C.3            1 S1                 0.0000
     20 ****        -1.7726   0.2232   0.9404 C.3            1 S1                 0.0000
     21 ****        -1.4165  -1.2256   0.5617 C.3            1 S1                 0.0000
     22 ****        -4.0546  -5.1126   0.8211 H              1 S1                 0.0000
     23 ****        -4.4380  -3.9651  -0.5747 H              1 S1                 0.0000
     24 ****        -0.6546  -5.2755   0.3255 H              1 S1                 0.0000
     25 ****        -1.8147  -5.3449   1.6511 H              1 S1                 0.0000
     26 ****        -0.7932  -3.9231   1.4471 H              1 S1                 0.0000
     27 ****        -0.8401  -3.2508  -1.2369 H              1 S1                 0.0000
     28 ****        -2.4245  -3.2918  -1.9732 H              1 S1                 0.0000
     29 ****        -0.8296  -0.8195  -2.0985 H              1 S1                 0.0000
     30 ****        -2.4631  -1.0744  -2.6731 H              1 S1                 0.0000
     31 ****        -2.0260   1.3532  -2.3247 H              1 S1                 0.0000
     32 ****        -3.3250   0.7729  -1.3175 H              1 S1                 0.0000
     33 ****        -1.9337   2.1816   0.0486 H              1 S1                 0.0000
     34 ****         0.2803   0.9158  -1.2992 H              1 S1                 0.0000
     35 ****         2.1190   1.6380  -1.1375 H              1 S1                 0.0000
     36 ****         2.3239   1.4585   2.7934 H              1 S1                 0.0000
     37 ****         2.1871   3.1374   3.3178 H              1 S1                 0.0000
     38 ****         3.6134   2.1927   3.7308 H              1 S1                 0.0000
     39 ****         3.7118   2.7978  -2.4717 H              1 S1                 0.0000
     40 ****         5.4327   2.9894  -2.1358 H              1 S1                 0.0000
     41 ****         4.3798   4.4049  -2.1844 H              1 S1                 0.0000
     42 ****        -1.2180   0.5229   1.8303 H              1 S1                 0.0000
     43 ****        -2.8263   0.2670   1.2190 H              1 S1                 0.0000
     44 ****        -1.6866  -1.8630   1.4021 H              1 S1                 0.0000
     45 ****        -0.3405  -1.3288   0.4125 H              1 S1                 0.0000
     46 ****        -3.1240  -1.5863  -0.4581 H              1 S1                 0.0000
     47 ****        -0.5459   2.7190   1.5600 LP             1 S1                 0.0000
     48 ****         1.0838   3.2638   1.7774 LP             1 S1                 0.0000
     49 ****         5.2114   3.6938   2.5773 LP             1 S1                 0.0000
     50 ****         5.9919   3.2282   0.2516 LP             1 S1                 0.0000
     51 ****         5.2361   4.6754   0.2822 LP             1 S1                 0.0000
@<TRIPOS>BOND
    1    1    2 2     
    2    1   22 1     
    3    1   23 1     
    4    2    3 1     
    5    2    4 1     
    6    3   24 1     
    7    3   25 1     
    8    3   26 1     
    9    4    5 1     
   10    4   27 1     
   11    4   28 1     
   12    5   21 1     
   13    5    6 1     
   14    5   46 1     
   15    6    7 1     
   16    6   29 1     
   17    6   30 1     
   18    7    8 1     
   19    7   31 1     
   20    7   32 1     
   21    8    9 1     
   22    8   20 1     
   23    8   33 1     
   24    9   10 am    
   25    9   34 1     
   26   10   11 2     
   27   10   12 am    
   28   12   13 1     
   29   12   35 1     
   30   13   18 2     
   31   13   14 1     
   32   14   15 1     
   33   14   16 2     
   34   15   36 1     
   35   15   37 1     
   36   15   38 1     
   37   16   17 1     
   38   17   18 1     
   39   18   19 1     
   40   19   39 1     
   41   19   40 1     
   42   19   41 1     
   43   20   21 1     
   44   20   42 1     
   45   20   43 1     
   46   21   44 1     
   47   21   45 1     
   48   11   47 1     
   49   11   48 1     
   50   16   49 1     
   51   17   50 1     
   52   17   51 1     
@<TRIPOS>SUBSTRUCTURE
      1 S1             1
@<TRIPOS>SET
LONE_PAIRS      STATIC     ATOMS    <user>   **** ""
5 47 48 49 50 51
DONOR_HYDROGENS      STATIC     ATOMS    <user>   **** ""
3 46 34 35
ATOM$BLUE        STATIC     ATOMS    COLORGROUP SYSTEM
5 47 48 49 50 51
ATOM$RED        STATIC     ATOMS    COLORGROUP SYSTEM
3 46 34 35
