AV-unprocessed.smi:2623|AV-procd|sdf|10231|dock8
  -GOLD-   2272014243D 1   1.00000     0.00000
 Structure written by MMmdl.
 41 43  0  0  0  0  0  0  0  0  2 V2000
  149.7452  140.9748  153.7204 O   0  0  0  0  0  0  0  0  0  0  0  0
  149.3237  140.5434  154.9949 C   0  0  0  0  0  0  0  0  0  0  0  0
  150.1315  141.1503  156.0938 C   0  0  0  0  0  0  0  0  0  0  0  0
  150.2950  142.4837  156.3221 N   0  3  0  0  0  0  0  0  0  0  0  0
  151.1264  142.6758  157.4263 C   0  0  0  0  0  0  0  0  0  0  0  0
  151.5775  143.8435  158.0341 C   0  0  0  0  0  0  0  0  0  0  0  0
  152.4216  143.6889  159.1532 C   0  0  0  0  0  0  0  0  0  0  0  0
  152.7851  142.4118  159.6276 C   0  0  0  0  0  0  0  0  0  0  0  0
  152.3215  141.2352  159.0031 C   0  0  0  0  0  0  0  0  0  0  0  0
  151.4884  141.3961  157.8956 C   0  0  0  0  0  0  0  0  0  0  0  0
  150.8513  140.4861  157.0430 N   0  0  0  0  0  0  0  0  0  0  0  0
  151.0291  139.0397  157.2495 C   0  0  0  0  0  0  0  0  0  0  0  0
  150.6923  138.5949  158.6868 C   0  0  2  0  0  0  0  0  0  0  0  0
  151.8611  138.1431  159.3404 O   0  0  0  0  0  0  0  0  0  0  0  0
  149.6447  137.4728  158.7229 C   0  0  0  0  0  0  0  0  0  0  0  0
  149.0672  137.4276  160.0211 O   0  0  0  0  0  0  0  0  0  0  0  0
  148.3916  136.2863  160.3961 C   0  0  0  0  0  0  0  0  0  0  0  0
  147.8298  136.2718  161.6898 C   0  0  0  0  0  0  0  0  0  0  0  0
  147.1217  135.1475  162.1558 C   0  0  0  0  0  0  0  0  0  0  0  0
  146.9683  134.0202  161.3279 C   0  0  0  0  0  0  0  0  0  0  0  0
  147.5246  134.0204  160.0354 C   0  0  0  0  0  0  0  0  0  0  0  0
  148.2327  135.1452  159.5690 C   0  0  0  0  0  0  0  0  0  0  0  0
  149.5614  140.2905  153.0949 H   0  0  0  0  0  0  0  0  0  0  0  0
  148.2737  140.8036  155.1302 H   0  0  0  0  0  0  0  0  0  0  0  0
  149.3932  139.4568  155.0448 H   0  0  0  0  0  0  0  0  0  0  0  0
  151.2996  144.8230  157.6731 H   0  0  0  0  0  0  0  0  0  0  0  0
  152.7973  144.5670  159.6584 H   0  0  0  0  0  0  0  0  0  0  0  0
  153.4328  142.3325  160.4889 H   0  0  0  0  0  0  0  0  0  0  0  0
  152.6039  140.2630  159.3790 H   0  0  0  0  0  0  0  0  0  0  0  0
  150.3743  138.5331  156.5395 H   0  0  0  0  0  0  0  0  0  0  0  0
  152.0446  138.7554  156.9734 H   0  0  0  0  0  0  0  0  0  0  0  0
  150.3134  139.4453  159.2546 H   0  0  0  0  0  0  0  0  0  0  0  0
  151.9041  138.5518  160.1912 H   0  0  0  0  0  0  0  0  0  0  0  0
  148.8803  137.6474  157.9635 H   0  0  0  0  0  0  0  0  0  0  0  0
  150.1250  136.5164  158.5079 H   0  0  0  0  0  0  0  0  0  0  0  0
  147.9425  137.1325  162.3326 H   0  0  0  0  0  0  0  0  0  0  0  0
  146.6964  135.1506  163.1486 H   0  0  0  0  0  0  0  0  0  0  0  0
  146.4249  133.1570  161.6835 H   0  0  0  0  0  0  0  0  0  0  0  0
  147.4086  133.1553  159.3993 H   0  0  0  0  0  0  0  0  0  0  0  0
  148.6453  135.1066  158.5722 H   0  0  0  0  0  0  0  0  0  0  0  0
  149.8706  143.2076  155.7565 H   0  0  0  0  0  0  0  0  0  0  0  0
  1  2  1  0  0  0  0
  1 23  1  0  0  0  0
  2  3  1  0  0  0  0
  2 24  1  0  0  0  0
  2 25  1  0  0  0  0
  3 11  1  0  0  0  0
  3  4  2  0  0  0  0
  4  5  1  0  0  0  0
  4 41  1  0  0  0  0
  5 10  2  0  0  0  0
  5  6  1  0  0  0  0
  6  7  2  0  0  0  0
  6 26  1  0  0  0  0
  7  8  1  0  0  0  0
  7 27  1  0  0  0  0
  8  9  2  0  0  0  0
  8 28  1  0  0  0  0
  9 10  1  0  0  0  0
  9 29  1  0  0  0  0
 10 11  1  0  0  0  0
 11 12  1  0  0  0  0
 12 13  1  0  0  0  0
 12 30  1  0  0  0  0
 12 31  1  0  0  0  0
 13 14  1  0  0  0  0
 13 15  1  0  0  0  0
 13 32  1  0  0  0  0
 14 33  1  0  0  0  0
 15 16  1  0  0  0  0
 15 34  1  0  0  0  0
 15 35  1  0  0  0  0
 16 17  1  0  0  0  0
 17 22  1  0  0  0  0
 17 18  2  0  0  0  0
 18 19  1  0  0  0  0
 18 36  1  0  0  0  0
 19 20  2  0  0  0  0
 19 37  1  0  0  0  0
 20 21  1  0  0  0  0
 20 38  1  0  0  0  0
 21 22  2  0  0  0  0
 21 39  1  0  0  0  0
 22 40  1  0  0  0  0
M  CHG  1   4   1
M  END
> <s_m_source_file>
AV-unprocessed.smi

> <i_m_source_file_index>
2623

> <i_lp_mmshare_version>
43012

> <i_f3d_flags>
0

> <s_epik_input>
W2NIXTFbY0hdW2NIXVtjSF1jKGMxMiluKGMobjIpW0NIMl1bT0hdKVtDSDJdW0NASF0oW09IXSlbQ0gyXU9jM1tjSF1bY0hdW2NIXVtjSF1bY0hdMw==

> <s_epik_cmdline>
J2VwaWtfcHl0aG9uJywgJy1waCcsICc3LjAnLCAnLXRuJywgJzgnLCAnLW1hJywgJzIwMCcsICctbWV0YWxfYmluZGluZycsICctaW1hZScsICc8aW5maWxlLm1hZT4nLCAnLW9tYWUnLCAnPG91dGZpbGUubWFlPic=

> <r_lp_tautomer_probability>
1

> <r_epik_Ionization_Penalty>
1.40416

> <r_epik_Ionization_Penalty_Charging>
1.4033

> <r_epik_Ionization_Penalty_Neutral>
0.000858184

> <r_epik_State_Penalty>
1.48564

> <r_epik_Charging_Adjusted_Penalty>
2.88894

> <i_epik_Tot_Q>
1

> <i_epik_Tot_abs_Q>
1

> <r_epik_Metal_State_Penalty>
5.52809

> <b_epik_Metal_Only>
0

> <s_lp_Force_Field>
OPLS_2005

> <r_lp_Energy>
17.9205

> <b_lp_Chiralities_Consistent>
1

> <s_lp_Variant>
AV-unprocessed.smi:2623-3

> <Gold.Version>
5.8.1

> <Gold.Id.Protein>
6NUR|6NUR_protein|mol2

> <Gold.PLP.Fitness>
58.2265

> <Gold.PLP.PLP>
-48.2472

> <Gold.PLP.part.hbond>
-5.5511

> <Gold.PLP.part.metal>
0.0000

> <Gold.PLP.part.buried>
-5.0022

> <Gold.PLP.part.nonpolar>
-38.2530

> <Gold.PLP.part.repulsive>
0.0899

> <Gold.PLP.ligand.clash>
0.0000

> <Gold.PLP.ligand.torsion>
1.0148

> <Gold.PLP.Chemscore.Hbond>
3.9632

> <Gold.PLP.Chemscore.CHOScore>
0.0000

> <Gold.PLP.Chemscore.Metal>
0.0000

> <Gold.Chemscore.Hbonds>
donor molecule, donor type, donor heavy atom, donor atom, acceptor molecule, acceptor atom, score
      L1  H     1    23       P1  7957  0.75
      L1  H     4    41       P1  8028  1.98
      P1  H  6931  6943       L1    16  0.29
      P1  H  7989  7998       L1     1  0.25
      P1  H  8011  8017       L1     1  0.67

> <Gold.PLP.Chemscore.Internal.Correction>
0.1192

> <Gold.Rescore>
     Score         DG    S(hbond)    S(metal)    S(lipo)     H(rot)  DE(clash)    DE(int)     intcor
     16.61     -17.79       1.83        0.00     121.51       3.13       0.03       1.15       ----

> <Gold.Chemscore.Fitness>
16.6120

> <Gold.Chemscore.DG>
-17.7875

> <Gold.Chemscore.ZeroCoef>
-5.4800

> <Gold.Chemscore.Hbond>
1.8278

> <Gold.Chemscore.Metal>
0.0000

> <Gold.Chemscore.Lipo>
121.5115

> <Gold.Chemscore.Internal_Hbond>
0.0000

> <Gold.Chemscore.DEClash>
0.0276

> <Gold.Chemscore.DEInternal>
1.1478

> <Gold.Chemscore.Rot>
3.1305

> <Gold.Chemscore.Internal.Correction>
   9.000000E+99

> <Gold.Chemscore.Hbonds>
donor molecule, donor type, donor heavy atom, donor atom, acceptor molecule, acceptor atom, score
      L1  H     1    23       P1  7957  0.75
      L1  H     4    41       P1  8028  0.93
      P1  H  6931  6943       L1    16  0.04
      P1  H  7989  7998       L1     1  0.02
      P1  H  8011  8017       L1     1  0.07

> <Gold.Chemscore.Hbond.Weighted>
-6.1048

> <Gold.Chemscore.Metal.Weighted>
-0.0000

> <Gold.Chemscore.Lipo.Weighted>
-14.2168

> <Gold.Chemscore.Internal_Hbond.Weighted>
0.0000

> <Gold.Chemscore.DEClash.Weighted>
0.0276

> <Gold.Chemscore.DEInternal.Weighted>
1.1478

> <Gold.Chemscore.Rot.Weighted>
8.0141

> <Gold.Chemscore.Internal.Correction.Weighted>
   9.000000E+99

> <Gold.Protein.RotatedTorsions>
[ 6907 6896 6895 6894 ] final   89.04 input  -60.11 | X-H torsion
[ 7974 7965 7964 7962 ] final  -30.46 input  175.53 | X-H torsion
[ 8008 7997 7996 7995 ] final -128.33 input   59.86 | X-H torsion
[ 10167 10162 10161 10158 ] final -174.31 input  -65.29 | X-H torsion
[ 10718 10713 10712 10709 ] final  129.96 input   66.30 | X-H torsion
[ 10763 10752 10751 10750 ] final   70.63 input  -60.55 | X-H torsion
[ 11005 11000 10999 10996 ] final  -37.26 input  -57.11 | X-H torsion

> <Gold.Protein.ActiveResidues>
 VAL166  LYS551  ARG553  GLY616  TRP617  ASP618  TYR619  PRO620  LYS621  CYS622 
 ASP623  PHE694  ASN695  SER759  ASP760  ASP761  ALA762  ILE779  LEU786  VAL792 
 PHE793  MET794  SER795  GLU796  ALA797  LYS798  CYS799  TRP800  GLU811  SER814 

> <Gold.Protein.RotatedAtoms>
  152.5432  134.2029  159.8718 H   0  0  0  0  0  0  0  0  0  0  0  0  # atno 6907 bound_to 6896
  151.2016  133.4600  159.2604 H   0  0  0  0  0  0  0  0  0  0  0  0  # atno 6908 bound_to 6896
  151.0983  134.9970  159.8492 H   0  0  0  0  0  0  0  0  0  0  0  0  # atno 6909 bound_to 6896
  146.1141  140.5543  142.8764 H   0  0  0  0  0  0  0  0  0  0  0  0  # atno 7974 bound_to 7965
  155.2609  140.0436  157.2997 H   0  0  0  0  0  0  0  0  0  0  0  0  # atno 8008 bound_to 7997
  154.5711  140.2374  155.8159 H   0  0  0  0  0  0  0  0  0  0  0  0  # atno 8009 bound_to 7997
  156.2123  140.2995  155.9769 H   0  0  0  0  0  0  0  0  0  0  0  0  # atno 8010 bound_to 7997
  139.5641  144.1799  152.1284 H   0  0  0  0  0  0  0  0  0  0  0  0  # atno 10167 bound_to 10162
  157.5106  131.1096  150.9298 H   0  0  0  0  0  0  0  0  0  0  0  0  # atno 10718 bound_to 10713
  153.0353  135.5166  154.7471 H   0  0  0  0  0  0  0  0  0  0  0  0  # atno 10763 bound_to 10752
  154.6453  135.2917  155.0056 H   0  0  0  0  0  0  0  0  0  0  0  0  # atno 10764 bound_to 10752
  154.0960  135.6643  153.4913 H   0  0  0  0  0  0  0  0  0  0  0  0  # atno 10765 bound_to 10752
  140.9938  133.6991  156.1897 H   0  0  0  0  0  0  0  0  0  0  0  0  # atno 11005 bound_to 11000
  144.7537  140.5256  143.6783 LP  0  0  0  0  0  0  0  0  0  0  0  0  # atno 17320 bound_to 7965
  145.5602  139.1479  143.3345 LP  0  0  0  0  0  0  0  0  0  0  0  0  # atno 17321 bound_to 7965
  140.1318  144.5281  150.6797 LP  0  0  0  0  0  0  0  0  0  0  0  0  # atno 17342 bound_to 10162
  140.6923  143.2383  151.5097 LP  0  0  0  0  0  0  0  0  0  0  0  0  # atno 17343 bound_to 10162
  156.9940  130.5574  149.5305 LP  0  0  0  0  0  0  0  0  0  0  0  0  # atno 17370 bound_to 10713
  156.0286  130.5379  150.8475 LP  0  0  0  0  0  0  0  0  0  0  0  0  # atno 17371 bound_to 10713
  140.6998  134.4576  157.5586 LP  0  0  0  0  0  0  0  0  0  0  0  0  # atno 17394 bound_to 11000
  139.9005  134.8568  156.1918 LP  0  0  0  0  0  0  0  0  0  0  0  0  # atno 17395 bound_to 11000

$$$$
